MODEL 1
REMARK VINA RESULT:    -5.753      0.000      0.000
REMARK INTER + INTRA:         -10.008
REMARK INTER:                  -8.612
REMARK INTRA:                  -1.396
REMARK UNBOUND:                -1.396
REMARK SMILES COC(=O)C1=CO[C@H](O[C@@H]2O[C@H](CO)[C@@H](O)[C@@H](O)[C@H]2O)[C@@H]2C(CO)=CC[C@@H]12
REMARK SMILES IDX 9 1 8 2 5 3 6 4 27 5 7 6 21 7 26 8 22 9 25 10 3 11 4 12 2 13
REMARK SMILES IDX 1 14 23 15 24 16 10 18 19 19 11 20 17 21 12 22 15 23 20 24
REMARK SMILES IDX 18 26 13 28 14 29 16 31
REMARK H PARENT 24 17 20 25 18 27 14 30 16 32
REMARK Flexibility Score: inf
ROOT
ATOM      1  O   UNL     1      31.343 -17.654  23.975  1.00  0.00    -0.310 OA
ENDROOT
BRANCH   1   2
ATOM      2  C   UNL     1      31.363 -18.936  24.651  1.00  0.00     0.316 C 
ATOM      3  C   UNL     1      28.884 -20.238  25.547  1.00  0.00     0.076 C 
ATOM      4  C   UNL     1      29.755 -19.691  26.453  1.00  0.00     0.202 C 
ATOM      5  C   UNL     1      29.175 -19.976  24.120  1.00  0.00     0.047 C 
ATOM      6  O   UNL     1      30.888 -18.930  26.008  1.00  0.00    -0.471 OA
ATOM      7  C   UNL     1      30.668 -20.046  23.843  1.00  0.00     0.094 C 
ATOM      8  C   UNL     1      28.612 -20.921  23.037  1.00  0.00     0.037 C 
ATOM      9  C   UNL     1      30.702 -20.034  22.343  1.00  0.00    -0.039 C 
ATOM     10  C   UNL     1      29.580 -20.635  21.900  1.00  0.00    -0.024 C 
BRANCH   3  11
ATOM     11  C   UNL     1      27.499 -20.445  26.016  1.00  0.00     0.337 C 
ATOM     12  O   UNL     1      26.788 -19.449  26.304  1.00  0.00    -0.246 OA
BRANCH  11  13
ATOM     13  O   UNL     1      26.966 -21.743  26.011  1.00  0.00    -0.466 OA
ATOM     14  C   UNL     1      27.797 -22.896  26.200  1.00  0.00     0.282 C 
ENDBRANCH  11  13
ENDBRANCH   3  11
BRANCH   9  15
ATOM     15  C   UNL     1      31.911 -19.703  21.500  1.00  0.00     0.187 C 
BRANCH  15  16
ATOM     16  O   UNL     1      32.094 -20.694  20.500  1.00  0.00    -0.392 OA
ATOM     17  H   UNL     1      31.532 -21.482  20.792  1.00  0.00     0.211 HD
ENDBRANCH  15  16
ENDBRANCH   9  15
ENDBRANCH   1   2
BRANCH   1  18
ATOM     18  C   UNL     1      30.154 -16.834  23.945  1.00  0.00     0.286 C 
ATOM     19  C   UNL     1      30.125 -15.639  24.954  1.00  0.00     0.202 C 
ATOM     20  O   UNL     1      29.811 -16.445  22.628  1.00  0.00    -0.341 OA
ATOM     21  C   UNL     1      28.870 -14.729  24.787  1.00  0.00     0.179 C 
ATOM     22  C   UNL     1      28.494 -15.877  22.620  1.00  0.00     0.178 C 
ATOM     23  C   UNL     1      28.570 -14.493  23.289  1.00  0.00     0.177 C 
BRANCH  19  24
ATOM     24  O   UNL     1      30.182 -16.151  26.268  1.00  0.00    -0.385 OA
ATOM     25  H   UNL     1      29.771 -15.501  26.894  1.00  0.00     0.211 HD
ENDBRANCH  19  24
BRANCH  21  26
ATOM     26  O   UNL     1      27.722 -15.170  25.488  1.00  0.00    -0.387 OA
ATOM     27  H   UNL     1      27.695 -14.772  26.383  1.00  0.00     0.211 HD
ENDBRANCH  21  26
BRANCH  22  28
ATOM     28  C   UNL     1      27.934 -15.857  21.213  1.00  0.00     0.191 C 
BRANCH  28  29
ATOM     29  O   UNL     1      28.321 -14.707  20.506  1.00  0.00    -0.394 OA
ATOM     30  H   UNL     1      29.014 -14.264  21.051  1.00  0.00     0.210 HD
ENDBRANCH  28  29
ENDBRANCH  22  28
BRANCH  23  31
ATOM     31  O   UNL     1      27.366 -13.784  23.185  1.00  0.00    -0.387 OA
ATOM     32  H   UNL     1      27.322 -13.372  22.291  1.00  0.00     0.211 HD
ENDBRANCH  23  31
ENDBRANCH   1  18
TORSDOF 11
ENDMDL
MODEL 2
REMARK VINA RESULT:    -5.734      1.537      2.638
REMARK INTER + INTRA:          -9.979
REMARK INTER:                  -9.292
REMARK INTRA:                  -0.687
REMARK UNBOUND:                -1.396
REMARK SMILES COC(=O)C1=CO[C@H](O[C@@H]2O[C@H](CO)[C@@H](O)[C@@H](O)[C@H]2O)[C@@H]2C(CO)=CC[C@@H]12
REMARK SMILES IDX 9 1 8 2 5 3 6 4 27 5 7 6 21 7 26 8 22 9 25 10 3 11 4 12 2 13
REMARK SMILES IDX 1 14 23 15 24 16 10 18 19 19 11 20 17 21 12 22 15 23 20 24
REMARK SMILES IDX 18 26 13 28 14 29 16 31
REMARK H PARENT 24 17 20 25 18 27 14 30 16 32
REMARK Flexibility Score: inf
ROOT
ATOM      1  O   UNL     1      29.437 -17.970  22.299  1.00  0.00    -0.310 OA
ENDROOT
BRANCH   1   2
ATOM      2  C   UNL     1      30.000 -18.578  23.489  1.00  0.00     0.316 C 
ATOM      3  C   UNL     1      28.395 -20.325  25.226  1.00  0.00     0.076 C 
ATOM      4  C   UNL     1      28.756 -19.069  25.637  1.00  0.00     0.202 C 
ATOM      5  C   UNL     1      28.701 -20.666  23.818  1.00  0.00     0.047 C 
ATOM      6  O   UNL     1      29.411 -18.166  24.735  1.00  0.00    -0.471 OA
ATOM      7  C   UNL     1      30.056 -20.114  23.404  1.00  0.00     0.094 C 
ATOM      8  C   UNL     1      28.825 -22.146  23.398  1.00  0.00     0.037 C 
ATOM      9  C   UNL     1      30.275 -20.798  22.086  1.00  0.00    -0.039 C 
ATOM     10  C   UNL     1      29.664 -21.998  22.138  1.00  0.00    -0.024 C 
BRANCH   3  11
ATOM     11  C   UNL     1      27.244 -20.936  25.923  1.00  0.00     0.337 C 
ATOM     12  O   UNL     1      26.170 -20.293  26.025  1.00  0.00    -0.246 OA
BRANCH  11  13
ATOM     13  O   UNL     1      27.338 -22.271  26.347  1.00  0.00    -0.466 OA
ATOM     14  C   UNL     1      28.478 -22.750  27.072  1.00  0.00     0.282 C 
ENDBRANCH  11  13
ENDBRANCH   3  11
BRANCH   9  15
ATOM     15  C   UNL     1      31.261 -20.359  21.029  1.00  0.00     0.187 C 
BRANCH  15  16
ATOM     16  O   UNL     1      31.614 -21.460  20.206  1.00  0.00    -0.392 OA
ATOM     17  H   UNL     1      31.653 -21.094  19.264  1.00  0.00     0.211 HD
ENDBRANCH  15  16
ENDBRANCH   9  15
ENDBRANCH   1   2
BRANCH   1  18
ATOM     18  C   UNL     1      29.442 -16.539  22.107  1.00  0.00     0.286 C 
ATOM     19  C   UNL     1      28.092 -15.911  21.630  1.00  0.00     0.202 C 
ATOM     20  O   UNL     1      30.001 -15.857  23.215  1.00  0.00    -0.341 OA
ATOM     21  C   UNL     1      28.135 -14.354  21.557  1.00  0.00     0.179 C 
ATOM     22  C   UNL     1      30.237 -14.486  22.868  1.00  0.00     0.178 C 
ATOM     23  C   UNL     1      28.874 -13.776  22.786  1.00  0.00     0.177 C 
BRANCH  19  24
ATOM     24  O   UNL     1      27.760 -16.447  20.367  1.00  0.00    -0.385 OA
ATOM     25  H   UNL     1      28.523 -16.324  19.746  1.00  0.00     0.211 HD
ENDBRANCH  19  24
BRANCH  21  26
ATOM     26  O   UNL     1      28.647 -13.833  20.345  1.00  0.00    -0.387 OA
ATOM     27  H   UNL     1      29.556 -13.492  20.477  1.00  0.00     0.211 HD
ENDBRANCH  21  26
BRANCH  22  28
ATOM     28  C   UNL     1      31.209 -13.853  23.841  1.00  0.00     0.191 C 
BRANCH  28  29
ATOM     29  O   UNL     1      30.559 -13.310  24.961  1.00  0.00    -0.394 OA
ATOM     30  H   UNL     1      29.989 -14.027  25.328  1.00  0.00     0.210 HD
ENDBRANCH  28  29
ENDBRANCH  22  28
BRANCH  23  31
ATOM     31  O   UNL     1      29.003 -12.391  22.614  1.00  0.00    -0.387 OA
ATOM     32  H   UNL     1      29.145 -12.207  21.657  1.00  0.00     0.211 HD
ENDBRANCH  23  31
ENDBRANCH   1  18
TORSDOF 11
ENDMDL
MODEL 3
REMARK VINA RESULT:    -5.611      3.523      6.062
REMARK INTER + INTRA:          -9.795
REMARK INTER:                  -8.316
REMARK INTRA:                  -1.479
REMARK UNBOUND:                -1.396
REMARK SMILES COC(=O)C1=CO[C@H](O[C@@H]2O[C@H](CO)[C@@H](O)[C@@H](O)[C@H]2O)[C@@H]2C(CO)=CC[C@@H]12
REMARK SMILES IDX 9 1 8 2 5 3 6 4 27 5 7 6 21 7 26 8 22 9 25 10 3 11 4 12 2 13
REMARK SMILES IDX 1 14 23 15 24 16 10 18 19 19 11 20 17 21 12 22 15 23 20 24
REMARK SMILES IDX 18 26 13 28 14 29 16 31
REMARK H PARENT 24 17 20 25 18 27 14 30 16 32
REMARK Flexibility Score: inf
ROOT
ATOM      1  O   UNL     1      30.427 -21.114  26.413  1.00  0.00    -0.310 OA
ENDROOT
BRANCH   1   2
ATOM      2  C   UNL     1      30.054 -20.792  25.049  1.00  0.00     0.316 C 
ATOM      3  C   UNL     1      31.316 -22.132  22.756  1.00  0.00     0.076 C 
ATOM      4  C   UNL     1      31.595 -20.821  23.042  1.00  0.00     0.202 C 
ATOM      5  C   UNL     1      30.504 -22.861  23.756  1.00  0.00     0.047 C 
ATOM      6  O   UNL     1      31.093 -20.213  24.241  1.00  0.00    -0.471 OA
ATOM      7  C   UNL     1      29.400 -21.976  24.315  1.00  0.00     0.094 C 
ATOM      8  C   UNL     1      29.713 -24.116  23.333  1.00  0.00     0.037 C 
ATOM      9  C   UNL     1      28.562 -22.970  25.064  1.00  0.00    -0.039 C 
ATOM     10  C   UNL     1      28.661 -24.155  24.430  1.00  0.00    -0.024 C 
BRANCH   3  11
ATOM     11  C   UNL     1      32.302 -22.841  21.914  1.00  0.00     0.337 C 
ATOM     12  O   UNL     1      32.537 -22.424  20.753  1.00  0.00    -0.246 OA
BRANCH  11  13
ATOM     13  O   UNL     1      33.044 -23.891  22.476  1.00  0.00    -0.466 OA
ATOM     14  C   UNL     1      34.370 -23.686  22.981  1.00  0.00     0.282 C 
ENDBRANCH  11  13
ENDBRANCH   3  11
BRANCH   9  15
ATOM     15  C   UNL     1      27.550 -22.628  26.133  1.00  0.00     0.187 C 
BRANCH  15  16
ATOM     16  O   UNL     1      28.098 -22.871  27.419  1.00  0.00    -0.392 OA
ATOM     17  H   UNL     1      28.822 -22.175  27.542  1.00  0.00     0.211 HD
ENDBRANCH  15  16
ENDBRANCH   9  15
ENDBRANCH   1   2
BRANCH   1  18
ATOM     18  C   UNL     1      30.229 -20.175  27.492  1.00  0.00     0.286 C 
ATOM     19  C   UNL     1      30.697 -20.653  28.905  1.00  0.00     0.202 C 
ATOM     20  O   UNL     1      30.707 -18.883  27.166  1.00  0.00    -0.341 OA
ATOM     21  C   UNL     1      30.564 -19.549  29.998  1.00  0.00     0.179 C 
ATOM     22  C   UNL     1      30.246 -17.938  28.140  1.00  0.00     0.178 C 
ATOM     23  C   UNL     1      31.025 -18.182  29.445  1.00  0.00     0.177 C 
BRANCH  19  24
ATOM     24  O   UNL     1      29.950 -21.793  29.272  1.00  0.00    -0.385 OA
ATOM     25  H   UNL     1      30.200 -22.071  30.190  1.00  0.00     0.211 HD
ENDBRANCH  19  24
BRANCH  21  26
ATOM     26  O   UNL     1      29.286 -19.466  30.601  1.00  0.00    -0.387 OA
ATOM     27  H   UNL     1      28.844 -18.629  30.351  1.00  0.00     0.211 HD
ENDBRANCH  21  26
BRANCH  22  28
ATOM     28  C   UNL     1      30.360 -16.526  27.604  1.00  0.00     0.191 C 
BRANCH  28  29
ATOM     29  O   UNL     1      31.615 -15.957  27.874  1.00  0.00    -0.394 OA
ATOM     30  H   UNL     1      31.766 -15.270  27.182  1.00  0.00     0.210 HD
ENDBRANCH  28  29
ENDBRANCH  22  28
BRANCH  23  31
ATOM     31  O   UNL     1      30.765 -17.202  30.412  1.00  0.00    -0.387 OA
ATOM     32  H   UNL     1      30.619 -17.648  31.277  1.00  0.00     0.211 HD
ENDBRANCH  23  31
ENDBRANCH   1  18
TORSDOF 11
ENDMDL
MODEL 4
REMARK VINA RESULT:    -5.586      2.028      4.037
REMARK INTER + INTRA:          -9.758
REMARK INTER:                  -8.852
REMARK INTRA:                  -0.906
REMARK UNBOUND:                -1.396
REMARK SMILES COC(=O)C1=CO[C@H](O[C@@H]2O[C@H](CO)[C@@H](O)[C@@H](O)[C@H]2O)[C@@H]2C(CO)=CC[C@@H]12
REMARK SMILES IDX 9 1 8 2 5 3 6 4 27 5 7 6 21 7 26 8 22 9 25 10 3 11 4 12 2 13
REMARK SMILES IDX 1 14 23 15 24 16 10 18 19 19 11 20 17 21 12 22 15 23 20 24
REMARK SMILES IDX 18 26 13 28 14 29 16 31
REMARK H PARENT 24 17 20 25 18 27 14 30 16 32
REMARK Flexibility Score: inf
ROOT
ATOM      1  O   UNL     1      29.790 -18.632  24.706  1.00  0.00    -0.310 OA
ENDROOT
BRANCH   1   2
ATOM      2  C   UNL     1      29.088 -19.430  23.721  1.00  0.00     0.316 C 
ATOM      3  C   UNL     1      29.881 -22.203  23.147  1.00  0.00     0.076 C 
ATOM      4  C   UNL     1      30.118 -21.204  22.239  1.00  0.00     0.202 C 
ATOM      5  C   UNL     1      29.380 -21.777  24.473  1.00  0.00     0.047 C 
ATOM      6  O   UNL     1      29.865 -19.833  22.580  1.00  0.00    -0.471 OA
ATOM      7  C   UNL     1      28.373 -20.645  24.339  1.00  0.00     0.094 C 
ATOM      8  C   UNL     1      28.609 -22.778  25.358  1.00  0.00     0.037 C 
ATOM      9  C   UNL     1      27.808 -20.573  25.728  1.00  0.00    -0.039 C 
ATOM     10  C   UNL     1      27.846 -21.814  26.253  1.00  0.00    -0.024 C 
BRANCH   3  11
ATOM     11  C   UNL     1      30.694 -23.427  22.999  1.00  0.00     0.337 C 
ATOM     12  O   UNL     1      30.123 -24.543  22.903  1.00  0.00    -0.246 OA
BRANCH  11  13
ATOM     13  O   UNL     1      32.083 -23.305  22.843  1.00  0.00    -0.466 OA
ATOM     14  C   UNL     1      32.748 -23.756  21.655  1.00  0.00     0.282 C 
ENDBRANCH  11  13
ENDBRANCH   3  11
BRANCH   9  15
ATOM     15  C   UNL     1      27.049 -19.400  26.302  1.00  0.00     0.187 C 
BRANCH  15  16
ATOM     16  O   UNL     1      25.731 -19.795  26.649  1.00  0.00    -0.392 OA
ATOM     17  H   UNL     1      25.834 -20.656  27.170  1.00  0.00     0.211 HD
ENDBRANCH  15  16
ENDBRANCH   9  15
ENDBRANCH   1   2
BRANCH   1  18
ATOM     18  C   UNL     1      29.505 -17.227  24.883  1.00  0.00     0.286 C 
ATOM     19  C   UNL     1      30.527 -16.429  25.757  1.00  0.00     0.202 C 
ATOM     20  O   UNL     1      29.219 -16.585  23.654  1.00  0.00    -0.341 OA
ATOM     21  C   UNL     1      30.225 -14.900  25.808  1.00  0.00     0.179 C 
ATOM     22  C   UNL     1      28.680 -15.281  23.905  1.00  0.00     0.178 C 
ATOM     23  C   UNL     1      29.823 -14.382  24.408  1.00  0.00     0.177 C 
BRANCH  19  24
ATOM     24  O   UNL     1      30.529 -16.968  27.062  1.00  0.00    -0.385 OA
ATOM     25  H   UNL     1      29.750 -16.616  27.566  1.00  0.00     0.211 HD
ENDBRANCH  19  24
BRANCH  21  26
ATOM     26  O   UNL     1      29.287 -14.516  26.797  1.00  0.00    -0.387 OA
ATOM     27  H   UNL     1      29.544 -14.879  27.670  1.00  0.00     0.211 HD
ENDBRANCH  21  26
BRANCH  22  28
ATOM     28  C   UNL     1      27.972 -14.754  22.674  1.00  0.00     0.191 C 
BRANCH  28  29
ATOM     29  O   UNL     1      27.187 -13.625  22.957  1.00  0.00    -0.394 OA
ATOM     30  H   UNL     1      27.704 -12.841  22.652  1.00  0.00     0.210 HD
ENDBRANCH  28  29
ENDBRANCH  22  28
BRANCH  23  31
ATOM     31  O   UNL     1      29.435 -13.041  24.527  1.00  0.00    -0.387 OA
ATOM     32  H   UNL     1      30.068 -12.487  24.015  1.00  0.00     0.211 HD
ENDBRANCH  23  31
ENDBRANCH   1  18
TORSDOF 11
ENDMDL
MODEL 5
REMARK VINA RESULT:    -5.367      1.944      6.808
REMARK INTER + INTRA:          -9.429
REMARK INTER:                  -8.144
REMARK INTRA:                  -1.286
REMARK UNBOUND:                -1.396
REMARK SMILES COC(=O)C1=CO[C@H](O[C@@H]2O[C@H](CO)[C@@H](O)[C@@H](O)[C@H]2O)[C@@H]2C(CO)=CC[C@@H]12
REMARK SMILES IDX 9 1 8 2 5 3 6 4 27 5 7 6 21 7 26 8 22 9 25 10 3 11 4 12 2 13
REMARK SMILES IDX 1 14 23 15 24 16 10 18 19 19 11 20 17 21 12 22 15 23 20 24
REMARK SMILES IDX 18 26 13 28 14 29 16 31
REMARK H PARENT 24 17 20 25 18 27 14 30 16 32
REMARK Flexibility Score: inf
ROOT
ATOM      1  O   UNL     1      28.899 -18.297  24.914  1.00  0.00    -0.310 OA
ENDROOT
BRANCH   1   2
ATOM      2  C   UNL     1      29.816 -17.639  24.004  1.00  0.00     0.316 C 
ATOM      3  C   UNL     1      29.059 -15.186  22.571  1.00  0.00     0.076 C 
ATOM      4  C   UNL     1      29.177 -16.378  21.905  1.00  0.00     0.202 C 
ATOM      5  C   UNL     1      29.155 -15.248  24.047  1.00  0.00     0.047 C 
ATOM      6  O   UNL     1      29.402 -17.598  22.628  1.00  0.00    -0.471 OA
ATOM      7  C   UNL     1      30.226 -16.236  24.484  1.00  0.00     0.094 C 
ATOM      8  C   UNL     1      29.551 -13.986  24.842  1.00  0.00     0.037 C 
ATOM      9  C   UNL     1      30.341 -15.933  25.949  1.00  0.00    -0.039 C 
ATOM     10  C   UNL     1      30.063 -14.625  26.123  1.00  0.00    -0.024 C 
BRANCH   3  11
ATOM     11  C   UNL     1      28.252 -14.143  21.905  1.00  0.00     0.337 C 
ATOM     12  O   UNL     1      27.191 -13.742  22.445  1.00  0.00    -0.246 OA
BRANCH  11  13
ATOM     13  O   UNL     1      28.754 -13.534  20.744  1.00  0.00    -0.466 OA
ATOM     14  C   UNL     1      29.871 -12.636  20.791  1.00  0.00     0.282 C 
ENDBRANCH  11  13
ENDBRANCH   3  11
BRANCH   9  15
ATOM     15  C   UNL     1      30.963 -16.843  26.982  1.00  0.00     0.187 C 
BRANCH  15  16
ATOM     16  O   UNL     1      29.960 -17.638  27.596  1.00  0.00    -0.392 OA
ATOM     17  H   UNL     1      29.931 -18.498  27.064  1.00  0.00     0.211 HD
ENDBRANCH  15  16
ENDBRANCH   9  15
ENDBRANCH   1   2
BRANCH   1  18
ATOM     18  C   UNL     1      29.008 -19.707  25.210  1.00  0.00     0.286 C 
ATOM     19  C   UNL     1      27.755 -20.362  25.875  1.00  0.00     0.202 C 
ATOM     20  O   UNL     1      29.487 -20.445  24.101  1.00  0.00    -0.341 OA
ATOM     21  C   UNL     1      27.896 -21.904  26.057  1.00  0.00     0.179 C 
ATOM     22  C   UNL     1      29.838 -21.771  24.520  1.00  0.00     0.178 C 
ATOM     23  C   UNL     1      28.535 -22.540  24.801  1.00  0.00     0.177 C 
BRANCH  19  24
ATOM     24  O   UNL     1      27.526 -19.745  27.124  1.00  0.00    -0.385 OA
ATOM     25  H   UNL     1      28.387 -19.422  27.495  1.00  0.00     0.211 HD
ENDBRANCH  19  24
BRANCH  21  26
ATOM     26  O   UNL     1      28.562 -22.301  27.241  1.00  0.00    -0.387 OA
ATOM     27  H   UNL     1      29.077 -23.120  27.086  1.00  0.00     0.211 HD
ENDBRANCH  21  26
BRANCH  22  28
ATOM     28  C   UNL     1      30.738 -22.430  23.495  1.00  0.00     0.191 C 
BRANCH  28  29
ATOM     29  O   UNL     1      30.018 -23.232  22.596  1.00  0.00    -0.394 OA
ATOM     30  H   UNL     1      29.431 -22.624  22.087  1.00  0.00     0.210 HD
ENDBRANCH  28  29
ENDBRANCH  22  28
BRANCH  23  31
ATOM     31  O   UNL     1      28.762 -23.898  25.059  1.00  0.00    -0.387 OA
ATOM     32  H   UNL     1      27.917 -24.387  24.929  1.00  0.00     0.211 HD
ENDBRANCH  23  31
ENDBRANCH   1  18
TORSDOF 11
ENDMDL
MODEL 6
REMARK VINA RESULT:    -5.352      1.941      4.218
REMARK INTER + INTRA:          -9.408
REMARK INTER:                  -8.004
REMARK INTRA:                  -1.404
REMARK UNBOUND:                -1.396
REMARK SMILES COC(=O)C1=CO[C@H](O[C@@H]2O[C@H](CO)[C@@H](O)[C@@H](O)[C@H]2O)[C@@H]2C(CO)=CC[C@@H]12
REMARK SMILES IDX 9 1 8 2 5 3 6 4 27 5 7 6 21 7 26 8 22 9 25 10 3 11 4 12 2 13
REMARK SMILES IDX 1 14 23 15 24 16 10 18 19 19 11 20 17 21 12 22 15 23 20 24
REMARK SMILES IDX 18 26 13 28 14 29 16 31
REMARK H PARENT 24 17 20 25 18 27 14 30 16 32
REMARK Flexibility Score: inf
ROOT
ATOM      1  O   UNL     1      29.826 -18.817  23.726  1.00  0.00    -0.310 OA
ENDROOT
BRANCH   1   2
ATOM      2  C   UNL     1      29.577 -19.683  22.590  1.00  0.00     0.316 C 
ATOM      3  C   UNL     1      31.510 -21.744  21.778  1.00  0.00     0.076 C 
ATOM      4  C   UNL     1      31.329 -20.617  21.021  1.00  0.00     0.202 C 
ATOM      5  C   UNL     1      30.822 -21.770  23.088  1.00  0.00     0.047 C 
ATOM      6  O   UNL     1      30.496 -19.547  21.493  1.00  0.00    -0.471 OA
ATOM      7  C   UNL     1      29.431 -21.162  22.989  1.00  0.00     0.094 C 
ATOM      8  C   UNL     1      30.524 -23.121  23.771  1.00  0.00     0.037 C 
ATOM      9  C   UNL     1      28.837 -21.541  24.313  1.00  0.00    -0.039 C 
ATOM     10  C   UNL     1      29.385 -22.712  24.692  1.00  0.00    -0.024 C 
BRANCH   3  11
ATOM     11  C   UNL     1      32.777 -22.475  21.570  1.00  0.00     0.337 C 
ATOM     12  O   UNL     1      33.863 -21.939  21.906  1.00  0.00    -0.246 OA
BRANCH  11  13
ATOM     13  O   UNL     1      32.729 -23.802  21.115  1.00  0.00    -0.466 OA
ATOM     14  C   UNL     1      33.789 -24.365  20.331  1.00  0.00     0.282 C 
ENDBRANCH  11  13
ENDBRANCH   3  11
BRANCH   9  15
ATOM     15  C   UNL     1      27.623 -20.896  24.942  1.00  0.00     0.187 C 
BRANCH  15  16
ATOM     16  O   UNL     1      28.026 -19.956  25.926  1.00  0.00    -0.392 OA
ATOM     17  H   UNL     1      27.525 -19.105  25.710  1.00  0.00     0.211 HD
ENDBRANCH  15  16
ENDBRANCH   9  15
ENDBRANCH   1   2
BRANCH   1  18
ATOM     18  C   UNL     1      29.249 -17.496  23.811  1.00  0.00     0.286 C 
ATOM     19  C   UNL     1      29.643 -16.661  25.072  1.00  0.00     0.202 C 
ATOM     20  O   UNL     1      29.406 -16.770  22.605  1.00  0.00    -0.341 OA
ATOM     21  C   UNL     1      29.082 -15.206  25.041  1.00  0.00     0.179 C 
ATOM     22  C   UNL     1      28.590 -15.592  22.641  1.00  0.00     0.178 C 
ATOM     23  C   UNL     1      29.231 -14.600  23.627  1.00  0.00     0.177 C 
BRANCH  19  24
ATOM     24  O   UNL     1      29.183 -17.334  26.225  1.00  0.00    -0.385 OA
ATOM     25  H   UNL     1      29.946 -17.503  26.835  1.00  0.00     0.211 HD
ENDBRANCH  19  24
BRANCH  21  26
ATOM     26  O   UNL     1      27.761 -15.071  25.532  1.00  0.00    -0.387 OA
ATOM     27  H   UNL     1      27.299 -15.935  25.512  1.00  0.00     0.211 HD
ENDBRANCH  21  26
BRANCH  22  28
ATOM     28  C   UNL     1      28.394 -15.040  21.244  1.00  0.00     0.191 C 
BRANCH  28  29
ATOM     29  O   UNL     1      27.445 -14.007  21.213  1.00  0.00    -0.394 OA
ATOM     30  H   UNL     1      26.860 -14.187  20.438  1.00  0.00     0.210 HD
ENDBRANCH  28  29
ENDBRANCH  22  28
BRANCH  23  31
ATOM     31  O   UNL     1      28.600 -13.350  23.612  1.00  0.00    -0.387 OA
ATOM     32  H   UNL     1      29.285 -12.652  23.726  1.00  0.00     0.211 HD
ENDBRANCH  23  31
ENDBRANCH   1  18
TORSDOF 11
ENDMDL
MODEL 7
REMARK VINA RESULT:    -5.312      2.394      6.879
REMARK INTER + INTRA:          -9.347
REMARK INTER:                  -7.840
REMARK INTRA:                  -1.507
REMARK UNBOUND:                -1.396
REMARK SMILES COC(=O)C1=CO[C@H](O[C@@H]2O[C@H](CO)[C@@H](O)[C@@H](O)[C@H]2O)[C@@H]2C(CO)=CC[C@@H]12
REMARK SMILES IDX 9 1 8 2 5 3 6 4 27 5 7 6 21 7 26 8 22 9 25 10 3 11 4 12 2 13
REMARK SMILES IDX 1 14 23 15 24 16 10 18 19 19 11 20 17 21 12 22 15 23 20 24
REMARK SMILES IDX 18 26 13 28 14 29 16 31
REMARK H PARENT 24 17 20 25 18 27 14 30 16 32
REMARK Flexibility Score: inf
ROOT
ATOM      1  O   UNL     1      29.233 -17.556  24.779  1.00  0.00    -0.310 OA
ENDROOT
BRANCH   1   2
ATOM      2  C   UNL     1      28.476 -16.320  24.824  1.00  0.00     0.316 C 
ATOM      3  C   UNL     1      29.802 -13.719  25.171  1.00  0.00     0.076 C 
ATOM      4  C   UNL     1      29.061 -14.268  26.185  1.00  0.00     0.202 C 
ATOM      5  C   UNL     1      30.036 -14.581  23.991  1.00  0.00     0.047 C 
ATOM      6  O   UNL     1      28.538 -15.600  26.067  1.00  0.00    -0.471 OA
ATOM      7  C   UNL     1      28.791 -15.384  23.644  1.00  0.00     0.094 C 
ATOM      8  C   UNL     1      30.381 -13.939  22.630  1.00  0.00     0.037 C 
ATOM      9  C   UNL     1      29.154 -15.945  22.301  1.00  0.00    -0.039 C 
ATOM     10  C   UNL     1      29.968 -15.061  21.691  1.00  0.00    -0.024 C 
BRANCH   3  11
ATOM     11  C   UNL     1      30.781 -12.685  25.564  1.00  0.00     0.337 C 
ATOM     12  O   UNL     1      31.970 -13.017  25.803  1.00  0.00    -0.246 OA
BRANCH  11  13
ATOM     13  O   UNL     1      30.393 -11.337  25.540  1.00  0.00    -0.466 OA
ATOM     14  C   UNL     1      30.226 -10.583  26.748  1.00  0.00     0.282 C 
ENDBRANCH  11  13
ENDBRANCH   3  11
BRANCH   9  15
ATOM     15  C   UNL     1      28.477 -17.120  21.634  1.00  0.00     0.187 C 
BRANCH  15  16
ATOM     16  O   UNL     1      29.113 -18.329  22.017  1.00  0.00    -0.392 OA
ATOM     17  H   UNL     1      29.460 -18.170  22.954  1.00  0.00     0.211 HD
ENDBRANCH  15  16
ENDBRANCH   9  15
ENDBRANCH   1   2
BRANCH   1  18
ATOM     18  C   UNL     1      28.977 -18.634  25.704  1.00  0.00     0.286 C 
ATOM     19  C   UNL     1      28.977 -20.072  25.091  1.00  0.00     0.202 C 
ATOM     20  O   UNL     1      29.779 -18.537  26.867  1.00  0.00    -0.341 OA
ATOM     21  C   UNL     1      28.813 -21.193  26.162  1.00  0.00     0.179 C 
ATOM     22  C   UNL     1      29.301 -19.453  27.861  1.00  0.00     0.178 C 
ATOM     23  C   UNL     1      29.669 -20.877  27.410  1.00  0.00     0.177 C 
BRANCH  19  24
ATOM     24  O   UNL     1      27.942 -20.160  24.135  1.00  0.00    -0.385 OA
ATOM     25  H   UNL     1      28.319 -20.029  23.227  1.00  0.00     0.211 HD
ENDBRANCH  19  24
BRANCH  21  26
ATOM     26  O   UNL     1      27.472 -21.489  26.508  1.00  0.00    -0.387 OA
ATOM     27  H   UNL     1      26.881 -20.755  26.240  1.00  0.00     0.211 HD
ENDBRANCH  21  26
BRANCH  22  28
ATOM     28  C   UNL     1      29.833 -19.077  29.228  1.00  0.00     0.191 C 
BRANCH  28  29
ATOM     29  O   UNL     1      29.146 -19.733  30.262  1.00  0.00    -0.394 OA
ATOM     30  H   UNL     1      29.252 -19.173  31.068  1.00  0.00     0.210 HD
ENDBRANCH  28  29
ENDBRANCH  22  28
BRANCH  23  31
ATOM     31  O   UNL     1      29.391 -21.837  28.393  1.00  0.00    -0.387 OA
ATOM     32  H   UNL     1      29.893 -21.603  29.207  1.00  0.00     0.211 HD
ENDBRANCH  23  31
ENDBRANCH   1  18
TORSDOF 11
ENDMDL
MODEL 8
REMARK VINA RESULT:    -5.148      2.129      6.947
REMARK INTER + INTRA:          -9.103
REMARK INTER:                  -7.533
REMARK INTRA:                  -1.570
REMARK UNBOUND:                -1.396
REMARK SMILES COC(=O)C1=CO[C@H](O[C@@H]2O[C@H](CO)[C@@H](O)[C@@H](O)[C@H]2O)[C@@H]2C(CO)=CC[C@@H]12
REMARK SMILES IDX 9 1 8 2 5 3 6 4 27 5 7 6 21 7 26 8 22 9 25 10 3 11 4 12 2 13
REMARK SMILES IDX 1 14 23 15 24 16 10 18 19 19 11 20 17 21 12 22 15 23 20 24
REMARK SMILES IDX 18 26 13 28 14 29 16 31
REMARK H PARENT 24 17 20 25 18 27 14 30 16 32
REMARK Flexibility Score: inf
ROOT
ATOM      1  O   UNL     1      29.116 -18.661  24.501  1.00  0.00    -0.310 OA
ENDROOT
BRANCH   1   2
ATOM      2  C   UNL     1      30.353 -17.966  24.205  1.00  0.00     0.316 C 
ATOM      3  C   UNL     1      30.395 -15.081  23.638  1.00  0.00     0.076 C 
ATOM      4  C   UNL     1      30.612 -15.995  22.639  1.00  0.00     0.202 C 
ATOM      5  C   UNL     1      29.968 -15.630  24.945  1.00  0.00     0.047 C 
ATOM      6  O   UNL     1      30.446 -17.399  22.887  1.00  0.00    -0.471 OA
ATOM      7  C   UNL     1      30.715 -16.914  25.269  1.00  0.00     0.094 C 
ATOM      8  C   UNL     1      30.193 -14.806  26.231  1.00  0.00     0.037 C 
ATOM      9  C   UNL     1      30.347 -17.127  26.708  1.00  0.00    -0.039 C 
ATOM     10  C   UNL     1      30.163 -15.916  27.270  1.00  0.00    -0.024 C 
BRANCH   3  11
ATOM     11  C   UNL     1      29.979 -13.730  23.208  1.00  0.00     0.337 C 
ATOM     12  O   UNL     1      30.777 -13.018  22.547  1.00  0.00    -0.246 OA
BRANCH  11  13
ATOM     13  O   UNL     1      28.657 -13.320  23.440  1.00  0.00    -0.466 OA
ATOM     14  C   UNL     1      27.559 -13.875  22.704  1.00  0.00     0.282 C 
ENDBRANCH  11  13
ENDBRANCH   3  11
BRANCH   9  15
ATOM     15  C   UNL     1      30.477 -18.432  27.459  1.00  0.00     0.187 C 
BRANCH  15  16
ATOM     16  O   UNL     1      29.200 -19.030  27.619  1.00  0.00    -0.392 OA
ATOM     17  H   UNL     1      29.367 -19.902  28.103  1.00  0.00     0.211 HD
ENDBRANCH  15  16
ENDBRANCH   9  15
ENDBRANCH   1   2
BRANCH   1  18
ATOM     18  C   UNL     1      28.988 -20.088  24.318  1.00  0.00     0.286 C 
ATOM     19  C   UNL     1      29.923 -20.723  23.238  1.00  0.00     0.202 C 
ATOM     20  O   UNL     1      29.022 -20.787  25.549  1.00  0.00    -0.341 OA
ATOM     21  C   UNL     1      29.818 -22.277  23.176  1.00  0.00     0.179 C 
ATOM     22  C   UNL     1      28.619 -22.147  25.344  1.00  0.00     0.178 C 
ATOM     23  C   UNL     1      29.756 -22.872  24.601  1.00  0.00     0.177 C 
BRANCH  19  24
ATOM     24  O   UNL     1      29.611 -20.164  21.980  1.00  0.00    -0.385 OA
ATOM     25  H   UNL     1      29.270 -20.875  21.378  1.00  0.00     0.211 HD
ENDBRANCH  19  24
BRANCH  21  26
ATOM     26  O   UNL     1      28.770 -22.766  22.358  1.00  0.00    -0.387 OA
ATOM     27  H   UNL     1      28.626 -22.169  21.595  1.00  0.00     0.211 HD
ENDBRANCH  21  26
BRANCH  22  28
ATOM     28  C   UNL     1      28.228 -22.788  26.659  1.00  0.00     0.191 C 
BRANCH  28  29
ATOM     29  O   UNL     1      28.744 -22.089  27.762  1.00  0.00    -0.394 OA
ATOM     30  H   UNL     1      28.085 -21.388  27.982  1.00  0.00     0.210 HD
ENDBRANCH  28  29
ENDBRANCH  22  28
BRANCH  23  31
ATOM     31  O   UNL     1      29.530 -24.251  24.497  1.00  0.00    -0.387 OA
ATOM     32  H   UNL     1      30.400 -24.711  24.503  1.00  0.00     0.211 HD
ENDBRANCH  23  31
ENDBRANCH   1  18
TORSDOF 11
ENDMDL
MODEL 9
REMARK VINA RESULT:    -5.132      5.870     10.458
REMARK INTER + INTRA:          -9.078
REMARK INTER:                  -7.802
REMARK INTRA:                  -1.276
REMARK UNBOUND:                -1.396
REMARK SMILES COC(=O)C1=CO[C@H](O[C@@H]2O[C@H](CO)[C@@H](O)[C@@H](O)[C@H]2O)[C@@H]2C(CO)=CC[C@@H]12
REMARK SMILES IDX 9 1 8 2 5 3 6 4 27 5 7 6 21 7 26 8 22 9 25 10 3 11 4 12 2 13
REMARK SMILES IDX 1 14 23 15 24 16 10 18 19 19 11 20 17 21 12 22 15 23 20 24
REMARK SMILES IDX 18 26 13 28 14 29 16 31
REMARK H PARENT 24 17 20 25 18 27 14 30 16 32
REMARK Flexibility Score: inf
ROOT
ATOM      1  O   UNL     1      30.413 -11.448  20.989  1.00  0.00    -0.310 OA
ENDROOT
BRANCH   1   2
ATOM      2  C   UNL     1      31.814 -11.124  20.800  1.00  0.00     0.316 C 
ATOM      3  C   UNL     1      32.742  -9.650  18.431  1.00  0.00     0.076 C 
ATOM      4  C   UNL     1      33.019 -10.984  18.579  1.00  0.00     0.202 C 
ATOM      5  C   UNL     1      31.814  -9.061  19.422  1.00  0.00     0.047 C 
ATOM      6  O   UNL     1      32.443 -11.733  19.659  1.00  0.00    -0.471 OA
ATOM      7  C   UNL     1      32.082  -9.609  20.816  1.00  0.00     0.094 C 
ATOM      8  C   UNL     1      31.832  -7.539  19.677  1.00  0.00     0.037 C 
ATOM      9  C   UNL     1      31.252  -8.695  21.668  1.00  0.00    -0.039 C 
ATOM     10  C   UNL     1      31.211  -7.491  21.064  1.00  0.00    -0.024 C 
BRANCH   3  11
ATOM     11  C   UNL     1      32.827  -9.114  17.057  1.00  0.00     0.337 C 
ATOM     12  O   UNL     1      32.039  -9.541  16.176  1.00  0.00    -0.246 OA
BRANCH  11  13
ATOM     13  O   UNL     1      33.704  -8.050  16.796  1.00  0.00    -0.466 OA
ATOM     14  C   UNL     1      33.281  -6.890  16.069  1.00  0.00     0.282 C 
ENDBRANCH  11  13
ENDBRANCH   3  11
BRANCH   9  15
ATOM     15  C   UNL     1      30.817  -8.981  23.087  1.00  0.00     0.187 C 
BRANCH  15  16
ATOM     16  O   UNL     1      29.547  -9.615  23.089  1.00  0.00    -0.392 OA
ATOM     17  H   UNL     1      29.714 -10.557  23.417  1.00  0.00     0.211 HD
ENDBRANCH  15  16
ENDBRANCH   9  15
ENDBRANCH   1   2
BRANCH   1  18
ATOM     18  C   UNL     1      30.001 -12.674  21.631  1.00  0.00     0.286 C 
ATOM     19  C   UNL     1      29.169 -13.659  20.747  1.00  0.00     0.202 C 
ATOM     20  O   UNL     1      31.075 -13.311  22.297  1.00  0.00    -0.341 OA
ATOM     21  C   UNL     1      28.860 -15.010  21.463  1.00  0.00     0.179 C 
ATOM     22  C   UNL     1      30.569 -14.357  23.137  1.00  0.00     0.178 C 
ATOM     23  C   UNL     1      30.104 -15.511  22.232  1.00  0.00     0.177 C 
BRANCH  19  24
ATOM     24  O   UNL     1      27.967 -13.026  20.365  1.00  0.00    -0.385 OA
ATOM     25  H   UNL     1      27.232 -13.328  20.957  1.00  0.00     0.211 HD
ENDBRANCH  19  24
BRANCH  21  26
ATOM     26  O   UNL     1      27.708 -14.992  22.285  1.00  0.00    -0.387 OA
ATOM     27  H   UNL     1      27.554 -14.091  22.638  1.00  0.00     0.211 HD
ENDBRANCH  21  26
BRANCH  22  28
ATOM     28  C   UNL     1      31.605 -14.756  24.168  1.00  0.00     0.191 C 
BRANCH  28  29
ATOM     29  O   UNL     1      31.050 -15.521  25.207  1.00  0.00    -0.394 OA
ATOM     30  H   UNL     1      31.791 -15.736  25.822  1.00  0.00     0.210 HD
ENDBRANCH  28  29
ENDBRANCH  22  28
BRANCH  23  31
ATOM     31  O   UNL     1      29.744 -16.651  22.962  1.00  0.00    -0.387 OA
ATOM     32  H   UNL     1      30.543 -16.990  23.425  1.00  0.00     0.211 HD
ENDBRANCH  23  31
ENDBRANCH   1  18
TORSDOF 11
ENDMDL
