MODEL 1
REMARK VINA RESULT:    -3.943      0.000      0.000
REMARK INTER + INTRA:          -9.826
REMARK INTER:                  -7.170
REMARK INTRA:                  -2.656
REMARK UNBOUND:                -2.656
REMARK SMILES CCCCCCCCCCCCCC[C@H](C)C(=O)[O-]
REMARK SMILES IDX 9 1 10 2 11 3 12 4 13 5 14 6 15 7 16 8 17 9 18 10 19 11 8 12
REMARK SMILES IDX 7 13 6 14 5 15 4 16 3 17 2 18 1 19
REMARK H PARENT
REMARK Flexibility Score: inf
ROOT
ATOM      1  C   UNL     1      13.156 -34.668  -1.542  1.00  0.00     0.000 C 
ENDROOT
BRANCH   1   2
ATOM      2  C   UNL     1      13.795 -35.139  -0.223  1.00  0.00     0.000 C 
BRANCH   2   3
ATOM      3  C   UNL     1      13.789 -36.667  -0.069  1.00  0.00     0.000 C 
BRANCH   3   4
ATOM      4  C   UNL     1      14.627 -37.100   1.140  1.00  0.00     0.000 C 
BRANCH   4   5
ATOM      5  C   UNL     1      15.678 -36.035   1.491  1.00  0.00     0.001 C 
BRANCH   5   6
ATOM      6  C   UNL     1      17.127 -36.540   1.355  1.00  0.00     0.009 C 
BRANCH   6   7
ATOM      7  C   UNL     1      17.296 -38.053   1.637  1.00  0.00     0.032 C 
ATOM      8  C   UNL     1      17.380 -38.312   3.145  1.00  0.00     0.014 C 
BRANCH   7   9
ATOM      9  C   UNL     1      18.524 -38.614   0.974  1.00  0.00     0.044 C 
ATOM     10  O   UNL     1      19.549 -37.896   0.833  1.00  0.00    -0.550 OA
ATOM     11  O   UNL     1      18.526 -39.913   0.479  1.00  0.00    -0.550 OA
ENDBRANCH   7   9
ENDBRANCH   6   7
ENDBRANCH   5   6
ENDBRANCH   4   5
ENDBRANCH   3   4
ENDBRANCH   2   3
ENDBRANCH   1   2
BRANCH   1  12
ATOM     12  C   UNL     1      13.880 -33.498  -2.238  1.00  0.00     0.000 C 
BRANCH  12  13
ATOM     13  C   UNL     1      15.116 -32.960  -1.495  1.00  0.00    -0.000 C 
BRANCH  13  14
ATOM     14  C   UNL     1      16.430 -33.242  -2.238  1.00  0.00    -0.000 C 
BRANCH  14  15
ATOM     15  C   UNL     1      17.381 -34.079  -1.375  1.00  0.00    -0.000 C 
BRANCH  15  16
ATOM     16  C   UNL     1      17.763 -35.385  -2.086  1.00  0.00    -0.000 C 
BRANCH  16  17
ATOM     17  C   UNL     1      16.591 -36.376  -2.173  1.00  0.00    -0.000 C 
BRANCH  17  18
ATOM     18  C   UNL     1      17.055 -37.825  -2.382  1.00  0.00    -0.003 C 
ATOM     19  C   UNL     1      16.003 -38.815  -1.890  1.00  0.00     0.004 C 
ENDBRANCH  17  18
ENDBRANCH  16  17
ENDBRANCH  15  16
ENDBRANCH  14  15
ENDBRANCH  13  14
ENDBRANCH  12  13
ENDBRANCH   1  12
TORSDOF 14
ENDMDL
MODEL 2
REMARK VINA RESULT:    -3.820      1.666      3.235
REMARK INTER + INTRA:          -9.603
REMARK INTER:                  -7.294
REMARK INTRA:                  -2.309
REMARK UNBOUND:                -2.656
REMARK SMILES CCCCCCCCCCCCCC[C@H](C)C(=O)[O-]
REMARK SMILES IDX 9 1 10 2 11 3 12 4 13 5 14 6 15 7 16 8 17 9 18 10 19 11 8 12
REMARK SMILES IDX 7 13 6 14 5 15 4 16 3 17 2 18 1 19
REMARK H PARENT
REMARK Flexibility Score: inf
ROOT
ATOM      1  C   UNL     1      15.895 -33.013  -2.105  1.00  0.00     0.000 C 
ENDROOT
BRANCH   1   2
ATOM      2  C   UNL     1      17.265 -33.710  -2.019  1.00  0.00     0.000 C 
BRANCH   2   3
ATOM      3  C   UNL     1      17.172 -35.145  -1.481  1.00  0.00     0.000 C 
BRANCH   3   4
ATOM      4  C   UNL     1      17.809 -36.140  -2.460  1.00  0.00     0.000 C 
BRANCH   4   5
ATOM      5  C   UNL     1      17.728 -37.575  -1.916  1.00  0.00     0.001 C 
BRANCH   5   6
ATOM      6  C   UNL     1      17.160 -37.655  -0.487  1.00  0.00     0.009 C 
BRANCH   6   7
ATOM      7  C   UNL     1      17.550 -38.945   0.274  1.00  0.00     0.032 C 
ATOM      8  C   UNL     1      16.365 -39.462   1.099  1.00  0.00     0.014 C 
BRANCH   7   9
ATOM      9  C   UNL     1      18.724 -38.726   1.189  1.00  0.00     0.044 C 
ATOM     10  O   UNL     1      18.780 -39.319   2.298  1.00  0.00    -0.550 OA
ATOM     11  O   UNL     1      19.735 -37.838   0.837  1.00  0.00    -0.550 OA
ENDBRANCH   7   9
ENDBRANCH   6   7
ENDBRANCH   5   6
ENDBRANCH   4   5
ENDBRANCH   3   4
ENDBRANCH   2   3
ENDBRANCH   1   2
BRANCH   1  12
ATOM     12  C   UNL     1      14.707 -33.839  -1.570  1.00  0.00     0.000 C 
BRANCH  12  13
ATOM     13  C   UNL     1      13.483 -33.901  -2.501  1.00  0.00    -0.000 C 
BRANCH  13  14
ATOM     14  C   UNL     1      13.151 -35.328  -2.957  1.00  0.00    -0.000 C 
BRANCH  14  15
ATOM     15  C   UNL     1      13.812 -36.366  -2.041  1.00  0.00    -0.000 C 
BRANCH  15  16
ATOM     16  C   UNL     1      13.940 -37.722  -2.750  1.00  0.00    -0.000 C 
BRANCH  16  17
ATOM     17  C   UNL     1      13.971 -38.904  -1.767  1.00  0.00    -0.000 C 
BRANCH  17  18
ATOM     18  C   UNL     1      14.825 -40.075  -2.275  1.00  0.00    -0.003 C 
ATOM     19  C   UNL     1      15.377 -39.788  -3.668  1.00  0.00     0.004 C 
ENDBRANCH  17  18
ENDBRANCH  16  17
ENDBRANCH  15  16
ENDBRANCH  14  15
ENDBRANCH  13  14
ENDBRANCH  12  13
ENDBRANCH   1  12
TORSDOF 14
ENDMDL
MODEL 3
REMARK VINA RESULT:    -3.811      2.064      3.656
REMARK INTER + INTRA:          -9.586
REMARK INTER:                  -7.130
REMARK INTRA:                  -2.457
REMARK UNBOUND:                -2.656
REMARK SMILES CCCCCCCCCCCCCC[C@H](C)C(=O)[O-]
REMARK SMILES IDX 9 1 10 2 11 3 12 4 13 5 14 6 15 7 16 8 17 9 18 10 19 11 8 12
REMARK SMILES IDX 7 13 6 14 5 15 4 16 3 17 2 18 1 19
REMARK H PARENT
REMARK Flexibility Score: inf
ROOT
ATOM      1  C   UNL     1      17.632 -34.612  -1.950  1.00  0.00     0.000 C 
ENDROOT
BRANCH   1   2
ATOM      2  C   UNL     1      16.915 -35.957  -2.166  1.00  0.00     0.000 C 
BRANCH   2   3
ATOM      3  C   UNL     1      17.891 -37.126  -2.370  1.00  0.00     0.000 C 
BRANCH   3   4
ATOM      4  C   UNL     1      18.169 -37.845  -1.044  1.00  0.00     0.000 C 
BRANCH   4   5
ATOM      5  C   UNL     1      16.994 -37.677  -0.068  1.00  0.00     0.001 C 
BRANCH   5   6
ATOM      6  C   UNL     1      17.427 -37.198   1.331  1.00  0.00     0.009 C 
BRANCH   6   7
ATOM      7  C   UNL     1      16.919 -35.782   1.696  1.00  0.00     0.032 C 
ATOM      8  C   UNL     1      18.020 -34.740   1.463  1.00  0.00     0.014 C 
BRANCH   7   9
ATOM      9  C   UNL     1      16.462 -35.700   3.127  1.00  0.00     0.044 C 
ATOM     10  O   UNL     1      16.220 -34.580   3.649  1.00  0.00    -0.550 OA
ATOM     11  O   UNL     1      16.340 -36.852   3.894  1.00  0.00    -0.550 OA
ENDBRANCH   7   9
ENDBRANCH   6   7
ENDBRANCH   5   6
ENDBRANCH   4   5
ENDBRANCH   3   4
ENDBRANCH   2   3
ENDBRANCH   1   2
BRANCH   1  12
ATOM     12  C   UNL     1      16.753 -33.362  -2.163  1.00  0.00     0.000 C 
BRANCH  12  13
ATOM     13  C   UNL     1      15.385 -33.397  -1.458  1.00  0.00    -0.000 C 
BRANCH  13  14
ATOM     14  C   UNL     1      14.206 -33.363  -2.441  1.00  0.00    -0.000 C 
BRANCH  14  15
ATOM     15  C   UNL     1      13.204 -34.484  -2.138  1.00  0.00    -0.000 C 
BRANCH  15  16
ATOM     16  C   UNL     1      13.639 -35.293  -0.907  1.00  0.00    -0.000 C 
BRANCH  16  17
ATOM     17  C   UNL     1      13.526 -36.810  -1.125  1.00  0.00    -0.000 C 
BRANCH  17  18
ATOM     18  C   UNL     1      13.521 -37.196  -2.611  1.00  0.00    -0.003 C 
ATOM     19  C   UNL     1      14.377 -38.434  -2.860  1.00  0.00     0.004 C 
ENDBRANCH  17  18
ENDBRANCH  16  17
ENDBRANCH  15  16
ENDBRANCH  14  15
ENDBRANCH  13  14
ENDBRANCH  12  13
ENDBRANCH   1  12
TORSDOF 14
ENDMDL
MODEL 4
REMARK VINA RESULT:    -3.723      1.225      3.218
REMARK INTER + INTRA:          -9.427
REMARK INTER:                  -6.865
REMARK INTRA:                  -2.562
REMARK UNBOUND:                -2.656
REMARK SMILES CCCCCCCCCCCCCC[C@H](C)C(=O)[O-]
REMARK SMILES IDX 9 1 10 2 11 3 12 4 13 5 14 6 15 7 16 8 17 9 18 10 19 11 8 12
REMARK SMILES IDX 7 13 6 14 5 15 4 16 3 17 2 18 1 19
REMARK H PARENT
REMARK Flexibility Score: inf
ROOT
ATOM      1  C   UNL     1      15.175 -37.484  -2.462  1.00  0.00     0.000 C 
ENDROOT
BRANCH   1   2
ATOM      2  C   UNL     1      14.246 -37.726  -1.258  1.00  0.00     0.000 C 
BRANCH   2   3
ATOM      3  C   UNL     1      14.345 -36.620  -0.197  1.00  0.00     0.000 C 
BRANCH   3   4
ATOM      4  C   UNL     1      14.289 -37.210   1.217  1.00  0.00     0.000 C 
BRANCH   4   5
ATOM      5  C   UNL     1      15.605 -36.961   1.970  1.00  0.00     0.001 C 
BRANCH   5   6
ATOM      6  C   UNL     1      16.394 -38.252   2.263  1.00  0.00     0.009 C 
BRANCH   6   7
ATOM      7  C   UNL     1      17.090 -38.859   1.020  1.00  0.00     0.032 C 
ATOM      8  C   UNL     1      16.566 -40.273   0.748  1.00  0.00     0.014 C 
BRANCH   7   9
ATOM      9  C   UNL     1      18.585 -38.914   1.185  1.00  0.00     0.044 C 
ATOM     10  O   UNL     1      19.088 -39.102   2.324  1.00  0.00    -0.550 OA
ATOM     11  O   UNL     1      19.421 -38.719   0.092  1.00  0.00    -0.550 OA
ENDBRANCH   7   9
ENDBRANCH   6   7
ENDBRANCH   5   6
ENDBRANCH   4   5
ENDBRANCH   3   4
ENDBRANCH   2   3
ENDBRANCH   1   2
BRANCH   1  12
ATOM     12  C   UNL     1      16.680 -37.659  -2.172  1.00  0.00     0.000 C 
BRANCH  12  13
ATOM     13  C   UNL     1      17.514 -36.368  -2.246  1.00  0.00    -0.000 C 
BRANCH  13  14
ATOM     14  C   UNL     1      17.812 -35.770  -0.864  1.00  0.00    -0.000 C 
BRANCH  14  15
ATOM     15  C   UNL     1      17.162 -34.389  -0.710  1.00  0.00    -0.000 C 
BRANCH  15  16
ATOM     16  C   UNL     1      17.093 -33.660  -2.059  1.00  0.00    -0.000 C 
BRANCH  16  17
ATOM     17  C   UNL     1      15.670 -33.197  -2.410  1.00  0.00    -0.000 C 
BRANCH  17  18
ATOM     18  C   UNL     1      14.769 -33.065  -1.174  1.00  0.00    -0.003 C 
ATOM     19  C   UNL     1      14.046 -31.722  -1.162  1.00  0.00     0.004 C 
ENDBRANCH  17  18
ENDBRANCH  16  17
ENDBRANCH  15  16
ENDBRANCH  14  15
ENDBRANCH  13  14
ENDBRANCH  12  13
ENDBRANCH   1  12
TORSDOF 14
ENDMDL
MODEL 5
REMARK VINA RESULT:    -3.603      1.375      3.667
REMARK INTER + INTRA:          -9.207
REMARK INTER:                  -6.861
REMARK INTRA:                  -2.347
REMARK UNBOUND:                -2.656
REMARK SMILES CCCCCCCCCCCCCC[C@H](C)C(=O)[O-]
REMARK SMILES IDX 9 1 10 2 11 3 12 4 13 5 14 6 15 7 16 8 17 9 18 10 19 11 8 12
REMARK SMILES IDX 7 13 6 14 5 15 4 16 3 17 2 18 1 19
REMARK H PARENT
REMARK Flexibility Score: inf
ROOT
ATOM      1  C   UNL     1      15.743 -33.292  -2.363  1.00  0.00     0.000 C 
ENDROOT
BRANCH   1   2
ATOM      2  C   UNL     1      17.109 -33.689  -1.774  1.00  0.00     0.000 C 
BRANCH   2   3
ATOM      3  C   UNL     1      17.444 -35.172  -1.990  1.00  0.00     0.000 C 
BRANCH   3   4
ATOM      4  C   UNL     1      16.165 -36.015  -2.076  1.00  0.00     0.000 C 
BRANCH   4   5
ATOM      5  C   UNL     1      16.498 -37.514  -2.148  1.00  0.00     0.001 C 
BRANCH   5   6
ATOM      6  C   UNL     1      17.872 -37.863  -1.547  1.00  0.00     0.009 C 
BRANCH   6   7
ATOM      7  C   UNL     1      17.795 -38.687  -0.238  1.00  0.00     0.032 C 
ATOM      8  C   UNL     1      16.344 -38.794   0.245  1.00  0.00     0.014 C 
BRANCH   7   9
ATOM      9  C   UNL     1      18.633 -38.083   0.856  1.00  0.00     0.044 C 
ATOM     10  O   UNL     1      18.909 -36.855   0.834  1.00  0.00    -0.550 OA
ATOM     11  O   UNL     1      19.139 -38.880   1.876  1.00  0.00    -0.550 OA
ENDBRANCH   7   9
ENDBRANCH   6   7
ENDBRANCH   5   6
ENDBRANCH   4   5
ENDBRANCH   3   4
ENDBRANCH   2   3
ENDBRANCH   1   2
BRANCH   1  12
ATOM     12  C   UNL     1      15.077 -32.068  -1.702  1.00  0.00     0.000 C 
BRANCH  12  13
ATOM     13  C   UNL     1      13.691 -32.332  -1.088  1.00  0.00    -0.000 C 
BRANCH  13  14
ATOM     14  C   UNL     1      13.494 -33.794  -0.663  1.00  0.00    -0.000 C 
BRANCH  14  15
ATOM     15  C   UNL     1      13.760 -33.973   0.836  1.00  0.00    -0.000 C 
BRANCH  15  16
ATOM     16  C   UNL     1      14.372 -35.351   1.126  1.00  0.00    -0.000 C 
BRANCH  16  17
ATOM     17  C   UNL     1      15.865 -35.274   1.482  1.00  0.00    -0.000 C 
BRANCH  17  18
ATOM     18  C   UNL     1      16.203 -36.012   2.785  1.00  0.00    -0.003 C 
ATOM     19  C   UNL     1      16.507 -35.028   3.910  1.00  0.00     0.004 C 
ENDBRANCH  17  18
ENDBRANCH  16  17
ENDBRANCH  15  16
ENDBRANCH  14  15
ENDBRANCH  13  14
ENDBRANCH  12  13
ENDBRANCH   1  12
TORSDOF 14
ENDMDL
MODEL 6
REMARK VINA RESULT:    -3.585      1.116      3.347
REMARK INTER + INTRA:          -9.175
REMARK INTER:                  -6.777
REMARK INTRA:                  -2.398
REMARK UNBOUND:                -2.656
REMARK SMILES CCCCCCCCCCCCCC[C@H](C)C(=O)[O-]
REMARK SMILES IDX 9 1 10 2 11 3 12 4 13 5 14 6 15 7 16 8 17 9 18 10 19 11 8 12
REMARK SMILES IDX 7 13 6 14 5 15 4 16 3 17 2 18 1 19
REMARK H PARENT
REMARK Flexibility Score: inf
ROOT
ATOM      1  C   UNL     1      17.493 -35.677  -0.851  1.00  0.00     0.000 C 
ENDROOT
BRANCH   1   2
ATOM      2  C   UNL     1      17.170 -36.377  -2.184  1.00  0.00     0.000 C 
BRANCH   2   3
ATOM      3  C   UNL     1      15.875 -37.200  -2.126  1.00  0.00     0.000 C 
BRANCH   3   4
ATOM      4  C   UNL     1      16.167 -38.695  -2.308  1.00  0.00     0.000 C 
BRANCH   4   5
ATOM      5  C   UNL     1      15.792 -39.487  -1.046  1.00  0.00     0.001 C 
BRANCH   5   6
ATOM      6  C   UNL     1      15.946 -38.673   0.253  1.00  0.00     0.009 C 
BRANCH   6   7
ATOM      7  C   UNL     1      16.870 -39.335   1.305  1.00  0.00     0.032 C 
ATOM      8  C   UNL     1      17.068 -38.405   2.507  1.00  0.00     0.014 C 
BRANCH   7   9
ATOM      9  C   UNL     1      18.216 -39.685   0.729  1.00  0.00     0.044 C 
ATOM     10  O   UNL     1      18.639 -40.869   0.789  1.00  0.00    -0.550 OA
ATOM     11  O   UNL     1      19.018 -38.700   0.165  1.00  0.00    -0.550 OA
ENDBRANCH   7   9
ENDBRANCH   6   7
ENDBRANCH   5   6
ENDBRANCH   4   5
ENDBRANCH   3   4
ENDBRANCH   2   3
ENDBRANCH   1   2
BRANCH   1  12
ATOM     12  C   UNL     1      17.441 -34.136  -0.893  1.00  0.00     0.000 C 
BRANCH  12  13
ATOM     13  C   UNL     1      16.810 -33.538  -2.163  1.00  0.00    -0.000 C 
BRANCH  13  14
ATOM     14  C   UNL     1      15.575 -32.676  -1.867  1.00  0.00    -0.000 C 
BRANCH  14  15
ATOM     15  C   UNL     1      14.323 -33.261  -2.531  1.00  0.00    -0.000 C 
BRANCH  15  16
ATOM     16  C   UNL     1      13.788 -34.461  -1.737  1.00  0.00    -0.000 C 
BRANCH  16  17
ATOM     17  C   UNL     1      13.641 -34.160  -0.237  1.00  0.00    -0.000 C 
BRANCH  17  18
ATOM     18  C   UNL     1      14.089 -35.332   0.649  1.00  0.00    -0.003 C 
ATOM     19  C   UNL     1      13.100 -36.491   0.569  1.00  0.00     0.004 C 
ENDBRANCH  17  18
ENDBRANCH  16  17
ENDBRANCH  15  16
ENDBRANCH  14  15
ENDBRANCH  13  14
ENDBRANCH  12  13
ENDBRANCH   1  12
TORSDOF 14
ENDMDL
MODEL 7
REMARK VINA RESULT:    -3.577      1.023      2.687
REMARK INTER + INTRA:          -9.161
REMARK INTER:                  -6.665
REMARK INTRA:                  -2.496
REMARK UNBOUND:                -2.656
REMARK SMILES CCCCCCCCCCCCCC[C@H](C)C(=O)[O-]
REMARK SMILES IDX 9 1 10 2 11 3 12 4 13 5 14 6 15 7 16 8 17 9 18 10 19 11 8 12
REMARK SMILES IDX 7 13 6 14 5 15 4 16 3 17 2 18 1 19
REMARK H PARENT
REMARK Flexibility Score: inf
ROOT
ATOM      1  C   UNL     1      16.859 -34.201  -2.055  1.00  0.00     0.000 C 
ENDROOT
BRANCH   1   2
ATOM      2  C   UNL     1      17.741 -34.068  -0.800  1.00  0.00     0.000 C 
BRANCH   2   3
ATOM      3  C   UNL     1      17.792 -35.358   0.032  1.00  0.00     0.000 C 
BRANCH   3   4
ATOM      4  C   UNL     1      17.359 -35.093   1.480  1.00  0.00     0.000 C 
BRANCH   4   5
ATOM      5  C   UNL     1      16.463 -36.227   2.002  1.00  0.00     0.001 C 
BRANCH   5   6
ATOM      6  C   UNL     1      16.484 -37.482   1.109  1.00  0.00     0.009 C 
BRANCH   6   7
ATOM      7  C   UNL     1      17.166 -38.709   1.763  1.00  0.00     0.032 C 
ATOM      8  C   UNL     1      17.477 -38.428   3.238  1.00  0.00     0.014 C 
BRANCH   7   9
ATOM      9  C   UNL     1      18.441 -39.085   1.058  1.00  0.00     0.044 C 
ATOM     10  O   UNL     1      18.624 -40.272   0.678  1.00  0.00    -0.550 OA
ATOM     11  O   UNL     1      19.439 -38.140   0.855  1.00  0.00    -0.550 OA
ENDBRANCH   7   9
ENDBRANCH   6   7
ENDBRANCH   5   6
ENDBRANCH   4   5
ENDBRANCH   3   4
ENDBRANCH   2   3
ENDBRANCH   1   2
BRANCH   1  12
ATOM     12  C   UNL     1      15.541 -33.400  -2.015  1.00  0.00     0.000 C 
BRANCH  12  13
ATOM     13  C   UNL     1      14.259 -34.251  -2.025  1.00  0.00    -0.000 C 
BRANCH  13  14
ATOM     14  C   UNL     1      14.015 -34.978  -0.695  1.00  0.00    -0.000 C 
BRANCH  14  15
ATOM     15  C   UNL     1      13.611 -36.438  -0.932  1.00  0.00    -0.000 C 
BRANCH  15  16
ATOM     16  C   UNL     1      14.295 -37.003  -2.185  1.00  0.00    -0.000 C 
BRANCH  16  17
ATOM     17  C   UNL     1      14.940 -38.376  -1.940  1.00  0.00    -0.000 C 
BRANCH  17  18
ATOM     18  C   UNL     1      16.153 -38.631  -2.848  1.00  0.00    -0.003 C 
ATOM     19  C   UNL     1      17.349 -37.790  -2.414  1.00  0.00     0.004 C 
ENDBRANCH  17  18
ENDBRANCH  16  17
ENDBRANCH  15  16
ENDBRANCH  14  15
ENDBRANCH  13  14
ENDBRANCH  12  13
ENDBRANCH   1  12
TORSDOF 14
ENDMDL
MODEL 8
REMARK VINA RESULT:    -3.574      1.998      4.183
REMARK INTER + INTRA:          -9.155
REMARK INTER:                  -7.136
REMARK INTRA:                  -2.019
REMARK UNBOUND:                -2.656
REMARK SMILES CCCCCCCCCCCCCC[C@H](C)C(=O)[O-]
REMARK SMILES IDX 9 1 10 2 11 3 12 4 13 5 14 6 15 7 16 8 17 9 18 10 19 11 8 12
REMARK SMILES IDX 7 13 6 14 5 15 4 16 3 17 2 18 1 19
REMARK H PARENT
REMARK Flexibility Score: inf
ROOT
ATOM      1  C   UNL     1      15.005 -33.465  -1.256  1.00  0.00     0.000 C 
ENDROOT
BRANCH   1   2
ATOM      2  C   UNL     1      13.718 -33.634  -2.085  1.00  0.00     0.000 C 
BRANCH   2   3
ATOM      3  C   UNL     1      12.937 -34.905  -1.719  1.00  0.00     0.000 C 
BRANCH   3   4
ATOM      4  C   UNL     1      13.142 -35.998  -2.776  1.00  0.00     0.000 C 
BRANCH   4   5
ATOM      5  C   UNL     1      13.705 -37.279  -2.141  1.00  0.00     0.001 C 
BRANCH   5   6
ATOM      6  C   UNL     1      13.972 -38.400  -3.163  1.00  0.00     0.009 C 
BRANCH   6   7
ATOM      7  C   UNL     1      15.191 -39.290  -2.817  1.00  0.00     0.032 C 
ATOM      8  C   UNL     1      15.671 -40.049  -4.059  1.00  0.00     0.014 C 
BRANCH   7   9
ATOM      9  C   UNL     1      14.873 -40.280  -1.730  1.00  0.00     0.044 C 
ATOM     10  O   UNL     1      13.757 -40.863  -1.713  1.00  0.00    -0.550 OA
ATOM     11  O   UNL     1      15.790 -40.530  -0.715  1.00  0.00    -0.550 OA
ENDBRANCH   7   9
ENDBRANCH   6   7
ENDBRANCH   5   6
ENDBRANCH   4   5
ENDBRANCH   3   4
ENDBRANCH   2   3
ENDBRANCH   1   2
BRANCH   1  12
ATOM     12  C   UNL     1      16.270 -33.134  -2.074  1.00  0.00     0.000 C 
BRANCH  12  13
ATOM     13  C   UNL     1      17.382 -34.197  -2.017  1.00  0.00    -0.000 C 
BRANCH  13  14
ATOM     14  C   UNL     1      16.843 -35.630  -2.127  1.00  0.00    -0.000 C 
BRANCH  14  15
ATOM     15  C   UNL     1      17.985 -36.634  -2.326  1.00  0.00    -0.000 C 
BRANCH  15  16
ATOM     16  C   UNL     1      17.927 -37.751  -1.275  1.00  0.00    -0.000 C 
BRANCH  16  17
ATOM     17  C   UNL     1      17.232 -37.307   0.023  1.00  0.00    -0.000 C 
BRANCH  17  18
ATOM     18  C   UNL     1      18.136 -36.442   0.913  1.00  0.00    -0.003 C 
ATOM     19  C   UNL     1      17.346 -35.313   1.566  1.00  0.00     0.004 C 
ENDBRANCH  17  18
ENDBRANCH  16  17
ENDBRANCH  15  16
ENDBRANCH  14  15
ENDBRANCH  13  14
ENDBRANCH  12  13
ENDBRANCH   1  12
TORSDOF 14
ENDMDL
MODEL 9
REMARK VINA RESULT:    -3.518      1.237      3.649
REMARK INTER + INTRA:          -9.053
REMARK INTER:                  -6.415
REMARK INTRA:                  -2.638
REMARK UNBOUND:                -2.656
REMARK SMILES CCCCCCCCCCCCCC[C@H](C)C(=O)[O-]
REMARK SMILES IDX 9 1 10 2 11 3 12 4 13 5 14 6 15 7 16 8 17 9 18 10 19 11 8 12
REMARK SMILES IDX 7 13 6 14 5 15 4 16 3 17 2 18 1 19
REMARK H PARENT
REMARK Flexibility Score: inf
ROOT
ATOM      1  C   UNL     1      17.382 -35.266  -2.121  1.00  0.00     0.000 C 
ENDROOT
BRANCH   1   2
ATOM      2  C   UNL     1      17.360 -34.385  -0.859  1.00  0.00     0.000 C 
BRANCH   2   3
ATOM      3  C   UNL     1      17.641 -35.177   0.426  1.00  0.00     0.000 C 
BRANCH   3   4
ATOM      4  C   UNL     1      16.347 -35.427   1.211  1.00  0.00     0.000 C 
BRANCH   4   5
ATOM      5  C   UNL     1      16.649 -35.768   2.678  1.00  0.00     0.001 C 
BRANCH   5   6
ATOM      6  C   UNL     1      17.108 -37.224   2.884  1.00  0.00     0.009 C 
BRANCH   6   7
ATOM      7  C   UNL     1      16.685 -38.185   1.746  1.00  0.00     0.032 C 
ATOM      8  C   UNL     1      15.683 -39.223   2.265  1.00  0.00     0.014 C 
BRANCH   7   9
ATOM      9  C   UNL     1      17.865 -38.900   1.146  1.00  0.00     0.044 C 
ATOM     10  O   UNL     1      19.024 -38.428   1.282  1.00  0.00    -0.550 OA
ATOM     11  O   UNL     1      17.682 -40.062   0.405  1.00  0.00    -0.550 OA
ENDBRANCH   7   9
ENDBRANCH   6   7
ENDBRANCH   5   6
ENDBRANCH   4   5
ENDBRANCH   3   4
ENDBRANCH   2   3
ENDBRANCH   1   2
BRANCH   1  12
ATOM     12  C   UNL     1      17.789 -36.736  -1.885  1.00  0.00     0.000 C 
BRANCH  12  13
ATOM     13  C   UNL     1      16.742 -37.780  -2.313  1.00  0.00    -0.000 C 
BRANCH  13  14
ATOM     14  C   UNL     1      15.409 -37.629  -1.566  1.00  0.00    -0.000 C 
BRANCH  14  15
ATOM     15  C   UNL     1      14.234 -37.549  -2.549  1.00  0.00    -0.000 C 
BRANCH  15  16
ATOM     16  C   UNL     1      13.581 -36.160  -2.512  1.00  0.00    -0.000 C 
BRANCH  16  17
ATOM     17  C   UNL     1      13.645 -35.511  -1.120  1.00  0.00    -0.000 C 
BRANCH  17  18
ATOM     18  C   UNL     1      13.643 -33.977  -1.182  1.00  0.00    -0.003 C 
ATOM     19  C   UNL     1      14.132 -33.480  -2.539  1.00  0.00     0.004 C 
ENDBRANCH  17  18
ENDBRANCH  16  17
ENDBRANCH  15  16
ENDBRANCH  14  15
ENDBRANCH  13  14
ENDBRANCH  12  13
ENDBRANCH   1  12
TORSDOF 14
ENDMDL
