MODEL 1
REMARK VINA RESULT:    -7.041      0.000      0.000
REMARK INTER + INTRA:          -8.562
REMARK INTER:                  -8.276
REMARK INTRA:                  -0.286
REMARK UNBOUND:                -0.286
REMARK SMILES O=c1c(O)c(-c2ccc(O)cc2)oc2cc(O)cc(O)c12
REMARK SMILES IDX 5 1 3 2 2 3 1 4 21 5 19 6 18 7 16 8 15 9 14 10 13 11 6 12
REMARK SMILES IDX 7 13 8 14 9 15 12 16 11 17 10 18 4 20 20 22 17 24
REMARK H PARENT 10 19 4 21 20 23 17 25
REMARK Flexibility Score: inf
ROOT
ATOM      1  C   UNL     1       9.438  10.325 -20.217  1.00  0.00     0.180 A 
ATOM      2  C   UNL     1      10.111  11.456 -19.716  1.00  0.00     0.208 A 
ATOM      3  C   UNL     1      10.275  12.572 -20.550  1.00  0.00     0.238 A 
ATOM      4  O   UNL     1      10.867  13.595 -20.109  1.00  0.00    -0.285 OA
ATOM      5  C   UNL     1       9.784  12.534 -21.871  1.00  0.00     0.111 A 
ATOM      6  C   UNL     1       9.912  13.615 -22.777  1.00  0.00     0.134 A 
ATOM      7  C   UNL     1       9.404  13.495 -24.080  1.00  0.00     0.093 A 
ATOM      8  C   UNL     1       8.775  12.319 -24.493  1.00  0.00     0.123 A 
ATOM      9  C   UNL     1       8.645  11.248 -23.603  1.00  0.00     0.094 A 
ATOM     10  C   UNL     1       9.142  11.349 -22.300  1.00  0.00     0.146 A 
ATOM     11  O   UNL     1       9.002  10.319 -21.474  1.00  0.00    -0.452 OA
ENDROOT
BRANCH   1  12
ATOM     12  C   UNL     1       9.209   9.116 -19.393  1.00  0.00     0.021 A 
ATOM     13  C   UNL     1       8.090   9.060 -18.545  1.00  0.00     0.016 A 
ATOM     14  C   UNL     1       7.865   7.938 -17.742  1.00  0.00     0.047 A 
ATOM     15  C   UNL     1       8.765   6.865 -17.765  1.00  0.00     0.115 A 
ATOM     16  C   UNL     1      10.118   8.043 -19.395  1.00  0.00     0.016 A 
ATOM     17  C   UNL     1       9.891   6.922 -18.590  1.00  0.00     0.047 A 
BRANCH  15  18
ATOM     18  O   UNL     1       8.552   5.741 -16.969  1.00  0.00    -0.508 OA
ATOM     19  H   UNL     1       9.299   5.330 -16.423  1.00  0.00     0.293 HD
ENDBRANCH  15  18
ENDBRANCH   1  12
BRANCH   2  20
ATOM     20  O   UNL     1      10.632  11.449 -18.419  1.00  0.00    -0.502 OA
ATOM     21  H   UNL     1      10.743  10.597 -17.884  1.00  0.00     0.293 HD
ENDBRANCH   2  20
BRANCH   6  22
ATOM     22  O   UNL     1      10.537  14.802 -22.394  1.00  0.00    -0.507 OA
ATOM     23  H   UNL     1      10.892  15.462 -23.077  1.00  0.00     0.293 HD
ENDBRANCH   6  22
BRANCH   8  24
ATOM     24  O   UNL     1       8.281  12.226 -25.792  1.00  0.00    -0.508 OA
ATOM     25  H   UNL     1       8.683  11.586 -26.468  1.00  0.00     0.293 HD
ENDBRANCH   8  24
TORSDOF 5
ENDMDL
MODEL 2
REMARK VINA RESULT:    -7.036      1.997      7.362
REMARK INTER + INTRA:          -8.557
REMARK INTER:                  -8.266
REMARK INTRA:                  -0.290
REMARK UNBOUND:                -0.286
REMARK SMILES O=c1c(O)c(-c2ccc(O)cc2)oc2cc(O)cc(O)c12
REMARK SMILES IDX 5 1 3 2 2 3 1 4 21 5 19 6 18 7 16 8 15 9 14 10 13 11 6 12
REMARK SMILES IDX 7 13 8 14 9 15 12 16 11 17 10 18 4 20 20 22 17 24
REMARK H PARENT 10 19 4 21 20 23 17 25
REMARK Flexibility Score: inf
ROOT
ATOM      1  C   UNL     1       8.978   9.661 -18.845  1.00  0.00     0.180 A 
ATOM      2  C   UNL     1       9.540   8.386 -19.043  1.00  0.00     0.208 A 
ATOM      3  C   UNL     1       9.031   7.298 -18.316  1.00  0.00     0.238 A 
ATOM      4  O   UNL     1       9.519   6.149 -18.494  1.00  0.00    -0.285 OA
ATOM      5  C   UNL     1       7.987   7.506 -17.392  1.00  0.00     0.111 A 
ATOM      6  C   UNL     1       7.420   6.465 -16.617  1.00  0.00     0.134 A 
ATOM      7  C   UNL     1       6.389   6.755 -15.711  1.00  0.00     0.093 A 
ATOM      8  C   UNL     1       5.915   8.061 -15.565  1.00  0.00     0.123 A 
ATOM      9  C   UNL     1       6.471   9.093 -16.328  1.00  0.00     0.094 A 
ATOM     10  C   UNL     1       7.498   8.824 -17.237  1.00  0.00     0.146 A 
ATOM     11  O   UNL     1       8.004   9.822 -17.953  1.00  0.00    -0.452 OA
ENDROOT
BRANCH   1  12
ATOM     12  C   UNL     1       9.447  10.853 -19.587  1.00  0.00     0.021 A 
ATOM     13  C   UNL     1       8.895  11.144 -20.846  1.00  0.00     0.016 A 
ATOM     14  C   UNL     1       9.339  12.251 -21.575  1.00  0.00     0.047 A 
ATOM     15  C   UNL     1      10.351  13.073 -21.062  1.00  0.00     0.115 A 
ATOM     16  C   UNL     1      10.477  11.670 -19.088  1.00  0.00     0.016 A 
ATOM     17  C   UNL     1      10.919  12.777 -19.819  1.00  0.00     0.047 A 
BRANCH  15  18
ATOM     18  O   UNL     1      10.801  14.179 -21.778  1.00  0.00    -0.508 OA
ATOM     19  H   UNL     1      10.265  14.566 -22.546  1.00  0.00     0.293 HD
ENDBRANCH  15  18
ENDBRANCH   1  12
BRANCH   2  20
ATOM     20  O   UNL     1      10.608   8.216 -19.929  1.00  0.00    -0.502 OA
ATOM     21  H   UNL     1      11.574   8.276 -19.631  1.00  0.00     0.293 HD
ENDBRANCH   2  20
BRANCH   6  22
ATOM     22  O   UNL     1       7.872   5.151 -16.740  1.00  0.00    -0.507 OA
ATOM     23  H   UNL     1       7.706   4.606 -17.578  1.00  0.00     0.293 HD
ENDBRANCH   6  22
BRANCH   8  24
ATOM     24  O   UNL     1       4.891   8.321 -14.657  1.00  0.00    -0.508 OA
ATOM     25  H   UNL     1       3.967   7.921 -14.771  1.00  0.00     0.293 HD
ENDBRANCH   8  24
TORSDOF 5
ENDMDL
MODEL 3
REMARK VINA RESULT:    -6.904      0.139      1.065
REMARK INTER + INTRA:          -8.401
REMARK INTER:                  -8.103
REMARK INTRA:                  -0.298
REMARK UNBOUND:                -0.286
REMARK SMILES O=c1c(O)c(-c2ccc(O)cc2)oc2cc(O)cc(O)c12
REMARK SMILES IDX 5 1 3 2 2 3 1 4 21 5 19 6 18 7 16 8 15 9 14 10 13 11 6 12
REMARK SMILES IDX 7 13 8 14 9 15 12 16 11 17 10 18 4 20 20 22 17 24
REMARK H PARENT 10 19 4 21 20 23 17 25
REMARK Flexibility Score: inf
ROOT
ATOM      1  C   UNL     1       9.358  10.305 -20.134  1.00  0.00     0.180 A 
ATOM      2  C   UNL     1      10.066  11.414 -19.632  1.00  0.00     0.208 A 
ATOM      3  C   UNL     1      10.262  12.528 -20.463  1.00  0.00     0.238 A 
ATOM      4  O   UNL     1      10.885  13.531 -20.021  1.00  0.00    -0.285 OA
ATOM      5  C   UNL     1       9.766  12.507 -21.783  1.00  0.00     0.111 A 
ATOM      6  C   UNL     1       9.924  13.587 -22.686  1.00  0.00     0.134 A 
ATOM      7  C   UNL     1       9.409  13.486 -23.988  1.00  0.00     0.093 A 
ATOM      8  C   UNL     1       8.742  12.331 -24.402  1.00  0.00     0.123 A 
ATOM      9  C   UNL     1       8.583  11.262 -23.515  1.00  0.00     0.094 A 
ATOM     10  C   UNL     1       9.087  11.344 -22.214  1.00  0.00     0.146 A 
ATOM     11  O   UNL     1       8.918  10.316 -21.389  1.00  0.00    -0.452 OA
ENDROOT
BRANCH   1  12
ATOM     12  C   UNL     1       9.095   9.102 -19.313  1.00  0.00     0.021 A 
ATOM     13  C   UNL     1       9.947   7.990 -19.423  1.00  0.00     0.016 A 
ATOM     14  C   UNL     1       9.705   6.835 -18.674  1.00  0.00     0.047 A 
ATOM     15  C   UNL     1       8.598   6.771 -17.817  1.00  0.00     0.115 A 
ATOM     16  C   UNL     1       7.975   9.023 -18.466  1.00  0.00     0.016 A 
ATOM     17  C   UNL     1       7.734   7.866 -17.718  1.00  0.00     0.047 A 
BRANCH  15  18
ATOM     18  O   UNL     1       8.346   5.625 -17.065  1.00  0.00    -0.508 OA
ATOM     19  H   UNL     1       8.157   5.676 -16.071  1.00  0.00     0.293 HD
ENDBRANCH  15  18
ENDBRANCH   1  12
BRANCH   2  20
ATOM     20  O   UNL     1      10.591  11.388 -18.337  1.00  0.00    -0.502 OA
ATOM     21  H   UNL     1      10.382  12.106 -17.654  1.00  0.00     0.293 HD
ENDBRANCH   2  20
BRANCH   6  22
ATOM     22  O   UNL     1      10.585  14.754 -22.302  1.00  0.00    -0.507 OA
ATOM     23  H   UNL     1      11.391  14.733 -21.688  1.00  0.00     0.293 HD
ENDBRANCH   6  22
BRANCH   8  24
ATOM     24  O   UNL     1       8.242  12.256 -25.700  1.00  0.00    -0.508 OA
ATOM     25  H   UNL     1       8.034  13.091 -26.237  1.00  0.00     0.293 HD
ENDBRANCH   8  24
TORSDOF 5
ENDMDL
MODEL 4
REMARK VINA RESULT:    -6.501      2.384      7.213
REMARK INTER + INTRA:          -7.927
REMARK INTER:                  -7.637
REMARK INTRA:                  -0.290
REMARK UNBOUND:                -0.286
REMARK SMILES O=c1c(O)c(-c2ccc(O)cc2)oc2cc(O)cc(O)c12
REMARK SMILES IDX 5 1 3 2 2 3 1 4 21 5 19 6 18 7 16 8 15 9 14 10 13 11 6 12
REMARK SMILES IDX 7 13 8 14 9 15 12 16 11 17 10 18 4 20 20 22 17 24
REMARK H PARENT 10 19 4 21 20 23 17 25
REMARK Flexibility Score: inf
ROOT
ATOM      1  C   UNL     1       8.167  10.415 -18.640  1.00  0.00     0.180 A 
ATOM      2  C   UNL     1       7.127  10.942 -17.851  1.00  0.00     0.208 A 
ATOM      3  C   UNL     1       6.427  10.083 -16.988  1.00  0.00     0.238 A 
ATOM      4  O   UNL     1       5.501  10.546 -16.268  1.00  0.00    -0.285 OA
ATOM      5  C   UNL     1       6.765   8.715 -16.944  1.00  0.00     0.111 A 
ATOM      6  C   UNL     1       6.107   7.782 -16.105  1.00  0.00     0.134 A 
ATOM      7  C   UNL     1       6.495   6.434 -16.126  1.00  0.00     0.093 A 
ATOM      8  C   UNL     1       7.524   6.001 -16.966  1.00  0.00     0.123 A 
ATOM      9  C   UNL     1       8.177   6.918 -17.795  1.00  0.00     0.094 A 
ATOM     10  C   UNL     1       7.807   8.266 -17.788  1.00  0.00     0.146 A 
ATOM     11  O   UNL     1       8.447   9.116 -18.582  1.00  0.00    -0.452 OA
ENDROOT
BRANCH   1  12
ATOM     12  C   UNL     1       8.963  11.260 -19.559  1.00  0.00     0.021 A 
ATOM     13  C   UNL     1      10.093  11.938 -19.070  1.00  0.00     0.016 A 
ATOM     14  C   UNL     1      10.847  12.759 -19.914  1.00  0.00     0.047 A 
ATOM     15  C   UNL     1      10.471  12.925 -21.254  1.00  0.00     0.115 A 
ATOM     16  C   UNL     1       8.581  11.448 -20.899  1.00  0.00     0.016 A 
ATOM     17  C   UNL     1       9.336  12.270 -21.742  1.00  0.00     0.047 A 
BRANCH  15  18
ATOM     18  O   UNL     1      11.214  13.740 -22.105  1.00  0.00    -0.508 OA
ATOM     19  H   UNL     1      10.766  14.393 -22.737  1.00  0.00     0.293 HD
ENDBRANCH  15  18
ENDBRANCH   1  12
BRANCH   2  20
ATOM     20  O   UNL     1       6.780  12.292 -17.950  1.00  0.00    -0.502 OA
ATOM     21  H   UNL     1       7.464  13.035 -17.868  1.00  0.00     0.293 HD
ENDBRANCH   2  20
BRANCH   6  22
ATOM     22  O   UNL     1       5.075   8.182 -15.256  1.00  0.00    -0.507 OA
ATOM     23  H   UNL     1       5.074   7.948 -14.270  1.00  0.00     0.293 HD
ENDBRANCH   6  22
BRANCH   8  24
ATOM     24  O   UNL     1       7.888   4.657 -16.967  1.00  0.00    -0.508 OA
ATOM     25  H   UNL     1       7.921   4.117 -17.825  1.00  0.00     0.293 HD
ENDBRANCH   8  24
TORSDOF 5
ENDMDL
MODEL 5
REMARK VINA RESULT:    -6.482      1.179      3.141
REMARK INTER + INTRA:          -7.905
REMARK INTER:                  -7.618
REMARK INTRA:                  -0.288
REMARK UNBOUND:                -0.286
REMARK SMILES O=c1c(O)c(-c2ccc(O)cc2)oc2cc(O)cc(O)c12
REMARK SMILES IDX 5 1 3 2 2 3 1 4 21 5 19 6 18 7 16 8 15 9 14 10 13 11 6 12
REMARK SMILES IDX 7 13 8 14 9 15 12 16 11 17 10 18 4 20 20 22 17 24
REMARK H PARENT 10 19 4 21 20 23 17 25
REMARK Flexibility Score: inf
ROOT
ATOM      1  C   UNL     1       8.624   9.798 -20.843  1.00  0.00     0.180 A 
ATOM      2  C   UNL     1       8.035   9.463 -22.077  1.00  0.00     0.208 A 
ATOM      3  C   UNL     1       8.072  10.398 -23.123  1.00  0.00     0.238 A 
ATOM      4  O   UNL     1       7.557  10.106 -24.236  1.00  0.00    -0.285 OA
ATOM      5  C   UNL     1       8.677  11.655 -22.913  1.00  0.00     0.111 A 
ATOM      6  C   UNL     1       8.754  12.654 -23.913  1.00  0.00     0.134 A 
ATOM      7  C   UNL     1       9.365  13.884 -23.623  1.00  0.00     0.093 A 
ATOM      8  C   UNL     1       9.898  14.132 -22.357  1.00  0.00     0.123 A 
ATOM      9  C   UNL     1       9.826  13.149 -21.365  1.00  0.00     0.094 A 
ATOM     10  C   UNL     1       9.224  11.917 -21.635  1.00  0.00     0.146 A 
ATOM     11  O   UNL     1       9.173  10.998 -20.677  1.00  0.00    -0.452 OA
ENDROOT
BRANCH   1  12
ATOM     12  C   UNL     1       8.643   8.858 -19.699  1.00  0.00     0.021 A 
ATOM     13  C   UNL     1       9.672   7.907 -19.603  1.00  0.00     0.016 A 
ATOM     14  C   UNL     1       9.697   6.995 -18.543  1.00  0.00     0.047 A 
ATOM     15  C   UNL     1       8.685   7.014 -17.574  1.00  0.00     0.115 A 
ATOM     16  C   UNL     1       7.620   8.858 -18.733  1.00  0.00     0.016 A 
ATOM     17  C   UNL     1       7.647   7.945 -17.674  1.00  0.00     0.047 A 
BRANCH  15  18
ATOM     18  O   UNL     1       8.699   6.111 -16.513  1.00  0.00    -0.508 OA
ATOM     19  H   UNL     1       9.318   5.309 -16.509  1.00  0.00     0.293 HD
ENDBRANCH  15  18
ENDBRANCH   1  12
BRANCH   2  20
ATOM     20  O   UNL     1       7.398   8.231 -22.243  1.00  0.00    -0.502 OA
ATOM     21  H   UNL     1       6.901   7.772 -21.489  1.00  0.00     0.293 HD
ENDBRANCH   2  20
BRANCH   6  22
ATOM     22  O   UNL     1       8.229  12.437 -25.188  1.00  0.00    -0.507 OA
ATOM     23  H   UNL     1       7.549  13.066 -25.600  1.00  0.00     0.293 HD
ENDBRANCH   6  22
BRANCH   8  24
ATOM     24  O   UNL     1      10.498  15.362 -22.095  1.00  0.00    -0.508 OA
ATOM     25  H   UNL     1       9.992  16.233 -22.206  1.00  0.00     0.293 HD
ENDBRANCH   8  24
TORSDOF 5
ENDMDL
MODEL 6
REMARK VINA RESULT:    -6.469      2.005      6.950
REMARK INTER + INTRA:          -7.890
REMARK INTER:                  -8.312
REMARK INTRA:                   0.422
REMARK UNBOUND:                -0.286
REMARK SMILES O=c1c(O)c(-c2ccc(O)cc2)oc2cc(O)cc(O)c12
REMARK SMILES IDX 5 1 3 2 2 3 1 4 21 5 19 6 18 7 16 8 15 9 14 10 13 11 6 12
REMARK SMILES IDX 7 13 8 14 9 15 12 16 11 17 10 18 4 20 20 22 17 24
REMARK H PARENT 10 19 4 21 20 23 17 25
REMARK Flexibility Score: inf
ROOT
ATOM      1  C   UNL     1       8.767  10.956 -21.897  1.00  0.00     0.180 A 
ATOM      2  C   UNL     1       9.084   9.590 -22.026  1.00  0.00     0.208 A 
ATOM      3  C   UNL     1       9.003   8.764 -20.894  1.00  0.00     0.238 A 
ATOM      4  O   UNL     1       9.274   7.537 -20.999  1.00  0.00    -0.285 OA
ATOM      5  C   UNL     1       8.626   9.319 -19.653  1.00  0.00     0.111 A 
ATOM      6  C   UNL     1       8.522   8.557 -18.464  1.00  0.00     0.134 A 
ATOM      7  C   UNL     1       8.150   9.185 -17.265  1.00  0.00     0.093 A 
ATOM      8  C   UNL     1       7.880  10.555 -17.233  1.00  0.00     0.123 A 
ATOM      9  C   UNL     1       7.980  11.312 -18.404  1.00  0.00     0.094 A 
ATOM     10  C   UNL     1       8.348  10.705 -19.609  1.00  0.00     0.146 A 
ATOM     11  O   UNL     1       8.430  11.446 -20.707  1.00  0.00    -0.452 OA
ENDROOT
BRANCH   1  12
ATOM     12  C   UNL     1       8.811  11.886 -23.048  1.00  0.00     0.021 A 
ATOM     13  C   UNL     1       8.762  13.271 -22.819  1.00  0.00     0.016 A 
ATOM     14  C   UNL     1       8.780  14.168 -23.892  1.00  0.00     0.047 A 
ATOM     15  C   UNL     1       8.831  13.690 -25.208  1.00  0.00     0.115 A 
ATOM     16  C   UNL     1       8.842  11.413 -24.372  1.00  0.00     0.016 A 
ATOM     17  C   UNL     1       8.860  12.312 -25.444  1.00  0.00     0.047 A 
BRANCH  15  18
ATOM     18  O   UNL     1       8.850  14.573 -26.285  1.00  0.00    -0.508 OA
ATOM     19  H   UNL     1       9.020  15.563 -26.154  1.00  0.00     0.293 HD
ENDBRANCH  15  18
ENDBRANCH   1  12
BRANCH   2  20
ATOM     20  O   UNL     1       9.503   9.076 -23.256  1.00  0.00    -0.502 OA
ATOM     21  H   UNL     1      10.275   9.476 -23.776  1.00  0.00     0.293 HD
ENDBRANCH   2  20
BRANCH   6  22
ATOM     22  O   UNL     1       8.786   7.187 -18.463  1.00  0.00    -0.507 OA
ATOM     23  H   UNL     1       9.726   6.824 -18.351  1.00  0.00     0.293 HD
ENDBRANCH   6  22
BRANCH   8  24
ATOM     24  O   UNL     1       7.514  11.153 -16.029  1.00  0.00    -0.508 OA
ATOM     25  H   UNL     1       7.993  10.937 -15.163  1.00  0.00     0.293 HD
ENDBRANCH   8  24
TORSDOF 5
ENDMDL
MODEL 7
REMARK VINA RESULT:    -6.098      2.223      3.211
REMARK INTER + INTRA:          -7.454
REMARK INTER:                  -7.688
REMARK INTRA:                   0.234
REMARK UNBOUND:                -0.286
REMARK SMILES O=c1c(O)c(-c2ccc(O)cc2)oc2cc(O)cc(O)c12
REMARK SMILES IDX 5 1 3 2 2 3 1 4 21 5 19 6 18 7 16 8 15 9 14 10 13 11 6 12
REMARK SMILES IDX 7 13 8 14 9 15 12 16 11 17 10 18 4 20 20 22 17 24
REMARK H PARENT 10 19 4 21 20 23 17 25
REMARK Flexibility Score: inf
ROOT
ATOM      1  C   UNL     1       7.649   9.754 -18.057  1.00  0.00     0.180 A 
ATOM      2  C   UNL     1       8.201  10.974 -17.623  1.00  0.00     0.208 A 
ATOM      3  C   UNL     1       8.828  11.808 -18.562  1.00  0.00     0.238 A 
ATOM      4  O   UNL     1       9.317  12.909 -18.187  1.00  0.00    -0.285 OA
ATOM      5  C   UNL     1       8.910  11.402 -19.910  1.00  0.00     0.111 A 
ATOM      6  C   UNL     1       9.528  12.182 -20.918  1.00  0.00     0.134 A 
ATOM      7  C   UNL     1       9.577  11.702 -22.236  1.00  0.00     0.093 A 
ATOM      8  C   UNL     1       9.022  10.463 -22.564  1.00  0.00     0.123 A 
ATOM      9  C   UNL     1       8.410   9.689 -21.573  1.00  0.00     0.094 A 
ATOM     10  C   UNL     1       8.350  10.150 -20.255  1.00  0.00     0.146 A 
ATOM     11  O   UNL     1       7.758   9.397 -19.334  1.00  0.00    -0.452 OA
ENDROOT
BRANCH   1  12
ATOM     12  C   UNL     1       6.956   8.830 -17.131  1.00  0.00     0.021 A 
ATOM     13  C   UNL     1       6.982   7.449 -17.386  1.00  0.00     0.016 A 
ATOM     14  C   UNL     1       6.316   6.560 -16.537  1.00  0.00     0.047 A 
ATOM     15  C   UNL     1       5.601   7.042 -15.433  1.00  0.00     0.115 A 
ATOM     16  C   UNL     1       6.220   9.309 -16.032  1.00  0.00     0.016 A 
ATOM     17  C   UNL     1       5.554   8.417 -15.185  1.00  0.00     0.047 A 
BRANCH  15  18
ATOM     18  O   UNL     1       4.934   6.166 -14.580  1.00  0.00    -0.508 OA
ATOM     19  H   UNL     1       5.428   5.442 -14.072  1.00  0.00     0.293 HD
ENDBRANCH  15  18
ENDBRANCH   1  12
BRANCH   2  20
ATOM     20  O   UNL     1       8.151  11.331 -16.273  1.00  0.00    -0.502 OA
ATOM     21  H   UNL     1       8.137  10.641 -15.531  1.00  0.00     0.293 HD
ENDBRANCH   2  20
BRANCH   6  22
ATOM     22  O   UNL     1      10.091  13.423 -20.621  1.00  0.00    -0.507 OA
ATOM     23  H   UNL     1      10.708  13.553 -19.827  1.00  0.00     0.293 HD
ENDBRANCH   6  22
BRANCH   8  24
ATOM     24  O   UNL     1       9.085  10.011 -23.880  1.00  0.00    -0.508 OA
ATOM     25  H   UNL     1       9.236  10.649 -24.653  1.00  0.00     0.293 HD
ENDBRANCH   8  24
TORSDOF 5
ENDMDL
MODEL 8
REMARK VINA RESULT:    -5.982      2.269      3.748
REMARK INTER + INTRA:          -7.317
REMARK INTER:                  -7.025
REMARK INTRA:                  -0.293
REMARK UNBOUND:                -0.286
REMARK SMILES O=c1c(O)c(-c2ccc(O)cc2)oc2cc(O)cc(O)c12
REMARK SMILES IDX 5 1 3 2 2 3 1 4 21 5 19 6 18 7 16 8 15 9 14 10 13 11 6 12
REMARK SMILES IDX 7 13 8 14 9 15 12 16 11 17 10 18 4 20 20 22 17 24
REMARK H PARENT 10 19 4 21 20 23 17 25
REMARK Flexibility Score: inf
ROOT
ATOM      1  C   UNL     1       7.040  10.814 -20.407  1.00  0.00     0.180 A 
ATOM      2  C   UNL     1       6.708  10.278 -21.666  1.00  0.00     0.208 A 
ATOM      3  C   UNL     1       7.184  10.914 -22.822  1.00  0.00     0.238 A 
ATOM      4  O   UNL     1       6.903  10.436 -23.955  1.00  0.00    -0.285 OA
ATOM      5  C   UNL     1       7.965  12.083 -22.703  1.00  0.00     0.111 A 
ATOM      6  C   UNL     1       8.480  12.786 -23.819  1.00  0.00     0.134 A 
ATOM      7  C   UNL     1       9.241  13.948 -23.617  1.00  0.00     0.093 A 
ATOM      8  C   UNL     1       9.495  14.418 -22.327  1.00  0.00     0.123 A 
ATOM      9  C   UNL     1       8.989  13.727 -21.222  1.00  0.00     0.094 A 
ATOM     10  C   UNL     1       8.230  12.567 -21.401  1.00  0.00     0.146 A 
ATOM     11  O   UNL     1       7.766  11.927 -20.334  1.00  0.00    -0.452 OA
ENDROOT
BRANCH   1  12
ATOM     12  C   UNL     1       6.592  10.190 -19.142  1.00  0.00     0.021 A 
ATOM     13  C   UNL     1       5.360  10.568 -18.583  1.00  0.00     0.016 A 
ATOM     14  C   UNL     1       4.927  10.008 -17.378  1.00  0.00     0.047 A 
ATOM     15  C   UNL     1       5.728   9.074 -16.707  1.00  0.00     0.115 A 
ATOM     16  C   UNL     1       7.400   9.267 -18.453  1.00  0.00     0.016 A 
ATOM     17  C   UNL     1       6.964   8.708 -17.247  1.00  0.00     0.047 A 
BRANCH  15  18
ATOM     18  O   UNL     1       5.307   8.509 -15.506  1.00  0.00    -0.508 OA
ATOM     19  H   UNL     1       4.520   7.871 -15.468  1.00  0.00     0.293 HD
ENDBRANCH  15  18
ENDBRANCH   1  12
BRANCH   2  20
ATOM     20  O   UNL     1       5.892   9.147 -21.757  1.00  0.00    -0.502 OA
ATOM     21  H   UNL     1       5.368   8.924 -22.595  1.00  0.00     0.293 HD
ENDBRANCH   2  20
BRANCH   6  22
ATOM     22  O   UNL     1       8.243  12.343 -25.120  1.00  0.00    -0.507 OA
ATOM     23  H   UNL     1       8.068  12.989 -25.881  1.00  0.00     0.293 HD
ENDBRANCH   6  22
BRANCH   8  24
ATOM     24  O   UNL     1      10.253  15.575 -22.156  1.00  0.00    -0.508 OA
ATOM     25  H   UNL     1       9.860  16.408 -21.732  1.00  0.00     0.293 HD
ENDBRANCH   8  24
TORSDOF 5
ENDMDL
MODEL 9
REMARK VINA RESULT:    -5.962      2.686      7.355
REMARK INTER + INTRA:          -7.294
REMARK INTER:                  -7.025
REMARK INTRA:                  -0.268
REMARK UNBOUND:                -0.286
REMARK SMILES O=c1c(O)c(-c2ccc(O)cc2)oc2cc(O)cc(O)c12
REMARK SMILES IDX 5 1 3 2 2 3 1 4 21 5 19 6 18 7 16 8 15 9 14 10 13 11 6 12
REMARK SMILES IDX 7 13 8 14 9 15 12 16 11 17 10 18 4 20 20 22 17 24
REMARK H PARENT 10 19 4 21 20 23 17 25
REMARK Flexibility Score: inf
ROOT
ATOM      1  C   UNL     1       6.843   9.662 -19.947  1.00  0.00     0.180 A 
ATOM      2  C   UNL     1       6.079  10.335 -18.974  1.00  0.00     0.208 A 
ATOM      3  C   UNL     1       5.779   9.677 -17.771  1.00  0.00     0.238 A 
ATOM      4  O   UNL     1       5.104  10.273 -16.888  1.00  0.00    -0.285 OA
ATOM      5  C   UNL     1       6.230   8.356 -17.569  1.00  0.00     0.111 A 
ATOM      6  C   UNL     1       5.968   7.620 -16.387  1.00  0.00     0.134 A 
ATOM      7  C   UNL     1       6.444   6.306 -16.266  1.00  0.00     0.093 A 
ATOM      8  C   UNL     1       7.173   5.714 -17.300  1.00  0.00     0.123 A 
ATOM      9  C   UNL     1       7.434   6.436 -18.469  1.00  0.00     0.094 A 
ATOM     10  C   UNL     1       6.971   7.747 -18.609  1.00  0.00     0.146 A 
ATOM     11  O   UNL     1       7.238   8.411 -19.727  1.00  0.00    -0.452 OA
ENDROOT
BRANCH   1  12
ATOM     12  C   UNL     1       7.216  10.296 -21.232  1.00  0.00     0.021 A 
ATOM     13  C   UNL     1       6.301  10.288 -22.297  1.00  0.00     0.016 A 
ATOM     14  C   UNL     1       6.640  10.861 -23.527  1.00  0.00     0.047 A 
ATOM     15  C   UNL     1       7.904  11.435 -23.711  1.00  0.00     0.115 A 
ATOM     16  C   UNL     1       8.490  10.857 -21.430  1.00  0.00     0.016 A 
ATOM     17  C   UNL     1       8.827  11.429 -22.661  1.00  0.00     0.047 A 
BRANCH  15  18
ATOM     18  O   UNL     1       8.253  12.010 -24.931  1.00  0.00    -0.508 OA
ATOM     19  H   UNL     1       9.022  11.650 -25.484  1.00  0.00     0.293 HD
ENDBRANCH  15  18
ENDBRANCH   1  12
BRANCH   2  20
ATOM     20  O   UNL     1       5.602  11.625 -19.220  1.00  0.00    -0.502 OA
ATOM     21  H   UNL     1       4.687  11.933 -18.911  1.00  0.00     0.293 HD
ENDBRANCH   2  20
BRANCH   6  22
ATOM     22  O   UNL     1       5.242   8.183 -15.337  1.00  0.00    -0.507 OA
ATOM     23  H   UNL     1       4.347   8.635 -15.489  1.00  0.00     0.293 HD
ENDBRANCH   6  22
BRANCH   8  24
ATOM     24  O   UNL     1       7.632   4.407 -17.154  1.00  0.00    -0.508 OA
ATOM     25  H   UNL     1       8.132   4.111 -16.324  1.00  0.00     0.293 HD
ENDBRANCH   8  24
TORSDOF 5
ENDMDL
