MODEL 1
REMARK VINA RESULT:    -5.052      0.000      0.000
REMARK INTER + INTRA:          -5.199
REMARK INTER:                  -5.199
REMARK INTRA:                   0.000
REMARK UNBOUND:                 0.000
REMARK SMILES Nc1ncnc2nc[nH]c12
REMARK SMILES IDX 8 1 7 2 6 3 5 4 4 5 3 6 2 7 10 8 9 9 1 11
REMARK H PARENT 9 10 1 12 1 13
REMARK Flexibility Score: inf
ROOT
ATOM      1  C   UNL     1      94.013  49.984  97.722  1.00  0.00     0.199 A 
ATOM      2  N   UNL     1      95.290  49.882  98.184  1.00  0.00    -0.217 NA
ATOM      3  C   UNL     1      95.331  48.615  98.630  1.00  0.00     0.182 A 
ATOM      4  N   UNL     1      96.391  47.993  99.198  1.00  0.00    -0.215 NA
ATOM      5  C   UNL     1      96.241  46.692  99.592  1.00  0.00     0.226 A 
ATOM      6  N   UNL     1      95.045  46.044  99.412  1.00  0.00    -0.217 NA
ATOM      7  C   UNL     1      93.975  46.670  98.839  1.00  0.00     0.152 A 
ATOM      8  C   UNL     1      94.143  47.994  98.444  1.00  0.00     0.127 A 
ATOM      9  N   UNL     1      93.287  48.847  97.866  1.00  0.00    -0.340 N 
ATOM     10  H   UNL     1      92.294  48.686  97.588  1.00  0.00     0.168 HD
ENDROOT
BRANCH   7  11
ATOM     11  N   UNL     1      92.739  45.975  98.662  1.00  0.00    -0.382 N 
ATOM     12  H   UNL     1      92.737  45.005  98.278  1.00  0.00     0.158 HD
ATOM     13  H   UNL     1      91.827  46.416  98.911  1.00  0.00     0.158 HD
ENDBRANCH   7  11
TORSDOF 1
ENDMDL
MODEL 2
REMARK VINA RESULT:    -4.909      1.899      2.493
REMARK INTER + INTRA:          -5.053
REMARK INTER:                  -5.053
REMARK INTRA:                   0.000
REMARK UNBOUND:                 0.000
REMARK SMILES Nc1ncnc2nc[nH]c12
REMARK SMILES IDX 8 1 7 2 6 3 5 4 4 5 3 6 2 7 10 8 9 9 1 11
REMARK H PARENT 9 10 1 12 1 13
REMARK Flexibility Score: inf
ROOT
ATOM      1  C   UNL     1      96.782  46.242  96.923  1.00  0.00     0.199 A 
ATOM      2  N   UNL     1      97.294  47.124  97.825  1.00  0.00    -0.217 NA
ATOM      3  C   UNL     1      96.258  47.310  98.661  1.00  0.00     0.182 A 
ATOM      4  N   UNL     1      96.236  48.110  99.752  1.00  0.00    -0.215 NA
ATOM      5  C   UNL     1      95.082  48.171 100.484  1.00  0.00     0.226 A 
ATOM      6  N   UNL     1      93.983  47.438 100.114  1.00  0.00    -0.217 NA
ATOM      7  C   UNL     1      94.004  46.631  99.012  1.00  0.00     0.152 A 
ATOM      8  C   UNL     1      95.185  46.579  98.278  1.00  0.00     0.127 A 
ATOM      9  N   UNL     1      95.495  45.890  97.172  1.00  0.00    -0.340 N 
ATOM     10  H   UNL     1      94.897  45.233  96.623  1.00  0.00     0.168 HD
ENDROOT
BRANCH   7  11
ATOM     11  N   UNL     1      92.847  45.876  98.646  1.00  0.00    -0.382 N 
ATOM     12  H   UNL     1      92.754  45.503  97.677  1.00  0.00     0.158 HD
ATOM     13  H   UNL     1      92.084  45.685  99.332  1.00  0.00     0.158 HD
ENDBRANCH   7  11
TORSDOF 1
ENDMDL
MODEL 3
REMARK VINA RESULT:    -4.903     13.044     13.620
REMARK INTER + INTRA:          -5.047
REMARK INTER:                  -5.047
REMARK INTRA:                   0.000
REMARK UNBOUND:                 0.000
REMARK SMILES Nc1ncnc2nc[nH]c12
REMARK SMILES IDX 8 1 7 2 6 3 5 4 4 5 3 6 2 7 10 8 9 9 1 11
REMARK H PARENT 9 10 1 12 1 13
REMARK Flexibility Score: inf
ROOT
ATOM      1  C   UNL     1      86.573  57.869 100.909  1.00  0.00     0.199 A 
ATOM      2  N   UNL     1      87.031  58.093  99.647  1.00  0.00    -0.217 NA
ATOM      3  C   UNL     1      86.008  57.660  98.891  1.00  0.00     0.182 A 
ATOM      4  N   UNL     1      85.948  57.659  97.538  1.00  0.00    -0.215 NA
ATOM      5  C   UNL     1      84.815  57.174  96.943  1.00  0.00     0.226 A 
ATOM      6  N   UNL     1      83.775  56.705  97.705  1.00  0.00    -0.217 NA
ATOM      7  C   UNL     1      83.835  56.706  99.069  1.00  0.00     0.152 A 
ATOM      8  C   UNL     1      84.994  57.202  99.660  1.00  0.00     0.127 A 
ATOM      9  N   UNL     1      85.330  57.325 100.951  1.00  0.00    -0.340 N 
ATOM     10  H   UNL     1      84.776  57.067 101.797  1.00  0.00     0.168 HD
ENDROOT
BRANCH   7  11
ATOM     11  N   UNL     1      82.739  56.212  99.842  1.00  0.00    -0.382 N 
ATOM     12  H   UNL     1      82.466  56.692 100.727  1.00  0.00     0.158 HD
ATOM     13  H   UNL     1      82.195  55.374  99.539  1.00  0.00     0.158 HD
ENDBRANCH   7  11
TORSDOF 1
ENDMDL
MODEL 4
REMARK VINA RESULT:    -4.836      1.252      3.807
REMARK INTER + INTRA:          -4.977
REMARK INTER:                  -4.977
REMARK INTRA:                   0.000
REMARK UNBOUND:                 0.000
REMARK SMILES Nc1ncnc2nc[nH]c12
REMARK SMILES IDX 8 1 7 2 6 3 5 4 4 5 3 6 2 7 10 8 9 9 1 11
REMARK H PARENT 9 10 1 12 1 13
REMARK Flexibility Score: inf
ROOT
ATOM      1  C   UNL     1      95.154  46.423  99.738  1.00  0.00     0.199 A 
ATOM      2  N   UNL     1      94.006  47.114  99.495  1.00  0.00    -0.217 NA
ATOM      3  C   UNL     1      94.431  48.092  98.676  1.00  0.00     0.182 A 
ATOM      4  N   UNL     1      93.674  49.073  98.131  1.00  0.00    -0.215 NA
ATOM      5  C   UNL     1      94.289  49.985  97.317  1.00  0.00     0.226 A 
ATOM      6  N   UNL     1      95.635  49.900  97.069  1.00  0.00    -0.217 NA
ATOM      7  C   UNL     1      96.400  48.911  97.619  1.00  0.00     0.152 A 
ATOM      8  C   UNL     1      95.760  47.991  98.444  1.00  0.00     0.127 A 
ATOM      9  N   UNL     1      96.243  46.934  99.110  1.00  0.00    -0.340 N 
ATOM     10  H   UNL     1      97.224  46.577  99.146  1.00  0.00     0.168 HD
ENDROOT
BRANCH   7  11
ATOM     11  N   UNL     1      97.800  48.842  97.345  1.00  0.00    -0.382 N 
ATOM     12  H   UNL     1      98.312  49.694  97.028  1.00  0.00     0.158 HD
ATOM     13  H   UNL     1      98.333  47.951  97.457  1.00  0.00     0.158 HD
ENDBRANCH   7  11
TORSDOF 1
ENDMDL
MODEL 5
REMARK VINA RESULT:    -4.792      1.899      3.055
REMARK INTER + INTRA:          -4.932
REMARK INTER:                  -4.932
REMARK INTRA:                   0.000
REMARK UNBOUND:                 0.000
REMARK SMILES Nc1ncnc2nc[nH]c12
REMARK SMILES IDX 8 1 7 2 6 3 5 4 4 5 3 6 2 7 10 8 9 9 1 11
REMARK H PARENT 9 10 1 12 1 13
REMARK Flexibility Score: inf
ROOT
ATOM      1  C   UNL     1      93.902  49.589  97.832  1.00  0.00     0.199 A 
ATOM      2  N   UNL     1      94.124  48.531  98.659  1.00  0.00    -0.217 NA
ATOM      3  C   UNL     1      95.316  48.080  98.230  1.00  0.00     0.182 A 
ATOM      4  N   UNL     1      96.004  47.023  98.723  1.00  0.00    -0.215 NA
ATOM      5  C   UNL     1      97.208  46.714  98.152  1.00  0.00     0.226 A 
ATOM      6  N   UNL     1      97.696  47.460  97.110  1.00  0.00    -0.217 NA
ATOM      7  C   UNL     1      97.002  48.527  96.611  1.00  0.00     0.152 A 
ATOM      8  C   UNL     1      95.779  48.828  97.202  1.00  0.00     0.127 A 
ATOM      9  N   UNL     1      94.895  49.797  96.931  1.00  0.00    -0.340 N 
ATOM     10  H   UNL     1      94.946  50.542  96.200  1.00  0.00     0.168 HD
ENDROOT
BRANCH   7  11
ATOM     11  N   UNL     1      97.531  49.289  95.525  1.00  0.00    -0.382 N 
ATOM     12  H   UNL     1      98.285  49.989  95.697  1.00  0.00     0.158 HD
ATOM     13  H   UNL     1      97.178  49.163  94.550  1.00  0.00     0.158 HD
ENDBRANCH   7  11
TORSDOF 1
ENDMDL
MODEL 6
REMARK VINA RESULT:    -4.777      1.946      3.318
REMARK INTER + INTRA:          -4.917
REMARK INTER:                  -4.917
REMARK INTRA:                   0.000
REMARK UNBOUND:                 0.000
REMARK SMILES Nc1ncnc2nc[nH]c12
REMARK SMILES IDX 8 1 7 2 6 3 5 4 4 5 3 6 2 7 10 8 9 9 1 11
REMARK H PARENT 9 10 1 12 1 13
REMARK Flexibility Score: inf
ROOT
ATOM      1  C   UNL     1      97.736  48.212  96.187  1.00  0.00     0.199 A 
ATOM      2  N   UNL     1      97.349  47.064  96.808  1.00  0.00    -0.217 NA
ATOM      3  C   UNL     1      96.225  47.446  97.439  1.00  0.00     0.182 A 
ATOM      4  N   UNL     1      95.432  46.670  98.215  1.00  0.00    -0.215 NA
ATOM      5  C   UNL     1      94.324  47.241  98.778  1.00  0.00     0.226 A 
ATOM      6  N   UNL     1      94.033  48.563  98.556  1.00  0.00    -0.217 NA
ATOM      7  C   UNL     1      94.833  49.346  97.773  1.00  0.00     0.152 A 
ATOM      8  C   UNL     1      95.957  48.751  97.208  1.00  0.00     0.127 A 
ATOM      9  N   UNL     1      96.906  49.261  96.412  1.00  0.00    -0.340 N 
ATOM     10  H   UNL     1      96.996  50.235  96.045  1.00  0.00     0.168 HD
ENDROOT
BRANCH   7  11
ATOM     11  N   UNL     1      94.509  50.721  97.556  1.00  0.00    -0.382 N 
ATOM     12  H   UNL     1      94.845  51.207  96.696  1.00  0.00     0.158 HD
ATOM     13  H   UNL     1      93.937  51.259  98.243  1.00  0.00     0.158 HD
ENDBRANCH   7  11
TORSDOF 1
ENDMDL
MODEL 7
REMARK VINA RESULT:    -4.754      1.270      2.539
REMARK INTER + INTRA:          -4.893
REMARK INTER:                  -4.893
REMARK INTRA:                   0.000
REMARK UNBOUND:                 0.000
REMARK SMILES Nc1ncnc2nc[nH]c12
REMARK SMILES IDX 8 1 7 2 6 3 5 4 4 5 3 6 2 7 10 8 9 9 1 11
REMARK H PARENT 9 10 1 12 1 13
REMARK Flexibility Score: inf
ROOT
ATOM      1  C   UNL     1      94.888  49.995  97.196  1.00  0.00     0.199 A 
ATOM      2  N   UNL     1      93.899  49.355  97.878  1.00  0.00    -0.217 NA
ATOM      3  C   UNL     1      94.559  48.326  98.439  1.00  0.00     0.182 A 
ATOM      4  N   UNL     1      94.031  47.367  99.234  1.00  0.00    -0.215 NA
ATOM      5  C   UNL     1      94.866  46.394  99.712  1.00  0.00     0.226 A 
ATOM      6  N   UNL     1      96.199  46.401  99.390  1.00  0.00    -0.217 NA
ATOM      7  C   UNL     1      96.733  47.369  98.588  1.00  0.00     0.152 A 
ATOM      8  C   UNL     1      95.871  48.351  98.108  1.00  0.00     0.127 A 
ATOM      9  N   UNL     1      96.105  49.406  97.317  1.00  0.00    -0.340 N 
ATOM     10  H   UNL     1      97.006  49.713  96.888  1.00  0.00     0.168 HD
ENDROOT
BRANCH   7  11
ATOM     11  N   UNL     1      98.125  47.356  98.265  1.00  0.00    -0.382 N 
ATOM     12  H   UNL     1      98.833  47.547  99.007  1.00  0.00     0.158 HD
ATOM     13  H   UNL     1      98.456  47.157  97.296  1.00  0.00     0.158 HD
ENDBRANCH   7  11
TORSDOF 1
ENDMDL
MODEL 8
REMARK VINA RESULT:    -4.714      1.652      3.294
REMARK INTER + INTRA:          -4.852
REMARK INTER:                  -4.852
REMARK INTRA:                   0.000
REMARK UNBOUND:                 0.000
REMARK SMILES Nc1ncnc2nc[nH]c12
REMARK SMILES IDX 8 1 7 2 6 3 5 4 4 5 3 6 2 7 10 8 9 9 1 11
REMARK H PARENT 9 10 1 12 1 13
REMARK Flexibility Score: inf
ROOT
ATOM      1  C   UNL     1      93.979  46.437  98.943  1.00  0.00     0.199 A 
ATOM      2  N   UNL     1      95.149  45.953  98.444  1.00  0.00    -0.217 NA
ATOM      3  C   UNL     1      95.665  47.030  97.828  1.00  0.00     0.182 A 
ATOM      4  N   UNL     1      96.839  47.092  97.158  1.00  0.00    -0.215 NA
ATOM      5  C   UNL     1      97.197  48.285  96.592  1.00  0.00     0.226 A 
ATOM      6  N   UNL     1      96.382  49.383  96.707  1.00  0.00    -0.217 NA
ATOM      7  C   UNL     1      95.197  49.321  97.384  1.00  0.00     0.152 A 
ATOM      8  C   UNL     1      94.846  48.100  97.953  1.00  0.00     0.127 A 
ATOM      9  N   UNL     1      93.765  47.747  98.661  1.00  0.00    -0.340 N 
ATOM     10  H   UNL     1      92.945  48.332  98.935  1.00  0.00     0.168 HD
ENDROOT
BRANCH   7  11
ATOM     11  N   UNL     1      94.364  50.478  97.491  1.00  0.00    -0.382 N 
ATOM     12  H   UNL     1      93.684  50.560  98.277  1.00  0.00     0.158 HD
ATOM     13  H   UNL     1      94.420  51.253  96.794  1.00  0.00     0.158 HD
ENDBRANCH   7  11
TORSDOF 1
ENDMDL
MODEL 9
REMARK VINA RESULT:    -4.699      1.558      3.159
REMARK INTER + INTRA:          -4.837
REMARK INTER:                  -4.837
REMARK INTRA:                   0.000
REMARK UNBOUND:                 0.000
REMARK SMILES Nc1ncnc2nc[nH]c12
REMARK SMILES IDX 8 1 7 2 6 3 5 4 4 5 3 6 2 7 10 8 9 9 1 11
REMARK H PARENT 9 10 1 12 1 13
REMARK Flexibility Score: inf
ROOT
ATOM      1  C   UNL     1      97.481  46.835  97.725  1.00  0.00     0.199 A 
ATOM      2  N   UNL     1      97.458  47.954  96.949  1.00  0.00    -0.217 NA
ATOM      3  C   UNL     1      96.263  48.488  97.256  1.00  0.00     0.182 A 
ATOM      4  N   UNL     1      95.736  49.629  96.752  1.00  0.00    -0.215 NA
ATOM      5  C   UNL     1      94.498  50.015  97.188  1.00  0.00     0.226 A 
ATOM      6  N   UNL     1      93.818  49.260  98.110  1.00  0.00    -0.217 NA
ATOM      7  C   UNL     1      94.349  48.109  98.619  1.00  0.00     0.152 A 
ATOM      8  C   UNL     1      95.609  47.729  98.166  1.00  0.00     0.127 A 
ATOM      9  N   UNL     1      96.366  46.670  98.480  1.00  0.00    -0.340 N 
ATOM     10  H   UNL     1      96.158  45.894  99.147  1.00  0.00     0.168 HD
ENDROOT
BRANCH   7  11
ATOM     11  N   UNL     1      93.622  47.339  99.579  1.00  0.00    -0.382 N 
ATOM     12  H   UNL     1      93.636  46.298  99.530  1.00  0.00     0.158 HD
ATOM     13  H   UNL     1      93.072  47.798 100.338  1.00  0.00     0.158 HD
ENDBRANCH   7  11
TORSDOF 1
ENDMDL
