MODEL 1
REMARK VINA RESULT:    -4.124      0.000      0.000
REMARK INTER + INTRA:          -6.501
REMARK INTER:                  -5.811
REMARK INTRA:                  -0.689
REMARK UNBOUND:                -0.689
REMARK SMILES CCCCCCCCC(=O)[O-]
REMARK SMILES IDX 6 1 7 2 8 3 9 4 10 5 11 6 5 7 4 8 3 9 2 10 1 11
REMARK H PARENT
REMARK Flexibility Score: inf
ROOT
ATOM      1  C   UNL     1       0.881  56.426  17.123  1.00  0.00     0.000 C 
ENDROOT
BRANCH   1   2
ATOM      2  C   UNL     1       2.116  55.542  16.895  1.00  0.00     0.006 C 
BRANCH   2   3
ATOM      3  C   UNL     1       3.385  56.227  17.410  1.00  0.00     0.053 C 
BRANCH   3   4
ATOM      4  C   UNL     1       4.532  55.972  16.483  1.00  0.00     0.041 C 
ATOM      5  O   UNL     1       4.441  55.087  15.591  1.00  0.00    -0.550 OA
ATOM      6  O   UNL     1       5.719  56.676  16.637  1.00  0.00    -0.550 OA
ENDBRANCH   3   4
ENDBRANCH   2   3
ENDBRANCH   1   2
BRANCH   1   7
ATOM      7  C   UNL     1      -0.163  55.749  18.036  1.00  0.00     0.000 C 
BRANCH   7   8
ATOM      8  C   UNL     1      -0.007  56.109  19.523  1.00  0.00    -0.000 C 
BRANCH   8   9
ATOM      9  C   UNL     1       0.416  54.910  20.386  1.00  0.00    -0.000 C 
BRANCH   9  10
ATOM     10  C   UNL     1       1.895  54.972  20.799  1.00  0.00    -0.003 C 
ATOM     11  C   UNL     1       2.711  53.804  20.247  1.00  0.00     0.004 C 
ENDBRANCH   9  10
ENDBRANCH   8   9
ENDBRANCH   7   8
ENDBRANCH   1   7
TORSDOF 7
ENDMDL
MODEL 2
REMARK VINA RESULT:    -4.036      3.895      4.894
REMARK INTER + INTRA:          -6.377
REMARK INTER:                  -5.793
REMARK INTRA:                  -0.584
REMARK UNBOUND:                -0.689
REMARK SMILES CCCCCCCCC(=O)[O-]
REMARK SMILES IDX 6 1 7 2 8 3 9 4 10 5 11 6 5 7 4 8 3 9 2 10 1 11
REMARK H PARENT
REMARK Flexibility Score: inf
ROOT
ATOM      1  C   UNL     1       1.139  56.608  16.970  1.00  0.00     0.000 C 
ENDROOT
BRANCH   1   2
ATOM      2  C   UNL     1      -0.342  57.005  16.863  1.00  0.00     0.006 C 
BRANCH   2   3
ATOM      3  C   UNL     1      -1.162  56.380  17.995  1.00  0.00     0.053 C 
BRANCH   3   4
ATOM      4  C   UNL     1      -2.619  56.390  17.655  1.00  0.00     0.041 C 
ATOM      5  O   UNL     1      -3.183  57.465  17.317  1.00  0.00    -0.550 OA
ATOM      6  O   UNL     1      -3.365  55.224  17.760  1.00  0.00    -0.550 OA
ENDBRANCH   3   4
ENDBRANCH   2   3
ENDBRANCH   1   2
BRANCH   1   7
ATOM      7  C   UNL     1       1.900  57.463  18.005  1.00  0.00     0.000 C 
BRANCH   7   8
ATOM      8  C   UNL     1       3.022  56.700  18.729  1.00  0.00    -0.000 C 
BRANCH   8   9
ATOM      9  C   UNL     1       2.579  55.313  19.222  1.00  0.00    -0.000 C 
BRANCH   9  10
ATOM     10  C   UNL     1       1.982  55.353  20.637  1.00  0.00    -0.003 C 
ATOM     11  C   UNL     1       0.663  54.587  20.742  1.00  0.00     0.004 C 
ENDBRANCH   9  10
ENDBRANCH   8   9
ENDBRANCH   7   8
ENDBRANCH   1   7
TORSDOF 7
ENDMDL
MODEL 3
REMARK VINA RESULT:    -4.034      1.123      1.879
REMARK INTER + INTRA:          -6.375
REMARK INTER:                  -5.467
REMARK INTRA:                  -0.908
REMARK UNBOUND:                -0.689
REMARK SMILES CCCCCCCCC(=O)[O-]
REMARK SMILES IDX 6 1 7 2 8 3 9 4 10 5 11 6 5 7 4 8 3 9 2 10 1 11
REMARK H PARENT
REMARK Flexibility Score: inf
ROOT
ATOM      1  C   UNL     1      -0.297  55.886  18.004  1.00  0.00     0.000 C 
ENDROOT
BRANCH   1   2
ATOM      2  C   UNL     1       0.699  56.641  17.110  1.00  0.00     0.006 C 
BRANCH   2   3
ATOM      3  C   UNL     1       1.845  55.727  16.670  1.00  0.00     0.053 C 
BRANCH   3   4
ATOM      4  C   UNL     1       3.118  56.113  17.356  1.00  0.00     0.041 C 
ATOM      5  O   UNL     1       3.160  57.143  18.079  1.00  0.00    -0.550 OA
ATOM      6  O   UNL     1       4.270  55.363  17.156  1.00  0.00    -0.550 OA
ENDBRANCH   3   4
ENDBRANCH   2   3
ENDBRANCH   1   2
BRANCH   1   7
ATOM      7  C   UNL     1      -0.059  56.159  19.504  1.00  0.00     0.000 C 
BRANCH   7   8
ATOM      8  C   UNL     1       0.408  54.922  20.290  1.00  0.00    -0.000 C 
BRANCH   8   9
ATOM      9  C   UNL     1       1.863  55.036  20.773  1.00  0.00    -0.000 C 
BRANCH   9  10
ATOM     10  C   UNL     1       2.726  53.843  20.332  1.00  0.00    -0.003 C 
ATOM     11  C   UNL     1       2.000  52.919  19.355  1.00  0.00     0.004 C 
ENDBRANCH   9  10
ENDBRANCH   8   9
ENDBRANCH   7   8
ENDBRANCH   1   7
TORSDOF 7
ENDMDL
MODEL 4
REMARK VINA RESULT:    -4.017      3.197      4.966
REMARK INTER + INTRA:          -6.350
REMARK INTER:                  -6.097
REMARK INTRA:                  -0.253
REMARK UNBOUND:                -0.689
REMARK SMILES CCCCCCCCC(=O)[O-]
REMARK SMILES IDX 6 1 7 2 8 3 9 4 10 5 11 6 5 7 4 8 3 9 2 10 1 11
REMARK H PARENT
REMARK Flexibility Score: inf
ROOT
ATOM      1  C   UNL     1       5.619  56.786  16.808  1.00  0.00     0.000 C 
ENDROOT
BRANCH   1   2
ATOM      2  C   UNL     1       6.738  56.787  17.861  1.00  0.00     0.006 C 
BRANCH   2   3
ATOM      3  C   UNL     1       8.013  57.429  17.307  1.00  0.00     0.053 C 
BRANCH   3   4
ATOM      4  C   UNL     1       8.374  58.646  18.099  1.00  0.00     0.041 C 
ATOM      5  O   UNL     1       9.443  59.267  17.855  1.00  0.00    -0.550 OA
ATOM      6  O   UNL     1       7.555  59.066  19.140  1.00  0.00    -0.550 OA
ENDBRANCH   3   4
ENDBRANCH   2   3
ENDBRANCH   1   2
BRANCH   1   7
ATOM      7  C   UNL     1       4.373  56.009  17.281  1.00  0.00     0.000 C 
BRANCH   7   8
ATOM      8  C   UNL     1       3.886  54.952  16.274  1.00  0.00    -0.000 C 
BRANCH   8   9
ATOM      9  C   UNL     1       2.485  55.256  15.721  1.00  0.00    -0.000 C 
BRANCH   9  10
ATOM     10  C   UNL     1       1.417  55.322  16.824  1.00  0.00    -0.003 C 
ATOM     11  C   UNL     1       0.689  56.666  16.859  1.00  0.00     0.004 C 
ENDBRANCH   9  10
ENDBRANCH   8   9
ENDBRANCH   7   8
ENDBRANCH   1   7
TORSDOF 7
ENDMDL
MODEL 5
REMARK VINA RESULT:    -4.013      2.487      4.252
REMARK INTER + INTRA:          -6.344
REMARK INTER:                  -5.586
REMARK INTRA:                  -0.759
REMARK UNBOUND:                -0.689
REMARK SMILES CCCCCCCCC(=O)[O-]
REMARK SMILES IDX 6 1 7 2 8 3 9 4 10 5 11 6 5 7 4 8 3 9 2 10 1 11
REMARK H PARENT
REMARK Flexibility Score: inf
ROOT
ATOM      1  C   UNL     1      -0.091  55.665  17.898  1.00  0.00     0.000 C 
ENDROOT
BRANCH   1   2
ATOM      2  C   UNL     1      -0.246  56.110  19.360  1.00  0.00     0.006 C 
BRANCH   2   3
ATOM      3  C   UNL     1      -0.050  54.931  20.317  1.00  0.00     0.053 C 
BRANCH   3   4
ATOM      4  C   UNL     1       1.404  54.608  20.461  1.00  0.00     0.041 C 
ATOM      5  O   UNL     1       2.172  55.400  21.069  1.00  0.00    -0.550 OA
ATOM      6  O   UNL     1       1.920  53.457  19.879  1.00  0.00    -0.550 OA
ENDBRANCH   3   4
ENDBRANCH   2   3
ENDBRANCH   1   2
BRANCH   1   7
ATOM      7  C   UNL     1       1.014  56.450  17.162  1.00  0.00     0.000 C 
BRANCH   7   8
ATOM      8  C   UNL     1       1.564  57.640  17.966  1.00  0.00    -0.000 C 
BRANCH   8   9
ATOM      9  C   UNL     1       3.045  57.472  18.344  1.00  0.00    -0.000 C 
BRANCH   9  10
ATOM     10  C   UNL     1       3.666  56.201  17.744  1.00  0.00    -0.003 C 
ATOM     11  C   UNL     1       4.903  56.494  16.896  1.00  0.00     0.004 C 
ENDBRANCH   9  10
ENDBRANCH   8   9
ENDBRANCH   7   8
ENDBRANCH   1   7
TORSDOF 7
ENDMDL
MODEL 6
REMARK VINA RESULT:    -4.011      3.022      4.457
REMARK INTER + INTRA:          -6.342
REMARK INTER:                  -5.557
REMARK INTRA:                  -0.784
REMARK UNBOUND:                -0.689
REMARK SMILES CCCCCCCCC(=O)[O-]
REMARK SMILES IDX 6 1 7 2 8 3 9 4 10 5 11 6 5 7 4 8 3 9 2 10 1 11
REMARK H PARENT
REMARK Flexibility Score: inf
ROOT
ATOM      1  C   UNL     1       0.776  53.626  17.420  1.00  0.00     0.000 C 
ENDROOT
BRANCH   1   2
ATOM      2  C   UNL     1       1.179  52.926  18.727  1.00  0.00     0.006 C 
BRANCH   2   3
ATOM      3  C   UNL     1       2.242  53.733  19.477  1.00  0.00     0.053 C 
BRANCH   3   4
ATOM      4  C   UNL     1       1.620  54.513  20.592  1.00  0.00     0.041 C 
ATOM      5  O   UNL     1       2.335  55.232  21.339  1.00  0.00    -0.550 OA
ATOM      6  O   UNL     1       0.257  54.405  20.838  1.00  0.00    -0.550 OA
ENDBRANCH   3   4
ENDBRANCH   2   3
ENDBRANCH   1   2
BRANCH   1   7
ATOM      7  C   UNL     1       2.001  54.070  16.593  1.00  0.00     0.000 C 
BRANCH   7   8
ATOM      8  C   UNL     1       2.030  55.579  16.297  1.00  0.00    -0.000 C 
BRANCH   8   9
ATOM      9  C   UNL     1       0.872  56.341  16.962  1.00  0.00    -0.000 C 
BRANCH   9  10
ATOM     10  C   UNL     1       1.357  57.514  17.827  1.00  0.00    -0.003 C 
ATOM     11  C   UNL     1       2.787  57.323  18.331  1.00  0.00     0.004 C 
ENDBRANCH   9  10
ENDBRANCH   8   9
ENDBRANCH   7   8
ENDBRANCH   1   7
TORSDOF 7
ENDMDL
MODEL 7
REMARK VINA RESULT:    -4.006      4.277      5.689
REMARK INTER + INTRA:          -6.334
REMARK INTER:                  -5.903
REMARK INTRA:                  -0.431
REMARK UNBOUND:                -0.689
REMARK SMILES CCCCCCCCC(=O)[O-]
REMARK SMILES IDX 6 1 7 2 8 3 9 4 10 5 11 6 5 7 4 8 3 9 2 10 1 11
REMARK H PARENT
REMARK Flexibility Score: inf
ROOT
ATOM      1  C   UNL     1       0.637  56.907  16.938  1.00  0.00     0.000 C 
ENDROOT
BRANCH   1   2
ATOM      2  C   UNL     1      -0.877  57.103  16.763  1.00  0.00     0.006 C 
BRANCH   2   3
ATOM      3  C   UNL     1      -1.661  56.264  17.776  1.00  0.00     0.053 C 
BRANCH   3   4
ATOM      4  C   UNL     1      -3.084  56.722  17.847  1.00  0.00     0.041 C 
ATOM      5  O   UNL     1      -3.931  56.059  18.502  1.00  0.00    -0.550 OA
ATOM      6  O   UNL     1      -3.484  57.854  17.149  1.00  0.00    -0.550 OA
ENDBRANCH   3   4
ENDBRANCH   2   3
ENDBRANCH   1   2
BRANCH   1   7
ATOM      7  C   UNL     1       0.974  55.595  17.678  1.00  0.00     0.000 C 
BRANCH   7   8
ATOM      8  C   UNL     1       1.692  54.558  16.798  1.00  0.00    -0.000 C 
BRANCH   8   9
ATOM      9  C   UNL     1       2.533  55.201  15.683  1.00  0.00    -0.000 C 
BRANCH   9  10
ATOM     10  C   UNL     1       4.041  54.989  15.885  1.00  0.00    -0.003 C 
ATOM     11  C   UNL     1       4.709  56.158  16.609  1.00  0.00     0.004 C 
ENDBRANCH   9  10
ENDBRANCH   8   9
ENDBRANCH   7   8
ENDBRANCH   1   7
TORSDOF 7
ENDMDL
MODEL 8
REMARK VINA RESULT:    -3.982      0.959      1.558
REMARK INTER + INTRA:          -6.301
REMARK INTER:                  -5.487
REMARK INTRA:                  -0.815
REMARK UNBOUND:                -0.689
REMARK SMILES CCCCCCCCC(=O)[O-]
REMARK SMILES IDX 6 1 7 2 8 3 9 4 10 5 11 6 5 7 4 8 3 9 2 10 1 11
REMARK H PARENT
REMARK Flexibility Score: inf
ROOT
ATOM      1  C   UNL     1       0.194  55.507  17.924  1.00  0.00     0.000 C 
ENDROOT
BRANCH   1   2
ATOM      2  C   UNL     1       1.159  56.239  16.978  1.00  0.00     0.006 C 
BRANCH   2   3
ATOM      3  C   UNL     1       2.307  55.322  16.548  1.00  0.00     0.053 C 
BRANCH   3   4
ATOM      4  C   UNL     1       3.627  55.938  16.892  1.00  0.00     0.041 C 
ATOM      5  O   UNL     1       4.641  55.699  16.184  1.00  0.00    -0.550 OA
ATOM      6  O   UNL     1       3.747  56.735  18.022  1.00  0.00    -0.550 OA
ENDBRANCH   3   4
ENDBRANCH   2   3
ENDBRANCH   1   2
BRANCH   1   7
ATOM      7  C   UNL     1       0.291  56.028  19.374  1.00  0.00     0.000 C 
BRANCH   7   8
ATOM      8  C   UNL     1       0.656  54.939  20.397  1.00  0.00    -0.000 C 
BRANCH   8   9
ATOM      9  C   UNL     1       2.151  54.934  20.755  1.00  0.00    -0.000 C 
BRANCH   9  10
ATOM     10  C   UNL     1       2.901  53.741  20.140  1.00  0.00    -0.003 C 
ATOM     11  C   UNL     1       1.959  52.706  19.526  1.00  0.00     0.004 C 
ENDBRANCH   9  10
ENDBRANCH   8   9
ENDBRANCH   7   8
ENDBRANCH   1   7
TORSDOF 7
ENDMDL
MODEL 9
REMARK VINA RESULT:    -3.970      2.276      3.847
REMARK INTER + INTRA:          -6.285
REMARK INTER:                  -5.512
REMARK INTRA:                  -0.773
REMARK UNBOUND:                -0.689
REMARK SMILES CCCCCCCCC(=O)[O-]
REMARK SMILES IDX 6 1 7 2 8 3 9 4 10 5 11 6 5 7 4 8 3 9 2 10 1 11
REMARK H PARENT
REMARK Flexibility Score: inf
ROOT
ATOM      1  C   UNL     1      -0.639  55.921  19.702  1.00  0.00     0.000 C 
ENDROOT
BRANCH   1   2
ATOM      2  C   UNL     1       0.022  54.663  20.287  1.00  0.00     0.006 C 
BRANCH   2   3
ATOM      3  C   UNL     1       1.471  54.943  20.695  1.00  0.00     0.053 C 
BRANCH   3   4
ATOM      4  C   UNL     1       2.407  54.040  19.955  1.00  0.00     0.041 C 
ATOM      5  O   UNL     1       2.210  53.781  18.739  1.00  0.00    -0.550 OA
ATOM      6  O   UNL     1       3.470  53.444  20.623  1.00  0.00    -0.550 OA
ENDBRANCH   3   4
ENDBRANCH   2   3
ENDBRANCH   1   2
BRANCH   1   7
ATOM      7  C   UNL     1      -0.967  55.764  18.202  1.00  0.00     0.000 C 
BRANCH   7   8
ATOM      8  C   UNL     1      -0.315  56.836  17.313  1.00  0.00    -0.000 C 
BRANCH   8   9
ATOM      9  C   UNL     1       1.216  56.714  17.256  1.00  0.00    -0.000 C 
BRANCH   9  10
ATOM     10  C   UNL     1       1.928  57.863  17.987  1.00  0.00    -0.003 C 
ATOM     11  C   UNL     1       3.275  57.444  18.574  1.00  0.00     0.004 C 
ENDBRANCH   9  10
ENDBRANCH   8   9
ENDBRANCH   7   8
ENDBRANCH   1   7
TORSDOF 7
ENDMDL
