MODEL 1
REMARK VINA RESULT:    -4.168      0.000      0.000
REMARK INTER + INTRA:          -4.290
REMARK INTER:                  -4.290
REMARK INTRA:                   0.000
REMARK UNBOUND:                 0.000
REMARK SMILES Oc1ccc2[nH]ccc2c1
REMARK SMILES IDX 3 1 4 2 5 3 9 4 8 5 7 6 6 7 10 8 2 9 1 11
REMARK H PARENT 6 10 1 12
REMARK Flexibility Score: inf
ROOT
ATOM      1  C   UNL     1      22.923  40.070  14.390  1.00  0.00     0.048 A 
ATOM      2  C   UNL     1      23.229  39.485  15.632  1.00  0.00     0.030 A 
ATOM      3  C   UNL     1      24.572  39.393  15.995  1.00  0.00     0.046 A 
ATOM      4  C   UNL     1      25.571  39.854  15.179  1.00  0.00     0.003 A 
ATOM      5  C   UNL     1      26.767  39.618  15.820  1.00  0.00     0.028 A 
ATOM      6  C   UNL     1      26.421  39.010  17.023  1.00  0.00     0.083 A 
ATOM      7  N   UNL     1      25.080  38.875  17.125  1.00  0.00    -0.361 N 
ATOM      8  C   UNL     1      25.302  40.438  13.944  1.00  0.00     0.056 A 
ATOM      9  C   UNL     1      23.953  40.546  13.546  1.00  0.00     0.116 A 
ATOM     10  H   UNL     1      24.551  38.454  17.921  1.00  0.00     0.166 HD
ENDROOT
BRANCH   9  11
ATOM     11  O   UNL     1      23.623  41.122  12.321  1.00  0.00    -0.508 OA
ATOM     12  H   UNL     1      22.689  41.468  12.134  1.00  0.00     0.293 HD
ENDBRANCH   9  11
TORSDOF 1
ENDMDL
MODEL 2
REMARK VINA RESULT:    -4.016     15.215     15.576
REMARK INTER + INTRA:          -4.134
REMARK INTER:                  -4.134
REMARK INTRA:                   0.000
REMARK UNBOUND:                 0.000
REMARK SMILES Oc1ccc2[nH]ccc2c1
REMARK SMILES IDX 3 1 4 2 5 3 9 4 8 5 7 6 6 7 10 8 2 9 1 11
REMARK H PARENT 6 10 1 12
REMARK Flexibility Score: inf
ROOT
ATOM      1  C   UNL     1      39.153  44.780  12.912  1.00  0.00     0.048 A 
ATOM      2  C   UNL     1      39.212  43.616  13.700  1.00  0.00     0.030 A 
ATOM      3  C   UNL     1      39.553  42.420  13.070  1.00  0.00     0.046 A 
ATOM      4  C   UNL     1      39.825  42.365  11.730  1.00  0.00     0.003 A 
ATOM      5  C   UNL     1      40.125  41.056  11.423  1.00  0.00     0.028 A 
ATOM      6  C   UNL     1      40.016  40.367  12.628  1.00  0.00     0.083 A 
ATOM      7  N   UNL     1      39.667  41.205  13.630  1.00  0.00    -0.361 N 
ATOM      8  C   UNL     1      39.776  43.498  10.921  1.00  0.00     0.056 A 
ATOM      9  C   UNL     1      39.433  44.725  11.527  1.00  0.00     0.116 A 
ATOM     10  H   UNL     1      39.517  40.954  14.633  1.00  0.00     0.166 HD
ENDROOT
BRANCH   9  11
ATOM     11  O   UNL     1      39.368  45.893  10.769  1.00  0.00    -0.508 OA
ATOM     12  H   UNL     1      38.514  46.172  10.302  1.00  0.00     0.293 HD
ENDBRANCH   9  11
TORSDOF 1
ENDMDL
MODEL 3
REMARK VINA RESULT:    -3.873      1.883      2.657
REMARK INTER + INTRA:          -3.986
REMARK INTER:                  -3.986
REMARK INTRA:                   0.000
REMARK UNBOUND:                 0.000
REMARK SMILES Oc1ccc2[nH]ccc2c1
REMARK SMILES IDX 3 1 4 2 5 3 9 4 8 5 7 6 6 7 10 8 2 9 1 11
REMARK H PARENT 6 10 1 12
REMARK Flexibility Score: inf
ROOT
ATOM      1  C   UNL     1      21.546  39.098  16.055  1.00  0.00     0.048 A 
ATOM      2  C   UNL     1      22.889  39.026  16.467  1.00  0.00     0.030 A 
ATOM      3  C   UNL     1      23.868  39.458  15.575  1.00  0.00     0.046 A 
ATOM      4  C   UNL     1      23.548  39.940  14.334  1.00  0.00     0.003 A 
ATOM      5  C   UNL     1      24.728  40.278  13.707  1.00  0.00     0.028 A 
ATOM      6  C   UNL     1      25.728  39.976  14.626  1.00  0.00     0.083 A 
ATOM      7  N   UNL     1      25.197  39.475  15.765  1.00  0.00    -0.361 N 
ATOM      8  C   UNL     1      22.230  40.025  13.894  1.00  0.00     0.056 A 
ATOM      9  C   UNL     1      21.213  39.595  14.773  1.00  0.00     0.116 A 
ATOM     10  H   UNL     1      25.719  39.167  16.616  1.00  0.00     0.166 HD
ENDROOT
BRANCH   9  11
ATOM     11  O   UNL     1      19.875  39.657  14.389  1.00  0.00    -0.508 OA
ATOM     12  H   UNL     1      19.129  39.420  15.032  1.00  0.00     0.293 HD
ENDBRANCH   9  11
TORSDOF 1
ENDMDL
MODEL 4
REMARK VINA RESULT:    -3.872      1.539      2.232
REMARK INTER + INTRA:          -3.985
REMARK INTER:                  -3.985
REMARK INTRA:                   0.000
REMARK UNBOUND:                 0.000
REMARK SMILES Oc1ccc2[nH]ccc2c1
REMARK SMILES IDX 3 1 4 2 5 3 9 4 8 5 7 6 6 7 10 8 2 9 1 11
REMARK H PARENT 6 10 1 12
REMARK Flexibility Score: inf
ROOT
ATOM      1  C   UNL     1      23.249  40.687  13.301  1.00  0.00     0.048 A 
ATOM      2  C   UNL     1      24.651  40.734  13.414  1.00  0.00     0.030 A 
ATOM      3  C   UNL     1      25.240  40.079  14.494  1.00  0.00     0.046 A 
ATOM      4  C   UNL     1      24.491  39.407  15.423  1.00  0.00     0.003 A 
ATOM      5  C   UNL     1      25.363  38.877  16.350  1.00  0.00     0.028 A 
ATOM      6  C   UNL     1      26.628  39.267  15.921  1.00  0.00     0.083 A 
ATOM      7  N   UNL     1      26.548  40.000  14.788  1.00  0.00    -0.361 N 
ATOM      8  C   UNL     1      23.102  39.341  15.342  1.00  0.00     0.056 A 
ATOM      9  C   UNL     1      22.474  39.993  14.260  1.00  0.00     0.116 A 
ATOM     10  H   UNL     1      27.342  40.418  14.254  1.00  0.00     0.166 HD
ENDROOT
BRANCH   9  11
ATOM     11  O   UNL     1      21.087  39.961  14.125  1.00  0.00    -0.508 OA
ATOM     12  H   UNL     1      20.541  39.183  14.474  1.00  0.00     0.293 HD
ENDBRANCH   9  11
TORSDOF 1
ENDMDL
MODEL 5
REMARK VINA RESULT:    -3.831      2.341      3.666
REMARK INTER + INTRA:          -3.943
REMARK INTER:                  -3.943
REMARK INTRA:                   0.000
REMARK UNBOUND:                 0.000
REMARK SMILES Oc1ccc2[nH]ccc2c1
REMARK SMILES IDX 3 1 4 2 5 3 9 4 8 5 7 6 6 7 10 8 2 9 1 11
REMARK H PARENT 6 10 1 12
REMARK Flexibility Score: inf
ROOT
ATOM      1  C   UNL     1      24.742  40.704  13.476  1.00  0.00     0.048 A 
ATOM      2  C   UNL     1      23.355  40.745  13.245  1.00  0.00     0.030 A 
ATOM      3  C   UNL     1      22.524  40.083  14.148  1.00  0.00     0.046 A 
ATOM      4  C   UNL     1      23.028  39.412  15.230  1.00  0.00     0.003 A 
ATOM      5  C   UNL     1      21.961  38.875  15.916  1.00  0.00     0.028 A 
ATOM      6  C   UNL     1      20.835  39.260  15.193  1.00  0.00     0.083 A 
ATOM      7  N   UNL     1      21.185  39.997  14.115  1.00  0.00    -0.361 N 
ATOM      8  C   UNL     1      24.395  39.352  15.488  1.00  0.00     0.056 A 
ATOM      9  C   UNL     1      25.265  40.011  14.593  1.00  0.00     0.116 A 
ATOM     10  H   UNL     1      20.541  40.413  13.405  1.00  0.00     0.166 HD
ENDROOT
BRANCH   9  11
ATOM     11  O   UNL     1      26.642  39.987  14.799  1.00  0.00    -0.508 OA
ATOM     12  H   UNL     1      27.233  40.757  14.511  1.00  0.00     0.293 HD
ENDBRANCH   9  11
TORSDOF 1
ENDMDL
MODEL 6
REMARK VINA RESULT:    -3.705     14.965     15.610
REMARK INTER + INTRA:          -3.813
REMARK INTER:                  -3.813
REMARK INTRA:                   0.000
REMARK UNBOUND:                 0.000
REMARK SMILES Oc1ccc2[nH]ccc2c1
REMARK SMILES IDX 3 1 4 2 5 3 9 4 8 5 7 6 6 7 10 8 2 9 1 11
REMARK H PARENT 6 10 1 12
REMARK Flexibility Score: inf
ROOT
ATOM      1  C   UNL     1      38.840  43.564  14.419  1.00  0.00     0.048 A 
ATOM      2  C   UNL     1      38.620  44.299  13.241  1.00  0.00     0.030 A 
ATOM      3  C   UNL     1      39.069  43.754  12.039  1.00  0.00     0.046 A 
ATOM      4  C   UNL     1      39.705  42.543  11.992  1.00  0.00     0.003 A 
ATOM      5  C   UNL     1      40.016  42.292  10.674  1.00  0.00     0.028 A 
ATOM      6  C   UNL     1      39.540  43.395   9.972  1.00  0.00     0.083 A 
ATOM      7  N   UNL     1      38.962  44.285  10.810  1.00  0.00    -0.361 N 
ATOM      8  C   UNL     1      39.939  41.789  13.139  1.00  0.00     0.056 A 
ATOM      9  C   UNL     1      39.497  42.312  14.373  1.00  0.00     0.116 A 
ATOM     10  H   UNL     1      38.523  45.197  10.551  1.00  0.00     0.166 HD
ENDROOT
BRANCH   9  11
ATOM     11  O   UNL     1      39.703  41.603  15.555  1.00  0.00    -0.508 OA
ATOM     12  H   UNL     1      40.228  41.999  16.324  1.00  0.00     0.293 HD
ENDBRANCH   9  11
TORSDOF 1
ENDMDL
MODEL 7
REMARK VINA RESULT:    -3.673     15.094     15.417
REMARK INTER + INTRA:          -3.781
REMARK INTER:                  -3.781
REMARK INTRA:                   0.000
REMARK UNBOUND:                 0.000
REMARK SMILES Oc1ccc2[nH]ccc2c1
REMARK SMILES IDX 3 1 4 2 5 3 9 4 8 5 7 6 6 7 10 8 2 9 1 11
REMARK H PARENT 6 10 1 12
REMARK Flexibility Score: inf
ROOT
ATOM      1  C   UNL     1      39.441  43.559  10.852  1.00  0.00     0.048 A 
ATOM      2  C   UNL     1      39.464  42.380  11.619  1.00  0.00     0.030 A 
ATOM      3  C   UNL     1      39.460  42.505  13.007  1.00  0.00     0.046 A 
ATOM      4  C   UNL     1      39.435  43.730  13.618  1.00  0.00     0.003 A 
ATOM      5  C   UNL     1      39.439  43.512  14.979  1.00  0.00     0.028 A 
ATOM      6  C   UNL     1      39.466  42.128  15.124  1.00  0.00     0.083 A 
ATOM      7  N   UNL     1      39.479  41.518  13.917  1.00  0.00    -0.361 N 
ATOM      8  C   UNL     1      39.412  44.917  12.890  1.00  0.00     0.056 A 
ATOM      9  C   UNL     1      39.415  44.825  11.481  1.00  0.00     0.116 A 
ATOM     10  H   UNL     1      39.500  40.490  13.735  1.00  0.00     0.166 HD
ENDROOT
BRANCH   9  11
ATOM     11  O   UNL     1      39.392  45.978  10.699  1.00  0.00    -0.508 OA
ATOM     12  H   UNL     1      40.149  46.650  10.726  1.00  0.00     0.293 HD
ENDBRANCH   9  11
TORSDOF 1
ENDMDL
MODEL 8
REMARK VINA RESULT:    -3.531     17.497     18.557
REMARK INTER + INTRA:          -3.634
REMARK INTER:                  -3.634
REMARK INTRA:                   0.000
REMARK UNBOUND:                 0.000
REMARK SMILES Oc1ccc2[nH]ccc2c1
REMARK SMILES IDX 3 1 4 2 5 3 9 4 8 5 7 6 6 7 10 8 2 9 1 11
REMARK H PARENT 6 10 1 12
REMARK Flexibility Score: inf
ROOT
ATOM      1  C   UNL     1      38.299  49.946  14.596  1.00  0.00     0.048 A 
ATOM      2  C   UNL     1      38.462  51.343  14.588  1.00  0.00     0.030 A 
ATOM      3  C   UNL     1      39.069  51.921  13.474  1.00  0.00     0.046 A 
ATOM      4  C   UNL     1      39.498  51.166  12.416  1.00  0.00     0.003 A 
ATOM      5  C   UNL     1      40.046  52.027  11.490  1.00  0.00     0.028 A 
ATOM      6  C   UNL     1      39.917  53.294  12.052  1.00  0.00     0.083 A 
ATOM      7  N   UNL     1      39.319  53.223  13.263  1.00  0.00    -0.361 N 
ATOM      8  C   UNL     1      39.353  49.781  12.392  1.00  0.00     0.056 A 
ATOM      9  C   UNL     1      38.742  49.164  13.504  1.00  0.00     0.116 A 
ATOM     10  H   UNL     1      39.099  54.021  13.901  1.00  0.00     0.166 HD
ENDROOT
BRANCH   9  11
ATOM     11  O   UNL     1      38.569  47.781  13.537  1.00  0.00    -0.508 OA
ATOM     12  H   UNL     1      37.890  47.349  14.153  1.00  0.00     0.293 HD
ENDBRANCH   9  11
TORSDOF 1
ENDMDL
MODEL 9
REMARK VINA RESULT:    -3.152     17.836     18.908
REMARK INTER + INTRA:          -3.244
REMARK INTER:                  -3.244
REMARK INTRA:                   0.000
REMARK UNBOUND:                 0.000
REMARK SMILES Oc1ccc2[nH]ccc2c1
REMARK SMILES IDX 3 1 4 2 5 3 9 4 8 5 7 6 6 7 10 8 2 9 1 11
REMARK H PARENT 6 10 1 12
REMARK Flexibility Score: inf
ROOT
ATOM      1  C   UNL     1      39.420  49.138  11.423  1.00  0.00     0.048 A 
ATOM      2  C   UNL     1      39.831  50.333  10.805  1.00  0.00     0.030 A 
ATOM      3  C   UNL     1      39.782  51.506  11.557  1.00  0.00     0.046 A 
ATOM      4  C   UNL     1      39.352  51.510  12.856  1.00  0.00     0.003 A 
ATOM      5  C   UNL     1      39.424  52.808  13.311  1.00  0.00     0.028 A 
ATOM      6  C   UNL     1      39.908  53.544  12.232  1.00  0.00     0.083 A 
ATOM      7  N   UNL     1      40.125  52.744  11.164  1.00  0.00    -0.361 N 
ATOM      8  C   UNL     1      38.939  50.345  13.499  1.00  0.00     0.056 A 
ATOM      9  C   UNL     1      38.975  49.140  12.766  1.00  0.00     0.116 A 
ATOM     10  H   UNL     1      40.486  53.033  10.227  1.00  0.00     0.166 HD
ENDROOT
BRANCH   9  11
ATOM     11  O   UNL     1      38.575  47.943  13.356  1.00  0.00    -0.508 OA
ATOM     12  H   UNL     1      38.968  47.055  13.068  1.00  0.00     0.293 HD
ENDBRANCH   9  11
TORSDOF 1
ENDMDL
