MODEL 1
REMARK VINA RESULT:    -7.907      0.000      0.000
REMARK INTER + INTRA:          -9.974
REMARK INTER:                  -9.293
REMARK INTRA:                  -0.680
REMARK UNBOUND:                -0.680
REMARK SMILES C=C(C)[C@@H]1CC[C@]2(CO)CC[C@]3(C)[C@H](CC[C@H]4[C@@]5(C)CC[C@H](O)C(C)(C)[C@H]5CC[C@]43C)[C@@H]12
REMARK SMILES IDX 4 1 5 2 6 3 7 4 32 5 14 6 15 7 16 8 17 9 18 10 20 11 21 12
REMARK SMILES IDX 22 13 24 14 27 15 28 16 29 17 30 18 12 19 11 20 10 21 13 22
REMARK SMILES IDX 31 23 25 24 26 25 19 26 2 27 3 28 1 29 8 30 9 31 23 33
REMARK H PARENT 9 32 23 34
REMARK Flexibility Score: inf
ROOT
ATOM      1  C   UNL     1       7.652 -40.869  19.624  1.00  0.00     0.018 C 
ATOM      2  C   UNL     1       8.729 -41.531  18.729  1.00  0.00     0.009 C 
ATOM      3  C   UNL     1       9.558 -42.455  19.643  1.00  0.00     0.010 C 
ATOM      4  C   UNL     1       9.318 -41.916  21.062  1.00  0.00    -0.003 C 
ATOM      5  C   UNL     1       7.811 -41.588  20.976  1.00  0.00     0.008 C 
ATOM      6  C   UNL     1       7.329 -40.948  22.301  1.00  0.00    -0.000 C 
ATOM      7  C   UNL     1       6.000 -40.221  22.254  1.00  0.00     0.005 C 
ATOM      8  C   UNL     1       5.853 -39.329  23.499  1.00  0.00     0.005 C 
ATOM      9  C   UNL     1       6.726 -39.723  24.760  1.00  0.00     0.002 C 
ATOM     10  C   UNL     1       6.297 -38.929  26.107  1.00  0.00    -0.026 C 
ATOM     11  C   UNL     1       5.707 -37.518  25.732  1.00  0.00     0.010 C 
ATOM     12  C   UNL     1       5.046 -36.760  26.876  1.00  0.00     0.033 C 
ATOM     13  C   UNL     1       3.895 -37.593  27.452  1.00  0.00     0.120 C 
ATOM     14  C   UNL     1       4.383 -38.942  28.052  1.00  0.00    -0.006 C 
ATOM     15  C   UNL     1       5.269 -39.768  26.999  1.00  0.00     0.003 C 
ATOM     16  C   UNL     1       4.468 -40.761  26.117  1.00  0.00     0.005 C 
ATOM     17  C   UNL     1       5.323 -41.737  25.253  1.00  0.00     0.008 C 
ATOM     18  C   UNL     1       6.795 -41.298  24.884  1.00  0.00    -0.024 C 
ATOM     19  C   UNL     1       7.370 -41.989  23.492  1.00  0.00    -0.024 C 
ATOM     20  C   UNL     1       8.888 -42.464  23.555  1.00  0.00     0.008 C 
ATOM     21  C   UNL     1       9.517 -42.943  22.203  1.00  0.00     0.010 C 
ATOM     22  C   UNL     1       6.543 -43.288  23.178  1.00  0.00     0.012 C 
ATOM     23  C   UNL     1       7.723 -41.763  26.049  1.00  0.00     0.012 C 
ATOM     24  C   UNL     1       3.122 -39.736  28.496  1.00  0.00     0.014 C 
ATOM     25  C   UNL     1       5.191 -38.703  29.362  1.00  0.00     0.014 C 
ATOM     26  C   UNL     1       7.600 -38.653  26.929  1.00  0.00     0.012 C 
ENDROOT
BRANCH   1  27
ATOM     27  C   UNL     1       6.254 -40.970  19.014  1.00  0.00    -0.077 C 
ATOM     28  C   UNL     1       5.499 -42.273  19.068  1.00  0.00     0.039 C 
ATOM     29  C   UNL     1       5.651 -39.909  18.447  1.00  0.00     0.008 C 
ENDBRANCH   1  27
BRANCH   4  30
ATOM     30  C   UNL     1      10.259 -40.674  21.295  1.00  0.00     0.163 C 
BRANCH  30  31
ATOM     31  O   UNL     1      11.532 -41.067  21.744  1.00  0.00    -0.396 OA
ATOM     32  H   UNL     1      11.842 -40.381  22.391  1.00  0.00     0.210 HD
ENDBRANCH  30  31
ENDBRANCH   4  30
BRANCH  13  33
ATOM     33  O   UNL     1       3.148 -36.839  28.380  1.00  0.00    -0.393 OA
ATOM     34  H   UNL     1       2.699 -36.098  27.896  1.00  0.00     0.210 HD
ENDBRANCH  13  33
TORSDOF 4
ENDMDL
MODEL 2
REMARK VINA RESULT:    -7.827      2.187      3.154
REMARK INTER + INTRA:          -9.879
REMARK INTER:                  -9.420
REMARK INTRA:                  -0.459
REMARK UNBOUND:                -0.680
REMARK SMILES C=C(C)[C@@H]1CC[C@]2(CO)CC[C@]3(C)[C@H](CC[C@H]4[C@@]5(C)CC[C@H](O)C(C)(C)[C@H]5CC[C@]43C)[C@@H]12
REMARK SMILES IDX 4 1 5 2 6 3 7 4 32 5 14 6 15 7 16 8 17 9 18 10 20 11 21 12
REMARK SMILES IDX 22 13 24 14 27 15 28 16 29 17 30 18 12 19 11 20 10 21 13 22
REMARK SMILES IDX 31 23 25 24 26 25 19 26 2 27 3 28 1 29 8 30 9 31 23 33
REMARK H PARENT 9 32 23 34
REMARK Flexibility Score: inf
ROOT
ATOM      1  C   UNL     1       8.565 -38.450  21.083  1.00  0.00     0.018 C 
ATOM      2  C   UNL     1       9.534 -38.555  19.880  1.00  0.00     0.009 C 
ATOM      3  C   UNL     1       9.570 -40.040  19.468  1.00  0.00     0.010 C 
ATOM      4  C   UNL     1       9.088 -40.801  20.712  1.00  0.00    -0.003 C 
ATOM      5  C   UNL     1       7.958 -39.861  21.185  1.00  0.00     0.008 C 
ATOM      6  C   UNL     1       7.341 -40.391  22.503  1.00  0.00    -0.000 C 
ATOM      7  C   UNL     1       6.504 -39.408  23.297  1.00  0.00     0.005 C 
ATOM      8  C   UNL     1       6.299 -39.940  24.727  1.00  0.00     0.005 C 
ATOM      9  C   UNL     1       6.461 -41.501  24.932  1.00  0.00     0.002 C 
ATOM     10  C   UNL     1       5.941 -42.012  26.381  1.00  0.00    -0.026 C 
ATOM     11  C   UNL     1       6.115 -40.866  27.446  1.00  0.00     0.010 C 
ATOM     12  C   UNL     1       5.452 -41.120  28.795  1.00  0.00     0.033 C 
ATOM     13  C   UNL     1       3.947 -41.332  28.600  1.00  0.00     0.120 C 
ATOM     14  C   UNL     1       3.633 -42.577  27.723  1.00  0.00    -0.006 C 
ATOM     15  C   UNL     1       4.430 -42.532  26.330  1.00  0.00     0.003 C 
ATOM     16  C   UNL     1       3.660 -41.854  25.166  1.00  0.00     0.005 C 
ATOM     17  C   UNL     1       4.308 -42.000  23.756  1.00  0.00     0.008 C 
ATOM     18  C   UNL     1       5.863 -42.263  23.681  1.00  0.00    -0.024 C 
ATOM     19  C   UNL     1       6.562 -41.749  22.271  1.00  0.00    -0.024 C 
ATOM     20  C   UNL     1       7.654 -42.735  21.663  1.00  0.00     0.008 C 
ATOM     21  C   UNL     1       8.468 -42.193  20.439  1.00  0.00     0.010 C 
ATOM     22  C   UNL     1       5.458 -41.620  21.161  1.00  0.00     0.012 C 
ATOM     23  C   UNL     1       6.076 -43.807  23.768  1.00  0.00     0.012 C 
ATOM     24  C   UNL     1       2.094 -42.618  27.508  1.00  0.00     0.014 C 
ATOM     25  C   UNL     1       3.969 -43.891  28.490  1.00  0.00     0.014 C 
ATOM     26  C   UNL     1       6.881 -43.177  26.837  1.00  0.00     0.012 C 
ENDROOT
BRANCH   1  27
ATOM     27  C   UNL     1       7.538 -37.331  20.901  1.00  0.00    -0.077 C 
ATOM     28  C   UNL     1       6.305 -37.567  20.068  1.00  0.00     0.039 C 
ATOM     29  C   UNL     1       7.686 -36.133  21.496  1.00  0.00     0.008 C 
ENDBRANCH   1  27
BRANCH   4  30
ATOM     30  C   UNL     1      10.298 -40.946  21.713  1.00  0.00     0.163 C 
BRANCH  30  31
ATOM     31  O   UNL     1      11.515 -40.586  21.110  1.00  0.00    -0.396 OA
ATOM     32  H   UNL     1      11.319 -39.864  20.458  1.00  0.00     0.210 HD
ENDBRANCH  30  31
ENDBRANCH   4  30
BRANCH  13  33
ATOM     33  O   UNL     1       3.284 -41.379  29.843  1.00  0.00    -0.393 OA
ATOM     34  H   UNL     1       3.085 -40.449  30.130  1.00  0.00     0.210 HD
ENDBRANCH  13  33
TORSDOF 4
ENDMDL
MODEL 3
REMARK VINA RESULT:    -7.791      1.448      1.833
REMARK INTER + INTRA:          -9.838
REMARK INTER:                  -9.149
REMARK INTRA:                  -0.689
REMARK UNBOUND:                -0.680
REMARK SMILES C=C(C)[C@@H]1CC[C@]2(CO)CC[C@]3(C)[C@H](CC[C@H]4[C@@]5(C)CC[C@H](O)C(C)(C)[C@H]5CC[C@]43C)[C@@H]12
REMARK SMILES IDX 4 1 5 2 6 3 7 4 32 5 14 6 15 7 16 8 17 9 18 10 20 11 21 12
REMARK SMILES IDX 22 13 24 14 27 15 28 16 29 17 30 18 12 19 11 20 10 21 13 22
REMARK SMILES IDX 31 23 25 24 26 25 19 26 2 27 3 28 1 29 8 30 9 31 23 33
REMARK H PARENT 9 32 23 34
REMARK Flexibility Score: inf
ROOT
ATOM      1  C   UNL     1       8.575 -39.013  19.508  1.00  0.00     0.018 C 
ATOM      2  C   UNL     1       9.425 -39.901  18.565  1.00  0.00     0.009 C 
ATOM      3  C   UNL     1       9.407 -41.323  19.160  1.00  0.00     0.010 C 
ATOM      4  C   UNL     1       9.038 -41.122  20.638  1.00  0.00    -0.003 C 
ATOM      5  C   UNL     1       7.966 -40.018  20.503  1.00  0.00     0.008 C 
ATOM      6  C   UNL     1       7.472 -39.581  21.904  1.00  0.00    -0.000 C 
ATOM      7  C   UNL     1       6.724 -38.265  21.974  1.00  0.00     0.005 C 
ATOM      8  C   UNL     1       6.650 -37.788  23.435  1.00  0.00     0.005 C 
ATOM      9  C   UNL     1       6.815 -38.898  24.551  1.00  0.00     0.002 C 
ATOM     10  C   UNL     1       6.431 -38.373  26.036  1.00  0.00    -0.026 C 
ATOM     11  C   UNL     1       6.715 -36.828  26.148  1.00  0.00     0.010 C 
ATOM     12  C   UNL     1       6.181 -36.153  27.405  1.00  0.00     0.033 C 
ATOM     13  C   UNL     1       4.662 -36.339  27.487  1.00  0.00     0.120 C 
ATOM     14  C   UNL     1       4.254 -37.837  27.594  1.00  0.00    -0.006 C 
ATOM     15  C   UNL     1       4.916 -38.711  26.422  1.00  0.00     0.003 C 
ATOM     16  C   UNL     1       4.047 -38.845  25.145  1.00  0.00     0.005 C 
ATOM     17  C   UNL     1       4.556 -39.872  24.087  1.00  0.00     0.008 C 
ATOM     18  C   UNL     1       6.094 -40.227  24.086  1.00  0.00    -0.024 C 
ATOM     19  C   UNL     1       6.662 -40.738  22.616  1.00  0.00    -0.024 C 
ATOM     20  C   UNL     1       7.681 -41.960  22.677  1.00  0.00     0.008 C 
ATOM     21  C   UNL     1       8.381 -42.342  21.329  1.00  0.00     0.010 C 
ATOM     22  C   UNL     1       5.458 -41.248  21.744  1.00  0.00     0.012 C 
ATOM     23  C   UNL     1       6.300 -41.400  25.095  1.00  0.00     0.012 C 
ATOM     24  C   UNL     1       2.702 -37.899  27.557  1.00  0.00     0.014 C 
ATOM     25  C   UNL     1       4.649 -38.418  28.985  1.00  0.00     0.014 C 
ATOM     26  C   UNL     1       7.398 -39.069  27.050  1.00  0.00     0.012 C 
ENDROOT
BRANCH   1  27
ATOM     27  C   UNL     1       7.547 -38.179  18.743  1.00  0.00    -0.077 C 
ATOM     28  C   UNL     1       6.236 -38.794  18.325  1.00  0.00     0.039 C 
ATOM     29  C   UNL     1       7.764 -36.883  18.451  1.00  0.00     0.008 C 
ENDBRANCH   1  27
BRANCH   4  30
ATOM     30  C   UNL     1      10.335 -40.700  21.428  1.00  0.00     0.163 C 
BRANCH  30  31
ATOM     31  O   UNL     1      11.141 -41.811  21.731  1.00  0.00    -0.396 OA
ATOM     32  H   UNL     1      11.965 -41.469  22.165  1.00  0.00     0.210 HD
ENDBRANCH  30  31
ENDBRANCH   4  30
BRANCH  13  33
ATOM     33  O   UNL     1       4.120 -35.567  28.534  1.00  0.00    -0.393 OA
ATOM     34  H   UNL     1       4.429 -34.629  28.427  1.00  0.00     0.210 HD
ENDBRANCH  13  33
TORSDOF 4
ENDMDL
MODEL 4
REMARK VINA RESULT:    -7.709      4.441      6.757
REMARK INTER + INTRA:          -9.741
REMARK INTER:                  -9.048
REMARK INTRA:                  -0.693
REMARK UNBOUND:                -0.680
REMARK SMILES C=C(C)[C@@H]1CC[C@]2(CO)CC[C@]3(C)[C@H](CC[C@H]4[C@@]5(C)CC[C@H](O)C(C)(C)[C@H]5CC[C@]43C)[C@@H]12
REMARK SMILES IDX 4 1 5 2 6 3 7 4 32 5 14 6 15 7 16 8 17 9 18 10 20 11 21 12
REMARK SMILES IDX 22 13 24 14 27 15 28 16 29 17 30 18 12 19 11 20 10 21 13 22
REMARK SMILES IDX 31 23 25 24 26 25 19 26 2 27 3 28 1 29 8 30 9 31 23 33
REMARK H PARENT 9 32 23 34
REMARK Flexibility Score: inf
ROOT
ATOM      1  C   UNL     1       0.023 -43.965  22.401  1.00  0.00     0.018 C 
ATOM      2  C   UNL     1      -1.033 -44.236  21.301  1.00  0.00     0.009 C 
ATOM      3  C   UNL     1      -1.046 -42.998  20.384  1.00  0.00     0.010 C 
ATOM      4  C   UNL     1      -0.441 -41.874  21.239  1.00  0.00    -0.003 C 
ATOM      5  C   UNL     1       0.688 -42.652  21.950  1.00  0.00     0.008 C 
ATOM      6  C   UNL     1       1.425 -41.726  22.949  1.00  0.00    -0.000 C 
ATOM      7  C   UNL     1       2.285 -42.411  23.993  1.00  0.00     0.005 C 
ATOM      8  C   UNL     1       2.621 -41.418  25.119  1.00  0.00     0.005 C 
ATOM      9  C   UNL     1       2.533 -39.879  24.757  1.00  0.00     0.002 C 
ATOM     10  C   UNL     1       3.183 -38.918  25.890  1.00  0.00    -0.026 C 
ATOM     11  C   UNL     1       3.051 -39.595  27.305  1.00  0.00     0.010 C 
ATOM     12  C   UNL     1       3.826 -38.918  28.429  1.00  0.00     0.033 C 
ATOM     13  C   UNL     1       5.318 -38.885  28.082  1.00  0.00     0.120 C 
ATOM     14  C   UNL     1       5.609 -38.057  26.797  1.00  0.00    -0.006 C 
ATOM     15  C   UNL     1       4.705 -38.547  25.565  1.00  0.00     0.003 C 
ATOM     16  C   UNL     1       5.355 -39.642  24.680  1.00  0.00     0.005 C 
ATOM     17  C   UNL     1       4.605 -39.970  23.353  1.00  0.00     0.008 C 
ATOM     18  C   UNL     1       3.059 -39.653  23.282  1.00  0.00    -0.024 C 
ATOM     19  C   UNL     1       2.233 -40.593  22.197  1.00  0.00    -0.024 C 
ATOM     20  C   UNL     1       1.135 -39.822  21.340  1.00  0.00     0.008 C 
ATOM     21  C   UNL     1       0.207 -40.713  20.445  1.00  0.00     0.010 C 
ATOM     22  C   UNL     1       3.242 -41.178  21.144  1.00  0.00     0.012 C 
ATOM     23  C   UNL     1       2.911 -38.170  22.818  1.00  0.00     0.012 C 
ATOM     24  C   UNL     1       7.127 -38.192  26.491  1.00  0.00     0.014 C 
ATOM     25  C   UNL     1       5.383 -36.537  27.058  1.00  0.00     0.014 C 
ATOM     26  C   UNL     1       2.326 -37.610  25.950  1.00  0.00     0.012 C 
ENDROOT
BRANCH   1  27
ATOM     27  C   UNL     1       0.989 -45.137  22.574  1.00  0.00    -0.077 C 
ATOM     28  C   UNL     1       2.075 -45.376  21.558  1.00  0.00     0.039 C 
ATOM     29  C   UNL     1       0.921 -45.959  23.638  1.00  0.00     0.008 C 
ENDBRANCH   1  27
BRANCH   4  30
ATOM     30  C   UNL     1      -1.562 -41.305  22.190  1.00  0.00     0.163 C 
BRANCH  30  31
ATOM     31  O   UNL     1      -2.558 -40.627  21.467  1.00  0.00    -0.396 OA
ATOM     32  H   UNL     1      -2.151 -39.794  21.112  1.00  0.00     0.210 HD
ENDBRANCH  30  31
ENDBRANCH   4  30
BRANCH  13  33
ATOM     33  O   UNL     1       6.078 -38.438  29.182  1.00  0.00    -0.393 OA
ATOM     34  H   UNL     1       5.964 -39.085  29.927  1.00  0.00     0.210 HD
ENDBRANCH  13  33
TORSDOF 4
ENDMDL
MODEL 5
REMARK VINA RESULT:    -7.653      1.996      7.864
REMARK INTER + INTRA:          -9.676
REMARK INTER:                  -9.000
REMARK INTRA:                  -0.675
REMARK UNBOUND:                -0.680
REMARK SMILES C=C(C)[C@@H]1CC[C@]2(CO)CC[C@]3(C)[C@H](CC[C@H]4[C@@]5(C)CC[C@H](O)C(C)(C)[C@H]5CC[C@]43C)[C@@H]12
REMARK SMILES IDX 4 1 5 2 6 3 7 4 32 5 14 6 15 7 16 8 17 9 18 10 20 11 21 12
REMARK SMILES IDX 22 13 24 14 27 15 28 16 29 17 30 18 12 19 11 20 10 21 13 22
REMARK SMILES IDX 31 23 25 24 26 25 19 26 2 27 3 28 1 29 8 30 9 31 23 33
REMARK H PARENT 9 32 23 34
REMARK Flexibility Score: inf
ROOT
ATOM      1  C   UNL     1       3.043 -37.688  26.611  1.00  0.00     0.018 C 
ATOM      2  C   UNL     1       1.602 -37.661  27.177  1.00  0.00     0.009 C 
ATOM      3  C   UNL     1       0.961 -39.017  26.824  1.00  0.00     0.010 C 
ATOM      4  C   UNL     1       1.797 -39.549  25.650  1.00  0.00    -0.003 C 
ATOM      5  C   UNL     1       3.211 -39.136  26.114  1.00  0.00     0.008 C 
ATOM      6  C   UNL     1       4.257 -39.513  25.036  1.00  0.00    -0.000 C 
ATOM      7  C   UNL     1       5.612 -38.844  25.150  1.00  0.00     0.005 C 
ATOM      8  C   UNL     1       6.383 -39.006  23.828  1.00  0.00     0.005 C 
ATOM      9  C   UNL     1       5.941 -40.205  22.893  1.00  0.00     0.002 C 
ATOM     10  C   UNL     1       6.982 -40.486  21.682  1.00  0.00    -0.026 C 
ATOM     11  C   UNL     1       7.704 -39.148  21.275  1.00  0.00     0.010 C 
ATOM     12  C   UNL     1       8.877 -39.303  20.314  1.00  0.00     0.033 C 
ATOM     13  C   UNL     1       9.938 -40.218  20.936  1.00  0.00     0.120 C 
ATOM     14  C   UNL     1       9.401 -41.654  21.198  1.00  0.00    -0.006 C 
ATOM     15  C   UNL     1       8.041 -41.627  22.050  1.00  0.00     0.003 C 
ATOM     16  C   UNL     1       8.237 -41.712  23.586  1.00  0.00     0.005 C 
ATOM     17  C   UNL     1       6.937 -41.920  24.421  1.00  0.00     0.008 C 
ATOM     18  C   UNL     1       5.569 -41.459  23.783  1.00  0.00    -0.024 C 
ATOM     19  C   UNL     1       4.403 -41.082  24.898  1.00  0.00    -0.024 C 
ATOM     20  C   UNL     1       2.938 -41.589  24.537  1.00  0.00     0.008 C 
ATOM     21  C   UNL     1       1.784 -41.087  25.470  1.00  0.00     0.010 C 
ATOM     22  C   UNL     1       4.753 -41.771  26.267  1.00  0.00     0.012 C 
ATOM     23  C   UNL     1       5.028 -42.652  22.933  1.00  0.00     0.012 C 
ATOM     24  C   UNL     1      10.524 -42.444  21.926  1.00  0.00     0.014 C 
ATOM     25  C   UNL     1       9.178 -42.413  19.855  1.00  0.00     0.014 C 
ATOM     26  C   UNL     1       6.147 -40.929  20.435  1.00  0.00     0.012 C 
ENDROOT
BRANCH   1  27
ATOM     27  C   UNL     1       4.079 -37.251  27.648  1.00  0.00    -0.077 C 
ATOM     28  C   UNL     1       4.356 -38.118  28.848  1.00  0.00     0.039 C 
ATOM     29  C   UNL     1       4.785 -36.114  27.506  1.00  0.00     0.008 C 
ENDBRANCH   1  27
BRANCH   4  30
ATOM     30  C   UNL     1       1.302 -38.856  24.323  1.00  0.00     0.163 C 
BRANCH  30  31
ATOM     31  O   UNL     1      -0.005 -39.252  23.990  1.00  0.00    -0.396 OA
ATOM     32  H   UNL     1       0.028 -39.641  23.077  1.00  0.00     0.210 HD
ENDBRANCH  30  31
ENDBRANCH   4  30
BRANCH  13  33
ATOM     33  O   UNL     1      11.111 -40.225  20.155  1.00  0.00    -0.393 OA
ATOM     34  H   UNL     1      10.956 -40.799  19.359  1.00  0.00     0.210 HD
ENDBRANCH  13  33
TORSDOF 4
ENDMDL
MODEL 6
REMARK VINA RESULT:    -7.586      2.185      8.144
REMARK INTER + INTRA:          -9.597
REMARK INTER:                  -8.956
REMARK INTRA:                  -0.641
REMARK UNBOUND:                -0.680
REMARK SMILES C=C(C)[C@@H]1CC[C@]2(CO)CC[C@]3(C)[C@H](CC[C@H]4[C@@]5(C)CC[C@H](O)C(C)(C)[C@H]5CC[C@]43C)[C@@H]12
REMARK SMILES IDX 4 1 5 2 6 3 7 4 32 5 14 6 15 7 16 8 17 9 18 10 20 11 21 12
REMARK SMILES IDX 22 13 24 14 27 15 28 16 29 17 30 18 12 19 11 20 10 21 13 22
REMARK SMILES IDX 31 23 25 24 26 25 19 26 2 27 3 28 1 29 8 30 9 31 23 33
REMARK H PARENT 9 32 23 34
REMARK Flexibility Score: inf
ROOT
ATOM      1  C   UNL     1       3.076 -41.018  27.756  1.00  0.00     0.018 C 
ATOM      2  C   UNL     1       2.076 -40.099  28.500  1.00  0.00     0.009 C 
ATOM      3  C   UNL     1       1.442 -39.181  27.437  1.00  0.00     0.010 C 
ATOM      4  C   UNL     1       2.434 -39.203  26.263  1.00  0.00    -0.003 C 
ATOM      5  C   UNL     1       2.830 -40.695  26.271  1.00  0.00     0.008 C 
ATOM      6  C   UNL     1       3.904 -40.967  25.188  1.00  0.00    -0.000 C 
ATOM      7  C   UNL     1       4.676 -42.265  25.316  1.00  0.00     0.005 C 
ATOM      8  C   UNL     1       5.935 -42.209  24.434  1.00  0.00     0.005 C 
ATOM      9  C   UNL     1       5.911 -41.181  23.230  1.00  0.00     0.002 C 
ATOM     10  C   UNL     1       7.133 -41.392  22.186  1.00  0.00    -0.026 C 
ATOM     11  C   UNL     1       8.383 -41.983  22.937  1.00  0.00     0.010 C 
ATOM     12  C   UNL     1       9.523 -42.454  22.043  1.00  0.00     0.033 C 
ATOM     13  C   UNL     1       9.016 -43.539  21.087  1.00  0.00     0.120 C 
ATOM     14  C   UNL     1       7.905 -43.016  20.132  1.00  0.00    -0.006 C 
ATOM     15  C   UNL     1       6.714 -42.312  20.946  1.00  0.00     0.003 C 
ATOM     16  C   UNL     1       5.552 -43.260  21.341  1.00  0.00     0.005 C 
ATOM     17  C   UNL     1       4.284 -42.565  21.924  1.00  0.00     0.008 C 
ATOM     18  C   UNL     1       4.463 -41.146  22.594  1.00  0.00    -0.024 C 
ATOM     19  C   UNL     1       3.312 -40.794  23.732  1.00  0.00    -0.024 C 
ATOM     20  C   UNL     1       2.769 -39.297  23.697  1.00  0.00     0.008 C 
ATOM     21  C   UNL     1       1.826 -38.879  24.876  1.00  0.00     0.010 C 
ATOM     22  C   UNL     1       2.049 -41.697  23.490  1.00  0.00     0.012 C 
ATOM     23  C   UNL     1       4.336 -40.080  21.461  1.00  0.00     0.012 C 
ATOM     24  C   UNL     1       7.400 -44.227  19.299  1.00  0.00     0.014 C 
ATOM     25  C   UNL     1       8.499 -42.025  19.086  1.00  0.00     0.014 C 
ATOM     26  C   UNL     1       7.563 -39.979  21.668  1.00  0.00     0.012 C 
ENDROOT
BRANCH   1  27
ATOM     27  C   UNL     1       2.887 -42.491  28.123  1.00  0.00    -0.077 C 
ATOM     28  C   UNL     1       4.005 -43.252  28.786  1.00  0.00     0.039 C 
ATOM     29  C   UNL     1       1.726 -43.133  27.897  1.00  0.00     0.008 C 
ENDBRANCH   1  27
BRANCH   4  30
ATOM     30  C   UNL     1       3.607 -38.198  26.575  1.00  0.00     0.163 C 
BRANCH  30  31
ATOM     31  O   UNL     1       3.260 -36.878  26.244  1.00  0.00    -0.396 OA
ATOM     32  H   UNL     1       3.389 -36.774  25.265  1.00  0.00     0.210 HD
ENDBRANCH  30  31
ENDBRANCH   4  30
BRANCH  13  33
ATOM     33  O   UNL     1      10.088 -44.125  20.381  1.00  0.00    -0.393 OA
ATOM     34  H   UNL     1       9.744 -44.909  19.879  1.00  0.00     0.210 HD
ENDBRANCH  13  33
TORSDOF 4
ENDMDL
MODEL 7
REMARK VINA RESULT:    -7.540      4.553      6.881
REMARK INTER + INTRA:          -9.542
REMARK INTER:                  -8.853
REMARK INTRA:                  -0.689
REMARK UNBOUND:                -0.680
REMARK SMILES C=C(C)[C@@H]1CC[C@]2(CO)CC[C@]3(C)[C@H](CC[C@H]4[C@@]5(C)CC[C@H](O)C(C)(C)[C@H]5CC[C@]43C)[C@@H]12
REMARK SMILES IDX 4 1 5 2 6 3 7 4 32 5 14 6 15 7 16 8 17 9 18 10 20 11 21 12
REMARK SMILES IDX 22 13 24 14 27 15 28 16 29 17 30 18 12 19 11 20 10 21 13 22
REMARK SMILES IDX 31 23 25 24 26 25 19 26 2 27 3 28 1 29 8 30 9 31 23 33
REMARK H PARENT 9 32 23 34
REMARK Flexibility Score: inf
ROOT
ATOM      1  C   UNL     1       0.189 -43.862  20.890  1.00  0.00     0.018 C 
ATOM      2  C   UNL     1      -0.731 -43.312  19.772  1.00  0.00     0.009 C 
ATOM      3  C   UNL     1      -0.597 -41.777  19.802  1.00  0.00     0.010 C 
ATOM      4  C   UNL     1      -0.071 -41.461  21.211  1.00  0.00    -0.003 C 
ATOM      5  C   UNL     1       0.940 -42.614  21.389  1.00  0.00     0.008 C 
ATOM      6  C   UNL     1       1.574 -42.554  22.800  1.00  0.00    -0.000 C 
ATOM      7  C   UNL     1       2.279 -43.808  23.276  1.00  0.00     0.005 C 
ATOM      8  C   UNL     1       2.502 -43.733  24.797  1.00  0.00     0.005 C 
ATOM      9  C   UNL     1       2.502 -42.287  25.442  1.00  0.00     0.002 C 
ATOM     10  C   UNL     1       3.033 -42.271  26.973  1.00  0.00    -0.026 C 
ATOM     11  C   UNL     1       2.710 -43.647  27.666  1.00  0.00     0.010 C 
ATOM     12  C   UNL     1       3.359 -43.863  29.028  1.00  0.00     0.033 C 
ATOM     13  C   UNL     1       4.883 -43.771  28.895  1.00  0.00     0.120 C 
ATOM     14  C   UNL     1       5.352 -42.369  28.410  1.00  0.00    -0.006 C 
ATOM     15  C   UNL     1       4.593 -41.928  27.067  1.00  0.00     0.003 C 
ATOM     16  C   UNL     1       5.316 -42.326  25.754  1.00  0.00     0.005 C 
ATOM     17  C   UNL     1       4.726 -41.713  24.447  1.00  0.00     0.008 C 
ATOM     18  C   UNL     1       3.211 -41.270  24.459  1.00  0.00    -0.024 C 
ATOM     19  C   UNL     1       2.499 -41.281  22.963  1.00  0.00    -0.024 C 
ATOM     20  C   UNL     1       1.536 -40.048  22.669  1.00  0.00     0.008 C 
ATOM     21  C   UNL     1       0.701 -40.125  21.345  1.00  0.00     0.010 C 
ATOM     22  C   UNL     1       3.613 -41.208  21.858  1.00  0.00     0.012 C 
ATOM     23  C   UNL     1       3.161 -39.801  24.985  1.00  0.00     0.012 C 
ATOM     24  C   UNL     1       6.891 -42.439  28.209  1.00  0.00     0.014 C 
ATOM     25  C   UNL     1       5.137 -41.301  29.524  1.00  0.00     0.014 C 
ATOM     26  C   UNL     1       2.211 -41.188  27.748  1.00  0.00     0.012 C 
ENDROOT
BRANCH   1  27
ATOM     27  C   UNL     1       1.094 -44.988  20.390  1.00  0.00    -0.077 C 
ATOM     28  C   UNL     1       2.283 -44.671  19.520  1.00  0.00     0.039 C 
ATOM     29  C   UNL     1       0.880 -46.272  20.732  1.00  0.00     0.008 C 
ENDBRANCH   1  27
BRANCH   4  30
ATOM     30  C   UNL     1      -1.284 -41.475  22.217  1.00  0.00     0.163 C 
BRANCH  30  31
ATOM     31  O   UNL     1      -1.988 -40.259  22.196  1.00  0.00    -0.396 OA
ATOM     32  H   UNL     1      -2.522 -40.211  23.031  1.00  0.00     0.210 HD
ENDBRANCH  30  31
ENDBRANCH   4  30
BRANCH  13  33
ATOM     33  O   UNL     1       5.513 -44.154  30.097  1.00  0.00    -0.393 OA
ATOM     34  H   UNL     1       5.979 -43.363  30.474  1.00  0.00     0.210 HD
ENDBRANCH  13  33
TORSDOF 4
ENDMDL
MODEL 8
REMARK VINA RESULT:    -7.445      6.255      9.303
REMARK INTER + INTRA:          -9.430
REMARK INTER:                  -8.759
REMARK INTRA:                  -0.671
REMARK UNBOUND:                -0.680
REMARK SMILES C=C(C)[C@@H]1CC[C@]2(CO)CC[C@]3(C)[C@H](CC[C@H]4[C@@]5(C)CC[C@H](O)C(C)(C)[C@H]5CC[C@]43C)[C@@H]12
REMARK SMILES IDX 4 1 5 2 6 3 7 4 32 5 14 6 15 7 16 8 17 9 18 10 20 11 21 12
REMARK SMILES IDX 22 13 24 14 27 15 28 16 29 17 30 18 12 19 11 20 10 21 13 22
REMARK SMILES IDX 31 23 25 24 26 25 19 26 2 27 3 28 1 29 8 30 9 31 23 33
REMARK H PARENT 9 32 23 34
REMARK Flexibility Score: inf
ROOT
ATOM      1  C   UNL     1       2.348 -40.241  26.156  1.00  0.00     0.018 C 
ATOM      2  C   UNL     1       3.496 -40.791  27.037  1.00  0.00     0.009 C 
ATOM      3  C   UNL     1       4.212 -41.875  26.207  1.00  0.00     0.010 C 
ATOM      4  C   UNL     1       3.182 -42.296  25.147  1.00  0.00    -0.003 C 
ATOM      5  C   UNL     1       2.578 -40.920  24.793  1.00  0.00     0.008 C 
ATOM      6  C   UNL     1       1.434 -41.089  23.762  1.00  0.00    -0.000 C 
ATOM      7  C   UNL     1       0.492 -39.912  23.603  1.00  0.00     0.005 C 
ATOM      8  C   UNL     1      -0.780 -40.364  22.865  1.00  0.00     0.005 C 
ATOM      9  C   UNL     1      -0.658 -41.667  21.974  1.00  0.00     0.002 C 
ATOM     10  C   UNL     1      -1.938 -41.902  21.007  1.00  0.00    -0.026 C 
ATOM     11  C   UNL     1      -3.229 -41.293  21.671  1.00  0.00     0.010 C 
ATOM     12  C   UNL     1      -4.459 -41.229  20.773  1.00  0.00     0.033 C 
ATOM     13  C   UNL     1      -4.149 -40.388  19.530  1.00  0.00     0.120 C 
ATOM     14  C   UNL     1      -3.013 -41.005  18.665  1.00  0.00    -0.006 C 
ATOM     15  C   UNL     1      -1.703 -41.306  19.542  1.00  0.00     0.003 C 
ATOM     16  C   UNL     1      -0.673 -40.148  19.585  1.00  0.00     0.005 C 
ATOM     17  C   UNL     1       0.703 -40.493  20.232  1.00  0.00     0.008 C 
ATOM     18  C   UNL     1       0.754 -41.689  21.262  1.00  0.00    -0.024 C 
ATOM     19  C   UNL     1       1.987 -41.573  22.361  1.00  0.00    -0.024 C 
ATOM     20  C   UNL     1       2.735 -42.941  22.679  1.00  0.00     0.008 C 
ATOM     21  C   UNL     1       3.775 -42.903  23.852  1.00  0.00     0.010 C 
ATOM     22  C   UNL     1       3.098 -40.616  21.796  1.00  0.00     0.012 C 
ATOM     23  C   UNL     1       0.986 -42.997  20.442  1.00  0.00     0.012 C 
ATOM     24  C   UNL     1      -2.719 -40.010  17.507  1.00  0.00     0.014 C 
ATOM     25  C   UNL     1      -3.501 -42.308  17.964  1.00  0.00     0.014 C 
ATOM     26  C   UNL     1      -2.183 -43.445  20.912  1.00  0.00     0.012 C 
ENDROOT
BRANCH   1  27
ATOM     27  C   UNL     1       2.339 -38.713  26.108  1.00  0.00    -0.077 C 
ATOM     28  C   UNL     1       1.224 -37.943  26.768  1.00  0.00     0.039 C 
ATOM     29  C   UNL     1       3.327 -38.018  25.513  1.00  0.00     0.008 C 
ENDBRANCH   1  27
BRANCH   4  30
ATOM     30  C   UNL     1       2.176 -43.319  25.800  1.00  0.00     0.163 C 
BRANCH  30  31
ATOM     31  O   UNL     1       2.852 -44.356  26.466  1.00  0.00    -0.396 OA
ATOM     32  H   UNL     1       2.936 -45.111  25.828  1.00  0.00     0.210 HD
ENDBRANCH  30  31
ENDBRANCH   4  30
BRANCH  13  33
ATOM     33  O   UNL     1      -5.320 -40.155  18.780  1.00  0.00    -0.393 OA
ATOM     34  H   UNL     1      -5.483 -39.176  18.745  1.00  0.00     0.210 HD
ENDBRANCH  13  33
TORSDOF 4
ENDMDL
MODEL 9
REMARK VINA RESULT:    -7.174      4.902      7.883
REMARK INTER + INTRA:          -9.112
REMARK INTER:                  -8.454
REMARK INTRA:                  -0.659
REMARK UNBOUND:                -0.680
REMARK SMILES C=C(C)[C@@H]1CC[C@]2(CO)CC[C@]3(C)[C@H](CC[C@H]4[C@@]5(C)CC[C@H](O)C(C)(C)[C@H]5CC[C@]43C)[C@@H]12
REMARK SMILES IDX 4 1 5 2 6 3 7 4 32 5 14 6 15 7 16 8 17 9 18 10 20 11 21 12
REMARK SMILES IDX 22 13 24 14 27 15 28 16 29 17 30 18 12 19 11 20 10 21 13 22
REMARK SMILES IDX 31 23 25 24 26 25 19 26 2 27 3 28 1 29 8 30 9 31 23 33
REMARK H PARENT 9 32 23 34
REMARK Flexibility Score: inf
ROOT
ATOM      1  C   UNL     1       5.355 -41.217  26.744  1.00  0.00     0.018 C 
ATOM      2  C   UNL     1       6.751 -40.636  27.078  1.00  0.00     0.009 C 
ATOM      3  C   UNL     1       6.993 -39.472  26.096  1.00  0.00     0.010 C 
ATOM      4  C   UNL     1       6.037 -39.746  24.925  1.00  0.00    -0.003 C 
ATOM      5  C   UNL     1       4.794 -40.236  25.698  1.00  0.00     0.008 C 
ATOM      6  C   UNL     1       3.679 -40.652  24.706  1.00  0.00    -0.000 C 
ATOM      7  C   UNL     1       2.560 -41.506  25.269  1.00  0.00     0.005 C 
ATOM      8  C   UNL     1       1.769 -42.148  24.117  1.00  0.00     0.005 C 
ATOM      9  C   UNL     1       1.859 -41.430  22.709  1.00  0.00     0.002 C 
ATOM     10  C   UNL     1       0.776 -41.986  21.638  1.00  0.00    -0.026 C 
ATOM     11  C   UNL     1       0.447 -43.495  21.943  1.00  0.00     0.010 C 
ATOM     12  C   UNL     1      -0.727 -44.080  21.168  1.00  0.00     0.033 C 
ATOM     13  C   UNL     1      -1.996 -43.272  21.465  1.00  0.00     0.120 C 
ATOM     14  C   UNL     1      -1.873 -41.789  21.011  1.00  0.00    -0.006 C 
ATOM     15  C   UNL     1      -0.554 -41.098  21.610  1.00  0.00     0.003 C 
ATOM     16  C   UNL     1      -0.759 -40.383  22.971  1.00  0.00     0.005 C 
ATOM     17  C   UNL     1       0.437 -39.512  23.461  1.00  0.00     0.008 C 
ATOM     18  C   UNL     1       1.877 -39.862  22.915  1.00  0.00    -0.024 C 
ATOM     19  C   UNL     1       3.106 -39.401  23.925  1.00  0.00    -0.024 C 
ATOM     20  C   UNL     1       4.374 -38.771  23.197  1.00  0.00     0.008 C 
ATOM     21  C   UNL     1       5.626 -38.502  24.100  1.00  0.00     0.010 C 
ATOM     22  C   UNL     1       2.588 -38.279  24.895  1.00  0.00     0.012 C 
ATOM     23  C   UNL     1       2.065 -39.087  21.573  1.00  0.00     0.012 C 
ATOM     24  C   UNL     1      -3.167 -41.057  21.465  1.00  0.00     0.014 C 
ATOM     25  C   UNL     1      -1.874 -41.686  19.456  1.00  0.00     0.014 C 
ATOM     26  C   UNL     1       1.451 -41.963  20.226  1.00  0.00     0.012 C 
ENDROOT
BRANCH   1  27
ATOM     27  C   UNL     1       4.485 -41.379  27.991  1.00  0.00    -0.077 C 
ATOM     28  C   UNL     1       3.752 -40.191  28.559  1.00  0.00     0.039 C 
ATOM     29  C   UNL     1       4.324 -42.573  28.591  1.00  0.00     0.008 C 
ENDBRANCH   1  27
BRANCH   4  30
ATOM     30  C   UNL     1       6.698 -40.817  23.975  1.00  0.00     0.163 C 
BRANCH  30  31
ATOM     31  O   UNL     1       7.474 -40.211  22.973  1.00  0.00    -0.396 OA
ATOM     32  H   UNL     1       7.265 -40.670  22.118  1.00  0.00     0.210 HD
ENDBRANCH  30  31
ENDBRANCH   4  30
BRANCH  13  33
ATOM     33  O   UNL     1      -3.130 -43.903  20.913  1.00  0.00    -0.393 OA
ATOM     34  H   UNL     1      -3.893 -43.269  20.953  1.00  0.00     0.210 HD
ENDBRANCH  13  33
TORSDOF 4
ENDMDL
