MODEL 1
REMARK VINA RESULT:    -4.725      0.000      0.000
REMARK INTER + INTRA:         -15.369
REMARK INTER:                 -11.908
REMARK INTRA:                  -3.461
REMARK UNBOUND:                -3.461
REMARK SMILES CCCCCCCCCCCCCCCCCCCCCCCCCCCC(=O)[O-]
REMARK SMILES IDX 15 1 16 2 17 3 18 4 19 5 20 6 21 7 22 8 23 9 24 10 25 11
REMARK SMILES IDX 26 12 27 13 28 14 29 15 30 16 14 17 13 18 12 19 11 20 10 21
REMARK SMILES IDX 9 22 8 23 7 24 6 25 5 26 4 27 3 28 2 29 1 30
REMARK H PARENT
REMARK Flexibility Score: inf
ROOT
ATOM      1  C   UNL     1     137.046 132.645 126.867  1.00  0.00     0.000 C 
ENDROOT
BRANCH   1   2
ATOM      2  C   UNL     1     136.869 133.727 127.944  1.00  0.00     0.000 C 
BRANCH   2   3
ATOM      3  C   UNL     1     135.397 133.867 128.351  1.00  0.00     0.000 C 
BRANCH   3   4
ATOM      4  C   UNL     1     135.275 134.380 129.794  1.00  0.00     0.000 C 
BRANCH   4   5
ATOM      5  C   UNL     1     136.409 133.878 130.704  1.00  0.00     0.000 C 
BRANCH   5   6
ATOM      6  C   UNL     1     136.085 132.597 131.494  1.00  0.00     0.000 C 
BRANCH   6   7
ATOM      7  C   UNL     1     134.852 132.686 132.415  1.00  0.00     0.000 C 
BRANCH   7   8
ATOM      8  C   UNL     1     133.626 131.875 131.956  1.00  0.00     0.000 C 
BRANCH   8   9
ATOM      9  C   UNL     1     133.649 131.552 130.453  1.00  0.00     0.000 C 
BRANCH   9  10
ATOM     10  C   UNL     1     133.435 130.056 130.161  1.00  0.00     0.000 C 
BRANCH  10  11
ATOM     11  C   UNL     1     134.723 129.238 129.943  1.00  0.00     0.000 C 
BRANCH  11  12
ATOM     12  C   UNL     1     134.697 127.817 130.532  1.00  0.00     0.006 C 
BRANCH  12  13
ATOM     13  C   UNL     1     136.051 127.103 130.426  1.00  0.00     0.053 C 
BRANCH  13  14
ATOM     14  C   UNL     1     135.876 125.622 130.549  1.00  0.00     0.041 C 
ATOM     15  O   UNL     1     136.879 124.875 130.713  1.00  0.00    -0.550 OA
ATOM     16  O   UNL     1     134.603 125.067 130.512  1.00  0.00    -0.550 OA
ENDBRANCH  13  14
ENDBRANCH  12  13
ENDBRANCH  11  12
ENDBRANCH  10  11
ENDBRANCH   9  10
ENDBRANCH   8   9
ENDBRANCH   7   8
ENDBRANCH   6   7
ENDBRANCH   5   6
ENDBRANCH   4   5
ENDBRANCH   3   4
ENDBRANCH   2   3
ENDBRANCH   1   2
BRANCH   1  17
ATOM     17  C   UNL     1     136.677 131.236 127.377  1.00  0.00     0.000 C 
BRANCH  17  18
ATOM     18  C   UNL     1     137.123 130.960 128.828  1.00  0.00     0.000 C 
BRANCH  18  19
ATOM     19  C   UNL     1     138.488 130.265 128.971  1.00  0.00     0.000 C 
BRANCH  19  20
ATOM     20  C   UNL     1     139.383 130.812 130.102  1.00  0.00     0.000 C 
BRANCH  20  21
ATOM     21  C   UNL     1     139.695 132.317 130.010  1.00  0.00     0.000 C 
BRANCH  21  22
ATOM     22  C   UNL     1     139.671 133.072 131.354  1.00  0.00    -0.000 C 
BRANCH  22  23
ATOM     23  C   UNL     1     140.553 134.333 131.406  1.00  0.00    -0.000 C 
BRANCH  23  24
ATOM     24  C   UNL     1     140.672 135.030 130.040  1.00  0.00    -0.000 C 
BRANCH  24  25
ATOM     25  C   UNL     1     139.463 135.938 129.733  1.00  0.00    -0.000 C 
BRANCH  25  26
ATOM     26  C   UNL     1     139.314 137.114 130.711  1.00  0.00    -0.000 C 
BRANCH  26  27
ATOM     27  C   UNL     1     138.114 138.017 130.380  1.00  0.00    -0.000 C 
BRANCH  27  28
ATOM     28  C   UNL     1     136.765 137.312 130.641  1.00  0.00    -0.000 C 
BRANCH  28  29
ATOM     29  C   UNL     1     135.540 138.168 130.283  1.00  0.00    -0.003 C 
ATOM     30  C   UNL     1     135.903 139.606 129.919  1.00  0.00     0.004 C 
ENDBRANCH  28  29
ENDBRANCH  27  28
ENDBRANCH  26  27
ENDBRANCH  25  26
ENDBRANCH  24  25
ENDBRANCH  23  24
ENDBRANCH  22  23
ENDBRANCH  21  22
ENDBRANCH  20  21
ENDBRANCH  19  20
ENDBRANCH  18  19
ENDBRANCH  17  18
ENDBRANCH   1  17
TORSDOF 26
ENDMDL
MODEL 2
REMARK VINA RESULT:    -4.626      1.389      2.296
REMARK INTER + INTRA:         -15.117
REMARK INTER:                 -11.784
REMARK INTRA:                  -3.333
REMARK UNBOUND:                -3.461
REMARK SMILES CCCCCCCCCCCCCCCCCCCCCCCCCCCC(=O)[O-]
REMARK SMILES IDX 15 1 16 2 17 3 18 4 19 5 20 6 21 7 22 8 23 9 24 10 25 11
REMARK SMILES IDX 26 12 27 13 28 14 29 15 30 16 14 17 13 18 12 19 11 20 10 21
REMARK SMILES IDX 9 22 8 23 7 24 6 25 5 26 4 27 3 28 2 29 1 30
REMARK H PARENT
REMARK Flexibility Score: inf
ROOT
ATOM      1  C   UNL     1     136.962 133.646 127.679  1.00  0.00     0.000 C 
ENDROOT
BRANCH   1   2
ATOM      2  C   UNL     1     135.503 133.958 128.051  1.00  0.00     0.000 C 
BRANCH   2   3
ATOM      3  C   UNL     1     135.402 134.519 129.474  1.00  0.00     0.000 C 
BRANCH   3   4
ATOM      4  C   UNL     1     134.131 134.014 130.173  1.00  0.00     0.000 C 
BRANCH   4   5
ATOM      5  C   UNL     1     134.421 132.944 131.239  1.00  0.00     0.000 C 
BRANCH   5   6
ATOM      6  C   UNL     1     134.881 131.584 130.681  1.00  0.00     0.000 C 
BRANCH   6   7
ATOM      7  C   UNL     1     133.817 130.809 129.877  1.00  0.00     0.000 C 
BRANCH   7   8
ATOM      8  C   UNL     1     133.716 129.306 130.196  1.00  0.00     0.000 C 
BRANCH   8   9
ATOM      9  C   UNL     1     135.084 128.606 130.230  1.00  0.00     0.000 C 
BRANCH   9  10
ATOM     10  C   UNL     1     134.969 127.074 130.322  1.00  0.00     0.000 C 
BRANCH  10  11
ATOM     11  C   UNL     1     136.304 126.322 130.485  1.00  0.00     0.000 C 
BRANCH  11  12
ATOM     12  C   UNL     1     136.175 124.866 130.964  1.00  0.00     0.006 C 
BRANCH  12  13
ATOM     13  C   UNL     1     137.507 124.105 130.924  1.00  0.00     0.053 C 
BRANCH  13  14
ATOM     14  C   UNL     1     137.453 122.902 131.812  1.00  0.00     0.041 C 
ATOM     15  O   UNL     1     138.336 122.723 132.694  1.00  0.00    -0.550 OA
ATOM     16  O   UNL     1     136.411 121.990 131.685  1.00  0.00    -0.550 OA
ENDBRANCH  13  14
ENDBRANCH  12  13
ENDBRANCH  11  12
ENDBRANCH  10  11
ENDBRANCH   9  10
ENDBRANCH   8   9
ENDBRANCH   7   8
ENDBRANCH   6   7
ENDBRANCH   5   6
ENDBRANCH   4   5
ENDBRANCH   3   4
ENDBRANCH   2   3
ENDBRANCH   1   2
BRANCH   1  17
ATOM     17  C   UNL     1     137.094 132.365 126.827  1.00  0.00     0.000 C 
BRANCH  17  18
ATOM     18  C   UNL     1     136.966 131.059 127.638  1.00  0.00     0.000 C 
BRANCH  18  19
ATOM     19  C   UNL     1     138.294 130.478 128.155  1.00  0.00     0.000 C 
BRANCH  19  20
ATOM     20  C   UNL     1     138.220 129.827 129.551  1.00  0.00     0.000 C 
BRANCH  20  21
ATOM     21  C   UNL     1     138.869 130.645 130.683  1.00  0.00     0.000 C 
BRANCH  21  22
ATOM     22  C   UNL     1     138.271 132.050 130.897  1.00  0.00    -0.000 C 
BRANCH  22  23
ATOM     23  C   UNL     1     139.275 133.116 131.377  1.00  0.00    -0.000 C 
BRANCH  23  24
ATOM     24  C   UNL     1     139.918 133.891 130.214  1.00  0.00    -0.000 C 
BRANCH  24  25
ATOM     25  C   UNL     1     140.698 135.133 130.693  1.00  0.00    -0.000 C 
BRANCH  25  26
ATOM     26  C   UNL     1     139.879 136.433 130.636  1.00  0.00    -0.000 C 
BRANCH  26  27
ATOM     27  C   UNL     1     138.440 136.210 130.142  1.00  0.00    -0.000 C 
BRANCH  27  28
ATOM     28  C   UNL     1     137.420 137.087 130.902  1.00  0.00    -0.000 C 
BRANCH  28  29
ATOM     29  C   UNL     1     137.250 138.493 130.306  1.00  0.00    -0.003 C 
ATOM     30  C   UNL     1     135.796 138.836 129.991  1.00  0.00     0.004 C 
ENDBRANCH  28  29
ENDBRANCH  27  28
ENDBRANCH  26  27
ENDBRANCH  25  26
ENDBRANCH  24  25
ENDBRANCH  23  24
ENDBRANCH  22  23
ENDBRANCH  21  22
ENDBRANCH  20  21
ENDBRANCH  19  20
ENDBRANCH  18  19
ENDBRANCH  17  18
ENDBRANCH   1  17
TORSDOF 26
ENDMDL
MODEL 3
REMARK VINA RESULT:    -4.340      1.044      2.262
REMARK INTER + INTRA:         -14.397
REMARK INTER:                 -10.189
REMARK INTRA:                  -4.208
REMARK UNBOUND:                -3.461
REMARK SMILES CCCCCCCCCCCCCCCCCCCCCCCCCCCC(=O)[O-]
REMARK SMILES IDX 15 1 16 2 17 3 18 4 19 5 20 6 21 7 22 8 23 9 24 10 25 11
REMARK SMILES IDX 26 12 27 13 28 14 29 15 30 16 14 17 13 18 12 19 11 20 10 21
REMARK SMILES IDX 9 22 8 23 7 24 6 25 5 26 4 27 3 28 2 29 1 30
REMARK H PARENT
REMARK Flexibility Score: inf
ROOT
ATOM      1  C   UNL     1     138.916 131.217 128.777  1.00  0.00     0.000 C 
ENDROOT
BRANCH   1   2
ATOM      2  C   UNL     1     138.145 130.815 127.510  1.00  0.00     0.000 C 
BRANCH   2   3
ATOM      3  C   UNL     1     136.722 131.386 127.524  1.00  0.00     0.000 C 
BRANCH   3   4
ATOM      4  C   UNL     1     136.608 132.597 126.587  1.00  0.00     0.000 C 
BRANCH   4   5
ATOM      5  C   UNL     1     136.176 133.880 127.320  1.00  0.00     0.000 C 
BRANCH   5   6
ATOM      6  C   UNL     1     136.046 133.739 128.848  1.00  0.00     0.000 C 
BRANCH   6   7
ATOM      7  C   UNL     1     134.764 134.343 129.457  1.00  0.00     0.000 C 
BRANCH   7   8
ATOM      8  C   UNL     1     133.693 133.322 129.885  1.00  0.00     0.000 C 
BRANCH   8   9
ATOM      9  C   UNL     1     134.290 132.063 130.536  1.00  0.00     0.000 C 
BRANCH   9  10
ATOM     10  C   UNL     1     133.729 130.760 129.940  1.00  0.00     0.000 C 
BRANCH  10  11
ATOM     11  C   UNL     1     134.782 129.690 129.589  1.00  0.00     0.000 C 
BRANCH  11  12
ATOM     12  C   UNL     1     134.537 128.308 130.219  1.00  0.00     0.006 C 
BRANCH  12  13
ATOM     13  C   UNL     1     135.838 127.575 130.572  1.00  0.00     0.053 C 
BRANCH  13  14
ATOM     14  C   UNL     1     135.630 126.093 130.553  1.00  0.00     0.041 C 
ATOM     15  O   UNL     1     134.463 125.616 130.511  1.00  0.00    -0.550 OA
ATOM     16  O   UNL     1     136.724 125.237 130.553  1.00  0.00    -0.550 OA
ENDBRANCH  13  14
ENDBRANCH  12  13
ENDBRANCH  11  12
ENDBRANCH  10  11
ENDBRANCH   9  10
ENDBRANCH   8   9
ENDBRANCH   7   8
ENDBRANCH   6   7
ENDBRANCH   5   6
ENDBRANCH   4   5
ENDBRANCH   3   4
ENDBRANCH   2   3
ENDBRANCH   1   2
BRANCH   1  17
ATOM     17  C   UNL     1     138.563 130.331 129.991  1.00  0.00     0.000 C 
BRANCH  17  18
ATOM     18  C   UNL     1     137.638 131.016 131.017  1.00  0.00     0.000 C 
BRANCH  18  19
ATOM     19  C   UNL     1     137.931 132.506 131.268  1.00  0.00     0.000 C 
BRANCH  19  20
ATOM     20  C   UNL     1     138.966 132.789 132.375  1.00  0.00     0.000 C 
BRANCH  20  21
ATOM     21  C   UNL     1     140.390 133.089 131.870  1.00  0.00     0.000 C 
BRANCH  21  22
ATOM     22  C   UNL     1     140.613 134.528 131.363  1.00  0.00    -0.000 C 
BRANCH  22  23
ATOM     23  C   UNL     1     140.636 134.679 129.831  1.00  0.00    -0.000 C 
BRANCH  23  24
ATOM     24  C   UNL     1     139.239 134.942 129.241  1.00  0.00    -0.000 C 
BRANCH  24  25
ATOM     25  C   UNL     1     138.749 136.381 129.505  1.00  0.00    -0.000 C 
BRANCH  25  26
ATOM     26  C   UNL     1     137.762 136.488 130.679  1.00  0.00    -0.000 C 
BRANCH  26  27
ATOM     27  C   UNL     1     137.154 137.893 130.821  1.00  0.00    -0.000 C 
BRANCH  27  28
ATOM     28  C   UNL     1     135.877 138.065 129.968  1.00  0.00    -0.000 C 
BRANCH  28  29
ATOM     29  C   UNL     1     135.421 139.525 129.827  1.00  0.00    -0.003 C 
ATOM     30  C   UNL     1     136.364 140.515 130.507  1.00  0.00     0.004 C 
ENDBRANCH  28  29
ENDBRANCH  27  28
ENDBRANCH  26  27
ENDBRANCH  25  26
ENDBRANCH  24  25
ENDBRANCH  23  24
ENDBRANCH  22  23
ENDBRANCH  21  22
ENDBRANCH  20  21
ENDBRANCH  19  20
ENDBRANCH  18  19
ENDBRANCH  17  18
ENDBRANCH   1  17
TORSDOF 26
ENDMDL
MODEL 4
REMARK VINA RESULT:    -4.282      1.913      5.048
REMARK INTER + INTRA:         -14.251
REMARK INTER:                 -10.420
REMARK INTRA:                  -3.831
REMARK UNBOUND:                -3.461
REMARK SMILES CCCCCCCCCCCCCCCCCCCCCCCCCCCC(=O)[O-]
REMARK SMILES IDX 15 1 16 2 17 3 18 4 19 5 20 6 21 7 22 8 23 9 24 10 25 11
REMARK SMILES IDX 26 12 27 13 28 14 29 15 30 16 14 17 13 18 12 19 11 20 10 21
REMARK SMILES IDX 9 22 8 23 7 24 6 25 5 26 4 27 3 28 2 29 1 30
REMARK H PARENT
REMARK Flexibility Score: inf
ROOT
ATOM      1  C   UNL     1     136.732 134.261 130.986  1.00  0.00     0.000 C 
ENDROOT
BRANCH   1   2
ATOM      2  C   UNL     1     136.875 132.743 131.180  1.00  0.00     0.000 C 
BRANCH   2   3
ATOM      3  C   UNL     1     136.419 132.319 132.582  1.00  0.00     0.000 C 
BRANCH   3   4
ATOM      4  C   UNL     1     134.952 132.708 132.821  1.00  0.00     0.000 C 
BRANCH   4   5
ATOM      5  C   UNL     1     134.066 132.483 131.584  1.00  0.00     0.000 C 
BRANCH   5   6
ATOM      6  C   UNL     1     133.286 131.155 131.579  1.00  0.00     0.000 C 
BRANCH   6   7
ATOM      7  C   UNL     1     133.337 130.368 130.254  1.00  0.00     0.000 C 
BRANCH   7   8
ATOM      8  C   UNL     1     134.734 129.877 129.832  1.00  0.00     0.000 C 
BRANCH   8   9
ATOM      9  C   UNL     1     135.073 130.215 128.371  1.00  0.00     0.000 C 
BRANCH   9  10
ATOM     10  C   UNL     1     135.866 131.527 128.231  1.00  0.00     0.000 C 
BRANCH  10  11
ATOM     11  C   UNL     1     136.994 131.504 127.182  1.00  0.00     0.000 C 
BRANCH  11  12
ATOM     12  C   UNL     1     138.255 130.729 127.601  1.00  0.00     0.006 C 
BRANCH  12  13
ATOM     13  C   UNL     1     138.823 131.197 128.947  1.00  0.00     0.053 C 
BRANCH  13  14
ATOM     14  C   UNL     1     138.924 130.050 129.904  1.00  0.00     0.041 C 
ATOM     15  O   UNL     1     138.006 129.187 129.960  1.00  0.00    -0.550 OA
ATOM     16  O   UNL     1     140.044 129.918 130.715  1.00  0.00    -0.550 OA
ENDBRANCH  13  14
ENDBRANCH  12  13
ENDBRANCH  11  12
ENDBRANCH  10  11
ENDBRANCH   9  10
ENDBRANCH   8   9
ENDBRANCH   7   8
ENDBRANCH   6   7
ENDBRANCH   5   6
ENDBRANCH   4   5
ENDBRANCH   3   4
ENDBRANCH   2   3
ENDBRANCH   1   2
BRANCH   1  17
ATOM     17  C   UNL     1     136.249 134.633 129.568  1.00  0.00     0.000 C 
BRANCH  17  18
ATOM     18  C   UNL     1     134.715 134.633 129.410  1.00  0.00     0.000 C 
BRANCH  18  19
ATOM     19  C   UNL     1     134.005 135.897 129.927  1.00  0.00     0.000 C 
BRANCH  19  20
ATOM     20  C   UNL     1     134.614 137.230 129.444  1.00  0.00     0.000 C 
BRANCH  20  21
ATOM     21  C   UNL     1     135.425 137.995 130.506  1.00  0.00     0.000 C 
BRANCH  21  22
ATOM     22  C   UNL     1     136.253 139.178 129.968  1.00  0.00    -0.000 C 
BRANCH  22  23
ATOM     23  C   UNL     1     137.772 139.063 130.193  1.00  0.00    -0.000 C 
BRANCH  23  24
ATOM     24  C   UNL     1     138.196 137.663 130.670  1.00  0.00    -0.000 C 
BRANCH  24  25
ATOM     25  C   UNL     1     139.526 137.202 130.038  1.00  0.00    -0.000 C 
BRANCH  25  26
ATOM     26  C   UNL     1     139.367 136.023 129.064  1.00  0.00    -0.000 C 
BRANCH  26  27
ATOM     27  C   UNL     1     139.991 134.721 129.596  1.00  0.00    -0.000 C 
BRANCH  27  28
ATOM     28  C   UNL     1     140.696 134.926 130.956  1.00  0.00    -0.000 C 
BRANCH  28  29
ATOM     29  C   UNL     1     140.531 133.743 131.921  1.00  0.00    -0.003 C 
ATOM     30  C   UNL     1     141.390 133.872 133.177  1.00  0.00     0.004 C 
ENDBRANCH  28  29
ENDBRANCH  27  28
ENDBRANCH  26  27
ENDBRANCH  25  26
ENDBRANCH  24  25
ENDBRANCH  23  24
ENDBRANCH  22  23
ENDBRANCH  21  22
ENDBRANCH  20  21
ENDBRANCH  19  20
ENDBRANCH  18  19
ENDBRANCH  17  18
ENDBRANCH   1  17
TORSDOF 26
ENDMDL
MODEL 5
REMARK VINA RESULT:    -4.272      2.396      4.322
REMARK INTER + INTRA:         -14.226
REMARK INTER:                  -9.850
REMARK INTRA:                  -4.376
REMARK UNBOUND:                -3.461
REMARK SMILES CCCCCCCCCCCCCCCCCCCCCCCCCCCC(=O)[O-]
REMARK SMILES IDX 15 1 16 2 17 3 18 4 19 5 20 6 21 7 22 8 23 9 24 10 25 11
REMARK SMILES IDX 26 12 27 13 28 14 29 15 30 16 14 17 13 18 12 19 11 20 10 21
REMARK SMILES IDX 9 22 8 23 7 24 6 25 5 26 4 27 3 28 2 29 1 30
REMARK H PARENT
REMARK Flexibility Score: inf
ROOT
ATOM      1  C   UNL     1     137.158 130.153 130.234  1.00  0.00     0.000 C 
ENDROOT
BRANCH   1   2
ATOM      2  C   UNL     1     136.275 128.957 130.626  1.00  0.00     0.000 C 
BRANCH   2   3
ATOM      3  C   UNL     1     135.033 128.869 129.729  1.00  0.00     0.000 C 
BRANCH   3   4
ATOM      4  C   UNL     1     134.751 130.218 129.051  1.00  0.00     0.000 C 
BRANCH   4   5
ATOM      5  C   UNL     1     133.407 130.832 129.481  1.00  0.00     0.000 C 
BRANCH   5   6
ATOM      6  C   UNL     1     132.947 130.452 130.901  1.00  0.00     0.000 C 
BRANCH   6   7
ATOM      7  C   UNL     1     133.360 131.439 132.012  1.00  0.00     0.000 C 
BRANCH   7   8
ATOM      8  C   UNL     1     134.041 132.732 131.526  1.00  0.00     0.000 C 
BRANCH   8   9
ATOM      9  C   UNL     1     135.555 132.749 131.792  1.00  0.00     0.000 C 
BRANCH   9  10
ATOM     10  C   UNL     1     136.305 133.759 130.906  1.00  0.00     0.000 C 
BRANCH  10  11
ATOM     11  C   UNL     1     135.446 134.461 129.836  1.00  0.00     0.000 C 
BRANCH  11  12
ATOM     12  C   UNL     1     135.565 133.874 128.419  1.00  0.00     0.006 C 
BRANCH  12  13
ATOM     13  C   UNL     1     136.897 133.149 128.184  1.00  0.00     0.053 C 
BRANCH  13  14
ATOM     14  C   UNL     1     136.919 132.513 126.830  1.00  0.00     0.041 C 
ATOM     15  O   UNL     1     136.633 133.191 125.806  1.00  0.00    -0.550 OA
ATOM     16  O   UNL     1     137.283 131.179 126.694  1.00  0.00    -0.550 OA
ENDBRANCH  13  14
ENDBRANCH  12  13
ENDBRANCH  11  12
ENDBRANCH  10  11
ENDBRANCH   9  10
ENDBRANCH   8   9
ENDBRANCH   7   8
ENDBRANCH   6   7
ENDBRANCH   5   6
ENDBRANCH   4   5
ENDBRANCH   3   4
ENDBRANCH   2   3
ENDBRANCH   1   2
BRANCH   1  17
ATOM     17  C   UNL     1     138.461 129.720 129.530  1.00  0.00     0.000 C 
BRANCH  17  18
ATOM     18  C   UNL     1     139.732 130.377 130.107  1.00  0.00     0.000 C 
BRANCH  18  19
ATOM     19  C   UNL     1     139.836 131.897 129.892  1.00  0.00     0.000 C 
BRANCH  19  20
ATOM     20  C   UNL     1     139.339 132.757 131.072  1.00  0.00     0.000 C 
BRANCH  20  21
ATOM     21  C   UNL     1     140.424 133.611 131.754  1.00  0.00     0.000 C 
BRANCH  21  22
ATOM     22  C   UNL     1     140.415 135.105 131.374  1.00  0.00    -0.000 C 
BRANCH  22  23
ATOM     23  C   UNL     1     140.295 135.389 129.865  1.00  0.00    -0.000 C 
BRANCH  23  24
ATOM     24  C   UNL     1     138.981 136.098 129.497  1.00  0.00    -0.000 C 
BRANCH  24  25
ATOM     25  C   UNL     1     138.686 137.306 130.411  1.00  0.00    -0.000 C 
BRANCH  25  26
ATOM     26  C   UNL     1     137.403 137.148 131.243  1.00  0.00    -0.000 C 
BRANCH  26  27
ATOM     27  C   UNL     1     136.198 137.878 130.625  1.00  0.00    -0.000 C 
BRANCH  27  28
ATOM     28  C   UNL     1     136.622 139.129 129.824  1.00  0.00    -0.000 C 
BRANCH  28  29
ATOM     29  C   UNL     1     135.887 140.411 130.244  1.00  0.00    -0.003 C 
ATOM     30  C   UNL     1     136.766 141.367 131.047  1.00  0.00     0.004 C 
ENDBRANCH  28  29
ENDBRANCH  27  28
ENDBRANCH  26  27
ENDBRANCH  25  26
ENDBRANCH  24  25
ENDBRANCH  23  24
ENDBRANCH  22  23
ENDBRANCH  21  22
ENDBRANCH  20  21
ENDBRANCH  19  20
ENDBRANCH  18  19
ENDBRANCH  17  18
ENDBRANCH   1  17
TORSDOF 26
ENDMDL
MODEL 6
REMARK VINA RESULT:    -4.174      3.355      6.936
REMARK INTER + INTRA:         -13.979
REMARK INTER:                 -10.137
REMARK INTRA:                  -3.842
REMARK UNBOUND:                -3.461
REMARK SMILES CCCCCCCCCCCCCCCCCCCCCCCCCCCC(=O)[O-]
REMARK SMILES IDX 15 1 16 2 17 3 18 4 19 5 20 6 21 7 22 8 23 9 24 10 25 11
REMARK SMILES IDX 26 12 27 13 28 14 29 15 30 16 14 17 13 18 12 19 11 20 10 21
REMARK SMILES IDX 9 22 8 23 7 24 6 25 5 26 4 27 3 28 2 29 1 30
REMARK H PARENT
REMARK Flexibility Score: inf
ROOT
ATOM      1  C   UNL     1     137.265 129.605 130.270  1.00  0.00     0.000 C 
ENDROOT
BRANCH   1   2
ATOM      2  C   UNL     1     138.541 129.486 129.422  1.00  0.00     0.000 C 
BRANCH   2   3
ATOM      3  C   UNL     1     138.534 130.494 128.266  1.00  0.00     0.000 C 
BRANCH   3   4
ATOM      4  C   UNL     1     137.196 131.248 128.205  1.00  0.00     0.000 C 
BRANCH   4   5
ATOM      5  C   UNL     1     137.044 132.089 126.926  1.00  0.00     0.000 C 
BRANCH   5   6
ATOM      6  C   UNL     1     136.545 133.529 127.155  1.00  0.00     0.000 C 
BRANCH   6   7
ATOM      7  C   UNL     1     135.479 133.688 128.257  1.00  0.00     0.000 C 
BRANCH   7   8
ATOM      8  C   UNL     1     135.654 134.914 129.171  1.00  0.00     0.000 C 
BRANCH   8   9
ATOM      9  C   UNL     1     134.317 135.477 129.683  1.00  0.00     0.000 C 
BRANCH   9  10
ATOM     10  C   UNL     1     134.373 136.990 129.958  1.00  0.00     0.000 C 
BRANCH  10  11
ATOM     11  C   UNL     1     135.705 137.505 130.536  1.00  0.00     0.000 C 
BRANCH  11  12
ATOM     12  C   UNL     1     136.279 138.749 129.836  1.00  0.00     0.006 C 
BRANCH  12  13
ATOM     13  C   UNL     1     137.762 138.983 130.157  1.00  0.00     0.053 C 
BRANCH  13  14
ATOM     14  C   UNL     1     138.477 137.678 130.322  1.00  0.00     0.041 C 
ATOM     15  O   UNL     1     138.935 137.343 131.447  1.00  0.00    -0.550 OA
ATOM     16  O   UNL     1     138.613 136.818 129.238  1.00  0.00    -0.550 OA
ENDBRANCH  13  14
ENDBRANCH  12  13
ENDBRANCH  11  12
ENDBRANCH  10  11
ENDBRANCH   9  10
ENDBRANCH   8   9
ENDBRANCH   7   8
ENDBRANCH   6   7
ENDBRANCH   5   6
ENDBRANCH   4   5
ENDBRANCH   3   4
ENDBRANCH   2   3
ENDBRANCH   1   2
BRANCH   1  17
ATOM     17  C   UNL     1     136.521 128.260 130.411  1.00  0.00     0.000 C 
BRANCH  17  18
ATOM     18  C   UNL     1     134.998 128.361 130.182  1.00  0.00     0.000 C 
BRANCH  18  19
ATOM     19  C   UNL     1     134.481 129.768 129.839  1.00  0.00     0.000 C 
BRANCH  19  20
ATOM     20  C   UNL     1     133.136 130.146 130.493  1.00  0.00     0.000 C 
BRANCH  20  21
ATOM     21  C   UNL     1     133.214 131.293 131.518  1.00  0.00     0.000 C 
BRANCH  21  22
ATOM     22  C   UNL     1     134.391 132.268 131.319  1.00  0.00    -0.000 C 
BRANCH  22  23
ATOM     23  C   UNL     1     135.163 132.624 132.603  1.00  0.00    -0.000 C 
BRANCH  23  24
ATOM     24  C   UNL     1     136.663 132.295 132.504  1.00  0.00    -0.000 C 
BRANCH  24  25
ATOM     25  C   UNL     1     137.367 133.085 131.381  1.00  0.00    -0.000 C 
BRANCH  25  26
ATOM     26  C   UNL     1     138.867 132.772 131.257  1.00  0.00    -0.000 C 
BRANCH  26  27
ATOM     27  C   UNL     1     139.528 133.482 130.064  1.00  0.00    -0.000 C 
BRANCH  27  28
ATOM     28  C   UNL     1     140.610 134.489 130.511  1.00  0.00    -0.000 C 
BRANCH  28  29
ATOM     29  C   UNL     1     140.547 134.842 132.005  1.00  0.00    -0.003 C 
ATOM     30  C   UNL     1     141.698 134.244 132.809  1.00  0.00     0.004 C 
ENDBRANCH  28  29
ENDBRANCH  27  28
ENDBRANCH  26  27
ENDBRANCH  25  26
ENDBRANCH  24  25
ENDBRANCH  23  24
ENDBRANCH  22  23
ENDBRANCH  21  22
ENDBRANCH  20  21
ENDBRANCH  19  20
ENDBRANCH  18  19
ENDBRANCH  17  18
ENDBRANCH   1  17
TORSDOF 26
ENDMDL
MODEL 7
REMARK VINA RESULT:    -4.143      2.417      5.504
REMARK INTER + INTRA:         -13.901
REMARK INTER:                  -9.876
REMARK INTRA:                  -4.025
REMARK UNBOUND:                -3.461
REMARK SMILES CCCCCCCCCCCCCCCCCCCCCCCCCCCC(=O)[O-]
REMARK SMILES IDX 15 1 16 2 17 3 18 4 19 5 20 6 21 7 22 8 23 9 24 10 25 11
REMARK SMILES IDX 26 12 27 13 28 14 29 15 30 16 14 17 13 18 12 19 11 20 10 21
REMARK SMILES IDX 9 22 8 23 7 24 6 25 5 26 4 27 3 28 2 29 1 30
REMARK H PARENT
REMARK Flexibility Score: inf
ROOT
ATOM      1  C   UNL     1     136.556 134.348 131.164  1.00  0.00     0.000 C 
ENDROOT
BRANCH   1   2
ATOM      2  C   UNL     1     136.357 132.883 131.583  1.00  0.00     0.000 C 
BRANCH   2   3
ATOM      3  C   UNL     1     135.302 132.762 132.689  1.00  0.00     0.000 C 
BRANCH   3   4
ATOM      4  C   UNL     1     134.016 132.116 132.151  1.00  0.00     0.000 C 
BRANCH   4   5
ATOM      5  C   UNL     1     134.072 131.848 130.636  1.00  0.00     0.000 C 
BRANCH   5   6
ATOM      6  C   UNL     1     133.573 130.456 130.207  1.00  0.00     0.000 C 
BRANCH   6   7
ATOM      7  C   UNL     1     134.616 129.576 129.489  1.00  0.00     0.000 C 
BRANCH   7   8
ATOM      8  C   UNL     1     135.053 128.314 130.256  1.00  0.00     0.000 C 
BRANCH   8   9
ATOM      9  C   UNL     1     136.572 128.246 130.482  1.00  0.00     0.000 C 
BRANCH   9  10
ATOM     10  C   UNL     1     137.263 129.611 130.318  1.00  0.00     0.000 C 
BRANCH  10  11
ATOM     11  C   UNL     1     138.367 129.665 129.244  1.00  0.00     0.000 C 
BRANCH  11  12
ATOM     12  C   UNL     1     138.590 131.049 128.611  1.00  0.00     0.006 C 
BRANCH  12  13
ATOM     13  C   UNL     1     137.285 131.829 128.408  1.00  0.00     0.053 C 
BRANCH  13  14
ATOM     14  C   UNL     1     137.011 132.028 126.950  1.00  0.00     0.041 C 
ATOM     15  O   UNL     1     136.487 133.100 126.543  1.00  0.00    -0.550 OA
ATOM     16  O   UNL     1     137.361 131.042 126.036  1.00  0.00    -0.550 OA
ENDBRANCH  13  14
ENDBRANCH  12  13
ENDBRANCH  11  12
ENDBRANCH  10  11
ENDBRANCH   9  10
ENDBRANCH   8   9
ENDBRANCH   7   8
ENDBRANCH   6   7
ENDBRANCH   5   6
ENDBRANCH   4   5
ENDBRANCH   3   4
ENDBRANCH   2   3
ENDBRANCH   1   2
BRANCH   1  17
ATOM     17  C   UNL     1     136.134 134.608 129.702  1.00  0.00     0.000 C 
BRANCH  17  18
ATOM     18  C   UNL     1     134.674 135.081 129.547  1.00  0.00     0.000 C 
BRANCH  18  19
ATOM     19  C   UNL     1     134.350 136.430 130.213  1.00  0.00     0.000 C 
BRANCH  19  20
ATOM     20  C   UNL     1     134.733 137.674 129.386  1.00  0.00     0.000 C 
BRANCH  20  21
ATOM     21  C   UNL     1     135.605 138.703 130.130  1.00  0.00     0.000 C 
BRANCH  21  22
ATOM     22  C   UNL     1     136.958 138.166 130.639  1.00  0.00    -0.000 C 
BRANCH  22  23
ATOM     23  C   UNL     1     138.195 138.915 130.108  1.00  0.00    -0.000 C 
BRANCH  23  24
ATOM     24  C   UNL     1     139.415 137.995 129.930  1.00  0.00    -0.000 C 
BRANCH  24  25
ATOM     25  C   UNL     1     139.021 136.507 129.823  1.00  0.00    -0.000 C 
BRANCH  25  26
ATOM     26  C   UNL     1     140.223 135.549 129.867  1.00  0.00    -0.000 C 
BRANCH  26  27
ATOM     27  C   UNL     1     139.806 134.073 129.978  1.00  0.00    -0.000 C 
BRANCH  27  28
ATOM     28  C   UNL     1     140.189 133.460 131.343  1.00  0.00    -0.000 C 
BRANCH  28  29
ATOM     29  C   UNL     1     141.066 134.378 132.208  1.00  0.00    -0.003 C 
ATOM     30  C   UNL     1     141.434 133.758 133.553  1.00  0.00     0.004 C 
ENDBRANCH  28  29
ENDBRANCH  27  28
ENDBRANCH  26  27
ENDBRANCH  25  26
ENDBRANCH  24  25
ENDBRANCH  23  24
ENDBRANCH  22  23
ENDBRANCH  21  22
ENDBRANCH  20  21
ENDBRANCH  19  20
ENDBRANCH  18  19
ENDBRANCH  17  18
ENDBRANCH   1  17
TORSDOF 26
ENDMDL
MODEL 8
REMARK VINA RESULT:    -4.086      2.126      6.372
REMARK INTER + INTRA:         -13.758
REMARK INTER:                 -10.011
REMARK INTRA:                  -3.748
REMARK UNBOUND:                -3.461
REMARK SMILES CCCCCCCCCCCCCCCCCCCCCCCCCCCC(=O)[O-]
REMARK SMILES IDX 15 1 16 2 17 3 18 4 19 5 20 6 21 7 22 8 23 9 24 10 25 11
REMARK SMILES IDX 26 12 27 13 28 14 29 15 30 16 14 17 13 18 12 19 11 20 10 21
REMARK SMILES IDX 9 22 8 23 7 24 6 25 5 26 4 27 3 28 2 29 1 30
REMARK H PARENT
REMARK Flexibility Score: inf
ROOT
ATOM      1  C   UNL     1     138.552 138.876 129.838  1.00  0.00     0.000 C 
ENDROOT
BRANCH   1   2
ATOM      2  C   UNL     1     139.176 137.811 130.755  1.00  0.00     0.000 C 
BRANCH   2   3
ATOM      3  C   UNL     1     138.829 136.396 130.275  1.00  0.00     0.000 C 
BRANCH   3   4
ATOM      4  C   UNL     1     140.102 135.569 130.046  1.00  0.00     0.000 C 
BRANCH   4   5
ATOM      5  C   UNL     1     140.760 135.111 131.359  1.00  0.00     0.000 C 
BRANCH   5   6
ATOM      6  C   UNL     1     140.352 133.703 131.831  1.00  0.00     0.000 C 
BRANCH   6   7
ATOM      7  C   UNL     1     139.571 132.864 130.799  1.00  0.00     0.000 C 
BRANCH   7   8
ATOM      8  C   UNL     1     138.287 132.199 131.326  1.00  0.00     0.000 C 
BRANCH   8   9
ATOM      9  C   UNL     1     138.280 132.035 132.855  1.00  0.00     0.000 C 
BRANCH   9  10
ATOM     10  C   UNL     1     136.911 132.350 133.483  1.00  0.00     0.000 C 
BRANCH  10  11
ATOM     11  C   UNL     1     135.939 133.138 132.583  1.00  0.00     0.000 C 
BRANCH  11  12
ATOM     12  C   UNL     1     134.697 132.354 132.126  1.00  0.00     0.006 C 
BRANCH  12  13
ATOM     13  C   UNL     1     134.969 131.465 130.904  1.00  0.00     0.053 C 
BRANCH  13  14
ATOM     14  C   UNL     1     133.698 130.854 130.404  1.00  0.00     0.041 C 
ATOM     15  O   UNL     1     132.802 130.497 131.216  1.00  0.00    -0.550 OA
ATOM     16  O   UNL     1     133.490 130.704 129.038  1.00  0.00    -0.550 OA
ENDBRANCH  13  14
ENDBRANCH  12  13
ENDBRANCH  11  12
ENDBRANCH  10  11
ENDBRANCH   9  10
ENDBRANCH   8   9
ENDBRANCH   7   8
ENDBRANCH   6   7
ENDBRANCH   5   6
ENDBRANCH   4   5
ENDBRANCH   3   4
ENDBRANCH   2   3
ENDBRANCH   1   2
BRANCH   1  17
ATOM     17  C   UNL     1     137.321 139.556 130.474  1.00  0.00     0.000 C 
BRANCH  17  18
ATOM     18  C   UNL     1     135.972 139.020 129.951  1.00  0.00     0.000 C 
BRANCH  18  19
ATOM     19  C   UNL     1     135.595 137.611 130.440  1.00  0.00     0.000 C 
BRANCH  19  20
ATOM     20  C   UNL     1     134.518 136.895 129.599  1.00  0.00     0.000 C 
BRANCH  20  21
ATOM     21  C   UNL     1     134.303 135.411 129.948  1.00  0.00     0.000 C 
BRANCH  21  22
ATOM     22  C   UNL     1     135.006 134.411 129.009  1.00  0.00    -0.000 C 
BRANCH  22  23
ATOM     23  C   UNL     1     136.501 134.184 129.304  1.00  0.00    -0.000 C 
BRANCH  23  24
ATOM     24  C   UNL     1     137.330 133.961 128.028  1.00  0.00    -0.000 C 
BRANCH  24  25
ATOM     25  C   UNL     1     136.553 133.180 126.948  1.00  0.00    -0.000 C 
BRANCH  25  26
ATOM     26  C   UNL     1     137.079 131.754 126.722  1.00  0.00    -0.000 C 
BRANCH  26  27
ATOM     27  C   UNL     1     137.119 130.921 128.015  1.00  0.00    -0.000 C 
BRANCH  27  28
ATOM     28  C   UNL     1     138.556 130.496 128.390  1.00  0.00    -0.000 C 
BRANCH  28  29
ATOM     29  C   UNL     1     138.617 129.254 129.293  1.00  0.00    -0.003 C 
ATOM     30  C   UNL     1     137.364 129.074 130.147  1.00  0.00     0.004 C 
ENDBRANCH  28  29
ENDBRANCH  27  28
ENDBRANCH  26  27
ENDBRANCH  25  26
ENDBRANCH  24  25
ENDBRANCH  23  24
ENDBRANCH  22  23
ENDBRANCH  21  22
ENDBRANCH  20  21
ENDBRANCH  19  20
ENDBRANCH  18  19
ENDBRANCH  17  18
ENDBRANCH   1  17
TORSDOF 26
ENDMDL
MODEL 9
REMARK VINA RESULT:    -4.055      2.041      5.263
REMARK INTER + INTRA:         -13.681
REMARK INTER:                 -10.409
REMARK INTRA:                  -3.272
REMARK UNBOUND:                -3.461
REMARK SMILES CCCCCCCCCCCCCCCCCCCCCCCCCCCC(=O)[O-]
REMARK SMILES IDX 15 1 16 2 17 3 18 4 19 5 20 6 21 7 22 8 23 9 24 10 25 11
REMARK SMILES IDX 26 12 27 13 28 14 29 15 30 16 14 17 13 18 12 19 11 20 10 21
REMARK SMILES IDX 9 22 8 23 7 24 6 25 5 26 4 27 3 28 2 29 1 30
REMARK H PARENT
REMARK Flexibility Score: inf
ROOT
ATOM      1  C   UNL     1     135.330 134.427 128.420  1.00  0.00     0.000 C 
ENDROOT
BRANCH   1   2
ATOM      2  C   UNL     1     136.647 133.797 127.939  1.00  0.00     0.000 C 
BRANCH   2   3
ATOM      3  C   UNL     1     136.397 132.779 126.819  1.00  0.00     0.000 C 
BRANCH   3   4
ATOM      4  C   UNL     1     136.965 131.402 127.194  1.00  0.00     0.000 C 
BRANCH   4   5
ATOM      5  C   UNL     1     138.012 131.475 128.319  1.00  0.00     0.000 C 
BRANCH   5   6
ATOM      6  C   UNL     1     138.446 130.111 128.889  1.00  0.00     0.000 C 
BRANCH   6   7
ATOM      7  C   UNL     1     139.046 130.153 130.309  1.00  0.00     0.000 C 
BRANCH   7   8
ATOM      8  C   UNL     1     139.105 131.547 130.959  1.00  0.00     0.000 C 
BRANCH   8   9
ATOM      9  C   UNL     1     138.031 131.750 132.041  1.00  0.00     0.000 C 
BRANCH   9  10
ATOM     10  C   UNL     1     136.842 132.595 131.550  1.00  0.00     0.000 C 
BRANCH  10  11
ATOM     11  C   UNL     1     135.666 132.713 132.539  1.00  0.00     0.000 C 
BRANCH  11  12
ATOM     12  C   UNL     1     134.315 132.207 132.003  1.00  0.00     0.006 C 
BRANCH  12  13
ATOM     13  C   UNL     1     134.326 131.970 130.487  1.00  0.00     0.053 C 
BRANCH  13  14
ATOM     14  C   UNL     1     133.973 130.550 130.174  1.00  0.00     0.041 C 
ATOM     15  O   UNL     1     132.821 130.109 130.434  1.00  0.00    -0.550 OA
ATOM     16  O   UNL     1     134.909 129.718 129.570  1.00  0.00    -0.550 OA
ENDBRANCH  13  14
ENDBRANCH  12  13
ENDBRANCH  11  12
ENDBRANCH  10  11
ENDBRANCH   9  10
ENDBRANCH   8   9
ENDBRANCH   7   8
ENDBRANCH   6   7
ENDBRANCH   5   6
ENDBRANCH   4   5
ENDBRANCH   3   4
ENDBRANCH   2   3
ENDBRANCH   1   2
BRANCH   1  17
ATOM     17  C   UNL     1     135.478 135.140 129.781  1.00  0.00     0.000 C 
BRANCH  17  18
ATOM     18  C   UNL     1     134.413 136.227 130.036  1.00  0.00     0.000 C 
BRANCH  18  19
ATOM     19  C   UNL     1     134.531 137.478 129.148  1.00  0.00     0.000 C 
BRANCH  19  20
ATOM     20  C   UNL     1     135.139 138.714 129.841  1.00  0.00     0.000 C 
BRANCH  20  21
ATOM     21  C   UNL     1     136.457 138.453 130.593  1.00  0.00     0.000 C 
BRANCH  21  22
ATOM     22  C   UNL     1     137.713 139.064 129.940  1.00  0.00    -0.000 C 
BRANCH  22  23
ATOM     23  C   UNL     1     138.990 138.212 130.067  1.00  0.00    -0.000 C 
BRANCH  23  24
ATOM     24  C   UNL     1     138.880 137.138 131.163  1.00  0.00    -0.000 C 
BRANCH  24  25
ATOM     25  C   UNL     1     138.354 135.793 130.621  1.00  0.00    -0.000 C 
BRANCH  25  26
ATOM     26  C   UNL     1     139.204 135.219 129.475  1.00  0.00    -0.000 C 
BRANCH  26  27
ATOM     27  C   UNL     1     140.675 135.007 129.872  1.00  0.00    -0.000 C 
BRANCH  27  28
ATOM     28  C   UNL     1     140.823 134.040 131.067  1.00  0.00    -0.000 C 
BRANCH  28  29
ATOM     29  C   UNL     1     141.218 134.735 132.379  1.00  0.00    -0.003 C 
ATOM     30  C   UNL     1     141.507 133.753 133.511  1.00  0.00     0.004 C 
ENDBRANCH  28  29
ENDBRANCH  27  28
ENDBRANCH  26  27
ENDBRANCH  25  26
ENDBRANCH  24  25
ENDBRANCH  23  24
ENDBRANCH  22  23
ENDBRANCH  21  22
ENDBRANCH  20  21
ENDBRANCH  19  20
ENDBRANCH  18  19
ENDBRANCH  17  18
ENDBRANCH   1  17
TORSDOF 26
ENDMDL
