MODEL 1
REMARK VINA RESULT:    -4.443      0.000      0.000
REMARK INTER + INTRA:          -9.291
REMARK INTER:                  -7.560
REMARK INTRA:                  -1.730
REMARK UNBOUND:                -1.730
REMARK SMILES CCCCCCCCCCCCCC(=O)[O-]
REMARK SMILES IDX 8 1 9 2 10 3 11 4 12 5 13 6 14 7 15 8 16 9 7 10 6 11 5 12
REMARK SMILES IDX 4 13 3 14 2 15 1 16
REMARK H PARENT
REMARK Flexibility Score: inf
ROOT
ATOM      1  C   UNL     1      17.955 -33.256  22.728  1.00  0.00     0.000 C 
ENDROOT
BRANCH   1   2
ATOM      2  C   UNL     1      16.738 -33.575  23.608  1.00  0.00     0.000 C 
BRANCH   2   3
ATOM      3  C   UNL     1      15.806 -32.366  23.792  1.00  0.00     0.000 C 
BRANCH   3   4
ATOM      4  C   UNL     1      14.377 -32.773  24.181  1.00  0.00     0.000 C 
BRANCH   4   5
ATOM      5  C   UNL     1      13.350 -31.788  23.604  1.00  0.00     0.006 C 
BRANCH   5   6
ATOM      6  C   UNL     1      13.844 -30.336  23.657  1.00  0.00     0.053 C 
BRANCH   6   7
ATOM      7  C   UNL     1      12.707 -29.361  23.679  1.00  0.00     0.041 C 
ATOM      8  O   UNL     1      12.655 -28.468  24.565  1.00  0.00    -0.550 OA
ATOM      9  O   UNL     1      11.723 -29.416  22.699  1.00  0.00    -0.550 OA
ENDBRANCH   6   7
ENDBRANCH   5   6
ENDBRANCH   4   5
ENDBRANCH   3   4
ENDBRANCH   2   3
ENDBRANCH   1   2
BRANCH   1  10
ATOM     10  C   UNL     1      17.748 -31.947  21.956  1.00  0.00     0.000 C 
BRANCH  10  11
ATOM     11  C   UNL     1      18.121 -32.116  20.475  1.00  0.00    -0.000 C 
BRANCH  11  12
ATOM     12  C   UNL     1      18.203 -33.590  20.050  1.00  0.00    -0.000 C 
BRANCH  12  13
ATOM     13  C   UNL     1      17.111 -33.980  19.039  1.00  0.00    -0.000 C 
BRANCH  13  14
ATOM     14  C   UNL     1      16.243 -35.152  19.542  1.00  0.00    -0.000 C 
BRANCH  14  15
ATOM     15  C   UNL     1      15.212 -34.741  20.606  1.00  0.00    -0.003 C 
ATOM     16  C   UNL     1      14.528 -33.412  20.296  1.00  0.00     0.004 C 
ENDBRANCH  14  15
ENDBRANCH  13  14
ENDBRANCH  12  13
ENDBRANCH  11  12
ENDBRANCH  10  11
ENDBRANCH   1  10
TORSDOF 12
ENDMDL
MODEL 2
REMARK VINA RESULT:    -4.440      1.291      3.007
REMARK INTER + INTRA:          -9.285
REMARK INTER:                  -7.593
REMARK INTRA:                  -1.691
REMARK UNBOUND:                -1.730
REMARK SMILES CCCCCCCCCCCCCC(=O)[O-]
REMARK SMILES IDX 8 1 9 2 10 3 11 4 12 5 13 6 14 7 15 8 16 9 7 10 6 11 5 12
REMARK SMILES IDX 4 13 3 14 2 15 1 16
REMARK H PARENT
REMARK Flexibility Score: inf
ROOT
ATOM      1  C   UNL     1      14.503 -33.567  20.153  1.00  0.00     0.000 C 
ENDROOT
BRANCH   1   2
ATOM      2  C   UNL     1      14.546 -32.330  21.063  1.00  0.00     0.000 C 
BRANCH   2   3
ATOM      3  C   UNL     1      14.552 -32.693  22.557  1.00  0.00     0.000 C 
BRANCH   3   4
ATOM      4  C   UNL     1      15.090 -31.558  23.440  1.00  0.00     0.000 C 
BRANCH   4   5
ATOM      5  C   UNL     1      14.504 -30.205  23.011  1.00  0.00     0.006 C 
BRANCH   5   6
ATOM      6  C   UNL     1      13.265 -29.821  23.831  1.00  0.00     0.053 C 
BRANCH   6   7
ATOM      7  C   UNL     1      12.055 -29.650  22.965  1.00  0.00     0.041 C 
ATOM      8  O   UNL     1      11.842 -30.443  22.010  1.00  0.00    -0.550 OA
ATOM      9  O   UNL     1      11.143 -28.636  23.233  1.00  0.00    -0.550 OA
ENDBRANCH   6   7
ENDBRANCH   5   6
ENDBRANCH   4   5
ENDBRANCH   3   4
ENDBRANCH   2   3
ENDBRANCH   1   2
BRANCH   1  10
ATOM     10  C   UNL     1      15.382 -34.692  20.712  1.00  0.00     0.000 C 
BRANCH  10  11
ATOM     11  C   UNL     1      16.215 -35.344  19.599  1.00  0.00    -0.000 C 
BRANCH  11  12
ATOM     12  C   UNL     1      17.546 -34.618  19.354  1.00  0.00    -0.000 C 
BRANCH  12  13
ATOM     13  C   UNL     1      18.120 -33.979  20.631  1.00  0.00    -0.000 C 
BRANCH  13  14
ATOM     14  C   UNL     1      18.597 -32.530  20.394  1.00  0.00    -0.000 C 
BRANCH  14  15
ATOM     15  C   UNL     1      18.278 -31.580  21.561  1.00  0.00    -0.003 C 
ATOM     16  C   UNL     1      17.709 -30.239  21.103  1.00  0.00     0.004 C 
ENDBRANCH  14  15
ENDBRANCH  13  14
ENDBRANCH  12  13
ENDBRANCH  11  12
ENDBRANCH  10  11
ENDBRANCH   1  10
TORSDOF 12
ENDMDL
MODEL 3
REMARK VINA RESULT:    -4.386      1.468      3.276
REMARK INTER + INTRA:          -9.193
REMARK INTER:                  -7.400
REMARK INTRA:                  -1.793
REMARK UNBOUND:                -1.730
REMARK SMILES CCCCCCCCCCCCCC(=O)[O-]
REMARK SMILES IDX 8 1 9 2 10 3 11 4 12 5 13 6 14 7 15 8 16 9 7 10 6 11 5 12
REMARK SMILES IDX 4 13 3 14 2 15 1 16
REMARK H PARENT
REMARK Flexibility Score: inf
ROOT
ATOM      1  C   UNL     1      16.314 -34.793  20.558  1.00  0.00     0.000 C 
ENDROOT
BRANCH   1   2
ATOM      2  C   UNL     1      16.061 -34.367  22.012  1.00  0.00     0.000 C 
BRANCH   2   3
ATOM      3  C   UNL     1      14.898 -33.371  22.144  1.00  0.00     0.000 C 
BRANCH   3   4
ATOM      4  C   UNL     1      14.352 -32.913  20.784  1.00  0.00     0.000 C 
BRANCH   4   5
ATOM      5  C   UNL     1      13.552 -31.610  20.924  1.00  0.00     0.006 C 
BRANCH   5   6
ATOM      6  C   UNL     1      13.307 -31.233  22.391  1.00  0.00     0.053 C 
BRANCH   6   7
ATOM      7  C   UNL     1      12.204 -30.230  22.532  1.00  0.00     0.041 C 
ATOM      8  O   UNL     1      11.197 -30.286  21.779  1.00  0.00    -0.550 OA
ATOM      9  O   UNL     1      12.272 -29.253  23.518  1.00  0.00    -0.550 OA
ENDBRANCH   6   7
ENDBRANCH   5   6
ENDBRANCH   4   5
ENDBRANCH   3   4
ENDBRANCH   2   3
ENDBRANCH   1   2
BRANCH   1  10
ATOM     10  C   UNL     1      17.797 -34.652  20.194  1.00  0.00     0.000 C 
BRANCH  10  11
ATOM     11  C   UNL     1      18.079 -33.285  19.553  1.00  0.00    -0.000 C 
BRANCH  11  12
ATOM     12  C   UNL     1      18.593 -32.251  20.566  1.00  0.00    -0.000 C 
BRANCH  12  13
ATOM     13  C   UNL     1      17.604 -31.092  20.787  1.00  0.00    -0.000 C 
BRANCH  13  14
ATOM     14  C   UNL     1      17.920 -30.293  22.068  1.00  0.00    -0.000 C 
BRANCH  14  15
ATOM     15  C   UNL     1      16.852 -30.442  23.165  1.00  0.00    -0.003 C 
ATOM     16  C   UNL     1      17.321 -31.288  24.347  1.00  0.00     0.004 C 
ENDBRANCH  14  15
ENDBRANCH  13  14
ENDBRANCH  12  13
ENDBRANCH  11  12
ENDBRANCH  10  11
ENDBRANCH   1  10
TORSDOF 12
ENDMDL
MODEL 4
REMARK VINA RESULT:    -4.333      3.365      5.604
REMARK INTER + INTRA:          -9.103
REMARK INTER:                  -7.428
REMARK INTRA:                  -1.675
REMARK UNBOUND:                -1.730
REMARK SMILES CCCCCCCCCCCCCC(=O)[O-]
REMARK SMILES IDX 8 1 9 2 10 3 11 4 12 5 13 6 14 7 15 8 16 9 7 10 6 11 5 12
REMARK SMILES IDX 4 13 3 14 2 15 1 16
REMARK H PARENT
REMARK Flexibility Score: inf
ROOT
ATOM      1  C   UNL     1      14.411 -31.843  23.998  1.00  0.00     0.000 C 
ENDROOT
BRANCH   1   2
ATOM      2  C   UNL     1      14.644 -33.347  23.789  1.00  0.00     0.000 C 
BRANCH   2   3
ATOM      3  C   UNL     1      16.131 -33.700  23.630  1.00  0.00     0.000 C 
BRANCH   3   4
ATOM      4  C   UNL     1      16.467 -34.232  22.229  1.00  0.00     0.000 C 
BRANCH   4   5
ATOM      5  C   UNL     1      15.261 -34.100  21.288  1.00  0.00     0.006 C 
BRANCH   5   6
ATOM      6  C   UNL     1      15.307 -35.114  20.137  1.00  0.00     0.053 C 
BRANCH   6   7
ATOM      7  C   UNL     1      16.597 -35.039  19.379  1.00  0.00     0.041 C 
ATOM      8  O   UNL     1      16.947 -33.961  18.831  1.00  0.00    -0.550 OA
ATOM      9  O   UNL     1      17.429 -36.149  19.308  1.00  0.00    -0.550 OA
ENDBRANCH   6   7
ENDBRANCH   5   6
ENDBRANCH   4   5
ENDBRANCH   3   4
ENDBRANCH   2   3
ENDBRANCH   1   2
BRANCH   1  10
ATOM     10  C   UNL     1      13.175 -31.365  23.227  1.00  0.00     0.000 C 
BRANCH  10  11
ATOM     11  C   UNL     1      13.534 -30.221  22.266  1.00  0.00    -0.000 C 
BRANCH  11  12
ATOM     12  C   UNL     1      14.893 -30.429  21.581  1.00  0.00    -0.000 C 
BRANCH  12  13
ATOM     13  C   UNL     1      15.920 -29.346  21.956  1.00  0.00    -0.000 C 
BRANCH  13  14
ATOM     14  C   UNL     1      17.373 -29.831  21.767  1.00  0.00    -0.000 C 
BRANCH  14  15
ATOM     15  C   UNL     1      17.501 -31.034  20.817  1.00  0.00    -0.003 C 
ATOM     16  C   UNL     1      18.878 -31.691  20.865  1.00  0.00     0.004 C 
ENDBRANCH  14  15
ENDBRANCH  13  14
ENDBRANCH  12  13
ENDBRANCH  11  12
ENDBRANCH  10  11
ENDBRANCH   1  10
TORSDOF 12
ENDMDL
MODEL 5
REMARK VINA RESULT:    -4.308      1.781      2.979
REMARK INTER + INTRA:          -9.061
REMARK INTER:                  -7.190
REMARK INTRA:                  -1.871
REMARK UNBOUND:                -1.730
REMARK SMILES CCCCCCCCCCCCCC(=O)[O-]
REMARK SMILES IDX 8 1 9 2 10 3 11 4 12 5 13 6 14 7 15 8 16 9 7 10 6 11 5 12
REMARK SMILES IDX 4 13 3 14 2 15 1 16
REMARK H PARENT
REMARK Flexibility Score: inf
ROOT
ATOM      1  C   UNL     1      18.183 -32.722  20.271  1.00  0.00     0.000 C 
ENDROOT
BRANCH   1   2
ATOM      2  C   UNL     1      16.932 -32.318  21.065  1.00  0.00     0.000 C 
BRANCH   2   3
ATOM      3  C   UNL     1      17.157 -32.356  22.585  1.00  0.00     0.000 C 
BRANCH   3   4
ATOM      4  C   UNL     1      16.223 -33.346  23.298  1.00  0.00     0.000 C 
BRANCH   4   5
ATOM      5  C   UNL     1      14.777 -33.186  22.806  1.00  0.00     0.006 C 
BRANCH   5   6
ATOM      6  C   UNL     1      14.134 -31.884  23.302  1.00  0.00     0.053 C 
BRANCH   6   7
ATOM      7  C   UNL     1      13.237 -31.276  22.267  1.00  0.00     0.041 C 
ATOM      8  O   UNL     1      12.435 -30.359  22.585  1.00  0.00    -0.550 OA
ATOM      9  O   UNL     1      13.310 -31.699  20.946  1.00  0.00    -0.550 OA
ENDBRANCH   6   7
ENDBRANCH   5   6
ENDBRANCH   4   5
ENDBRANCH   3   4
ENDBRANCH   2   3
ENDBRANCH   1   2
BRANCH   1  10
ATOM     10  C   UNL     1      17.857 -33.824  19.254  1.00  0.00     0.000 C 
BRANCH  10  11
ATOM     11  C   UNL     1      16.372 -34.215  19.325  1.00  0.00    -0.000 C 
BRANCH  11  12
ATOM     12  C   UNL     1      16.161 -35.637  19.867  1.00  0.00    -0.000 C 
BRANCH  12  13
ATOM     13  C   UNL     1      17.369 -36.557  19.613  1.00  0.00    -0.000 C 
BRANCH  13  14
ATOM     14  C   UNL     1      17.926 -37.160  20.919  1.00  0.00    -0.000 C 
BRANCH  14  15
ATOM     15  C   UNL     1      17.989 -36.157  22.083  1.00  0.00    -0.003 C 
ATOM     16  C   UNL     1      19.390 -35.597  22.317  1.00  0.00     0.004 C 
ENDBRANCH  14  15
ENDBRANCH  13  14
ENDBRANCH  12  13
ENDBRANCH  11  12
ENDBRANCH  10  11
ENDBRANCH   1  10
TORSDOF 12
ENDMDL
MODEL 6
REMARK VINA RESULT:    -4.279      1.436      3.153
REMARK INTER + INTRA:          -9.010
REMARK INTER:                  -6.958
REMARK INTRA:                  -2.052
REMARK UNBOUND:                -1.730
REMARK SMILES CCCCCCCCCCCCCC(=O)[O-]
REMARK SMILES IDX 8 1 9 2 10 3 11 4 12 5 13 6 14 7 15 8 16 9 7 10 6 11 5 12
REMARK SMILES IDX 4 13 3 14 2 15 1 16
REMARK H PARENT
REMARK Flexibility Score: inf
ROOT
ATOM      1  C   UNL     1      16.121 -34.727  19.632  1.00  0.00     0.000 C 
ENDROOT
BRANCH   1   2
ATOM      2  C   UNL     1      14.716 -34.184  19.935  1.00  0.00     0.000 C 
BRANCH   2   3
ATOM      3  C   UNL     1      14.683 -33.295  21.188  1.00  0.00     0.000 C 
BRANCH   3   4
ATOM      4  C   UNL     1      13.866 -32.011  20.982  1.00  0.00     0.000 C 
BRANCH   4   5
ATOM      5  C   UNL     1      14.663 -30.776  21.429  1.00  0.00     0.006 C 
BRANCH   5   6
ATOM      6  C   UNL     1      14.970 -30.796  22.932  1.00  0.00     0.053 C 
BRANCH   6   7
ATOM      7  C   UNL     1      13.724 -30.912  23.755  1.00  0.00     0.041 C 
ATOM      8  O   UNL     1      12.946 -29.929  23.869  1.00  0.00    -0.550 OA
ATOM      9  O   UNL     1      13.404 -32.117  24.368  1.00  0.00    -0.550 OA
ENDBRANCH   6   7
ENDBRANCH   5   6
ENDBRANCH   4   5
ENDBRANCH   3   4
ENDBRANCH   2   3
ENDBRANCH   1   2
BRANCH   1  10
ATOM     10  C   UNL     1      17.041 -33.614  19.115  1.00  0.00     0.000 C 
BRANCH  10  11
ATOM     11  C   UNL     1      18.300 -33.492  19.987  1.00  0.00    -0.000 C 
BRANCH  11  12
ATOM     12  C   UNL     1      18.282 -32.245  20.883  1.00  0.00    -0.000 C 
BRANCH  12  13
ATOM     13  C   UNL     1      18.106 -32.586  22.374  1.00  0.00    -0.000 C 
BRANCH  13  14
ATOM     14  C   UNL     1      18.429 -34.065  22.675  1.00  0.00    -0.000 C 
BRANCH  14  15
ATOM     15  C   UNL     1      17.259 -34.832  23.314  1.00  0.00    -0.003 C 
ATOM     16  C   UNL     1      16.457 -33.987  24.301  1.00  0.00     0.004 C 
ENDBRANCH  14  15
ENDBRANCH  13  14
ENDBRANCH  12  13
ENDBRANCH  11  12
ENDBRANCH  10  11
ENDBRANCH   1  10
TORSDOF 12
ENDMDL
MODEL 7
REMARK VINA RESULT:    -4.238      3.531      5.897
REMARK INTER + INTRA:          -8.941
REMARK INTER:                  -7.172
REMARK INTRA:                  -1.770
REMARK UNBOUND:                -1.730
REMARK SMILES CCCCCCCCCCCCCC(=O)[O-]
REMARK SMILES IDX 8 1 9 2 10 3 11 4 12 5 13 6 14 7 15 8 16 9 7 10 6 11 5 12
REMARK SMILES IDX 4 13 3 14 2 15 1 16
REMARK H PARENT
REMARK Flexibility Score: inf
ROOT
ATOM      1  C   UNL     1      17.594 -30.676  22.091  1.00  0.00     0.000 C 
ENDROOT
BRANCH   1   2
ATOM      2  C   UNL     1      17.856 -31.047  20.624  1.00  0.00     0.000 C 
BRANCH   2   3
ATOM      3  C   UNL     1      18.086 -32.554  20.425  1.00  0.00     0.000 C 
BRANCH   3   4
ATOM      4  C   UNL     1      18.535 -33.260  21.714  1.00  0.00     0.000 C 
BRANCH   4   5
ATOM      5  C   UNL     1      18.767 -34.758  21.466  1.00  0.00     0.006 C 
BRANCH   5   6
ATOM      6  C   UNL     1      17.486 -35.583  21.651  1.00  0.00     0.053 C 
BRANCH   6   7
ATOM      7  C   UNL     1      17.006 -36.164  20.356  1.00  0.00     0.041 C 
ATOM      8  O   UNL     1      17.468 -37.260  19.944  1.00  0.00    -0.550 OA
ATOM      9  O   UNL     1      16.022 -35.512  19.622  1.00  0.00    -0.550 OA
ENDBRANCH   6   7
ENDBRANCH   5   6
ENDBRANCH   4   5
ENDBRANCH   3   4
ENDBRANCH   2   3
ENDBRANCH   1   2
BRANCH   1  10
ATOM     10  C   UNL     1      16.428 -29.686  22.208  1.00  0.00     0.000 C 
BRANCH  10  11
ATOM     11  C   UNL     1      15.629 -29.926  23.498  1.00  0.00    -0.000 C 
BRANCH  11  12
ATOM     12  C   UNL     1      14.110 -29.867  23.273  1.00  0.00    -0.000 C 
BRANCH  12  13
ATOM     13  C   UNL     1      13.460 -31.262  23.233  1.00  0.00    -0.000 C 
BRANCH  13  14
ATOM     14  C   UNL     1      14.422 -32.367  23.719  1.00  0.00    -0.000 C 
BRANCH  14  15
ATOM     15  C   UNL     1      14.854 -33.338  22.607  1.00  0.00    -0.003 C 
ATOM     16  C   UNL     1      14.439 -32.875  21.212  1.00  0.00     0.004 C 
ENDBRANCH  14  15
ENDBRANCH  13  14
ENDBRANCH  12  13
ENDBRANCH  11  12
ENDBRANCH  10  11
ENDBRANCH   1  10
TORSDOF 12
ENDMDL
MODEL 8
REMARK VINA RESULT:    -4.228      1.380      2.668
REMARK INTER + INTRA:          -8.925
REMARK INTER:                  -7.056
REMARK INTRA:                  -1.869
REMARK UNBOUND:                -1.730
REMARK SMILES CCCCCCCCCCCCCC(=O)[O-]
REMARK SMILES IDX 8 1 9 2 10 3 11 4 12 5 13 6 14 7 15 8 16 9 7 10 6 11 5 12
REMARK SMILES IDX 4 13 3 14 2 15 1 16
REMARK H PARENT
REMARK Flexibility Score: inf
ROOT
ATOM      1  C   UNL     1      17.703 -30.915  22.683  1.00  0.00     0.000 C 
ENDROOT
BRANCH   1   2
ATOM      2  C   UNL     1      17.060 -30.086  21.562  1.00  0.00     0.000 C 
BRANCH   2   3
ATOM      3  C   UNL     1      15.650 -29.593  21.924  1.00  0.00     0.000 C 
BRANCH   3   4
ATOM      4  C   UNL     1      15.272 -29.895  23.382  1.00  0.00     0.000 C 
BRANCH   4   5
ATOM      5  C   UNL     1      14.019 -30.780  23.451  1.00  0.00     0.006 C 
BRANCH   5   6
ATOM      6  C   UNL     1      13.250 -30.804  22.124  1.00  0.00     0.053 C 
BRANCH   6   7
ATOM      7  C   UNL     1      11.920 -30.124  22.237  1.00  0.00     0.041 C 
ATOM      8  O   UNL     1      10.971 -30.458  21.478  1.00  0.00    -0.550 OA
ATOM      9  O   UNL     1      11.717 -29.147  23.204  1.00  0.00    -0.550 OA
ENDBRANCH   6   7
ENDBRANCH   5   6
ENDBRANCH   4   5
ENDBRANCH   3   4
ENDBRANCH   2   3
ENDBRANCH   1   2
BRANCH   1  10
ATOM     10  C   UNL     1      17.756 -32.401  22.307  1.00  0.00     0.000 C 
BRANCH  10  11
ATOM     11  C   UNL     1      16.886 -33.240  23.257  1.00  0.00    -0.000 C 
BRANCH  11  12
ATOM     12  C   UNL     1      15.751 -33.973  22.527  1.00  0.00    -0.000 C 
BRANCH  12  13
ATOM     13  C   UNL     1      15.563 -33.488  21.078  1.00  0.00    -0.000 C 
BRANCH  13  14
ATOM     14  C   UNL     1      15.229 -34.646  20.115  1.00  0.00    -0.000 C 
BRANCH  14  15
ATOM     15  C   UNL     1      16.458 -35.466  19.690  1.00  0.00    -0.003 C 
ATOM     16  C   UNL     1      17.645 -34.599  19.278  1.00  0.00     0.004 C 
ENDBRANCH  14  15
ENDBRANCH  13  14
ENDBRANCH  12  13
ENDBRANCH  11  12
ENDBRANCH  10  11
ENDBRANCH   1  10
TORSDOF 12
ENDMDL
MODEL 9
REMARK VINA RESULT:    -4.197      1.686      2.269
REMARK INTER + INTRA:          -8.872
REMARK INTER:                  -6.841
REMARK INTRA:                  -2.031
REMARK UNBOUND:                -1.730
REMARK SMILES CCCCCCCCCCCCCC(=O)[O-]
REMARK SMILES IDX 8 1 9 2 10 3 11 4 12 5 13 6 14 7 15 8 16 9 7 10 6 11 5 12
REMARK SMILES IDX 4 13 3 14 2 15 1 16
REMARK H PARENT
REMARK Flexibility Score: inf
ROOT
ATOM      1  C   UNL     1      18.554 -34.644  23.328  1.00  0.00     0.000 C 
ENDROOT
BRANCH   1   2
ATOM      2  C   UNL     1      17.026 -34.765  23.230  1.00  0.00     0.000 C 
BRANCH   2   3
ATOM      3  C   UNL     1      16.295 -33.909  24.277  1.00  0.00     0.000 C 
BRANCH   3   4
ATOM      4  C   UNL     1      15.630 -32.667  23.666  1.00  0.00     0.000 C 
BRANCH   4   5
ATOM      5  C   UNL     1      14.972 -33.002  22.320  1.00  0.00     0.006 C 
BRANCH   5   6
ATOM      6  C   UNL     1      13.919 -31.963  21.912  1.00  0.00     0.053 C 
BRANCH   6   7
ATOM      7  C   UNL     1      14.425 -30.562  22.076  1.00  0.00     0.041 C 
ATOM      8  O   UNL     1      13.934 -29.811  22.959  1.00  0.00    -0.550 OA
ATOM      9  O   UNL     1      15.463 -30.098  21.278  1.00  0.00    -0.550 OA
ENDBRANCH   6   7
ENDBRANCH   5   6
ENDBRANCH   4   5
ENDBRANCH   3   4
ENDBRANCH   2   3
ENDBRANCH   1   2
BRANCH   1  10
ATOM     10  C   UNL     1      19.154 -34.171  21.998  1.00  0.00     0.000 C 
BRANCH  10  11
ATOM     11  C   UNL     1      18.746 -32.721  21.696  1.00  0.00    -0.000 C 
BRANCH  11  12
ATOM     12  C   UNL     1      18.035 -32.577  20.342  1.00  0.00    -0.000 C 
BRANCH  12  13
ATOM     13  C   UNL     1      17.970 -33.901  19.560  1.00  0.00    -0.000 C 
BRANCH  13  14
ATOM     14  C   UNL     1      16.520 -34.306  19.220  1.00  0.00    -0.000 C 
BRANCH  14  15
ATOM     15  C   UNL     1      16.095 -35.647  19.842  1.00  0.00    -0.003 C 
ATOM     16  C   UNL     1      17.231 -36.665  19.905  1.00  0.00     0.004 C 
ENDBRANCH  14  15
ENDBRANCH  13  14
ENDBRANCH  12  13
ENDBRANCH  11  12
ENDBRANCH  10  11
ENDBRANCH   1  10
TORSDOF 12
ENDMDL
