MODEL 1
REMARK VINA RESULT:    -6.625      0.000      0.000
REMARK INTER + INTRA:          -8.168
REMARK INTER:                  -7.981
REMARK INTRA:                  -0.188
REMARK UNBOUND:                -0.188
REMARK SMILES O=c1c(O)c(-c2ccc(O)c(O)c2)oc2cc(O)cc(O)c12
REMARK SMILES IDX 5 1 3 2 2 3 1 4 22 5 20 6 19 7 17 8 16 9 15 10 14 11 6 12
REMARK SMILES IDX 7 13 8 14 9 15 13 16 11 17 10 18 12 20 4 22 21 24 18 26
REMARK H PARENT 10 19 12 21 4 23 21 25 18 27
REMARK Flexibility Score: inf
ROOT
ATOM      1  C   UNL     1      17.334  42.287  25.506  1.00  0.00     0.180 A 
ATOM      2  C   UNL     1      17.289  41.412  26.605  1.00  0.00     0.208 A 
ATOM      3  C   UNL     1      18.493  40.920  27.133  1.00  0.00     0.238 A 
ATOM      4  O   UNL     1      18.443  40.094  28.082  1.00  0.00    -0.285 OA
ATOM      5  C   UNL     1      19.727  41.322  26.568  1.00  0.00     0.111 A 
ATOM      6  C   UNL     1      21.009  40.918  27.049  1.00  0.00     0.134 A 
ATOM      7  C   UNL     1      22.158  41.272  26.333  1.00  0.00     0.093 A 
ATOM      8  C   UNL     1      22.079  42.068  25.191  1.00  0.00     0.123 A 
ATOM      9  C   UNL     1      20.835  42.519  24.746  1.00  0.00     0.094 A 
ATOM     10  C   UNL     1      19.668  42.152  25.419  1.00  0.00     0.146 A 
ATOM     11  O   UNL     1      18.503  42.594  24.957  1.00  0.00    -0.452 OA
ENDROOT
BRANCH   1  12
ATOM     12  C   UNL     1      16.110  42.866  24.909  1.00  0.00     0.025 A 
ATOM     13  C   UNL     1      15.845  44.236  25.067  1.00  0.00     0.016 A 
ATOM     14  C   UNL     1      14.685  44.799  24.530  1.00  0.00     0.051 A 
ATOM     15  C   UNL     1      13.764  43.999  23.840  1.00  0.00     0.157 A 
ATOM     16  C   UNL     1      15.172  42.063  24.233  1.00  0.00     0.062 A 
ATOM     17  C   UNL     1      14.009  42.623  23.695  1.00  0.00     0.158 A 
BRANCH  15  18
ATOM     18  O   UNL     1      12.608  44.565  23.302  1.00  0.00    -0.504 OA
ATOM     19  H   UNL     1      12.545  44.810  22.321  1.00  0.00     0.293 HD
ENDBRANCH  15  18
BRANCH  17  20
ATOM     20  O   UNL     1      13.106  41.797  23.027  1.00  0.00    -0.504 OA
ATOM     21  H   UNL     1      12.340  41.338  23.506  1.00  0.00     0.293 HD
ENDBRANCH  17  20
ENDBRANCH   1  12
BRANCH   2  22
ATOM     22  O   UNL     1      16.059  41.011  27.134  1.00  0.00    -0.502 OA
ATOM     23  H   UNL     1      15.274  40.750  26.549  1.00  0.00     0.293 HD
ENDBRANCH   2  22
BRANCH   6  24
ATOM     24  O   UNL     1      21.207  40.197  28.231  1.00  0.00    -0.507 OA
ATOM     25  H   UNL     1      20.895  39.250  28.385  1.00  0.00     0.293 HD
ENDBRANCH   6  24
BRANCH   8  26
ATOM     26  O   UNL     1      23.244  42.415  24.512  1.00  0.00    -0.508 OA
ATOM     27  H   UNL     1      23.217  42.810  23.579  1.00  0.00     0.293 HD
ENDBRANCH   8  26
TORSDOF 6
ENDMDL
MODEL 2
REMARK VINA RESULT:    -6.562      1.333      3.078
REMARK INTER + INTRA:          -8.092
REMARK INTER:                  -8.072
REMARK INTRA:                  -0.020
REMARK UNBOUND:                -0.188
REMARK SMILES O=c1c(O)c(-c2ccc(O)c(O)c2)oc2cc(O)cc(O)c12
REMARK SMILES IDX 5 1 3 2 2 3 1 4 22 5 20 6 19 7 17 8 16 9 15 10 14 11 6 12
REMARK SMILES IDX 7 13 8 14 9 15 13 16 11 17 10 18 12 20 4 22 21 24 18 26
REMARK H PARENT 10 19 12 21 4 23 21 25 18 27
REMARK Flexibility Score: inf
ROOT
ATOM      1  C   UNL     1      17.911  42.892  24.031  1.00  0.00     0.180 A 
ATOM      2  C   UNL     1      18.961  43.380  23.235  1.00  0.00     0.208 A 
ATOM      3  C   UNL     1      20.285  43.083  23.597  1.00  0.00     0.238 A 
ATOM      4  O   UNL     1      21.222  43.569  22.911  1.00  0.00    -0.285 OA
ATOM      5  C   UNL     1      20.541  42.288  24.739  1.00  0.00     0.111 A 
ATOM      6  C   UNL     1      21.841  41.891  25.175  1.00  0.00     0.134 A 
ATOM      7  C   UNL     1      21.984  41.213  26.392  1.00  0.00     0.093 A 
ATOM      8  C   UNL     1      20.872  40.861  27.156  1.00  0.00     0.123 A 
ATOM      9  C   UNL     1      19.592  41.192  26.709  1.00  0.00     0.094 A 
ATOM     10  C   UNL     1      19.420  41.900  25.517  1.00  0.00     0.146 A 
ATOM     11  O   UNL     1      18.186  42.204  25.133  1.00  0.00    -0.452 OA
ENDROOT
BRANCH   1  12
ATOM     12  C   UNL     1      16.490  43.143  23.701  1.00  0.00     0.025 A 
ATOM     13  C   UNL     1      16.041  44.462  23.533  1.00  0.00     0.016 A 
ATOM     14  C   UNL     1      14.700  44.721  23.241  1.00  0.00     0.051 A 
ATOM     15  C   UNL     1      13.783  43.667  23.129  1.00  0.00     0.157 A 
ATOM     16  C   UNL     1      15.562  42.088  23.608  1.00  0.00     0.062 A 
ATOM     17  C   UNL     1      14.218  42.345  23.318  1.00  0.00     0.158 A 
BRANCH  15  18
ATOM     18  O   UNL     1      12.446  43.929  22.836  1.00  0.00    -0.504 OA
ATOM     19  H   UNL     1      12.084  43.851  21.892  1.00  0.00     0.293 HD
ENDBRANCH  15  18
BRANCH  17  20
ATOM     20  O   UNL     1      13.329  41.275  23.227  1.00  0.00    -0.504 OA
ATOM     21  H   UNL     1      12.655  41.196  22.474  1.00  0.00     0.293 HD
ENDBRANCH  17  20
ENDBRANCH   1  12
BRANCH   2  22
ATOM     22  O   UNL     1      18.687  44.182  22.124  1.00  0.00    -0.502 OA
ATOM     23  H   UNL     1      19.201  45.031  21.925  1.00  0.00     0.293 HD
ENDBRANCH   2  22
BRANCH   6  24
ATOM     24  O   UNL     1      23.012  42.112  24.443  1.00  0.00    -0.507 OA
ATOM     25  H   UNL     1      23.079  42.715  23.637  1.00  0.00     0.293 HD
ENDBRANCH   6  24
BRANCH   8  26
ATOM     26  O   UNL     1      21.051  40.174  28.354  1.00  0.00    -0.508 OA
ATOM     27  H   UNL     1      20.278  39.714  28.822  1.00  0.00     0.293 HD
ENDBRANCH   8  26
TORSDOF 6
ENDMDL
MODEL 3
REMARK VINA RESULT:    -6.344      5.449      8.194
REMARK INTER + INTRA:          -7.830
REMARK INTER:                  -7.495
REMARK INTRA:                  -0.335
REMARK UNBOUND:                -0.188
REMARK SMILES O=c1c(O)c(-c2ccc(O)c(O)c2)oc2cc(O)cc(O)c12
REMARK SMILES IDX 5 1 3 2 2 3 1 4 22 5 20 6 19 7 17 8 16 9 15 10 14 11 6 12
REMARK SMILES IDX 7 13 8 14 9 15 13 16 11 17 10 18 12 20 4 22 21 24 18 26
REMARK H PARENT 10 19 12 21 4 23 21 25 18 27
REMARK Flexibility Score: inf
ROOT
ATOM      1  C   UNL     1      20.777  38.359  21.818  1.00  0.00     0.180 A 
ATOM      2  C   UNL     1      19.435  37.998  21.609  1.00  0.00     0.208 A 
ATOM      3  C   UNL     1      18.462  38.435  22.522  1.00  0.00     0.238 A 
ATOM      4  O   UNL     1      17.270  38.063  22.360  1.00  0.00    -0.285 OA
ATOM      5  C   UNL     1      18.840  39.243  23.621  1.00  0.00     0.111 A 
ATOM      6  C   UNL     1      17.932  39.777  24.585  1.00  0.00     0.134 A 
ATOM      7  C   UNL     1      18.432  40.454  25.704  1.00  0.00     0.093 A 
ATOM      8  C   UNL     1      19.800  40.673  25.861  1.00  0.00     0.123 A 
ATOM      9  C   UNL     1      20.692  40.208  24.894  1.00  0.00     0.094 A 
ATOM     10  C   UNL     1      20.226  39.497  23.786  1.00  0.00     0.146 A 
ATOM     11  O   UNL     1      21.109  39.063  22.894  1.00  0.00    -0.452 OA
ENDROOT
BRANCH   1  12
ATOM     12  C   UNL     1      21.855  37.957  20.887  1.00  0.00     0.025 A 
ATOM     13  C   UNL     1      22.585  36.784  21.139  1.00  0.00     0.016 A 
ATOM     14  C   UNL     1      23.620  36.398  20.284  1.00  0.00     0.051 A 
ATOM     15  C   UNL     1      23.952  37.185  19.174  1.00  0.00     0.157 A 
ATOM     16  C   UNL     1      22.205  38.756  19.782  1.00  0.00     0.062 A 
ATOM     17  C   UNL     1      23.243  38.372  18.925  1.00  0.00     0.158 A 
BRANCH  15  18
ATOM     18  O   UNL     1      24.985  36.795  18.322  1.00  0.00    -0.504 OA
ATOM     19  H   UNL     1      25.958  36.886  18.590  1.00  0.00     0.293 HD
ENDBRANCH  15  18
BRANCH  17  20
ATOM     20  O   UNL     1      23.558  39.185  17.838  1.00  0.00    -0.504 OA
ATOM     21  H   UNL     1      23.967  40.105  17.954  1.00  0.00     0.293 HD
ENDBRANCH  17  20
ENDBRANCH   1  12
BRANCH   2  22
ATOM     22  O   UNL     1      19.086  37.182  20.529  1.00  0.00    -0.502 OA
ATOM     23  H   UNL     1      18.522  37.513  19.757  1.00  0.00     0.293 HD
ENDBRANCH   2  22
BRANCH   6  24
ATOM     24  O   UNL     1      16.541  39.693  24.477  1.00  0.00    -0.507 OA
ATOM     25  H   UNL     1      15.919  40.487  24.438  1.00  0.00     0.293 HD
ENDBRANCH   6  24
BRANCH   8  26
ATOM     26  O   UNL     1      20.261  41.365  26.979  1.00  0.00    -0.508 OA
ATOM     27  H   UNL     1      20.981  40.980  27.581  1.00  0.00     0.293 HD
ENDBRANCH   8  26
TORSDOF 6
ENDMDL
MODEL 4
REMARK VINA RESULT:    -6.328      0.721      1.491
REMARK INTER + INTRA:          -7.811
REMARK INTER:                  -7.480
REMARK INTRA:                  -0.331
REMARK UNBOUND:                -0.188
REMARK SMILES O=c1c(O)c(-c2ccc(O)c(O)c2)oc2cc(O)cc(O)c12
REMARK SMILES IDX 5 1 3 2 2 3 1 4 22 5 20 6 19 7 17 8 16 9 15 10 14 11 6 12
REMARK SMILES IDX 7 13 8 14 9 15 13 16 11 17 10 18 12 20 4 22 21 24 18 26
REMARK H PARENT 10 19 12 21 4 23 21 25 18 27
REMARK Flexibility Score: inf
ROOT
ATOM      1  C   UNL     1      17.352  42.482  25.537  1.00  0.00     0.180 A 
ATOM      2  C   UNL     1      17.312  41.572  26.607  1.00  0.00     0.208 A 
ATOM      3  C   UNL     1      18.516  41.040  27.094  1.00  0.00     0.238 A 
ATOM      4  O   UNL     1      18.470  40.184  28.017  1.00  0.00    -0.285 OA
ATOM      5  C   UNL     1      19.746  41.437  26.517  1.00  0.00     0.111 A 
ATOM      6  C   UNL     1      21.030  40.993  26.958  1.00  0.00     0.134 A 
ATOM      7  C   UNL     1      22.171  41.348  26.229  1.00  0.00     0.093 A 
ATOM      8  C   UNL     1      22.084  42.183  25.117  1.00  0.00     0.123 A 
ATOM      9  C   UNL     1      20.841  42.672  24.712  1.00  0.00     0.094 A 
ATOM     10  C   UNL     1      19.681  42.305  25.397  1.00  0.00     0.146 A 
ATOM     11  O   UNL     1      18.516  42.784  24.974  1.00  0.00    -0.452 OA
ENDROOT
BRANCH   1  12
ATOM     12  C   UNL     1      16.128  43.104  24.985  1.00  0.00     0.025 A 
ATOM     13  C   UNL     1      15.469  42.495  23.905  1.00  0.00     0.016 A 
ATOM     14  C   UNL     1      14.324  43.076  23.356  1.00  0.00     0.051 A 
ATOM     15  C   UNL     1      13.829  44.283  23.867  1.00  0.00     0.157 A 
ATOM     16  C   UNL     1      15.639  44.326  25.482  1.00  0.00     0.062 A 
ATOM     17  C   UNL     1      14.493  44.912  24.933  1.00  0.00     0.158 A 
BRANCH  15  18
ATOM     18  O   UNL     1      12.683  44.860  23.318  1.00  0.00    -0.504 OA
ATOM     19  H   UNL     1      12.545  44.915  22.316  1.00  0.00     0.293 HD
ENDBRANCH  15  18
BRANCH  17  20
ATOM     20  O   UNL     1      14.034  46.121  25.455  1.00  0.00    -0.504 OA
ATOM     21  H   UNL     1      13.808  46.232  26.437  1.00  0.00     0.293 HD
ENDBRANCH  17  20
ENDBRANCH   1  12
BRANCH   2  22
ATOM     22  O   UNL     1      16.086  41.177  27.149  1.00  0.00    -0.502 OA
ATOM     23  H   UNL     1      15.724  41.561  28.013  1.00  0.00     0.293 HD
ENDBRANCH   2  22
BRANCH   6  24
ATOM     24  O   UNL     1      21.238  40.229  28.111  1.00  0.00    -0.507 OA
ATOM     25  H   UNL     1      20.764  40.375  28.989  1.00  0.00     0.293 HD
ENDBRANCH   6  24
BRANCH   8  26
ATOM     26  O   UNL     1      23.243  42.529  24.425  1.00  0.00    -0.508 OA
ATOM     27  H   UNL     1      23.300  43.383  23.881  1.00  0.00     0.293 HD
ENDBRANCH   8  26
TORSDOF 6
ENDMDL
MODEL 5
REMARK VINA RESULT:    -6.296      5.320      7.463
REMARK INTER + INTRA:          -7.772
REMARK INTER:                  -7.518
REMARK INTRA:                  -0.254
REMARK UNBOUND:                -0.188
REMARK SMILES O=c1c(O)c(-c2ccc(O)c(O)c2)oc2cc(O)cc(O)c12
REMARK SMILES IDX 5 1 3 2 2 3 1 4 22 5 20 6 19 7 17 8 16 9 15 10 14 11 6 12
REMARK SMILES IDX 7 13 8 14 9 15 13 16 11 17 10 18 12 20 4 22 21 24 18 26
REMARK H PARENT 10 19 12 21 4 23 21 25 18 27
REMARK Flexibility Score: inf
ROOT
ATOM      1  C   UNL     1      21.019  39.031  22.589  1.00  0.00     0.180 A 
ATOM      2  C   UNL     1      21.268  39.988  21.590  1.00  0.00     0.208 A 
ATOM      3  C   UNL     1      22.083  39.640  20.501  1.00  0.00     0.238 A 
ATOM      4  O   UNL     1      22.347  40.518  19.639  1.00  0.00    -0.285 OA
ATOM      5  C   UNL     1      22.623  38.335  20.415  1.00  0.00     0.111 A 
ATOM      6  C   UNL     1      23.428  37.860  19.336  1.00  0.00     0.134 A 
ATOM      7  C   UNL     1      24.017  36.592  19.419  1.00  0.00     0.093 A 
ATOM      8  C   UNL     1      23.779  35.758  20.509  1.00  0.00     0.123 A 
ATOM      9  C   UNL     1      22.945  36.188  21.542  1.00  0.00     0.094 A 
ATOM     10  C   UNL     1      22.373  37.461  21.505  1.00  0.00     0.146 A 
ATOM     11  O   UNL     1      21.593  37.837  22.513  1.00  0.00    -0.452 OA
ENDROOT
BRANCH   1  12
ATOM     12  C   UNL     1      20.151  39.316  23.754  1.00  0.00     0.025 A 
ATOM     13  C   UNL     1      18.842  38.809  23.781  1.00  0.00     0.016 A 
ATOM     14  C   UNL     1      18.000  39.083  24.861  1.00  0.00     0.051 A 
ATOM     15  C   UNL     1      18.448  39.880  25.923  1.00  0.00     0.157 A 
ATOM     16  C   UNL     1      20.591  40.132  24.813  1.00  0.00     0.062 A 
ATOM     17  C   UNL     1      19.749  40.409  25.896  1.00  0.00     0.158 A 
BRANCH  15  18
ATOM     18  O   UNL     1      17.605  40.149  27.002  1.00  0.00    -0.504 OA
ATOM     19  H   UNL     1      17.963  40.522  27.874  1.00  0.00     0.293 HD
ENDBRANCH  15  18
BRANCH  17  20
ATOM     20  O   UNL     1      20.220  41.217  26.930  1.00  0.00    -0.504 OA
ATOM     21  H   UNL     1      20.644  40.830  27.765  1.00  0.00     0.293 HD
ENDBRANCH  17  20
ENDBRANCH   1  12
BRANCH   2  22
ATOM     22  O   UNL     1      20.742  41.278  21.706  1.00  0.00    -0.502 OA
ATOM     23  H   UNL     1      20.001  41.507  22.357  1.00  0.00     0.293 HD
ENDBRANCH   2  22
BRANCH   6  24
ATOM     24  O   UNL     1      23.656  38.578  18.158  1.00  0.00    -0.507 OA
ATOM     25  H   UNL     1      23.922  38.166  17.276  1.00  0.00     0.293 HD
ENDBRANCH   6  24
BRANCH   8  26
ATOM     26  O   UNL     1      24.368  34.496  20.551  1.00  0.00    -0.508 OA
ATOM     27  H   UNL     1      25.158  34.260  19.961  1.00  0.00     0.293 HD
ENDBRANCH   8  26
TORSDOF 6
ENDMDL
MODEL 6
REMARK VINA RESULT:    -6.165     10.621     14.389
REMARK INTER + INTRA:          -7.614
REMARK INTER:                  -7.292
REMARK INTRA:                  -0.322
REMARK UNBOUND:                -0.188
REMARK SMILES O=c1c(O)c(-c2ccc(O)c(O)c2)oc2cc(O)cc(O)c12
REMARK SMILES IDX 5 1 3 2 2 3 1 4 22 5 20 6 19 7 17 8 16 9 15 10 14 11 6 12
REMARK SMILES IDX 7 13 8 14 9 15 13 16 11 17 10 18 12 20 4 22 21 24 18 26
REMARK H PARENT 10 19 12 21 4 23 21 25 18 27
REMARK Flexibility Score: inf
ROOT
ATOM      1  C   UNL     1      12.292  37.700  15.329  1.00  0.00     0.180 A 
ATOM      2  C   UNL     1      13.286  38.343  14.572  1.00  0.00     0.208 A 
ATOM      3  C   UNL     1      13.046  38.605  13.214  1.00  0.00     0.238 A 
ATOM      4  O   UNL     1      13.961  39.132  12.529  1.00  0.00    -0.285 OA
ATOM      5  C   UNL     1      11.809  38.236  12.634  1.00  0.00     0.111 A 
ATOM      6  C   UNL     1      11.442  38.489  11.277  1.00  0.00     0.134 A 
ATOM      7  C   UNL     1      10.245  37.963  10.776  1.00  0.00     0.093 A 
ATOM      8  C   UNL     1       9.372  37.251  11.597  1.00  0.00     0.123 A 
ATOM      9  C   UNL     1       9.692  37.049  12.940  1.00  0.00     0.094 A 
ATOM     10  C   UNL     1      10.896  37.530  13.459  1.00  0.00     0.146 A 
ATOM     11  O   UNL     1      11.168  37.307  14.740  1.00  0.00    -0.452 OA
ENDROOT
BRANCH   1  12
ATOM     12  C   UNL     1      12.462  37.413  16.771  1.00  0.00     0.025 A 
ATOM     13  C   UNL     1      12.060  38.368  17.718  1.00  0.00     0.016 A 
ATOM     14  C   UNL     1      12.231  38.125  19.083  1.00  0.00     0.051 A 
ATOM     15  C   UNL     1      12.819  36.932  19.522  1.00  0.00     0.157 A 
ATOM     16  C   UNL     1      13.070  36.223  17.215  1.00  0.00     0.062 A 
ATOM     17  C   UNL     1      13.244  35.978  18.582  1.00  0.00     0.158 A 
BRANCH  15  18
ATOM     18  O   UNL     1      12.984  36.691  20.886  1.00  0.00    -0.504 OA
ATOM     19  H   UNL     1      12.400  37.145  21.579  1.00  0.00     0.293 HD
ENDBRANCH  15  18
BRANCH  17  20
ATOM     20  O   UNL     1      13.845  34.787  18.985  1.00  0.00    -0.504 OA
ATOM     21  H   UNL     1      14.825  34.593  18.813  1.00  0.00     0.293 HD
ENDBRANCH  17  20
ENDBRANCH   1  12
BRANCH   2  22
ATOM     22  O   UNL     1      14.509  38.680  15.160  1.00  0.00    -0.502 OA
ATOM     23  H   UNL     1      15.242  39.160  14.652  1.00  0.00     0.293 HD
ENDBRANCH   2  22
BRANCH   6  24
ATOM     24  O   UNL     1      12.199  39.267  10.396  1.00  0.00    -0.507 OA
ATOM     25  H   UNL     1      12.998  39.821  10.662  1.00  0.00     0.293 HD
ENDBRANCH   6  24
BRANCH   8  26
ATOM     26  O   UNL     1       8.181  36.755  11.069  1.00  0.00    -0.508 OA
ATOM     27  H   UNL     1       8.147  35.869  10.579  1.00  0.00     0.293 HD
ENDBRANCH   8  26
TORSDOF 6
ENDMDL
MODEL 7
REMARK VINA RESULT:    -6.161      2.617      6.975
REMARK INTER + INTRA:          -7.610
REMARK INTER:                  -7.300
REMARK INTRA:                  -0.309
REMARK UNBOUND:                -0.188
REMARK SMILES O=c1c(O)c(-c2ccc(O)c(O)c2)oc2cc(O)cc(O)c12
REMARK SMILES IDX 5 1 3 2 2 3 1 4 22 5 20 6 19 7 17 8 16 9 15 10 14 11 6 12
REMARK SMILES IDX 7 13 8 14 9 15 13 16 11 17 10 18 12 20 4 22 21 24 18 26
REMARK H PARENT 10 19 12 21 4 23 21 25 18 27
REMARK Flexibility Score: inf
ROOT
ATOM      1  C   UNL     1      17.299  42.687  26.589  1.00  0.00     0.180 A 
ATOM      2  C   UNL     1      16.174  42.044  26.047  1.00  0.00     0.208 A 
ATOM      3  C   UNL     1      14.913  42.646  26.182  1.00  0.00     0.238 A 
ATOM      4  O   UNL     1      13.902  42.039  25.742  1.00  0.00    -0.285 OA
ATOM      5  C   UNL     1      14.795  43.892  26.843  1.00  0.00     0.111 A 
ATOM      6  C   UNL     1      13.573  44.614  27.002  1.00  0.00     0.134 A 
ATOM      7  C   UNL     1      13.553  45.773  27.786  1.00  0.00     0.093 A 
ATOM      8  C   UNL     1      14.719  46.273  28.363  1.00  0.00     0.123 A 
ATOM      9  C   UNL     1      15.930  45.609  28.165  1.00  0.00     0.094 A 
ATOM     10  C   UNL     1      15.976  44.430  27.417  1.00  0.00     0.146 A 
ATOM     11  O   UNL     1      17.147  43.823  27.260  1.00  0.00    -0.452 OA
ENDROOT
BRANCH   1  12
ATOM     12  C   UNL     1      18.663  42.127  26.466  1.00  0.00     0.025 A 
ATOM     13  C   UNL     1      19.392  42.337  25.284  1.00  0.00     0.016 A 
ATOM     14  C   UNL     1      20.673  41.799  25.139  1.00  0.00     0.051 A 
ATOM     15  C   UNL     1      21.239  41.031  26.165  1.00  0.00     0.157 A 
ATOM     16  C   UNL     1      19.227  41.338  27.486  1.00  0.00     0.062 A 
ATOM     17  C   UNL     1      20.509  40.797  27.343  1.00  0.00     0.158 A 
BRANCH  15  18
ATOM     18  O   UNL     1      22.520  40.498  26.018  1.00  0.00    -0.504 OA
ATOM     19  H   UNL     1      23.078  40.679  25.191  1.00  0.00     0.293 HD
ENDBRANCH  15  18
BRANCH  17  20
ATOM     20  O   UNL     1      21.038  40.025  28.376  1.00  0.00    -0.504 OA
ATOM     21  H   UNL     1      20.671  40.065  29.320  1.00  0.00     0.293 HD
ENDBRANCH  17  20
ENDBRANCH   1  12
BRANCH   2  22
ATOM     22  O   UNL     1      16.309  40.803  25.417  1.00  0.00    -0.502 OA
ATOM     23  H   UNL     1      15.512  40.246  25.135  1.00  0.00     0.293 HD
ENDBRANCH   2  22
BRANCH   6  24
ATOM     24  O   UNL     1      12.368  44.251  26.393  1.00  0.00    -0.507 OA
ATOM     25  H   UNL     1      11.620  43.754  26.851  1.00  0.00     0.293 HD
ENDBRANCH   6  24
BRANCH   8  26
ATOM     26  O   UNL     1      14.665  47.438  29.125  1.00  0.00    -0.508 OA
ATOM     27  H   UNL     1      15.355  48.173  29.020  1.00  0.00     0.293 HD
ENDBRANCH   8  26
TORSDOF 6
ENDMDL
MODEL 8
REMARK VINA RESULT:    -6.119      3.487      7.006
REMARK INTER + INTRA:          -7.559
REMARK INTER:                  -7.237
REMARK INTRA:                  -0.322
REMARK UNBOUND:                -0.188
REMARK SMILES O=c1c(O)c(-c2ccc(O)c(O)c2)oc2cc(O)cc(O)c12
REMARK SMILES IDX 5 1 3 2 2 3 1 4 22 5 20 6 19 7 17 8 16 9 15 10 14 11 6 12
REMARK SMILES IDX 7 13 8 14 9 15 13 16 11 17 10 18 12 20 4 22 21 24 18 26
REMARK H PARENT 10 19 12 21 4 23 21 25 18 27
REMARK Flexibility Score: inf
ROOT
ATOM      1  C   UNL     1      20.132  40.130  23.426  1.00  0.00     0.180 A 
ATOM      2  C   UNL     1      20.614  40.268  24.739  1.00  0.00     0.208 A 
ATOM      3  C   UNL     1      19.719  40.633  25.758  1.00  0.00     0.238 A 
ATOM      4  O   UNL     1      20.167  40.809  26.921  1.00  0.00    -0.285 OA
ATOM      5  C   UNL     1      18.352  40.837  25.455  1.00  0.00     0.111 A 
ATOM      6  C   UNL     1      17.349  41.169  26.416  1.00  0.00     0.134 A 
ATOM      7  C   UNL     1      16.053  41.476  25.983  1.00  0.00     0.093 A 
ATOM      8  C   UNL     1      15.707  41.400  24.635  1.00  0.00     0.123 A 
ATOM      9  C   UNL     1      16.664  41.019  23.694  1.00  0.00     0.094 A 
ATOM     10  C   UNL     1      17.974  40.742  24.091  1.00  0.00     0.146 A 
ATOM     11  O   UNL     1      18.858  40.392  23.162  1.00  0.00    -0.452 OA
ENDROOT
BRANCH   1  12
ATOM     12  C   UNL     1      21.008  39.724  22.304  1.00  0.00     0.025 A 
ATOM     13  C   UNL     1      21.161  38.361  22.004  1.00  0.00     0.016 A 
ATOM     14  C   UNL     1      21.999  37.956  20.962  1.00  0.00     0.051 A 
ATOM     15  C   UNL     1      22.709  38.905  20.216  1.00  0.00     0.157 A 
ATOM     16  C   UNL     1      21.739  40.673  21.565  1.00  0.00     0.062 A 
ATOM     17  C   UNL     1      22.581  40.270  20.523  1.00  0.00     0.158 A 
BRANCH  15  18
ATOM     18  O   UNL     1      23.543  38.498  19.175  1.00  0.00    -0.504 OA
ATOM     19  H   UNL     1      23.579  39.001  18.295  1.00  0.00     0.293 HD
ENDBRANCH  15  18
BRANCH  17  20
ATOM     20  O   UNL     1      23.285  41.239  19.809  1.00  0.00    -0.504 OA
ATOM     21  H   UNL     1      24.192  41.577  20.110  1.00  0.00     0.293 HD
ENDBRANCH  17  20
ENDBRANCH   1  12
BRANCH   2  22
ATOM     22  O   UNL     1      21.972  40.083  25.013  1.00  0.00    -0.502 OA
ATOM     23  H   UNL     1      22.602  39.633  24.361  1.00  0.00     0.293 HD
ENDBRANCH   2  22
BRANCH   6  24
ATOM     24  O   UNL     1      17.567  41.185  27.797  1.00  0.00    -0.507 OA
ATOM     25  H   UNL     1      17.112  41.812  28.443  1.00  0.00     0.293 HD
ENDBRANCH   6  24
BRANCH   8  26
ATOM     26  O   UNL     1      14.404  41.698  24.242  1.00  0.00    -0.508 OA
ATOM     27  H   UNL     1      14.212  42.238  23.407  1.00  0.00     0.293 HD
ENDBRANCH   8  26
TORSDOF 6
ENDMDL
MODEL 9
REMARK VINA RESULT:    -6.081     10.904     13.075
REMARK INTER + INTRA:          -7.513
REMARK INTER:                  -7.257
REMARK INTRA:                  -0.256
REMARK UNBOUND:                -0.188
REMARK SMILES O=c1c(O)c(-c2ccc(O)c(O)c2)oc2cc(O)cc(O)c12
REMARK SMILES IDX 5 1 3 2 2 3 1 4 22 5 20 6 19 7 17 8 16 9 15 10 14 11 6 12
REMARK SMILES IDX 7 13 8 14 9 15 13 16 11 17 10 18 12 20 4 22 21 24 18 26
REMARK H PARENT 10 19 12 21 4 23 21 25 18 27
REMARK Flexibility Score: inf
ROOT
ATOM      1  C   UNL     1      12.603  38.505  13.942  1.00  0.00     0.180 A 
ATOM      2  C   UNL     1      12.456  39.124  15.195  1.00  0.00     0.208 A 
ATOM      3  C   UNL     1      13.535  39.110  16.092  1.00  0.00     0.238 A 
ATOM      4  O   UNL     1      13.378  39.618  17.234  1.00  0.00    -0.285 OA
ATOM      5  C   UNL     1      14.753  38.494  15.720  1.00  0.00     0.111 A 
ATOM      6  C   UNL     1      15.926  38.457  16.534  1.00  0.00     0.134 A 
ATOM      7  C   UNL     1      17.032  37.706  16.118  1.00  0.00     0.093 A 
ATOM      8  C   UNL     1      17.034  37.046  14.891  1.00  0.00     0.123 A 
ATOM      9  C   UNL     1      15.916  37.125  14.059  1.00  0.00     0.094 A 
ATOM     10  C   UNL     1      14.784  37.836  14.463  1.00  0.00     0.146 A 
ATOM     11  O   UNL     1      13.736  37.878  13.647  1.00  0.00    -0.452 OA
ENDROOT
BRANCH   1  12
ATOM     12  C   UNL     1      11.520  38.499  12.933  1.00  0.00     0.025 A 
ATOM     13  C   UNL     1      11.587  39.380  11.842  1.00  0.00     0.016 A 
ATOM     14  C   UNL     1      10.565  39.405  10.890  1.00  0.00     0.051 A 
ATOM     15  C   UNL     1       9.454  38.562  11.022  1.00  0.00     0.157 A 
ATOM     16  C   UNL     1      10.392  37.669  13.073  1.00  0.00     0.062 A 
ATOM     17  C   UNL     1       9.366  37.693  12.122  1.00  0.00     0.158 A 
BRANCH  15  18
ATOM     18  O   UNL     1       8.437  38.588  10.068  1.00  0.00    -0.504 OA
ATOM     19  H   UNL     1       7.632  37.976  10.134  1.00  0.00     0.293 HD
ENDBRANCH  15  18
BRANCH  17  20
ATOM     20  O   UNL     1       8.267  36.853  12.291  1.00  0.00    -0.504 OA
ATOM     21  H   UNL     1       7.815  36.394  11.508  1.00  0.00     0.293 HD
ENDBRANCH  17  20
ENDBRANCH   1  12
BRANCH   2  22
ATOM     22  O   UNL     1      11.237  39.708  15.551  1.00  0.00    -0.502 OA
ATOM     23  H   UNL     1      10.347  39.344  15.235  1.00  0.00     0.293 HD
ENDBRANCH   2  22
BRANCH   6  24
ATOM     24  O   UNL     1      16.062  39.155  17.738  1.00  0.00    -0.507 OA
ATOM     25  H   UNL     1      16.586  40.010  17.850  1.00  0.00     0.293 HD
ENDBRANCH   6  24
BRANCH   8  26
ATOM     26  O   UNL     1      18.158  36.322  14.501  1.00  0.00    -0.508 OA
ATOM     27  H   UNL     1      18.306  35.367  14.808  1.00  0.00     0.293 HD
ENDBRANCH   8  26
TORSDOF 6
ENDMDL
