MODEL 1
REMARK VINA RESULT:    -4.477      0.000      0.000
REMARK INTER + INTRA:          -7.078
REMARK INTER:                  -6.309
REMARK INTRA:                  -0.769
REMARK UNBOUND:                -0.769
REMARK SMILES CCCCCCCCC(=O)[O-]
REMARK SMILES IDX 6 1 7 2 8 3 9 4 10 5 11 6 5 7 4 8 3 9 2 10 1 11
REMARK H PARENT
REMARK Flexibility Score: inf
ROOT
ATOM      1  C   UNL     1      14.801   1.232  27.434  1.00  0.00     0.000 C 
ENDROOT
BRANCH   1   2
ATOM      2  C   UNL     1      14.360  -0.086  28.093  1.00  0.00     0.006 C 
BRANCH   2   3
ATOM      3  C   UNL     1      14.394  -1.276  27.126  1.00  0.00     0.053 C 
BRANCH   3   4
ATOM      4  C   UNL     1      15.470  -2.238  27.520  1.00  0.00     0.041 C 
ATOM      5  O   UNL     1      16.548  -2.283  26.871  1.00  0.00    -0.550 OA
ATOM      6  O   UNL     1      15.263  -3.120  28.573  1.00  0.00    -0.550 OA
ENDBRANCH   3   4
ENDBRANCH   2   3
ENDBRANCH   1   2
BRANCH   1   7
ATOM      7  C   UNL     1      15.475   1.077  26.056  1.00  0.00     0.000 C 
BRANCH   7   8
ATOM      8  C   UNL     1      14.758   1.790  24.892  1.00  0.00    -0.000 C 
BRANCH   8   9
ATOM      9  C   UNL     1      13.259   2.058  25.119  1.00  0.00    -0.000 C 
BRANCH   9  10
ATOM     10  C   UNL     1      12.378   0.852  24.762  1.00  0.00    -0.003 C 
ATOM     11  C   UNL     1      11.374   0.556  25.873  1.00  0.00     0.004 C 
ENDBRANCH   9  10
ENDBRANCH   8   9
ENDBRANCH   7   8
ENDBRANCH   1   7
TORSDOF 7
ENDMDL
MODEL 2
REMARK VINA RESULT:    -4.434      1.448      2.553
REMARK INTER + INTRA:          -7.018
REMARK INTER:                  -6.627
REMARK INTRA:                  -0.391
REMARK UNBOUND:                -0.769
REMARK SMILES CCCCCCCCC(=O)[O-]
REMARK SMILES IDX 6 1 7 2 8 3 9 4 10 5 11 6 5 7 4 8 3 9 2 10 1 11
REMARK H PARENT
REMARK Flexibility Score: inf
ROOT
ATOM      1  C   UNL     1      13.722  -1.501  26.236  1.00  0.00     0.000 C 
ENDROOT
BRANCH   1   2
ATOM      2  C   UNL     1      15.252  -1.338  26.212  1.00  0.00     0.006 C 
BRANCH   2   3
ATOM      3  C   UNL     1      15.984  -2.478  26.933  1.00  0.00     0.053 C 
BRANCH   3   4
ATOM      4  C   UNL     1      15.474  -2.624  28.331  1.00  0.00     0.041 C 
ATOM      5  O   UNL     1      15.327  -1.608  29.061  1.00  0.00    -0.550 OA
ATOM      6  O   UNL     1      15.208  -3.886  28.847  1.00  0.00    -0.550 OA
ENDBRANCH   3   4
ENDBRANCH   2   3
ENDBRANCH   1   2
BRANCH   1   7
ATOM      7  C   UNL     1      12.943  -0.250  26.689  1.00  0.00     0.000 C 
BRANCH   7   8
ATOM      8  C   UNL     1      12.174   0.483  25.571  1.00  0.00    -0.000 C 
BRANCH   8   9
ATOM      9  C   UNL     1      13.005   1.507  24.775  1.00  0.00    -0.000 C 
BRANCH   9  10
ATOM     10  C   UNL     1      14.236   2.003  25.547  1.00  0.00    -0.003 C 
ATOM     11  C   UNL     1      15.496   1.912  24.690  1.00  0.00     0.004 C 
ENDBRANCH   9  10
ENDBRANCH   8   9
ENDBRANCH   7   8
ENDBRANCH   1   7
TORSDOF 7
ENDMDL
MODEL 3
REMARK VINA RESULT:    -4.407      9.134     10.173
REMARK INTER + INTRA:          -6.979
REMARK INTER:                  -6.200
REMARK INTRA:                  -0.780
REMARK UNBOUND:                -0.769
REMARK SMILES CCCCCCCCC(=O)[O-]
REMARK SMILES IDX 6 1 7 2 8 3 9 4 10 5 11 6 5 7 4 8 3 9 2 10 1 11
REMARK H PARENT
REMARK Flexibility Score: inf
ROOT
ATOM      1  C   UNL     1      16.774  -5.192  35.728  1.00  0.00     0.000 C 
ENDROOT
BRANCH   1   2
ATOM      2  C   UNL     1      15.794  -5.142  34.543  1.00  0.00     0.006 C 
BRANCH   2   3
ATOM      3  C   UNL     1      15.572  -6.514  33.895  1.00  0.00     0.053 C 
BRANCH   3   4
ATOM      4  C   UNL     1      16.125  -6.531  32.505  1.00  0.00     0.041 C 
ATOM      5  O   UNL     1      16.393  -5.450  31.917  1.00  0.00    -0.550 OA
ATOM      6  O   UNL     1      16.300  -7.738  31.840  1.00  0.00    -0.550 OA
ENDBRANCH   3   4
ENDBRANCH   2   3
ENDBRANCH   1   2
BRANCH   1   7
ATOM      7  C   UNL     1      17.846  -4.084  35.733  1.00  0.00     0.000 C 
BRANCH   7   8
ATOM      8  C   UNL     1      19.195  -4.474  35.097  1.00  0.00    -0.000 C 
BRANCH   8   9
ATOM      9  C   UNL     1      19.350  -4.089  33.614  1.00  0.00    -0.000 C 
BRANCH   9  10
ATOM     10  C   UNL     1      19.840  -5.255  32.744  1.00  0.00    -0.003 C 
ATOM     11  C   UNL     1      19.583  -6.596  33.426  1.00  0.00     0.004 C 
ENDBRANCH   9  10
ENDBRANCH   8   9
ENDBRANCH   7   8
ENDBRANCH   1   7
TORSDOF 7
ENDMDL
MODEL 4
REMARK VINA RESULT:    -4.395      2.874      4.750
REMARK INTER + INTRA:          -6.963
REMARK INTER:                  -6.226
REMARK INTRA:                  -0.737
REMARK UNBOUND:                -0.769
REMARK SMILES CCCCCCCCC(=O)[O-]
REMARK SMILES IDX 6 1 7 2 8 3 9 4 10 5 11 6 5 7 4 8 3 9 2 10 1 11
REMARK H PARENT
REMARK Flexibility Score: inf
ROOT
ATOM      1  C   UNL     1      14.739   1.286  27.493  1.00  0.00     0.000 C 
ENDROOT
BRANCH   1   2
ATOM      2  C   UNL     1      14.313   1.066  26.030  1.00  0.00     0.006 C 
BRANCH   2   3
ATOM      3  C   UNL     1      13.284  -0.059  25.872  1.00  0.00     0.053 C 
BRANCH   3   4
ATOM      4  C   UNL     1      11.990   0.485  25.356  1.00  0.00     0.041 C 
ATOM      5  O   UNL     1      10.995   0.584  26.122  1.00  0.00    -0.550 OA
ATOM      6  O   UNL     1      11.867   0.837  24.018  1.00  0.00    -0.550 OA
ENDBRANCH   3   4
ENDBRANCH   2   3
ENDBRANCH   1   2
BRANCH   1   7
ATOM      7  C   UNL     1      13.702   0.844  28.545  1.00  0.00     0.000 C 
BRANCH   7   8
ATOM      8  C   UNL     1      14.226  -0.146  29.605  1.00  0.00    -0.000 C 
BRANCH   8   9
ATOM      9  C   UNL     1      15.473  -0.946  29.187  1.00  0.00    -0.000 C 
BRANCH   9  10
ATOM     10  C   UNL     1      15.133  -2.181  28.341  1.00  0.00    -0.003 C 
ATOM     11  C   UNL     1      16.008  -2.251  27.093  1.00  0.00     0.004 C 
ENDBRANCH   9  10
ENDBRANCH   8   9
ENDBRANCH   7   8
ENDBRANCH   1   7
TORSDOF 7
ENDMDL
MODEL 5
REMARK VINA RESULT:    -4.388      1.698      3.085
REMARK INTER + INTRA:          -6.952
REMARK INTER:                  -6.238
REMARK INTRA:                  -0.714
REMARK UNBOUND:                -0.769
REMARK SMILES CCCCCCCCC(=O)[O-]
REMARK SMILES IDX 6 1 7 2 8 3 9 4 10 5 11 6 5 7 4 8 3 9 2 10 1 11
REMARK H PARENT
REMARK Flexibility Score: inf
ROOT
ATOM      1  C   UNL     1      13.319  -1.175  26.205  1.00  0.00     0.000 C 
ENDROOT
BRANCH   1   2
ATOM      2  C   UNL     1      14.568  -1.053  27.094  1.00  0.00     0.006 C 
BRANCH   2   3
ATOM      3  C   UNL     1      14.582   0.233  27.930  1.00  0.00     0.053 C 
BRANCH   3   4
ATOM      4  C   UNL     1      14.472  -0.090  29.387  1.00  0.00     0.041 C 
ATOM      5  O   UNL     1      13.432   0.217  30.026  1.00  0.00    -0.550 OA
ATOM      6  O   UNL     1      15.538  -0.685  30.050  1.00  0.00    -0.550 OA
ENDBRANCH   3   4
ENDBRANCH   2   3
ENDBRANCH   1   2
BRANCH   1   7
ATOM      7  C   UNL     1      12.138  -0.272  26.615  1.00  0.00     0.000 C 
BRANCH   7   8
ATOM      8  C   UNL     1      11.729   0.787  25.571  1.00  0.00    -0.000 C 
BRANCH   8   9
ATOM      9  C   UNL     1      12.822   1.145  24.547  1.00  0.00    -0.000 C 
BRANCH   9  10
ATOM     10  C   UNL     1      13.759   2.256  25.042  1.00  0.00    -0.003 C 
ATOM     11  C   UNL     1      15.219   1.908  24.764  1.00  0.00     0.004 C 
ENDBRANCH   9  10
ENDBRANCH   8   9
ENDBRANCH   7   8
ENDBRANCH   1   7
TORSDOF 7
ENDMDL
MODEL 6
REMARK VINA RESULT:    -4.361      9.574     10.585
REMARK INTER + INTRA:          -6.915
REMARK INTER:                  -6.082
REMARK INTRA:                  -0.833
REMARK UNBOUND:                -0.769
REMARK SMILES CCCCCCCCC(=O)[O-]
REMARK SMILES IDX 6 1 7 2 8 3 9 4 10 5 11 6 5 7 4 8 3 9 2 10 1 11
REMARK H PARENT
REMARK Flexibility Score: inf
ROOT
ATOM      1  C   UNL     1      15.795  -6.197  33.693  1.00  0.00     0.000 C 
ENDROOT
BRANCH   1   2
ATOM      2  C   UNL     1      16.912  -6.374  32.649  1.00  0.00     0.006 C 
BRANCH   2   3
ATOM      3  C   UNL     1      17.849  -7.543  32.973  1.00  0.00     0.053 C 
BRANCH   3   4
ATOM      4  C   UNL     1      19.100  -7.045  33.626  1.00  0.00     0.041 C 
ATOM      5  O   UNL     1      19.344  -7.333  34.827  1.00  0.00    -0.550 OA
ATOM      6  O   UNL     1      19.971  -6.223  32.923  1.00  0.00    -0.550 OA
ENDBRANCH   3   4
ENDBRANCH   2   3
ENDBRANCH   1   2
BRANCH   1   7
ATOM      7  C   UNL     1      15.893  -4.912  34.539  1.00  0.00     0.000 C 
BRANCH   7   8
ATOM      8  C   UNL     1      16.703  -5.048  35.845  1.00  0.00    -0.000 C 
BRANCH   8   9
ATOM      9  C   UNL     1      17.995  -4.213  35.897  1.00  0.00    -0.000 C 
BRANCH   9  10
ATOM     10  C   UNL     1      18.282  -3.477  34.581  1.00  0.00    -0.003 C 
ATOM     11  C   UNL     1      19.748  -3.061  34.492  1.00  0.00     0.004 C 
ENDBRANCH   9  10
ENDBRANCH   8   9
ENDBRANCH   7   8
ENDBRANCH   1   7
TORSDOF 7
ENDMDL
MODEL 7
REMARK VINA RESULT:    -4.353      9.489     10.619
REMARK INTER + INTRA:          -6.904
REMARK INTER:                  -6.170
REMARK INTRA:                  -0.734
REMARK UNBOUND:                -0.769
REMARK SMILES CCCCCCCCC(=O)[O-]
REMARK SMILES IDX 6 1 7 2 8 3 9 4 10 5 11 6 5 7 4 8 3 9 2 10 1 11
REMARK H PARENT
REMARK Flexibility Score: inf
ROOT
ATOM      1  C   UNL     1      15.911  -5.062  35.198  1.00  0.00     0.000 C 
ENDROOT
BRANCH   1   2
ATOM      2  C   UNL     1      17.329  -5.031  35.794  1.00  0.00     0.006 C 
BRANCH   2   3
ATOM      3  C   UNL     1      17.863  -3.606  35.987  1.00  0.00     0.053 C 
BRANCH   3   4
ATOM      4  C   UNL     1      18.720  -3.208  34.828  1.00  0.00     0.041 C 
ATOM      5  O   UNL     1      19.973  -3.179  34.946  1.00  0.00    -0.550 OA
ATOM      6  O   UNL     1      18.132  -2.819  33.630  1.00  0.00    -0.550 OA
ENDBRANCH   3   4
ENDBRANCH   2   3
ENDBRANCH   1   2
BRANCH   1   7
ATOM      7  C   UNL     1      15.688  -6.129  34.107  1.00  0.00     0.000 C 
BRANCH   7   8
ATOM      8  C   UNL     1      16.766  -6.175  33.005  1.00  0.00    -0.000 C 
BRANCH   8   9
ATOM      9  C   UNL     1      17.486  -7.528  32.858  1.00  0.00    -0.000 C 
BRANCH   9  10
ATOM     10  C   UNL     1      18.903  -7.515  33.449  1.00  0.00    -0.003 C 
ATOM     11  C   UNL     1      19.656  -6.251  33.043  1.00  0.00     0.004 C 
ENDBRANCH   9  10
ENDBRANCH   8   9
ENDBRANCH   7   8
ENDBRANCH   1   7
TORSDOF 7
ENDMDL
MODEL 8
REMARK VINA RESULT:    -4.334      8.925     10.019
REMARK INTER + INTRA:          -6.877
REMARK INTER:                  -6.317
REMARK INTRA:                  -0.560
REMARK UNBOUND:                -0.769
REMARK SMILES CCCCCCCCC(=O)[O-]
REMARK SMILES IDX 6 1 7 2 8 3 9 4 10 5 11 6 5 7 4 8 3 9 2 10 1 11
REMARK H PARENT
REMARK Flexibility Score: inf
ROOT
ATOM      1  C   UNL     1      15.560  -6.248  34.104  1.00  0.00     0.000 C 
ENDROOT
BRANCH   1   2
ATOM      2  C   UNL     1      16.575  -7.212  33.467  1.00  0.00     0.006 C 
BRANCH   2   3
ATOM      3  C   UNL     1      16.265  -7.517  31.996  1.00  0.00     0.053 C 
BRANCH   3   4
ATOM      4  C   UNL     1      16.416  -8.979  31.722  1.00  0.00     0.041 C 
ATOM      5  O   UNL     1      15.423  -9.747  31.819  1.00  0.00    -0.550 OA
ATOM      6  O   UNL     1      17.664  -9.503  31.408  1.00  0.00    -0.550 OA
ENDBRANCH   3   4
ENDBRANCH   2   3
ENDBRANCH   1   2
BRANCH   1   7
ATOM      7  C   UNL     1      16.108  -4.842  34.420  1.00  0.00     0.000 C 
BRANCH   7   8
ATOM      8  C   UNL     1      16.911  -4.180  33.282  1.00  0.00    -0.000 C 
BRANCH   8   9
ATOM      9  C   UNL     1      18.176  -3.427  33.733  1.00  0.00    -0.000 C 
BRANCH   9  10
ATOM     10  C   UNL     1      19.384  -4.354  33.928  1.00  0.00    -0.003 C 
ATOM     11  C   UNL     1      19.659  -5.171  32.669  1.00  0.00     0.004 C 
ENDBRANCH   9  10
ENDBRANCH   8   9
ENDBRANCH   7   8
ENDBRANCH   1   7
TORSDOF 7
ENDMDL
MODEL 9
REMARK VINA RESULT:    -4.323      9.398     10.443
REMARK INTER + INTRA:          -6.861
REMARK INTER:                  -6.101
REMARK INTRA:                  -0.760
REMARK UNBOUND:                -0.769
REMARK SMILES CCCCCCCCC(=O)[O-]
REMARK SMILES IDX 6 1 7 2 8 3 9 4 10 5 11 6 5 7 4 8 3 9 2 10 1 11
REMARK H PARENT
REMARK Flexibility Score: inf
ROOT
ATOM      1  C   UNL     1      19.494  -6.304  33.431  1.00  0.00     0.000 C 
ENDROOT
BRANCH   1   2
ATOM      2  C   UNL     1      19.488  -4.840  32.957  1.00  0.00     0.006 C 
BRANCH   2   3
ATOM      3  C   UNL     1      19.901  -3.856  34.058  1.00  0.00     0.053 C 
BRANCH   3   4
ATOM      4  C   UNL     1      18.887  -2.764  34.189  1.00  0.00     0.041 C 
ATOM      5  O   UNL     1      18.992  -1.910  35.108  1.00  0.00    -0.550 OA
ATOM      6  O   UNL     1      17.799  -2.718  33.327  1.00  0.00    -0.550 OA
ENDBRANCH   3   4
ENDBRANCH   2   3
ENDBRANCH   1   2
BRANCH   1   7
ATOM      7  C   UNL     1      18.226  -7.107  33.078  1.00  0.00     0.000 C 
BRANCH   7   8
ATOM      8  C   UNL     1      17.160  -7.171  34.190  1.00  0.00    -0.000 C 
BRANCH   8   9
ATOM      9  C   UNL     1      15.917  -6.295  33.949  1.00  0.00    -0.000 C 
BRANCH   9  10
ATOM     10  C   UNL     1      15.833  -5.101  34.911  1.00  0.00    -0.003 C 
ATOM     11  C   UNL     1      16.911  -5.188  35.989  1.00  0.00     0.004 C 
ENDBRANCH   9  10
ENDBRANCH   8   9
ENDBRANCH   7   8
ENDBRANCH   1   7
TORSDOF 7
ENDMDL
