MODEL 1
REMARK VINA RESULT:    -4.754      0.000      0.000
REMARK INTER + INTRA:          -8.977
REMARK INTER:                  -8.089
REMARK INTRA:                  -0.888
REMARK UNBOUND:                -0.888
REMARK SMILES CCCCCCCCCCCCCC(=O)[O-]
REMARK SMILES IDX 8 1 9 2 10 3 11 4 12 5 13 6 14 7 15 8 16 9 7 10 6 11 5 12
REMARK SMILES IDX 4 13 3 14 2 15 1 16
REMARK H PARENT
REMARK Flexibility Score: inf
ROOT
ATOM      1  C   UNL     1       6.280  52.416   0.584  1.00  0.00     0.000 C 
ENDROOT
BRANCH   1   2
ATOM      2  C   UNL     1       5.298  51.825   1.615  1.00  0.00     0.000 C 
BRANCH   2   3
ATOM      3  C   UNL     1       3.807  51.979   1.257  1.00  0.00     0.000 C 
BRANCH   3   4
ATOM      4  C   UNL     1       3.006  50.661   1.214  1.00  0.00     0.000 C 
BRANCH   4   5
ATOM      5  C   UNL     1       2.088  50.500  -0.012  1.00  0.00     0.006 C 
BRANCH   5   6
ATOM      6  C   UNL     1       1.875  51.815  -0.774  1.00  0.00     0.053 C 
BRANCH   6   7
ATOM      7  C   UNL     1       2.287  51.662  -2.204  1.00  0.00     0.041 C 
ATOM      8  O   UNL     1       2.217  50.538  -2.768  1.00  0.00    -0.550 OA
ATOM      9  O   UNL     1       2.701  52.772  -2.930  1.00  0.00    -0.550 OA
ENDBRANCH   6   7
ENDBRANCH   5   6
ENDBRANCH   4   5
ENDBRANCH   3   4
ENDBRANCH   2   3
ENDBRANCH   1   2
BRANCH   1  10
ATOM     10  C   UNL     1       5.765  52.430  -0.867  1.00  0.00     0.000 C 
BRANCH  10  11
ATOM     11  C   UNL     1       6.888  52.235  -1.900  1.00  0.00    -0.000 C 
BRANCH  11  12
ATOM     12  C   UNL     1       8.256  52.711  -1.385  1.00  0.00    -0.000 C 
BRANCH  12  13
ATOM     13  C   UNL     1       9.299  51.582  -1.352  1.00  0.00    -0.000 C 
BRANCH  13  14
ATOM     14  C   UNL     1      10.729  52.079  -1.628  1.00  0.00    -0.000 C 
BRANCH  14  15
ATOM     15  C   UNL     1      11.405  52.806  -0.452  1.00  0.00    -0.003 C 
ATOM     16  C   UNL     1      11.272  52.054   0.872  1.00  0.00     0.004 C 
ENDBRANCH  14  15
ENDBRANCH  13  14
ENDBRANCH  12  13
ENDBRANCH  11  12
ENDBRANCH  10  11
ENDBRANCH   1  10
TORSDOF 12
ENDMDL
MODEL 2
REMARK VINA RESULT:    -4.645      3.466      5.782
REMARK INTER + INTRA:          -8.791
REMARK INTER:                  -7.099
REMARK INTRA:                  -1.692
REMARK UNBOUND:                -0.888
REMARK SMILES CCCCCCCCCCCCCC(=O)[O-]
REMARK SMILES IDX 8 1 9 2 10 3 11 4 12 5 13 6 14 7 15 8 16 9 7 10 6 11 5 12
REMARK SMILES IDX 4 13 3 14 2 15 1 16
REMARK H PARENT
REMARK Flexibility Score: inf
ROOT
ATOM      1  C   UNL     1       1.875  51.242  -0.681  1.00  0.00     0.000 C 
ENDROOT
BRANCH   1   2
ATOM      2  C   UNL     1       2.206  50.952  -2.159  1.00  0.00     0.000 C 
BRANCH   2   3
ATOM      3  C   UNL     1       3.056  52.031  -2.860  1.00  0.00     0.000 C 
BRANCH   3   4
ATOM      4  C   UNL     1       4.124  51.491  -3.833  1.00  0.00     0.000 C 
BRANCH   4   5
ATOM      5  C   UNL     1       5.579  51.801  -3.435  1.00  0.00     0.006 C 
BRANCH   5   6
ATOM      6  C   UNL     1       5.740  53.189  -2.801  1.00  0.00     0.053 C 
BRANCH   6   7
ATOM      7  C   UNL     1       6.421  54.121  -3.751  1.00  0.00     0.041 C 
ATOM      8  O   UNL     1       5.971  54.282  -4.916  1.00  0.00    -0.550 OA
ATOM      9  O   UNL     1       7.527  54.853  -3.333  1.00  0.00    -0.550 OA
ENDBRANCH   6   7
ENDBRANCH   5   6
ENDBRANCH   4   5
ENDBRANCH   3   4
ENDBRANCH   2   3
ENDBRANCH   1   2
BRANCH   1  10
ATOM     10  C   UNL     1       2.599  50.338   0.333  1.00  0.00     0.000 C 
BRANCH  10  11
ATOM     11  C   UNL     1       3.168  51.122   1.528  1.00  0.00    -0.000 C 
BRANCH  11  12
ATOM     12  C   UNL     1       4.670  51.412   1.386  1.00  0.00    -0.000 C 
BRANCH  12  13
ATOM     13  C   UNL     1       4.948  52.764   0.707  1.00  0.00    -0.000 C 
BRANCH  13  14
ATOM     14  C   UNL     1       3.871  53.821   1.014  1.00  0.00    -0.000 C 
BRANCH  14  15
ATOM     15  C   UNL     1       3.411  54.653  -0.196  1.00  0.00    -0.003 C 
ATOM     16  C   UNL     1       1.890  54.752  -0.311  1.00  0.00     0.004 C 
ENDBRANCH  14  15
ENDBRANCH  13  14
ENDBRANCH  12  13
ENDBRANCH  11  12
ENDBRANCH  10  11
ENDBRANCH   1  10
TORSDOF 12
ENDMDL
MODEL 3
REMARK VINA RESULT:    -4.627      2.750      4.757
REMARK INTER + INTRA:          -8.761
REMARK INTER:                  -6.934
REMARK INTRA:                  -1.827
REMARK UNBOUND:                -0.888
REMARK SMILES CCCCCCCCCCCCCC(=O)[O-]
REMARK SMILES IDX 8 1 9 2 10 3 11 4 12 5 13 6 14 7 15 8 16 9 7 10 6 11 5 12
REMARK SMILES IDX 4 13 3 14 2 15 1 16
REMARK H PARENT
REMARK Flexibility Score: inf
ROOT
ATOM      1  C   UNL     1       1.875  50.724   0.040  1.00  0.00     0.000 C 
ENDROOT
BRANCH   1   2
ATOM      2  C   UNL     1       3.056  50.872   1.020  1.00  0.00     0.000 C 
BRANCH   2   3
ATOM      3  C   UNL     1       4.262  51.662   0.473  1.00  0.00     0.000 C 
BRANCH   3   4
ATOM      4  C   UNL     1       5.003  52.526   1.514  1.00  0.00     0.000 C 
BRANCH   4   5
ATOM      5  C   UNL     1       4.622  54.018   1.508  1.00  0.00     0.006 C 
BRANCH   5   6
ATOM      6  C   UNL     1       3.653  54.381   0.375  1.00  0.00     0.053 C 
BRANCH   6   7
ATOM      7  C   UNL     1       3.904  55.777  -0.099  1.00  0.00     0.041 C 
ATOM      8  O   UNL     1       4.434  56.622   0.670  1.00  0.00    -0.550 OA
ATOM      9  O   UNL     1       3.599  56.132  -1.407  1.00  0.00    -0.550 OA
ENDBRANCH   6   7
ENDBRANCH   5   6
ENDBRANCH   4   5
ENDBRANCH   3   4
ENDBRANCH   2   3
ENDBRANCH   1   2
BRANCH   1  10
ATOM     10  C   UNL     1       1.967  51.602  -1.222  1.00  0.00     0.000 C 
BRANCH  10  11
ATOM     11  C   UNL     1       2.219  50.783  -2.500  1.00  0.00    -0.000 C 
BRANCH  11  12
ATOM     12  C   UNL     1       3.334  51.377  -3.375  1.00  0.00    -0.000 C 
BRANCH  12  13
ATOM     13  C   UNL     1       3.597  52.861  -3.069  1.00  0.00    -0.000 C 
BRANCH  13  14
ATOM     14  C   UNL     1       5.096  53.203  -3.000  1.00  0.00    -0.000 C 
BRANCH  14  15
ATOM     15  C   UNL     1       6.028  52.000  -2.773  1.00  0.00    -0.003 C 
ATOM     16  C   UNL     1       7.201  52.318  -1.844  1.00  0.00     0.004 C 
ENDBRANCH  14  15
ENDBRANCH  13  14
ENDBRANCH  12  13
ENDBRANCH  11  12
ENDBRANCH  10  11
ENDBRANCH   1  10
TORSDOF 12
ENDMDL
MODEL 4
REMARK VINA RESULT:    -4.620      3.218      6.534
REMARK INTER + INTRA:          -8.748
REMARK INTER:                  -7.182
REMARK INTRA:                  -1.566
REMARK UNBOUND:                -0.888
REMARK SMILES CCCCCCCCCCCCCC(=O)[O-]
REMARK SMILES IDX 8 1 9 2 10 3 11 4 12 5 13 6 14 7 15 8 16 9 7 10 6 11 5 12
REMARK SMILES IDX 4 13 3 14 2 15 1 16
REMARK H PARENT
REMARK Flexibility Score: inf
ROOT
ATOM      1  C   UNL     1       3.654  52.662  -2.701  1.00  0.00     0.000 C 
ENDROOT
BRANCH   1   2
ATOM      2  C   UNL     1       4.932  52.263  -3.467  1.00  0.00     0.000 C 
BRANCH   2   3
ATOM      3  C   UNL     1       6.095  51.774  -2.582  1.00  0.00     0.000 C 
BRANCH   3   4
ATOM      4  C   UNL     1       7.021  52.886  -2.047  1.00  0.00     0.000 C 
BRANCH   4   5
ATOM      5  C   UNL     1       7.934  52.464  -0.881  1.00  0.00     0.006 C 
BRANCH   5   6
ATOM      6  C   UNL     1       9.189  51.716  -1.348  1.00  0.00     0.053 C 
BRANCH   6   7
ATOM      7  C   UNL     1      10.383  52.616  -1.294  1.00  0.00     0.041 C 
ATOM      8  O   UNL     1      10.235  53.858  -1.149  1.00  0.00    -0.550 OA
ATOM      9  O   UNL     1      11.662  52.077  -1.355  1.00  0.00    -0.550 OA
ENDBRANCH   6   7
ENDBRANCH   5   6
ENDBRANCH   4   5
ENDBRANCH   3   4
ENDBRANCH   2   3
ENDBRANCH   1   2
BRANCH   1  10
ATOM     10  C   UNL     1       2.701  51.496  -2.380  1.00  0.00     0.000 C 
BRANCH  10  11
ATOM     11  C   UNL     1       2.045  51.628  -0.995  1.00  0.00    -0.000 C 
BRANCH  11  12
ATOM     12  C   UNL     1       2.415  50.472  -0.052  1.00  0.00    -0.000 C 
BRANCH  12  13
ATOM     13  C   UNL     1       3.211  50.945   1.177  1.00  0.00    -0.000 C 
BRANCH  13  14
ATOM     14  C   UNL     1       4.528  51.648   0.802  1.00  0.00    -0.000 C 
BRANCH  14  15
ATOM     15  C   UNL     1       4.725  53.040   1.430  1.00  0.00    -0.003 C 
ATOM     16  C   UNL     1       4.425  54.182   0.459  1.00  0.00     0.004 C 
ENDBRANCH  14  15
ENDBRANCH  13  14
ENDBRANCH  12  13
ENDBRANCH  11  12
ENDBRANCH  10  11
ENDBRANCH   1  10
TORSDOF 12
ENDMDL
MODEL 5
REMARK VINA RESULT:    -4.614      2.908      5.082
REMARK INTER + INTRA:          -8.738
REMARK INTER:                  -7.060
REMARK INTRA:                  -1.677
REMARK UNBOUND:                -0.888
REMARK SMILES CCCCCCCCCCCCCC(=O)[O-]
REMARK SMILES IDX 8 1 9 2 10 3 11 4 12 5 13 6 14 7 15 8 16 9 7 10 6 11 5 12
REMARK SMILES IDX 4 13 3 14 2 15 1 16
REMARK H PARENT
REMARK Flexibility Score: inf
ROOT
ATOM      1  C   UNL     1       2.989  50.575   1.390  1.00  0.00     0.000 C 
ENDROOT
BRANCH   1   2
ATOM      2  C   UNL     1       3.684  51.951   1.417  1.00  0.00     0.000 C 
BRANCH   2   3
ATOM      3  C   UNL     1       5.224  51.904   1.366  1.00  0.00     0.000 C 
BRANCH   3   4
ATOM      4  C   UNL     1       5.919  53.281   1.335  1.00  0.00     0.000 C 
BRANCH   4   5
ATOM      5  C   UNL     1       5.010  54.474   1.680  1.00  0.00     0.006 C 
BRANCH   5   6
ATOM      6  C   UNL     1       4.986  55.543   0.580  1.00  0.00     0.053 C 
BRANCH   6   7
ATOM      7  C   UNL     1       3.578  55.931   0.259  1.00  0.00     0.041 C 
ATOM      8  O   UNL     1       3.242  57.144   0.239  1.00  0.00    -0.550 OA
ATOM      9  O   UNL     1       2.646  54.953  -0.070  1.00  0.00    -0.550 OA
ENDBRANCH   6   7
ENDBRANCH   5   6
ENDBRANCH   4   5
ENDBRANCH   3   4
ENDBRANCH   2   3
ENDBRANCH   1   2
BRANCH   1  10
ATOM     10  C   UNL     1       2.205  50.271   0.100  1.00  0.00     0.000 C 
BRANCH  10  11
ATOM     11  C   UNL     1       2.169  51.465  -0.869  1.00  0.00    -0.000 C 
BRANCH  11  12
ATOM     12  C   UNL     1       2.106  51.031  -2.343  1.00  0.00    -0.000 C 
BRANCH  12  13
ATOM     13  C   UNL     1       3.389  51.382  -3.116  1.00  0.00    -0.000 C 
BRANCH  13  14
ATOM     14  C   UNL     1       4.262  52.419  -2.387  1.00  0.00    -0.000 C 
BRANCH  14  15
ATOM     15  C   UNL     1       5.759  52.071  -2.308  1.00  0.00    -0.003 C 
ATOM     16  C   UNL     1       6.661  53.305  -2.293  1.00  0.00     0.004 C 
ENDBRANCH  14  15
ENDBRANCH  13  14
ENDBRANCH  12  13
ENDBRANCH  11  12
ENDBRANCH  10  11
ENDBRANCH   1  10
TORSDOF 12
ENDMDL
MODEL 6
REMARK VINA RESULT:    -4.612      2.987      6.383
REMARK INTER + INTRA:          -8.735
REMARK INTER:                  -7.481
REMARK INTRA:                  -1.254
REMARK UNBOUND:                -0.888
REMARK SMILES CCCCCCCCCCCCCC(=O)[O-]
REMARK SMILES IDX 8 1 9 2 10 3 11 4 12 5 13 6 14 7 15 8 16 9 7 10 6 11 5 12
REMARK SMILES IDX 4 13 3 14 2 15 1 16
REMARK H PARENT
REMARK Flexibility Score: inf
ROOT
ATOM      1  C   UNL     1       3.754  51.936   1.482  1.00  0.00     0.000 C 
ENDROOT
BRANCH   1   2
ATOM      2  C   UNL     1       5.292  51.865   1.414  1.00  0.00     0.000 C 
BRANCH   2   3
ATOM      3  C   UNL     1       5.941  52.779   0.355  1.00  0.00     0.000 C 
BRANCH   3   4
ATOM      4  C   UNL     1       5.961  52.206  -1.077  1.00  0.00     0.000 C 
BRANCH   4   5
ATOM      5  C   UNL     1       7.186  52.609  -1.918  1.00  0.00     0.006 C 
BRANCH   5   6
ATOM      6  C   UNL     1       8.444  51.805  -1.562  1.00  0.00     0.053 C 
BRANCH   6   7
ATOM      7  C   UNL     1       9.569  52.726  -1.209  1.00  0.00     0.041 C 
ATOM      8  O   UNL     1       9.365  53.721  -0.465  1.00  0.00    -0.550 OA
ATOM      9  O   UNL     1      10.855  52.456  -1.661  1.00  0.00    -0.550 OA
ENDBRANCH   6   7
ENDBRANCH   5   6
ENDBRANCH   4   5
ENDBRANCH   3   4
ENDBRANCH   2   3
ENDBRANCH   1   2
BRANCH   1  10
ATOM     10  C   UNL     1       3.052  50.583   1.700  1.00  0.00     0.000 C 
BRANCH  10  11
ATOM     11  C   UNL     1       2.190  50.159   0.500  1.00  0.00    -0.000 C 
BRANCH  11  12
ATOM     12  C   UNL     1       1.983  51.296  -0.513  1.00  0.00    -0.000 C 
BRANCH  12  13
ATOM     13  C   UNL     1       2.246  50.851  -1.962  1.00  0.00    -0.000 C 
BRANCH  13  14
ATOM     14  C   UNL     1       2.972  51.923  -2.795  1.00  0.00    -0.000 C 
BRANCH  14  15
ATOM     15  C   UNL     1       3.672  51.400  -4.062  1.00  0.00    -0.003 C 
ATOM     16  C   UNL     1       4.601  52.432  -4.702  1.00  0.00     0.004 C 
ENDBRANCH  14  15
ENDBRANCH  13  14
ENDBRANCH  12  13
ENDBRANCH  11  12
ENDBRANCH  10  11
ENDBRANCH   1  10
TORSDOF 12
ENDMDL
MODEL 7
REMARK VINA RESULT:    -4.603      1.478      2.234
REMARK INTER + INTRA:          -8.720
REMARK INTER:                  -7.819
REMARK INTRA:                  -0.900
REMARK UNBOUND:                -0.888
REMARK SMILES CCCCCCCCCCCCCC(=O)[O-]
REMARK SMILES IDX 8 1 9 2 10 3 11 4 12 5 13 6 14 7 15 8 16 9 7 10 6 11 5 12
REMARK SMILES IDX 4 13 3 14 2 15 1 16
REMARK H PARENT
REMARK Flexibility Score: inf
ROOT
ATOM      1  C   UNL     1       4.327  52.412   1.132  1.00  0.00     0.000 C 
ENDROOT
BRANCH   1   2
ATOM      2  C   UNL     1       3.704  51.047   1.488  1.00  0.00     0.000 C 
BRANCH   2   3
ATOM      3  C   UNL     1       2.496  50.637   0.623  1.00  0.00     0.000 C 
BRANCH   3   4
ATOM      4  C   UNL     1       2.045  51.689  -0.411  1.00  0.00     0.000 C 
BRANCH   4   5
ATOM      5  C   UNL     1       2.468  51.395  -1.862  1.00  0.00     0.006 C 
BRANCH   5   6
ATOM      6  C   UNL     1       3.432  52.446  -2.426  1.00  0.00     0.053 C 
BRANCH   6   7
ATOM      7  C   UNL     1       4.427  51.805  -3.341  1.00  0.00     0.041 C 
ATOM      8  O   UNL     1       4.037  51.101  -4.309  1.00  0.00    -0.550 OA
ATOM      9  O   UNL     1       5.786  52.027  -3.153  1.00  0.00    -0.550 OA
ENDBRANCH   6   7
ENDBRANCH   5   6
ENDBRANCH   4   5
ENDBRANCH   3   4
ENDBRANCH   2   3
ENDBRANCH   1   2
BRANCH   1  10
ATOM     10  C   UNL     1       5.733  52.339   0.510  1.00  0.00     0.000 C 
BRANCH  10  11
ATOM     11  C   UNL     1       6.846  52.689   1.512  1.00  0.00    -0.000 C 
BRANCH  11  12
ATOM     12  C   UNL     1       8.251  52.376   0.972  1.00  0.00    -0.000 C 
BRANCH  12  13
ATOM     13  C   UNL     1       8.298  52.342  -0.565  1.00  0.00    -0.000 C 
BRANCH  13  14
ATOM     14  C   UNL     1       9.493  51.541  -1.110  1.00  0.00    -0.000 C 
BRANCH  14  15
ATOM     15  C   UNL     1      10.875  52.035  -0.646  1.00  0.00    -0.003 C 
ATOM     16  C   UNL     1      11.640  52.784  -1.737  1.00  0.00     0.004 C 
ENDBRANCH  14  15
ENDBRANCH  13  14
ENDBRANCH  12  13
ENDBRANCH  11  12
ENDBRANCH  10  11
ENDBRANCH   1  10
TORSDOF 12
ENDMDL
MODEL 8
REMARK VINA RESULT:    -4.572      2.838      5.197
REMARK INTER + INTRA:          -8.667
REMARK INTER:                  -7.148
REMARK INTRA:                  -1.519
REMARK UNBOUND:                -0.888
REMARK SMILES CCCCCCCCCCCCCC(=O)[O-]
REMARK SMILES IDX 8 1 9 2 10 3 11 4 12 5 13 6 14 7 15 8 16 9 7 10 6 11 5 12
REMARK SMILES IDX 4 13 3 14 2 15 1 16
REMARK H PARENT
REMARK Flexibility Score: inf
ROOT
ATOM      1  C   UNL     1       2.095  51.444  -1.645  1.00  0.00     0.000 C 
ENDROOT
BRANCH   1   2
ATOM      2  C   UNL     1       2.292  50.744  -3.005  1.00  0.00     0.000 C 
BRANCH   2   3
ATOM      3  C   UNL     1       2.952  51.612  -4.094  1.00  0.00     0.000 C 
BRANCH   3   4
ATOM      4  C   UNL     1       4.483  51.463  -4.210  1.00  0.00     0.000 C 
BRANCH   4   5
ATOM      5  C   UNL     1       5.298  52.525  -3.449  1.00  0.00     0.006 C 
BRANCH   5   6
ATOM      6  C   UNL     1       5.944  51.975  -2.170  1.00  0.00     0.053 C 
BRANCH   6   7
ATOM      7  C   UNL     1       7.276  52.617  -1.942  1.00  0.00     0.041 C 
ATOM      8  O   UNL     1       8.237  51.940  -1.488  1.00  0.00    -0.550 OA
ATOM      9  O   UNL     1       7.471  53.950  -2.279  1.00  0.00    -0.550 OA
ENDBRANCH   6   7
ENDBRANCH   5   6
ENDBRANCH   4   5
ENDBRANCH   3   4
ENDBRANCH   2   3
ENDBRANCH   1   2
BRANCH   1  10
ATOM     10  C   UNL     1       2.216  50.521  -0.419  1.00  0.00     0.000 C 
BRANCH  10  11
ATOM     11  C   UNL     1       3.045  51.146   0.716  1.00  0.00    -0.000 C 
BRANCH  11  12
ATOM     12  C   UNL     1       3.305  52.646   0.505  1.00  0.00    -0.000 C 
BRANCH  12  13
ATOM     13  C   UNL     1       4.620  53.113   1.151  1.00  0.00    -0.000 C 
BRANCH  13  14
ATOM     14  C   UNL     1       5.532  51.944   1.566  1.00  0.00    -0.000 C 
BRANCH  14  15
ATOM     15  C   UNL     1       6.941  52.351   2.034  1.00  0.00    -0.003 C 
ATOM     16  C   UNL     1       7.325  53.769   1.612  1.00  0.00     0.004 C 
ENDBRANCH  14  15
ENDBRANCH  13  14
ENDBRANCH  12  13
ENDBRANCH  11  12
ENDBRANCH  10  11
ENDBRANCH   1  10
TORSDOF 12
ENDMDL
MODEL 9
REMARK VINA RESULT:    -4.550      3.439      7.255
REMARK INTER + INTRA:          -8.629
REMARK INTER:                  -7.587
REMARK INTRA:                  -1.042
REMARK UNBOUND:                -0.888
REMARK SMILES CCCCCCCCCCCCCC(=O)[O-]
REMARK SMILES IDX 8 1 9 2 10 3 11 4 12 5 13 6 14 7 15 8 16 9 7 10 6 11 5 12
REMARK SMILES IDX 4 13 3 14 2 15 1 16
REMARK H PARENT
REMARK Flexibility Score: inf
ROOT
ATOM      1  C   UNL     1       5.360  52.245   0.228  1.00  0.00     0.000 C 
ENDROOT
BRANCH   1   2
ATOM      2  C   UNL     1       5.596  52.677  -1.234  1.00  0.00     0.000 C 
BRANCH   2   3
ATOM      3  C   UNL     1       6.958  52.260  -1.824  1.00  0.00     0.000 C 
BRANCH   3   4
ATOM      4  C   UNL     1       8.136  52.286  -0.829  1.00  0.00     0.000 C 
BRANCH   4   5
ATOM      5  C   UNL     1       9.385  51.507  -1.282  1.00  0.00     0.006 C 
BRANCH   5   6
ATOM      6  C   UNL     1      10.532  52.425  -1.724  1.00  0.00     0.053 C 
BRANCH   6   7
ATOM      7  C   UNL     1      11.210  53.023  -0.531  1.00  0.00     0.041 C 
ATOM      8  O   UNL     1      11.922  52.305   0.219  1.00  0.00    -0.550 OA
ATOM      9  O   UNL     1      11.096  54.384  -0.278  1.00  0.00    -0.550 OA
ENDBRANCH   6   7
ENDBRANCH   5   6
ENDBRANCH   4   5
ENDBRANCH   3   4
ENDBRANCH   2   3
ENDBRANCH   1   2
BRANCH   1  10
ATOM     10  C   UNL     1       3.902  52.360   0.709  1.00  0.00     0.000 C 
BRANCH  10  11
ATOM     11  C   UNL     1       3.368  51.049   1.311  1.00  0.00    -0.000 C 
BRANCH  11  12
ATOM     12  C   UNL     1       2.286  50.393   0.439  1.00  0.00    -0.000 C 
BRANCH  12  13
ATOM     13  C   UNL     1       1.886  51.267  -0.762  1.00  0.00    -0.000 C 
BRANCH  13  14
ATOM     14  C   UNL     1       2.320  50.665  -2.110  1.00  0.00    -0.000 C 
BRANCH  14  15
ATOM     15  C   UNL     1       2.448  51.676  -3.264  1.00  0.00    -0.003 C 
ATOM     16  C   UNL     1       3.620  51.373  -4.198  1.00  0.00     0.004 C 
ENDBRANCH  14  15
ENDBRANCH  13  14
ENDBRANCH  12  13
ENDBRANCH  11  12
ENDBRANCH  10  11
ENDBRANCH   1  10
TORSDOF 12
ENDMDL
