MODEL 1
REMARK VINA RESULT:    -6.813      0.000      0.000
REMARK INTER + INTRA:          -7.301
REMARK INTER:                  -7.211
REMARK INTRA:                  -0.090
REMARK UNBOUND:                -0.090
REMARK SMILES C=C(C)[C@@H]1CC=C(C)C(=O)C1
REMARK SMILES IDX 8 1 7 2 6 3 5 4 4 5 11 6 9 7 10 8 2 9 1 10 3 11
REMARK H PARENT
REMARK Flexibility Score: inf
ROOT
ATOM      1  C   UNL     1     -10.634 -17.464  25.999  1.00  0.00     0.048 C 
ATOM      2  C   UNL     1     -11.581 -16.705  26.886  1.00  0.00    -0.012 C 
ATOM      3  C   UNL     1     -12.766 -16.293  26.404  1.00  0.00    -0.019 C 
ATOM      4  C   UNL     1     -13.758 -15.546  27.255  1.00  0.00     0.036 C 
ATOM      5  C   UNL     1     -13.043 -14.663  28.296  1.00  0.00     0.025 C 
ATOM      6  C   UNL     1     -12.074 -15.512  29.139  1.00  0.00     0.089 C 
ATOM      7  C   UNL     1     -11.155 -16.306  28.252  1.00  0.00     0.158 C 
ATOM      8  O   UNL     1     -10.029 -16.662  28.694  1.00  0.00    -0.295 OA
ENDROOT
BRANCH   5   9
ATOM      9  C   UNL     1     -14.039 -13.919  29.173  1.00  0.00    -0.077 C 
ATOM     10  C   UNL     1     -14.682 -12.841  28.696  1.00  0.00     0.008 C 
ATOM     11  C   UNL     1     -14.327 -14.362  30.586  1.00  0.00     0.039 C 
ENDBRANCH   5   9
TORSDOF 1
ENDMDL
MODEL 2
REMARK VINA RESULT:    -5.951      2.760      4.571
REMARK INTER + INTRA:          -6.389
REMARK INTER:                  -6.290
REMARK INTRA:                  -0.098
REMARK UNBOUND:                -0.090
REMARK SMILES C=C(C)[C@@H]1CC=C(C)C(=O)C1
REMARK SMILES IDX 8 1 7 2 6 3 5 4 4 5 11 6 9 7 10 8 2 9 1 10 3 11
REMARK H PARENT
REMARK Flexibility Score: inf
ROOT
ATOM      1  C   UNL     1     -14.342 -13.232  28.662  1.00  0.00     0.048 C 
ATOM      2  C   UNL     1     -13.641 -14.464  29.163  1.00  0.00    -0.012 C 
ATOM      3  C   UNL     1     -12.841 -15.161  28.338  1.00  0.00    -0.019 C 
ATOM      4  C   UNL     1     -12.101 -16.391  28.794  1.00  0.00     0.036 C 
ATOM      5  C   UNL     1     -12.907 -17.160  29.858  1.00  0.00     0.025 C 
ATOM      6  C   UNL     1     -13.268 -16.229  31.030  1.00  0.00     0.089 C 
ATOM      7  C   UNL     1     -13.930 -14.976  30.527  1.00  0.00     0.158 C 
ATOM      8  O   UNL     1     -14.708 -14.342  31.290  1.00  0.00    -0.295 OA
ENDROOT
BRANCH   5   9
ATOM      9  C   UNL     1     -12.158 -18.395  30.339  1.00  0.00    -0.077 C 
ATOM     10  C   UNL     1     -10.830 -18.488  30.162  1.00  0.00     0.008 C 
ATOM     11  C   UNL     1     -12.876 -19.536  31.017  1.00  0.00     0.039 C 
ENDBRANCH   5   9
TORSDOF 1
ENDMDL
MODEL 3
REMARK VINA RESULT:    -5.819      3.574      4.320
REMARK INTER + INTRA:          -6.249
REMARK INTER:                  -6.152
REMARK INTRA:                  -0.097
REMARK UNBOUND:                -0.090
REMARK SMILES C=C(C)[C@@H]1CC=C(C)C(=O)C1
REMARK SMILES IDX 8 1 7 2 6 3 5 4 4 5 11 6 9 7 10 8 2 9 1 10 3 11
REMARK H PARENT
REMARK Flexibility Score: inf
ROOT
ATOM      1  C   UNL     1     -13.629 -20.569  28.276  1.00  0.00     0.048 C 
ATOM      2  C   UNL     1     -13.249 -19.506  29.269  1.00  0.00    -0.012 C 
ATOM      3  C   UNL     1     -13.008 -19.841  30.549  1.00  0.00    -0.019 C 
ATOM      4  C   UNL     1     -12.606 -18.819  31.579  1.00  0.00     0.036 C 
ATOM      5  C   UNL     1     -13.256 -17.453  31.288  1.00  0.00     0.025 C 
ATOM      6  C   UNL     1     -12.923 -16.998  29.855  1.00  0.00     0.089 C 
ATOM      7  C   UNL     1     -13.261 -18.077  28.864  1.00  0.00     0.158 C 
ATOM      8  O   UNL     1     -13.522 -17.758  27.673  1.00  0.00    -0.295 OA
ENDROOT
BRANCH   5   9
ATOM      9  C   UNL     1     -12.840 -16.409  32.314  1.00  0.00    -0.077 C 
ATOM     10  C   UNL     1     -11.546 -16.267  32.645  1.00  0.00     0.008 C 
ATOM     11  C   UNL     1     -13.855 -15.515  32.984  1.00  0.00     0.039 C 
ENDBRANCH   5   9
TORSDOF 1
ENDMDL
MODEL 4
REMARK VINA RESULT:    -5.812      1.974      2.521
REMARK INTER + INTRA:          -6.242
REMARK INTER:                  -6.144
REMARK INTRA:                  -0.098
REMARK UNBOUND:                -0.090
REMARK SMILES C=C(C)[C@@H]1CC=C(C)C(=O)C1
REMARK SMILES IDX 8 1 7 2 6 3 5 4 4 5 11 6 9 7 10 8 2 9 1 10 3 11
REMARK H PARENT
REMARK Flexibility Score: inf
ROOT
ATOM      1  C   UNL     1     -11.321 -17.066  26.462  1.00  0.00     0.048 C 
ATOM      2  C   UNL     1     -12.111 -16.770  27.707  1.00  0.00    -0.012 C 
ATOM      3  C   UNL     1     -12.412 -15.499  28.023  1.00  0.00    -0.019 C 
ATOM      4  C   UNL     1     -13.216 -15.150  29.248  1.00  0.00     0.036 C 
ATOM      5  C   UNL     1     -12.946 -16.146  30.391  1.00  0.00     0.025 C 
ATOM      6  C   UNL     1     -13.204 -17.588  29.916  1.00  0.00     0.089 C 
ATOM      7  C   UNL     1     -12.449 -17.870  28.646  1.00  0.00     0.158 C 
ATOM      8  O   UNL     1     -12.137 -19.059  28.369  1.00  0.00    -0.295 OA
ENDROOT
BRANCH   5   9
ATOM      9  C   UNL     1     -13.769 -15.812  31.627  1.00  0.00    -0.077 C 
ATOM     10  C   UNL     1     -14.363 -14.613  31.736  1.00  0.00     0.008 C 
ATOM     11  C   UNL     1     -13.937 -16.803  32.753  1.00  0.00     0.039 C 
ENDBRANCH   5   9
TORSDOF 1
ENDMDL
MODEL 5
REMARK VINA RESULT:    -5.777      1.903      4.485
REMARK INTER + INTRA:          -6.205
REMARK INTER:                  -6.115
REMARK INTRA:                  -0.089
REMARK UNBOUND:                -0.090
REMARK SMILES C=C(C)[C@@H]1CC=C(C)C(=O)C1
REMARK SMILES IDX 8 1 7 2 6 3 5 4 4 5 11 6 9 7 10 8 2 9 1 10 3 11
REMARK H PARENT
REMARK Flexibility Score: inf
ROOT
ATOM      1  C   UNL     1     -14.847 -14.746  32.379  1.00  0.00     0.048 C 
ATOM      2  C   UNL     1     -13.999 -15.117  31.195  1.00  0.00    -0.012 C 
ATOM      3  C   UNL     1     -14.015 -14.348  30.092  1.00  0.00    -0.019 C 
ATOM      4  C   UNL     1     -13.171 -14.664  28.886  1.00  0.00     0.036 C 
ATOM      5  C   UNL     1     -12.992 -16.185  28.717  1.00  0.00     0.025 C 
ATOM      6  C   UNL     1     -12.419 -16.801  30.007  1.00  0.00     0.089 C 
ATOM      7  C   UNL     1     -13.242 -16.394  31.199  1.00  0.00     0.158 C 
ATOM      8  O   UNL     1     -13.253 -17.135  32.219  1.00  0.00    -0.295 OA
ENDROOT
BRANCH   5   9
ATOM      9  C   UNL     1     -12.124 -16.513  27.511  1.00  0.00    -0.077 C 
ATOM     10  C   UNL     1     -12.651 -16.487  26.276  1.00  0.00     0.008 C 
ATOM     11  C   UNL     1     -10.667 -16.874  27.664  1.00  0.00     0.039 C 
ENDBRANCH   5   9
TORSDOF 1
ENDMDL
MODEL 6
REMARK VINA RESULT:    -5.751      1.856      2.836
REMARK INTER + INTRA:          -6.177
REMARK INTER:                  -6.082
REMARK INTRA:                  -0.095
REMARK UNBOUND:                -0.090
REMARK SMILES C=C(C)[C@@H]1CC=C(C)C(=O)C1
REMARK SMILES IDX 8 1 7 2 6 3 5 4 4 5 11 6 9 7 10 8 2 9 1 10 3 11
REMARK H PARENT
REMARK Flexibility Score: inf
ROOT
ATOM      1  C   UNL     1     -10.976 -17.161  25.998  1.00  0.00     0.048 C 
ATOM      2  C   UNL     1     -11.475 -16.625  27.311  1.00  0.00    -0.012 C 
ATOM      3  C   UNL     1     -10.752 -16.814  28.428  1.00  0.00    -0.019 C 
ATOM      4  C   UNL     1     -11.196 -16.282  29.765  1.00  0.00     0.036 C 
ATOM      5  C   UNL     1     -12.733 -16.275  29.877  1.00  0.00     0.025 C 
ATOM      6  C   UNL     1     -13.350 -15.492  28.704  1.00  0.00     0.089 C 
ATOM      7  C   UNL     1     -12.819 -15.998  27.391  1.00  0.00     0.158 C 
ATOM      8  O   UNL     1     -13.513 -15.852  26.349  1.00  0.00    -0.295 OA
ENDROOT
BRANCH   5   9
ATOM      9  C   UNL     1     -13.191 -15.721  31.218  1.00  0.00    -0.077 C 
ATOM     10  C   UNL     1     -12.599 -16.127  32.353  1.00  0.00     0.008 C 
ATOM     11  C   UNL     1     -14.312 -14.715  31.313  1.00  0.00     0.039 C 
ENDBRANCH   5   9
TORSDOF 1
ENDMDL
MODEL 7
REMARK VINA RESULT:    -5.718      2.976      3.764
REMARK INTER + INTRA:          -6.142
REMARK INTER:                  -6.044
REMARK INTRA:                  -0.098
REMARK UNBOUND:                -0.090
REMARK SMILES C=C(C)[C@@H]1CC=C(C)C(=O)C1
REMARK SMILES IDX 8 1 7 2 6 3 5 4 4 5 11 6 9 7 10 8 2 9 1 10 3 11
REMARK H PARENT
REMARK Flexibility Score: inf
ROOT
ATOM      1  C   UNL     1     -12.265 -20.043  31.569  1.00  0.00     0.048 C 
ATOM      2  C   UNL     1     -12.695 -18.911  30.677  1.00  0.00    -0.012 C 
ATOM      3  C   UNL     1     -12.829 -19.114  29.355  1.00  0.00    -0.019 C 
ATOM      4  C   UNL     1     -13.274 -18.021  28.421  1.00  0.00     0.036 C 
ATOM      5  C   UNL     1     -12.783 -16.643  28.906  1.00  0.00     0.025 C 
ATOM      6  C   UNL     1     -13.240 -16.393  30.354  1.00  0.00     0.089 C 
ATOM      7  C   UNL     1     -12.850 -17.546  31.239  1.00  0.00     0.158 C 
ATOM      8  O   UNL     1     -12.690 -17.346  32.473  1.00  0.00    -0.295 OA
ENDROOT
BRANCH   5   9
ATOM      9  C   UNL     1     -13.244 -15.529  27.977  1.00  0.00    -0.077 C 
ATOM     10  C   UNL     1     -13.310 -14.264  28.423  1.00  0.00     0.008 C 
ATOM     11  C   UNL     1     -13.638 -15.809  26.547  1.00  0.00     0.039 C 
ENDBRANCH   5   9
TORSDOF 1
ENDMDL
MODEL 8
REMARK VINA RESULT:    -5.681      2.314      3.481
REMARK INTER + INTRA:          -6.103
REMARK INTER:                  -6.016
REMARK INTRA:                  -0.087
REMARK UNBOUND:                -0.090
REMARK SMILES C=C(C)[C@@H]1CC=C(C)C(=O)C1
REMARK SMILES IDX 8 1 7 2 6 3 5 4 4 5 11 6 9 7 10 8 2 9 1 10 3 11
REMARK H PARENT
REMARK Flexibility Score: inf
ROOT
ATOM      1  C   UNL     1      -9.935 -17.691  31.956  1.00  0.00     0.048 C 
ATOM      2  C   UNL     1     -10.806 -17.094  30.886  1.00  0.00    -0.012 C 
ATOM      3  C   UNL     1     -10.307 -16.157  30.061  1.00  0.00    -0.019 C 
ATOM      4  C   UNL     1     -11.130 -15.541  28.961  1.00  0.00     0.036 C 
ATOM      5  C   UNL     1     -12.614 -15.447  29.366  1.00  0.00     0.025 C 
ATOM      6  C   UNL     1     -13.142 -16.831  29.783  1.00  0.00     0.089 C 
ATOM      7  C   UNL     1     -12.247 -17.449  30.822  1.00  0.00     0.158 C 
ATOM      8  O   UNL     1     -12.726 -18.302  31.617  1.00  0.00    -0.295 OA
ENDROOT
BRANCH   5   9
ATOM      9  C   UNL     1     -13.457 -14.842  28.252  1.00  0.00    -0.077 C 
ATOM     10  C   UNL     1     -14.062 -13.657  28.434  1.00  0.00     0.008 C 
ATOM     11  C   UNL     1     -13.639 -15.547  26.931  1.00  0.00     0.039 C 
ENDBRANCH   5   9
TORSDOF 1
ENDMDL
MODEL 9
REMARK VINA RESULT:    -5.650      2.842      4.341
REMARK INTER + INTRA:          -6.070
REMARK INTER:                  -5.978
REMARK INTRA:                  -0.092
REMARK UNBOUND:                -0.090
REMARK SMILES C=C(C)[C@@H]1CC=C(C)C(=O)C1
REMARK SMILES IDX 8 1 7 2 6 3 5 4 4 5 11 6 9 7 10 8 2 9 1 10 3 11
REMARK H PARENT
REMARK Flexibility Score: inf
ROOT
ATOM      1  C   UNL     1     -12.153 -20.375  31.475  1.00  0.00     0.048 C 
ATOM      2  C   UNL     1     -12.191 -19.405  30.327  1.00  0.00    -0.012 C 
ATOM      3  C   UNL     1     -13.223 -19.428  29.465  1.00  0.00    -0.019 C 
ATOM      4  C   UNL     1     -13.319 -18.467  28.310  1.00  0.00     0.036 C 
ATOM      5  C   UNL     1     -11.921 -18.104  27.773  1.00  0.00     0.025 C 
ATOM      6  C   UNL     1     -11.037 -17.561  28.910  1.00  0.00     0.089 C 
ATOM      7  C   UNL     1     -11.033 -18.510  30.078  1.00  0.00     0.158 C 
ATOM      8  O   UNL     1     -10.049 -18.511  30.865  1.00  0.00    -0.295 OA
ENDROOT
BRANCH   5   9
ATOM      9  C   UNL     1     -12.008 -17.118  26.617  1.00  0.00    -0.077 C 
ATOM     10  C   UNL     1     -10.997 -17.018  25.739  1.00  0.00     0.008 C 
ATOM     11  C   UNL     1     -13.216 -16.233  26.426  1.00  0.00     0.039 C 
ENDBRANCH   5   9
TORSDOF 1
ENDMDL
