MODEL 1
REMARK VINA RESULT:    -4.176      0.000      0.000
REMARK INTER + INTRA:          -5.531
REMARK INTER:                  -5.030
REMARK INTRA:                  -0.501
REMARK UNBOUND:                -0.501
REMARK SMILES O=c1ccn([C@H]2O[C@@H](CO)[C@@H](O)[C@H]2O)c(=O)[nH]1
REMARK SMILES IDX 6 1 13 2 11 3 8 4 7 5 5 6 3 7 4 8 2 9 17 10 1 11 15 12 16 14
REMARK SMILES IDX 14 15 12 17 9 19 10 20
REMARK H PARENT 17 13 14 16 12 18 10 21
REMARK Flexibility Score: inf
ROOT
ATOM      1  C   UNL     1      15.092   9.677  33.332  1.00  0.00     0.255 C 
ATOM      2  C   UNL     1      15.043  11.017  32.565  1.00  0.00     0.196 C 
ATOM      3  C   UNL     1      16.300  11.000  31.711  1.00  0.00     0.179 C 
ATOM      4  C   UNL     1      17.150   9.962  32.442  1.00  0.00     0.178 C 
ATOM      5  O   UNL     1      16.281   8.995  32.986  1.00  0.00    -0.347 OA
ENDROOT
BRANCH   1   6
ATOM      6  N   UNL     1      13.902   8.827  33.099  1.00  0.00    -0.271 N 
ATOM      7  C   UNL     1      11.814   7.976  33.922  1.00  0.00     0.090 A 
ATOM      8  C   UNL     1      12.958   8.751  34.086  1.00  0.00     0.099 A 
ATOM      9  C   UNL     1      11.642   7.288  32.727  1.00  0.00     0.253 A 
ATOM     10  N   UNL     1      12.579   7.388  31.749  1.00  0.00    -0.274 N 
ATOM     11  O   UNL     1      10.616   6.578  32.551  1.00  0.00    -0.269 OA
ATOM     12  C   UNL     1      13.695   8.152  31.917  1.00  0.00     0.330 A 
ATOM     13  H   UNL     1      12.437   6.876  30.848  1.00  0.00     0.175 HD
ATOM     14  O   UNL     1      14.522   8.240  30.970  1.00  0.00    -0.248 OA
ENDBRANCH   1   6
BRANCH   2  15
ATOM     15  O   UNL     1      13.855  11.234  31.836  1.00  0.00    -0.386 OA
ATOM     16  H   UNL     1      13.246  11.800  32.375  1.00  0.00     0.211 HD
ENDBRANCH   2  15
BRANCH   3  17
ATOM     17  O   UNL     1      16.031  10.591  30.392  1.00  0.00    -0.387 OA
ATOM     18  H   UNL     1      15.264  11.137  30.076  1.00  0.00     0.211 HD
ENDBRANCH   3  17
BRANCH   4  19
ATOM     19  C   UNL     1      18.236   9.304  31.575  1.00  0.00     0.191 C 
BRANCH  19  20
ATOM     20  O   UNL     1      17.680   8.442  30.618  1.00  0.00    -0.394 OA
ATOM     21  H   UNL     1      18.427   8.122  30.050  1.00  0.00     0.210 HD
ENDBRANCH  19  20
ENDBRANCH   4  19
TORSDOF 5
ENDMDL
MODEL 2
REMARK VINA RESULT:    -4.166      9.228     11.155
REMARK INTER + INTRA:          -5.519
REMARK INTER:                  -5.035
REMARK INTRA:                  -0.485
REMARK UNBOUND:                -0.501
REMARK SMILES O=c1ccn([C@H]2O[C@@H](CO)[C@@H](O)[C@H]2O)c(=O)[nH]1
REMARK SMILES IDX 6 1 13 2 11 3 8 4 7 5 5 6 3 7 4 8 2 9 17 10 1 11 15 12 16 14
REMARK SMILES IDX 14 15 12 17 9 19 10 20
REMARK H PARENT 17 13 14 16 12 18 10 21
REMARK Flexibility Score: inf
ROOT
ATOM      1  C   UNL     1      15.697  18.522  34.151  1.00  0.00     0.255 C 
ATOM      2  C   UNL     1      16.731  19.152  33.192  1.00  0.00     0.196 C 
ATOM      3  C   UNL     1      16.343  18.613  31.824  1.00  0.00     0.179 C 
ATOM      4  C   UNL     1      15.516  17.386  32.205  1.00  0.00     0.178 C 
ATOM      5  O   UNL     1      14.843  17.673  33.409  1.00  0.00    -0.347 OA
ENDROOT
BRANCH   1   6
ATOM      6  N   UNL     1      14.921  19.527  34.913  1.00  0.00    -0.271 N 
ATOM      7  C   UNL     1      14.505  20.616  37.012  1.00  0.00     0.090 A 
ATOM      8  C   UNL     1      15.195  19.682  36.245  1.00  0.00     0.099 A 
ATOM      9  C   UNL     1      13.537  21.399  36.395  1.00  0.00     0.253 A 
ATOM     10  N   UNL     1      13.290  21.247  35.068  1.00  0.00    -0.274 N 
ATOM     11  O   UNL     1      12.896  22.252  37.064  1.00  0.00    -0.269 OA
ATOM     12  C   UNL     1      13.972  20.332  34.324  1.00  0.00     0.330 A 
ATOM     13  H   UNL     1      12.567  21.848  34.609  1.00  0.00     0.175 HD
ATOM     14  O   UNL     1      13.730  20.247  33.090  1.00  0.00    -0.248 OA
ENDBRANCH   1   6
BRANCH   2  15
ATOM     15  O   UNL     1      16.811  20.559  33.255  1.00  0.00    -0.386 OA
ATOM     16  H   UNL     1      17.388  20.881  32.517  1.00  0.00     0.211 HD
ENDBRANCH   2  15
BRANCH   3  17
ATOM     17  O   UNL     1      15.570  19.537  31.099  1.00  0.00    -0.387 OA
ATOM     18  H   UNL     1      14.620  19.340  31.309  1.00  0.00     0.211 HD
ENDBRANCH   3  17
BRANCH   4  19
ATOM     19  C   UNL     1      14.531  16.920  31.119  1.00  0.00     0.191 C 
BRANCH  19  20
ATOM     20  O   UNL     1      13.338  17.657  31.156  1.00  0.00    -0.394 OA
ATOM     21  H   UNL     1      12.624  17.065  30.805  1.00  0.00     0.210 HD
ENDBRANCH  19  20
ENDBRANCH   4  19
TORSDOF 5
ENDMDL
MODEL 3
REMARK VINA RESULT:    -4.134     10.580     12.604
REMARK INTER + INTRA:          -5.481
REMARK INTER:                  -5.037
REMARK INTRA:                  -0.443
REMARK UNBOUND:                -0.501
REMARK SMILES O=c1ccn([C@H]2O[C@@H](CO)[C@@H](O)[C@H]2O)c(=O)[nH]1
REMARK SMILES IDX 6 1 13 2 11 3 8 4 7 5 5 6 3 7 4 8 2 9 17 10 1 11 15 12 16 14
REMARK SMILES IDX 14 15 12 17 9 19 10 20
REMARK H PARENT 17 13 14 16 12 18 10 21
REMARK Flexibility Score: inf
ROOT
ATOM      1  C   UNL     1      15.121  21.100  35.880  1.00  0.00     0.255 C 
ATOM      2  C   UNL     1      14.663  20.699  37.299  1.00  0.00     0.196 C 
ATOM      3  C   UNL     1      13.654  21.771  37.680  1.00  0.00     0.179 C 
ATOM      4  C   UNL     1      14.027  22.894  36.714  1.00  0.00     0.178 C 
ATOM      5  O   UNL     1      14.476  22.305  35.515  1.00  0.00    -0.347 OA
ENDROOT
BRANCH   1   6
ATOM      6  N   UNL     1      14.888  20.042  34.871  1.00  0.00    -0.271 N 
ATOM      7  C   UNL     1      13.603  19.260  33.000  1.00  0.00     0.090 A 
ATOM      8  C   UNL     1      13.866  20.215  33.977  1.00  0.00     0.099 A 
ATOM      9  C   UNL     1      14.409  18.129  32.940  1.00  0.00     0.253 A 
ATOM     10  N   UNL     1      15.431  17.982  33.822  1.00  0.00    -0.274 N 
ATOM     11  O   UNL     1      14.195  17.248  32.066  1.00  0.00    -0.269 OA
ATOM     12  C   UNL     1      15.683  18.923  34.774  1.00  0.00     0.330 A 
ATOM     13  H   UNL     1      16.040  17.133  33.764  1.00  0.00     0.175 HD
ATOM     14  O   UNL     1      16.662  18.758  35.551  1.00  0.00    -0.248 OA
ENDBRANCH   1   6
BRANCH   2  15
ATOM     15  O   UNL     1      14.171  19.381  37.408  1.00  0.00    -0.386 OA
ATOM     16  H   UNL     1      13.197  19.415  37.583  1.00  0.00     0.211 HD
ENDBRANCH   2  15
BRANCH   3  17
ATOM     17  O   UNL     1      12.331  21.342  37.468  1.00  0.00    -0.387 OA
ATOM     18  H   UNL     1      11.979  21.871  36.705  1.00  0.00     0.211 HD
ENDBRANCH   3  17
BRANCH   4  19
ATOM     19  C   UNL     1      12.897  23.903  36.443  1.00  0.00     0.191 C 
BRANCH  19  20
ATOM     20  O   UNL     1      12.267  24.301  37.633  1.00  0.00    -0.394 OA
ATOM     21  H   UNL     1      11.640  23.575  37.882  1.00  0.00     0.210 HD
ENDBRANCH  19  20
ENDBRANCH   4  19
TORSDOF 5
ENDMDL
MODEL 4
REMARK VINA RESULT:    -4.130      3.003      6.116
REMARK INTER + INTRA:          -5.476
REMARK INTER:                  -5.016
REMARK INTRA:                  -0.460
REMARK UNBOUND:                -0.501
REMARK SMILES O=c1ccn([C@H]2O[C@@H](CO)[C@@H](O)[C@H]2O)c(=O)[nH]1
REMARK SMILES IDX 6 1 13 2 11 3 8 4 7 5 5 6 3 7 4 8 2 9 17 10 1 11 15 12 16 14
REMARK SMILES IDX 14 15 12 17 9 19 10 20
REMARK H PARENT 17 13 14 16 12 18 10 21
REMARK Flexibility Score: inf
ROOT
ATOM      1  C   UNL     1      17.276  10.035  32.483  1.00  0.00     0.255 C 
ATOM      2  C   UNL     1      17.089   8.693  31.742  1.00  0.00     0.196 C 
ATOM      3  C   UNL     1      15.584   8.472  31.751  1.00  0.00     0.179 C 
ATOM      4  C   UNL     1      15.151   9.385  32.897  1.00  0.00     0.178 C 
ATOM      5  O   UNL     1      16.012  10.500  32.912  1.00  0.00    -0.347 OA
ENDROOT
BRANCH   1   6
ATOM      6  N   UNL     1      17.974  11.057  31.670  1.00  0.00    -0.271 N 
ATOM      7  C   UNL     1      17.836  13.083  30.389  1.00  0.00     0.090 A 
ATOM      8  C   UNL     1      17.236  12.087  31.153  1.00  0.00     0.099 A 
ATOM      9  C   UNL     1      19.207  13.019  30.171  1.00  0.00     0.253 A 
ATOM     10  N   UNL     1      19.929  12.001  30.707  1.00  0.00    -0.274 N 
ATOM     11  O   UNL     1      19.778  13.906  29.483  1.00  0.00    -0.269 OA
ATOM     12  C   UNL     1      19.333  11.031  31.456  1.00  0.00     0.330 A 
ATOM     13  H   UNL     1      20.962  11.965  30.547  1.00  0.00     0.175 HD
ATOM     14  O   UNL     1      20.049  10.123  31.959  1.00  0.00    -0.248 OA
ENDBRANCH   1   6
BRANCH   2  15
ATOM     15  O   UNL     1      17.670   8.643  30.457  1.00  0.00    -0.386 OA
ATOM     16  H   UNL     1      18.617   8.925  30.522  1.00  0.00     0.211 HD
ENDBRANCH   2  15
BRANCH   3  17
ATOM     17  O   UNL     1      14.991   8.868  30.539  1.00  0.00    -0.387 OA
ATOM     18  H   UNL     1      15.708   8.850  29.852  1.00  0.00     0.211 HD
ENDBRANCH   3  17
BRANCH   4  19
ATOM     19  C   UNL     1      13.678   9.824  32.838  1.00  0.00     0.191 C 
BRANCH  19  20
ATOM     20  O   UNL     1      13.453  10.733  31.792  1.00  0.00    -0.394 OA
ATOM     21  H   UNL     1      12.971  11.506  32.183  1.00  0.00     0.210 HD
ENDBRANCH  19  20
ENDBRANCH   4  19
TORSDOF 5
ENDMDL
MODEL 5
REMARK VINA RESULT:    -4.114      9.073     11.283
REMARK INTER + INTRA:          -5.457
REMARK INTER:                  -4.983
REMARK INTRA:                  -0.473
REMARK UNBOUND:                -0.501
REMARK SMILES O=c1ccn([C@H]2O[C@@H](CO)[C@@H](O)[C@H]2O)c(=O)[nH]1
REMARK SMILES IDX 6 1 13 2 11 3 8 4 7 5 5 6 3 7 4 8 2 9 17 10 1 11 15 12 16 14
REMARK SMILES IDX 14 15 12 17 9 19 10 20
REMARK H PARENT 17 13 14 16 12 18 10 21
REMARK Flexibility Score: inf
ROOT
ATOM      1  C   UNL     1      15.633  18.599  32.867  1.00  0.00     0.255 C 
ATOM      2  C   UNL     1      14.148  18.186  32.772  1.00  0.00     0.196 C 
ATOM      3  C   UNL     1      13.407  19.302  33.493  1.00  0.00     0.179 C 
ATOM      4  C   UNL     1      14.526  19.914  34.334  1.00  0.00     0.178 C 
ATOM      5  O   UNL     1      15.728  19.799  33.609  1.00  0.00    -0.347 OA
ENDROOT
BRANCH   1   6
ATOM      6  N   UNL     1      16.286  18.736  31.544  1.00  0.00    -0.271 N 
ATOM      7  C   UNL     1      16.862  20.152  29.694  1.00  0.00     0.090 A 
ATOM      8  C   UNL     1      16.258  19.959  30.933  1.00  0.00     0.099 A 
ATOM      9  C   UNL     1      17.506  19.077  29.093  1.00  0.00     0.253 A 
ATOM     10  N   UNL     1      17.541  17.874  29.721  1.00  0.00    -0.274 N 
ATOM     11  O   UNL     1      18.061  19.222  27.971  1.00  0.00    -0.269 OA
ATOM     12  C   UNL     1      16.950  17.695  30.936  1.00  0.00     0.330 A 
ATOM     13  H   UNL     1      18.037  17.073  29.268  1.00  0.00     0.175 HD
ATOM     14  O   UNL     1      17.035  16.568  31.495  1.00  0.00    -0.248 OA
ENDBRANCH   1   6
BRANCH   2  15
ATOM     15  O   UNL     1      13.687  17.942  31.462  1.00  0.00    -0.386 OA
ATOM     16  H   UNL     1      13.032  17.200  31.484  1.00  0.00     0.211 HD
ENDBRANCH   2  15
BRANCH   3  17
ATOM     17  O   UNL     1      12.881  20.246  32.592  1.00  0.00    -0.387 OA
ATOM     18  H   UNL     1      13.647  20.785  32.265  1.00  0.00     0.211 HD
ENDBRANCH   3  17
BRANCH   4  19
ATOM     19  C   UNL     1      14.276  21.370  34.763  1.00  0.00     0.191 C 
BRANCH  19  20
ATOM     20  O   UNL     1      13.054  21.506  35.440  1.00  0.00    -0.394 OA
ATOM     21  H   UNL     1      12.349  21.583  34.746  1.00  0.00     0.210 HD
ENDBRANCH  19  20
ENDBRANCH   4  19
TORSDOF 5
ENDMDL
MODEL 6
REMARK VINA RESULT:    -4.015      8.589     10.525
REMARK INTER + INTRA:          -5.338
REMARK INTER:                  -4.947
REMARK INTRA:                  -0.391
REMARK UNBOUND:                -0.501
REMARK SMILES O=c1ccn([C@H]2O[C@@H](CO)[C@@H](O)[C@H]2O)c(=O)[nH]1
REMARK SMILES IDX 6 1 13 2 11 3 8 4 7 5 5 6 3 7 4 8 2 9 17 10 1 11 15 12 16 14
REMARK SMILES IDX 14 15 12 17 9 19 10 20
REMARK H PARENT 17 13 14 16 12 18 10 21
REMARK Flexibility Score: inf
ROOT
ATOM      1  C   UNL     1      15.549  18.835  32.995  1.00  0.00     0.255 C 
ATOM      2  C   UNL     1      14.472  18.273  32.041  1.00  0.00     0.196 C 
ATOM      3  C   UNL     1      14.753  16.779  32.004  1.00  0.00     0.179 C 
ATOM      4  C   UNL     1      16.202  16.732  32.485  1.00  0.00     0.178 C 
ATOM      5  O   UNL     1      16.386  17.775  33.414  1.00  0.00    -0.347 OA
ENDROOT
BRANCH   1   6
ATOM      6  N   UNL     1      14.981  19.558  34.155  1.00  0.00    -0.271 N 
ATOM      7  C   UNL     1      14.615  19.637  36.526  1.00  0.00     0.090 A 
ATOM      8  C   UNL     1      15.120  19.000  35.397  1.00  0.00     0.099 A 
ATOM      9  C   UNL     1      13.976  20.861  36.371  1.00  0.00     0.253 A 
ATOM     10  N   UNL     1      13.862  21.411  35.134  1.00  0.00    -0.274 N 
ATOM     11  O   UNL     1      13.508  21.460  37.375  1.00  0.00    -0.269 OA
ATOM     12  C   UNL     1      14.362  20.782  34.034  1.00  0.00     0.330 A 
ATOM     13  H   UNL     1      13.390  22.338  35.027  1.00  0.00     0.175 HD
ATOM     14  O   UNL     1      14.261  21.345  32.911  1.00  0.00    -0.248 OA
ENDBRANCH   1   6
BRANCH   2  15
ATOM     15  O   UNL     1      13.146  18.601  32.393  1.00  0.00    -0.386 OA
ATOM     16  H   UNL     1      12.863  18.028  33.149  1.00  0.00     0.211 HD
ENDBRANCH   2  15
BRANCH   3  17
ATOM     17  O   UNL     1      13.909  16.068  32.876  1.00  0.00    -0.387 OA
ATOM     18  H   UNL     1      13.045  16.556  32.897  1.00  0.00     0.211 HD
ENDBRANCH   3  17
BRANCH   4  19
ATOM     19  C   UNL     1      16.631  15.380  33.081  1.00  0.00     0.191 C 
BRANCH  19  20
ATOM     20  O   UNL     1      16.234  15.258  34.421  1.00  0.00    -0.394 OA
ATOM     21  H   UNL     1      16.540  16.078  34.887  1.00  0.00     0.210 HD
ENDBRANCH  19  20
ENDBRANCH   4  19
TORSDOF 5
ENDMDL
MODEL 7
REMARK VINA RESULT:    -3.964     13.230     14.774
REMARK INTER + INTRA:          -5.276
REMARK INTER:                  -4.816
REMARK INTRA:                  -0.460
REMARK UNBOUND:                -0.501
REMARK SMILES O=c1ccn([C@H]2O[C@@H](CO)[C@@H](O)[C@H]2O)c(=O)[nH]1
REMARK SMILES IDX 6 1 13 2 11 3 8 4 7 5 5 6 3 7 4 8 2 9 17 10 1 11 15 12 16 14
REMARK SMILES IDX 14 15 12 17 9 19 10 20
REMARK H PARENT 17 13 14 16 12 18 10 21
REMARK Flexibility Score: inf
ROOT
ATOM      1  C   UNL     1       6.938  15.022  43.935  1.00  0.00     0.255 C 
ATOM      2  C   UNL     1       7.718  15.735  45.060  1.00  0.00     0.196 C 
ATOM      3  C   UNL     1       9.007  14.937  45.180  1.00  0.00     0.179 C 
ATOM      4  C   UNL     1       8.608  13.617  44.523  1.00  0.00     0.178 C 
ATOM      5  O   UNL     1       7.685  13.904  43.498  1.00  0.00    -0.347 OA
ENDROOT
BRANCH   1   6
ATOM      6  N   UNL     1       6.600  15.914  42.802  1.00  0.00    -0.271 N 
ATOM      7  C   UNL     1       5.006  17.385  41.774  1.00  0.00     0.090 A 
ATOM      8  C   UNL     1       5.377  16.528  42.805  1.00  0.00     0.099 A 
ATOM      9  C   UNL     1       5.908  17.616  40.742  1.00  0.00     0.253 A 
ATOM     10  N   UNL     1       7.125  17.013  40.763  1.00  0.00    -0.274 N 
ATOM     11  O   UNL     1       5.599  18.385  39.795  1.00  0.00    -0.269 OA
ATOM     12  C   UNL     1       7.482  16.178  41.779  1.00  0.00     0.330 A 
ATOM     13  H   UNL     1       7.804  17.200  39.989  1.00  0.00     0.175 HD
ATOM     14  O   UNL     1       8.634  15.666  41.772  1.00  0.00    -0.248 OA
ENDBRANCH   1   6
BRANCH   2  15
ATOM     15  O   UNL     1       7.913  17.117  44.856  1.00  0.00    -0.386 OA
ATOM     16  H   UNL     1       8.449  17.248  44.033  1.00  0.00     0.211 HD
ENDBRANCH   2  15
BRANCH   3  17
ATOM     17  O   UNL     1      10.065  15.548  44.484  1.00  0.00    -0.387 OA
ATOM     18  H   UNL     1      10.038  15.193  43.557  1.00  0.00     0.211 HD
ENDBRANCH   3  17
BRANCH   4  19
ATOM     19  C   UNL     1       9.789  12.790  43.988  1.00  0.00     0.191 C 
BRANCH  19  20
ATOM     20  O   UNL     1      10.173  13.211  42.705  1.00  0.00    -0.394 OA
ATOM     21  H   UNL     1       9.723  12.607  42.059  1.00  0.00     0.210 HD
ENDBRANCH  19  20
ENDBRANCH   4  19
TORSDOF 5
ENDMDL
MODEL 8
REMARK VINA RESULT:    -3.922     10.530     12.276
REMARK INTER + INTRA:          -5.226
REMARK INTER:                  -4.770
REMARK INTRA:                  -0.456
REMARK UNBOUND:                -0.501
REMARK SMILES O=c1ccn([C@H]2O[C@@H](CO)[C@@H](O)[C@H]2O)c(=O)[nH]1
REMARK SMILES IDX 6 1 13 2 11 3 8 4 7 5 5 6 3 7 4 8 2 9 17 10 1 11 15 12 16 14
REMARK SMILES IDX 14 15 12 17 9 19 10 20
REMARK H PARENT 17 13 14 16 12 18 10 21
REMARK Flexibility Score: inf
ROOT
ATOM      1  C   UNL     1       8.108  13.462  40.592  1.00  0.00     0.255 C 
ATOM      2  C   UNL     1       9.582  13.572  40.146  1.00  0.00     0.196 C 
ATOM      3  C   UNL     1       9.620  12.842  38.813  1.00  0.00     0.179 C 
ATOM      4  C   UNL     1       8.359  11.985  38.901  1.00  0.00     0.178 C 
ATOM      5  O   UNL     1       7.395  12.704  39.635  1.00  0.00    -0.347 OA
ENDROOT
BRANCH   1   6
ATOM      6  N   UNL     1       7.466  14.778  40.816  1.00  0.00    -0.271 N 
ATOM      7  C   UNL     1       5.890  16.428  40.071  1.00  0.00     0.090 A 
ATOM      8  C   UNL     1       6.534  15.205  39.910  1.00  0.00     0.099 A 
ATOM      9  C   UNL     1       6.205  17.206  41.180  1.00  0.00     0.253 A 
ATOM     10  N   UNL     1       7.119  16.759  42.080  1.00  0.00    -0.274 N 
ATOM     11  O   UNL     1       5.639  18.318  41.351  1.00  0.00    -0.269 OA
ATOM     12  C   UNL     1       7.742  15.559  41.916  1.00  0.00     0.330 A 
ATOM     13  H   UNL     1       7.342  17.344  42.917  1.00  0.00     0.175 HD
ATOM     14  O   UNL     1       8.560  15.171  42.793  1.00  0.00    -0.248 OA
ENDBRANCH   1   6
BRANCH   2  15
ATOM     15  O   UNL     1      10.085  14.889  40.096  1.00  0.00    -0.386 OA
ATOM     16  H   UNL     1       9.380  15.514  40.400  1.00  0.00     0.211 HD
ENDBRANCH   2  15
BRANCH   3  17
ATOM     17  O   UNL     1       9.549  13.733  37.727  1.00  0.00    -0.387 OA
ATOM     18  H   UNL     1       9.487  14.646  38.112  1.00  0.00     0.211 HD
ENDBRANCH   3  17
BRANCH   4  19
ATOM     19  C   UNL     1       7.796  11.538  37.540  1.00  0.00     0.191 C 
BRANCH  19  20
ATOM     20  O   UNL     1       7.130  12.588  36.889  1.00  0.00    -0.394 OA
ATOM     21  H   UNL     1       7.317  13.412  37.408  1.00  0.00     0.210 HD
ENDBRANCH  19  20
ENDBRANCH   4  19
TORSDOF 5
ENDMDL
MODEL 9
REMARK VINA RESULT:    -3.902     10.717     12.649
REMARK INTER + INTRA:          -5.201
REMARK INTER:                  -4.699
REMARK INTRA:                  -0.502
REMARK UNBOUND:                -0.501
REMARK SMILES O=c1ccn([C@H]2O[C@@H](CO)[C@@H](O)[C@H]2O)c(=O)[nH]1
REMARK SMILES IDX 6 1 13 2 11 3 8 4 7 5 5 6 3 7 4 8 2 9 17 10 1 11 15 12 16 14
REMARK SMILES IDX 14 15 12 17 9 19 10 20
REMARK H PARENT 17 13 14 16 12 18 10 21
REMARK Flexibility Score: inf
ROOT
ATOM      1  C   UNL     1      15.643  20.666  34.415  1.00  0.00     0.255 C 
ATOM      2  C   UNL     1      14.886  21.429  33.306  1.00  0.00     0.196 C 
ATOM      3  C   UNL     1      14.184  20.334  32.518  1.00  0.00     0.179 C 
ATOM      4  C   UNL     1      15.002  19.106  32.911  1.00  0.00     0.178 C 
ATOM      5  O   UNL     1      15.433  19.279  34.241  1.00  0.00    -0.347 OA
ENDROOT
BRANCH   1   6
ATOM      6  N   UNL     1      15.266  21.096  35.781  1.00  0.00    -0.271 N 
ATOM      7  C   UNL     1      13.813  20.828  37.672  1.00  0.00     0.090 A 
ATOM      8  C   UNL     1      14.209  20.474  36.386  1.00  0.00     0.099 A 
ATOM      9  C   UNL     1      14.522  21.821  38.338  1.00  0.00     0.253 A 
ATOM     10  N   UNL     1      15.581  22.416  37.731  1.00  0.00    -0.274 N 
ATOM     11  O   UNL     1      14.186  22.163  39.502  1.00  0.00    -0.269 OA
ATOM     12  C   UNL     1      15.964  22.061  36.472  1.00  0.00     0.330 A 
ATOM     13  H   UNL     1      16.117  23.155  38.242  1.00  0.00     0.175 HD
ATOM     14  O   UNL     1      16.972  22.619  35.961  1.00  0.00    -0.248 OA
ENDBRANCH   1   6
BRANCH   2  15
ATOM     15  O   UNL     1      14.024  22.444  33.773  1.00  0.00    -0.386 OA
ATOM     16  H   UNL     1      14.072  23.215  33.154  1.00  0.00     0.211 HD
ENDBRANCH   2  15
BRANCH   3  17
ATOM     17  O   UNL     1      12.840  20.191  32.907  1.00  0.00    -0.387 OA
ATOM     18  H   UNL     1      12.329  19.966  32.086  1.00  0.00     0.211 HD
ENDBRANCH   3  17
BRANCH   4  19
ATOM     19  C   UNL     1      14.263  17.768  32.740  1.00  0.00     0.191 C 
BRANCH  19  20
ATOM     20  O   UNL     1      13.577  17.711  31.517  1.00  0.00    -0.394 OA
ATOM     21  H   UNL     1      12.949  16.946  31.576  1.00  0.00     0.210 HD
ENDBRANCH  19  20
ENDBRANCH   4  19
TORSDOF 5
ENDMDL
