MODEL 1
REMARK VINA RESULT:    -3.809      0.000      0.000
REMARK INTER + INTRA:          -4.722
REMARK INTER:                  -4.588
REMARK INTRA:                  -0.134
REMARK UNBOUND:                -0.134
REMARK SMILES CC[C@@H](C)[C@H]([NH3+])C(=O)[O-]
REMARK SMILES IDX 3 1 4 2 5 3 6 4 7 8 8 9 9 10 2 11 1 12
REMARK H PARENT 6 5 6 6 6 7
REMARK Flexibility Score: inf
ROOT
ATOM      1  C   UNL     1     161.201 166.109 150.035  1.00  0.00     0.050 C 
ATOM      2  C   UNL     1     161.119 167.586 149.603  1.00  0.00     0.014 C 
ENDROOT
BRANCH   1   3
ATOM      3  C   UNL     1     160.371 165.808 151.322  1.00  0.00     0.230 C 
BRANCH   3   4
ATOM      4  N   UNL     1     159.586 166.966 151.779  1.00  0.00    -0.350 N 
ATOM      5  H   UNL     1     158.778 166.650 152.361  1.00  0.00     0.345 HD
ATOM      6  H   UNL     1     160.187 167.578 152.379  1.00  0.00     0.345 HD
ATOM      7  H   UNL     1     159.234 167.531 150.974  1.00  0.00     0.345 HD
ENDBRANCH   3   4
BRANCH   3   8
ATOM      8  C   UNL     1     161.255 165.281 152.427  1.00  0.00     0.099 C 
ATOM      9  O   UNL     1     160.760 164.730 153.446  1.00  0.00    -0.544 OA
ATOM     10  O   UNL     1     162.632 165.445 152.343  1.00  0.00    -0.544 OA
ENDBRANCH   3   8
ENDBRANCH   1   3
BRANCH   1  11
ATOM     11  C   UNL     1     160.800 165.164 148.875  1.00  0.00     0.006 C 
ATOM     12  C   UNL     1     159.441 164.496 149.096  1.00  0.00     0.004 C 
ENDBRANCH   1  11
TORSDOF 4
ENDMDL
MODEL 2
REMARK VINA RESULT:    -3.797     13.062     14.187
REMARK INTER + INTRA:          -4.709
REMARK INTER:                  -4.580
REMARK INTRA:                  -0.129
REMARK UNBOUND:                -0.134
REMARK SMILES CC[C@@H](C)[C@H]([NH3+])C(=O)[O-]
REMARK SMILES IDX 3 1 4 2 5 3 6 4 7 8 8 9 9 10 2 11 1 12
REMARK H PARENT 6 5 6 6 6 7
REMARK Flexibility Score: inf
ROOT
ATOM      1  C   UNL     1     156.801 151.885 150.020  1.00  0.00     0.050 C 
ATOM      2  C   UNL     1     156.887 150.406 149.596  1.00  0.00     0.014 C 
ENDROOT
BRANCH   1   3
ATOM      3  C   UNL     1     157.581 152.183 151.339  1.00  0.00     0.230 C 
BRANCH   3   4
ATOM      4  N   UNL     1     158.412 151.051 151.779  1.00  0.00    -0.350 N 
ATOM      5  H   UNL     1     158.643 151.142 152.794  1.00  0.00     0.345 HD
ATOM      6  H   UNL     1     157.879 150.159 151.656  1.00  0.00     0.345 HD
ATOM      7  H   UNL     1     159.297 150.989 151.227  1.00  0.00     0.345 HD
ENDBRANCH   3   4
BRANCH   3   8
ATOM      8  C   UNL     1     156.643 152.626 152.436  1.00  0.00     0.099 C 
ATOM      9  O   UNL     1     155.395 152.618 152.266  1.00  0.00    -0.544 OA
ATOM     10  O   UNL     1     157.163 153.092 153.638  1.00  0.00    -0.544 OA
ENDBRANCH   3   8
ENDBRANCH   1   3
BRANCH   1  11
ATOM     11  C   UNL     1     157.257 152.823 148.875  1.00  0.00     0.006 C 
ATOM     12  C   UNL     1     158.592 153.512 149.168  1.00  0.00     0.004 C 
ENDBRANCH   1  11
TORSDOF 4
ENDMDL
MODEL 3
REMARK VINA RESULT:    -3.759     15.000     16.710
REMARK INTER + INTRA:          -4.663
REMARK INTER:                  -4.516
REMARK INTRA:                  -0.147
REMARK UNBOUND:                -0.134
REMARK SMILES CC[C@@H](C)[C@H]([NH3+])C(=O)[O-]
REMARK SMILES IDX 3 1 4 2 5 3 6 4 7 8 8 9 9 10 2 11 1 12
REMARK H PARENT 6 5 6 6 6 7
REMARK Flexibility Score: inf
ROOT
ATOM      1  C   UNL     1     156.668 165.896 167.801  1.00  0.00     0.050 C 
ATOM      2  C   UNL     1     156.314 167.384 167.999  1.00  0.00     0.014 C 
ENDROOT
BRANCH   1   3
ATOM      3  C   UNL     1     157.700 165.668 166.652  1.00  0.00     0.230 C 
BRANCH   3   4
ATOM      4  N   UNL     1     158.264 166.925 166.133  1.00  0.00    -0.350 N 
ATOM      5  H   UNL     1     157.971 167.072 165.141  1.00  0.00     0.345 HD
ATOM      6  H   UNL     1     157.897 167.729 166.693  1.00  0.00     0.345 HD
ATOM      7  H   UNL     1     159.307 166.928 166.190  1.00  0.00     0.345 HD
ENDBRANCH   3   4
BRANCH   3   8
ATOM      8  C   UNL     1     157.100 164.842 165.539  1.00  0.00     0.099 C 
ATOM      9  O   UNL     1     157.121 165.247 164.347  1.00  0.00    -0.544 OA
ATOM     10  O   UNL     1     156.477 163.636 165.839  1.00  0.00    -0.544 OA
ENDBRANCH   3   8
ENDBRANCH   1   3
BRANCH   1  11
ATOM     11  C   UNL     1     157.153 165.256 169.125  1.00  0.00     0.006 C 
ATOM     12  C   UNL     1     158.520 164.582 168.994  1.00  0.00     0.004 C 
ENDBRANCH   1  11
TORSDOF 4
ENDMDL
MODEL 4
REMARK VINA RESULT:    -3.704      2.551      3.388
REMARK INTER + INTRA:          -4.596
REMARK INTER:                  -4.464
REMARK INTRA:                  -0.132
REMARK UNBOUND:                -0.134
REMARK SMILES CC[C@@H](C)[C@H]([NH3+])C(=O)[O-]
REMARK SMILES IDX 3 1 4 2 5 3 6 4 7 8 8 9 9 10 2 11 1 12
REMARK H PARENT 6 5 6 6 6 7
REMARK Flexibility Score: inf
ROOT
ATOM      1  C   UNL     1     161.077 166.234 150.076  1.00  0.00     0.050 C 
ATOM      2  C   UNL     1     162.374 165.738 150.745  1.00  0.00     0.014 C 
ENDROOT
BRANCH   1   3
ATOM      3  C   UNL     1     159.791 165.675 150.761  1.00  0.00     0.230 C 
BRANCH   3   4
ATOM      4  N   UNL     1     160.079 164.940 152.004  1.00  0.00    -0.350 N 
ATOM      5  H   UNL     1     161.047 164.550 151.980  1.00  0.00     0.345 HD
ATOM      6  H   UNL     1     160.023 165.597 152.817  1.00  0.00     0.345 HD
ATOM      7  H   UNL     1     159.396 164.164 152.155  1.00  0.00     0.345 HD
ENDBRANCH   3   4
BRANCH   3   8
ATOM      8  C   UNL     1     158.990 164.827 149.802  1.00  0.00     0.099 C 
ATOM      9  O   UNL     1     159.554 164.188 148.875  1.00  0.00    -0.544 OA
ATOM     10  O   UNL     1     157.606 164.784 149.915  1.00  0.00    -0.544 OA
ENDBRANCH   3   8
ENDBRANCH   1   3
BRANCH   1  11
ATOM     11  C   UNL     1     161.044 167.781 149.999  1.00  0.00     0.006 C 
ATOM     12  C   UNL     1     159.751 168.376 150.562  1.00  0.00     0.004 C 
ENDBRANCH   1  11
TORSDOF 4
ENDMDL
MODEL 5
REMARK VINA RESULT:    -3.683     21.116     21.747
REMARK INTER + INTRA:          -4.571
REMARK INTER:                  -4.434
REMARK INTRA:                  -0.136
REMARK UNBOUND:                -0.134
REMARK SMILES CC[C@@H](C)[C@H]([NH3+])C(=O)[O-]
REMARK SMILES IDX 3 1 4 2 5 3 6 4 7 8 8 9 9 10 2 11 1 12
REMARK H PARENT 6 5 6 6 6 7
REMARK Flexibility Score: inf
ROOT
ATOM      1  C   UNL     1     161.047 151.843 168.031  1.00  0.00     0.050 C 
ATOM      2  C   UNL     1     162.352 152.083 167.246  1.00  0.00     0.014 C 
ENDROOT
BRANCH   1   3
ATOM      3  C   UNL     1     159.789 152.410 167.300  1.00  0.00     0.230 C 
BRANCH   3   4
ATOM      4  N   UNL     1     160.125 153.134 166.063  1.00  0.00    -0.350 N 
ATOM      5  H   UNL     1     160.591 152.494 165.382  1.00  0.00     0.345 HD
ATOM      6  H   UNL     1     159.246 153.485 165.616  1.00  0.00     0.345 HD
ATOM      7  H   UNL     1     160.749 153.950 166.255  1.00  0.00     0.345 HD
ENDBRANCH   3   4
BRANCH   3   8
ATOM      8  C   UNL     1     158.964 153.271 168.226  1.00  0.00     0.099 C 
ATOM      9  O   UNL     1     159.510 153.964 169.125  1.00  0.00    -0.544 OA
ATOM     10  O   UNL     1     157.579 153.267 168.115  1.00  0.00    -0.544 OA
ENDBRANCH   3   8
ENDBRANCH   1   3
BRANCH   1  11
ATOM     11  C   UNL     1     160.867 150.344 168.375  1.00  0.00     0.006 C 
ATOM     12  C   UNL     1     159.777 149.669 167.540  1.00  0.00     0.004 C 
ENDBRANCH   1  11
TORSDOF 4
ENDMDL
MODEL 6
REMARK VINA RESULT:    -3.678     13.098     14.163
REMARK INTER + INTRA:          -4.565
REMARK INTER:                  -4.440
REMARK INTRA:                  -0.125
REMARK UNBOUND:                -0.134
REMARK SMILES CC[C@@H](C)[C@H]([NH3+])C(=O)[O-]
REMARK SMILES IDX 3 1 4 2 5 3 6 4 7 8 8 9 9 10 2 11 1 12
REMARK H PARENT 6 5 6 6 6 7
REMARK Flexibility Score: inf
ROOT
ATOM      1  C   UNL     1     156.942 151.761 150.096  1.00  0.00     0.050 C 
ATOM      2  C   UNL     1     155.625 152.226 150.749  1.00  0.00     0.014 C 
ENDROOT
BRANCH   1   3
ATOM      3  C   UNL     1     158.206 152.334 150.809  1.00  0.00     0.230 C 
BRANCH   3   4
ATOM      4  N   UNL     1     157.876 153.152 151.988  1.00  0.00    -0.350 N 
ATOM      5  H   UNL     1     158.409 154.050 151.968  1.00  0.00     0.345 HD
ATOM      6  H   UNL     1     156.857 153.390 151.972  1.00  0.00     0.345 HD
ATOM      7  H   UNL     1     158.085 152.644 152.876  1.00  0.00     0.345 HD
ENDBRANCH   3   4
BRANCH   3   8
ATOM      8  C   UNL     1     159.075 153.102 149.842  1.00  0.00     0.099 C 
ATOM      9  O   UNL     1     158.570 153.733 148.877  1.00  0.00    -0.544 OA
ATOM     10  O   UNL     1     160.457 153.078 149.992  1.00  0.00    -0.544 OA
ENDBRANCH   3   8
ENDBRANCH   1   3
BRANCH   1  11
ATOM     11  C   UNL     1     157.004 150.217 149.998  1.00  0.00     0.006 C 
ATOM     12  C   UNL     1     158.245 149.629 150.673  1.00  0.00     0.004 C 
ENDBRANCH   1  11
TORSDOF 4
ENDMDL
MODEL 7
REMARK VINA RESULT:    -3.611     16.575     17.171
REMARK INTER + INTRA:          -4.484
REMARK INTER:                  -4.353
REMARK INTRA:                  -0.130
REMARK UNBOUND:                -0.134
REMARK SMILES CC[C@@H](C)[C@H]([NH3+])C(=O)[O-]
REMARK SMILES IDX 3 1 4 2 5 3 6 4 7 8 8 9 9 10 2 11 1 12
REMARK H PARENT 6 5 6 6 6 7
REMARK Flexibility Score: inf
ROOT
ATOM      1  C   UNL     1     156.923 166.223 167.931  1.00  0.00     0.050 C 
ATOM      2  C   UNL     1     155.632 165.716 167.259  1.00  0.00     0.014 C 
ENDROOT
BRANCH   1   3
ATOM      3  C   UNL     1     158.215 165.673 167.251  1.00  0.00     0.230 C 
BRANCH   3   4
ATOM      4  N   UNL     1     157.938 164.939 166.005  1.00  0.00    -0.350 N 
ATOM      5  H   UNL     1     157.042 165.268 165.582  1.00  0.00     0.345 HD
ATOM      6  H   UNL     1     158.701 165.127 165.314  1.00  0.00     0.345 HD
ATOM      7  H   UNL     1     157.885 163.909 166.172  1.00  0.00     0.345 HD
ENDBRANCH   3   4
BRANCH   3   8
ATOM      8  C   UNL     1     159.017 164.827 168.211  1.00  0.00     0.099 C 
ATOM      9  O   UNL     1     158.451 164.170 169.125  1.00  0.00    -0.544 OA
ATOM     10  O   UNL     1     160.403 164.806 168.115  1.00  0.00    -0.544 OA
ENDBRANCH   3   8
ENDBRANCH   1   3
BRANCH   1  11
ATOM     11  C   UNL     1     156.944 167.769 168.008  1.00  0.00     0.006 C 
ATOM     12  C   UNL     1     158.248 168.372 167.480  1.00  0.00     0.004 C 
ENDBRANCH   1  11
TORSDOF 4
ENDMDL
MODEL 8
REMARK VINA RESULT:    -1.485     19.744     21.244
REMARK INTER + INTRA:          -1.924
REMARK INTER:                  -1.795
REMARK INTRA:                  -0.128
REMARK UNBOUND:                -0.134
REMARK SMILES CC[C@@H](C)[C@H]([NH3+])C(=O)[O-]
REMARK SMILES IDX 3 1 4 2 5 3 6 4 7 8 8 9 9 10 2 11 1 12
REMARK H PARENT 6 5 6 6 6 7
REMARK Flexibility Score: inf
ROOT
ATOM      1  C   UNL     1     160.961 152.153 168.153  1.00  0.00     0.050 C 
ATOM      2  C   UNL     1     160.876 150.736 168.755  1.00  0.00     0.014 C 
ENDROOT
BRANCH   1   3
ATOM      3  C   UNL     1     160.292 152.253 166.746  1.00  0.00     0.230 C 
BRANCH   3   4
ATOM      4  N   UNL     1     159.586 151.020 166.360  1.00  0.00    -0.350 N 
ATOM      5  H   UNL     1     160.231 150.201 166.408  1.00  0.00     0.345 HD
ATOM      6  H   UNL     1     158.802 150.845 167.031  1.00  0.00     0.345 HD
ATOM      7  H   UNL     1     159.189 151.093 165.396  1.00  0.00     0.345 HD
ENDBRANCH   3   4
BRANCH   3   8
ATOM      8  C   UNL     1     161.298 152.654 165.693  1.00  0.00     0.099 C 
ATOM      9  O   UNL     1     162.534 152.627 165.934  1.00  0.00    -0.544 OA
ATOM     10  O   UNL     1     160.854 153.101 164.455  1.00  0.00    -0.544 OA
ENDBRANCH   3   8
ENDBRANCH   1   3
BRANCH   1  11
ATOM     11  C   UNL     1     160.383 153.210 169.125  1.00  0.00     0.006 C 
ATOM     12  C   UNL     1     158.976 153.670 168.735  1.00  0.00     0.004 C 
ENDBRANCH   1  11
TORSDOF 4
ENDMDL
