MODEL 1
REMARK VINA RESULT:    -4.283      0.000      0.000
REMARK INTER + INTRA:          -4.998
REMARK INTER:                  -4.784
REMARK INTRA:                  -0.214
REMARK UNBOUND:                -0.214
REMARK SMILES CC(C)c1ccc(C(=O)[O-])cc1
REMARK SMILES IDX 7 1 6 2 11 3 5 4 12 5 4 6 8 7 9 8 10 9 2 10 1 11 3 12
REMARK H PARENT
REMARK Flexibility Score: inf
ROOT
ATOM      1  C   UNL     1      25.135  23.025  25.244  1.00  0.00    -0.003 A 
ATOM      2  C   UNL     1      24.989  23.875  26.354  1.00  0.00     0.010 A 
ATOM      3  C   UNL     1      25.062  21.636  25.435  1.00  0.00     0.010 A 
ATOM      4  C   UNL     1      24.774  23.344  27.630  1.00  0.00     0.004 A 
ATOM      5  C   UNL     1      24.846  21.106  26.710  1.00  0.00     0.004 A 
ATOM      6  C   UNL     1      24.699  21.954  27.823  1.00  0.00    -0.045 A 
ENDROOT
BRANCH   1   7
ATOM      7  C   UNL     1      25.364  23.582  23.892  1.00  0.00     0.071 C 
ATOM      8  O   UNL     1      24.531  24.376  23.377  1.00  0.00    -0.545 OA
ATOM      9  O   UNL     1      26.501  23.238  23.171  1.00  0.00    -0.545 OA
ENDBRANCH   1   7
BRANCH   6  10
ATOM     10  C   UNL     1      24.465  21.393  29.212  1.00  0.00     0.013 C 
ATOM     11  C   UNL     1      25.349  22.096  30.249  1.00  0.00     0.012 C 
ATOM     12  C   UNL     1      24.683  19.875  29.239  1.00  0.00     0.012 C 
ENDBRANCH   6  10
TORSDOF 2
ENDMDL
MODEL 2
REMARK VINA RESULT:    -4.202      2.974      5.034
REMARK INTER + INTRA:          -4.907
REMARK INTER:                  -4.694
REMARK INTRA:                  -0.213
REMARK UNBOUND:                -0.214
REMARK SMILES CC(C)c1ccc(C(=O)[O-])cc1
REMARK SMILES IDX 7 1 6 2 11 3 5 4 12 5 4 6 8 7 9 8 10 9 2 10 1 11 3 12
REMARK H PARENT
REMARK Flexibility Score: inf
ROOT
ATOM      1  C   UNL     1      24.688  21.714  27.440  1.00  0.00    -0.003 A 
ATOM      2  C   UNL     1      24.635  23.113  27.312  1.00  0.00     0.010 A 
ATOM      3  C   UNL     1      25.071  20.943  26.331  1.00  0.00     0.010 A 
ATOM      4  C   UNL     1      24.959  23.727  26.099  1.00  0.00     0.004 A 
ATOM      5  C   UNL     1      25.395  21.557  25.118  1.00  0.00     0.004 A 
ATOM      6  C   UNL     1      25.343  22.957  24.988  1.00  0.00    -0.045 A 
ENDROOT
BRANCH   1   7
ATOM      7  C   UNL     1      24.345  21.060  28.722  1.00  0.00     0.071 C 
ATOM      8  O   UNL     1      23.875  19.890  28.740  1.00  0.00    -0.545 OA
ATOM      9  O   UNL     1      24.538  21.726  29.927  1.00  0.00    -0.545 OA
ENDBRANCH   1   7
BRANCH   6  10
ATOM     10  C   UNL     1      25.693  23.637  23.678  1.00  0.00     0.013 C 
ATOM     11  C   UNL     1      24.471  24.347  23.081  1.00  0.00     0.012 C 
ATOM     12  C   UNL     1      26.293  22.639  22.680  1.00  0.00     0.012 C 
ENDBRANCH   6  10
TORSDOF 2
ENDMDL
MODEL 3
REMARK VINA RESULT:    -4.168      3.334      5.084
REMARK INTER + INTRA:          -4.870
REMARK INTER:                  -4.661
REMARK INTRA:                  -0.209
REMARK UNBOUND:                -0.214
REMARK SMILES CC(C)c1ccc(C(=O)[O-])cc1
REMARK SMILES IDX 7 1 6 2 11 3 5 4 12 5 4 6 8 7 9 8 10 9 2 10 1 11 3 12
REMARK H PARENT
REMARK Flexibility Score: inf
ROOT
ATOM      1  C   UNL     1      24.804  21.982  28.580  1.00  0.00    -0.003 A 
ATOM      2  C   UNL     1      24.974  23.335  28.235  1.00  0.00     0.010 A 
ATOM      3  C   UNL     1      24.630  21.036  27.557  1.00  0.00     0.010 A 
ATOM      4  C   UNL     1      24.970  23.731  26.895  1.00  0.00     0.004 A 
ATOM      5  C   UNL     1      24.626  21.433  26.217  1.00  0.00     0.004 A 
ATOM      6  C   UNL     1      24.797  22.786  25.870  1.00  0.00    -0.045 A 
ENDROOT
BRANCH   1   7
ATOM      7  C   UNL     1      24.808  21.558  29.997  1.00  0.00     0.071 C 
ATOM      8  O   UNL     1      24.052  20.629  30.390  1.00  0.00    -0.545 OA
ATOM      9  O   UNL     1      25.645  22.179  30.916  1.00  0.00    -0.545 OA
ENDBRANCH   1   7
BRANCH   6  10
ATOM     10  C   UNL     1      24.795  23.230  24.420  1.00  0.00     0.013 C 
ATOM     11  C   UNL     1      26.225  23.410  23.895  1.00  0.00     0.012 C 
ATOM     12  C   UNL     1      23.974  24.512  24.235  1.00  0.00     0.012 C 
ENDBRANCH   6  10
TORSDOF 2
ENDMDL
MODEL 4
REMARK VINA RESULT:    -4.064     16.192     17.147
REMARK INTER + INTRA:          -4.753
REMARK INTER:                  -4.538
REMARK INTRA:                  -0.215
REMARK UNBOUND:                -0.214
REMARK SMILES CC(C)c1ccc(C(=O)[O-])cc1
REMARK SMILES IDX 7 1 6 2 11 3 5 4 12 5 4 6 8 7 9 8 10 9 2 10 1 11 3 12
REMARK H PARENT
REMARK Flexibility Score: inf
ROOT
ATOM      1  C   UNL     1      41.811  22.303  20.293  1.00  0.00    -0.003 A 
ATOM      2  C   UNL     1      40.522  22.799  20.559  1.00  0.00     0.010 A 
ATOM      3  C   UNL     1      42.577  21.795  21.354  1.00  0.00     0.010 A 
ATOM      4  C   UNL     1      40.012  22.786  21.860  1.00  0.00     0.004 A 
ATOM      5  C   UNL     1      42.066  21.781  22.655  1.00  0.00     0.004 A 
ATOM      6  C   UNL     1      40.776  22.276  22.923  1.00  0.00    -0.045 A 
ENDROOT
BRANCH   1   7
ATOM      7  C   UNL     1      42.355  22.316  18.918  1.00  0.00     0.071 C 
ATOM      8  O   UNL     1      43.593  22.447  18.719  1.00  0.00    -0.545 OA
ATOM      9  O   UNL     1      41.508  22.182  17.824  1.00  0.00    -0.545 OA
ENDBRANCH   1   7
BRANCH   6  10
ATOM     10  C   UNL     1      40.210  22.268  24.330  1.00  0.00     0.013 C 
ATOM     11  C   UNL     1      39.775  23.674  24.760  1.00  0.00     0.012 C 
ATOM     12  C   UNL     1      41.211  21.671  25.326  1.00  0.00     0.012 C 
ENDBRANCH   6  10
TORSDOF 2
ENDMDL
MODEL 5
REMARK VINA RESULT:    -4.060     16.016     16.952
REMARK INTER + INTRA:          -4.748
REMARK INTER:                  -4.536
REMARK INTRA:                  -0.212
REMARK UNBOUND:                -0.214
REMARK SMILES CC(C)c1ccc(C(=O)[O-])cc1
REMARK SMILES IDX 7 1 6 2 11 3 5 4 12 5 4 6 8 7 9 8 10 9 2 10 1 11 3 12
REMARK H PARENT
REMARK Flexibility Score: inf
ROOT
ATOM      1  C   UNL     1      41.630  22.437  20.389  1.00  0.00    -0.003 A 
ATOM      2  C   UNL     1      40.371  22.877  20.831  1.00  0.00     0.010 A 
ATOM      3  C   UNL     1      42.557  21.964  21.334  1.00  0.00     0.010 A 
ATOM      4  C   UNL     1      40.045  22.845  22.190  1.00  0.00     0.004 A 
ATOM      5  C   UNL     1      42.230  21.932  22.693  1.00  0.00     0.004 A 
ATOM      6  C   UNL     1      40.969  22.372  23.136  1.00  0.00    -0.045 A 
ENDROOT
BRANCH   1   7
ATOM      7  C   UNL     1      41.980  22.469  18.952  1.00  0.00     0.071 C 
ATOM      8  O   UNL     1      41.125  22.816  18.092  1.00  0.00    -0.545 OA
ATOM      9  O   UNL     1      43.257  22.119  18.529  1.00  0.00    -0.545 OA
ENDBRANCH   1   7
BRANCH   6  10
ATOM     10  C   UNL     1      40.602  22.342  24.608  1.00  0.00     0.013 C 
ATOM     11  C   UNL     1      40.000  20.987  25.000  1.00  0.00     0.012 C 
ATOM     12  C   UNL     1      39.651  23.492  24.964  1.00  0.00     0.012 C 
ENDBRANCH   6  10
TORSDOF 2
ENDMDL
MODEL 6
REMARK VINA RESULT:    -4.029     16.168     17.613
REMARK INTER + INTRA:          -4.714
REMARK INTER:                  -4.502
REMARK INTRA:                  -0.211
REMARK UNBOUND:                -0.214
REMARK SMILES CC(C)c1ccc(C(=O)[O-])cc1
REMARK SMILES IDX 7 1 6 2 11 3 5 4 12 5 4 6 8 7 9 8 10 9 2 10 1 11 3 12
REMARK H PARENT
REMARK Flexibility Score: inf
ROOT
ATOM      1  C   UNL     1      40.755  22.309  23.277  1.00  0.00    -0.003 A 
ATOM      2  C   UNL     1      40.003  22.638  22.135  1.00  0.00     0.010 A 
ATOM      3  C   UNL     1      42.091  21.906  23.121  1.00  0.00     0.010 A 
ATOM      4  C   UNL     1      40.578  22.564  20.863  1.00  0.00     0.004 A 
ATOM      5  C   UNL     1      42.665  21.833  21.848  1.00  0.00     0.004 A 
ATOM      6  C   UNL     1      41.915  22.162  20.704  1.00  0.00    -0.045 A 
ENDROOT
BRANCH   1   7
ATOM      7  C   UNL     1      40.151  22.385  24.626  1.00  0.00     0.071 C 
ATOM      8  O   UNL     1      40.177  21.389  25.397  1.00  0.00    -0.545 OA
ATOM      9  O   UNL     1      39.546  23.558  25.062  1.00  0.00    -0.545 OA
ENDBRANCH   1   7
BRANCH   6  10
ATOM     10  C   UNL     1      42.525  22.087  19.318  1.00  0.00     0.013 C 
ATOM     11  C   UNL     1      43.771  22.975  19.214  1.00  0.00     0.012 C 
ATOM     12  C   UNL     1      41.497  22.451  18.240  1.00  0.00     0.012 C 
ENDBRANCH   6  10
TORSDOF 2
ENDMDL
MODEL 7
REMARK VINA RESULT:    -4.015     16.151     17.608
REMARK INTER + INTRA:          -4.698
REMARK INTER:                  -4.487
REMARK INTRA:                  -0.211
REMARK UNBOUND:                -0.214
REMARK SMILES CC(C)c1ccc(C(=O)[O-])cc1
REMARK SMILES IDX 7 1 6 2 11 3 5 4 12 5 4 6 8 7 9 8 10 9 2 10 1 11 3 12
REMARK H PARENT
REMARK Flexibility Score: inf
ROOT
ATOM      1  C   UNL     1      40.749  22.314  23.284  1.00  0.00    -0.003 A 
ATOM      2  C   UNL     1      42.071  21.871  23.102  1.00  0.00     0.010 A 
ATOM      3  C   UNL     1      39.995  22.688  22.160  1.00  0.00     0.010 A 
ATOM      4  C   UNL     1      42.626  21.804  21.821  1.00  0.00     0.004 A 
ATOM      5  C   UNL     1      40.551  22.620  20.879  1.00  0.00     0.004 A 
ATOM      6  C   UNL     1      41.873  22.177  20.695  1.00  0.00    -0.045 A 
ENDROOT
BRANCH   1   7
ATOM      7  C   UNL     1      40.157  22.387  24.638  1.00  0.00     0.071 C 
ATOM      8  O   UNL     1      40.166  21.380  25.397  1.00  0.00    -0.545 OA
ATOM      9  O   UNL     1      39.583  23.568  25.093  1.00  0.00    -0.545 OA
ENDBRANCH   1   7
BRANCH   6  10
ATOM     10  C   UNL     1      42.489  22.099  19.311  1.00  0.00     0.013 C 
ATOM     11  C   UNL     1      43.747  22.970  19.216  1.00  0.00     0.012 C 
ATOM     12  C   UNL     1      41.470  22.481  18.230  1.00  0.00     0.012 C 
ENDBRANCH   6  10
TORSDOF 2
ENDMDL
MODEL 8
REMARK VINA RESULT:    -3.810      1.856      2.904
REMARK INTER + INTRA:          -4.470
REMARK INTER:                  -4.257
REMARK INTRA:                  -0.213
REMARK UNBOUND:                -0.214
REMARK SMILES CC(C)c1ccc(C(=O)[O-])cc1
REMARK SMILES IDX 7 1 6 2 11 3 5 4 12 5 4 6 8 7 9 8 10 9 2 10 1 11 3 12
REMARK H PARENT
REMARK Flexibility Score: inf
ROOT
ATOM      1  C   UNL     1      25.572  22.054  22.953  1.00  0.00    -0.003 A 
ATOM      2  C   UNL     1      25.910  23.305  23.497  1.00  0.00     0.010 A 
ATOM      3  C   UNL     1      24.871  21.132  23.747  1.00  0.00     0.010 A 
ATOM      4  C   UNL     1      25.554  23.626  24.810  1.00  0.00     0.004 A 
ATOM      5  C   UNL     1      24.513  21.455  25.059  1.00  0.00     0.004 A 
ATOM      6  C   UNL     1      24.851  22.706  25.606  1.00  0.00    -0.045 A 
ENDROOT
BRANCH   1   7
ATOM      7  C   UNL     1      25.948  21.709  21.564  1.00  0.00     0.071 C 
ATOM      8  O   UNL     1      26.872  20.883  21.336  1.00  0.00    -0.545 OA
ATOM      9  O   UNL     1      25.285  22.290  20.489  1.00  0.00    -0.545 OA
ENDBRANCH   1   7
BRANCH   6  10
ATOM     10  C   UNL     1      24.470  23.069  27.029  1.00  0.00     0.013 C 
ATOM     11  C   UNL     1      25.383  24.171  27.581  1.00  0.00     0.012 C 
ATOM     12  C   UNL     1      24.485  21.834  27.937  1.00  0.00     0.012 C 
ENDBRANCH   6  10
TORSDOF 2
ENDMDL
MODEL 9
REMARK VINA RESULT:    -3.673      2.697      5.222
REMARK INTER + INTRA:          -4.316
REMARK INTER:                  -4.106
REMARK INTRA:                  -0.210
REMARK UNBOUND:                -0.214
REMARK SMILES CC(C)c1ccc(C(=O)[O-])cc1
REMARK SMILES IDX 7 1 6 2 11 3 5 4 12 5 4 6 8 7 9 8 10 9 2 10 1 11 3 12
REMARK H PARENT
REMARK Flexibility Score: inf
ROOT
ATOM      1  C   UNL     1      25.059  23.135  25.934  1.00  0.00    -0.003 A 
ATOM      2  C   UNL     1      24.908  24.214  25.046  1.00  0.00     0.010 A 
ATOM      3  C   UNL     1      25.319  21.856  25.415  1.00  0.00     0.010 A 
ATOM      4  C   UNL     1      25.016  24.017  23.666  1.00  0.00     0.004 A 
ATOM      5  C   UNL     1      25.428  21.660  24.036  1.00  0.00     0.004 A 
ATOM      6  C   UNL     1      25.278  22.739  23.145  1.00  0.00    -0.045 A 
ENDROOT
BRANCH   1   7
ATOM      7  C   UNL     1      24.945  23.339  27.395  1.00  0.00     0.071 C 
ATOM      8  O   UNL     1      24.257  22.553  28.101  1.00  0.00    -0.545 OA
ATOM      9  O   UNL     1      25.597  24.401  28.011  1.00  0.00    -0.545 OA
ENDBRANCH   1   7
BRANCH   6  10
ATOM     10  C   UNL     1      25.393  22.539  21.645  1.00  0.00     0.013 C 
ATOM     11  C   UNL     1      24.051  22.799  20.949  1.00  0.00     0.012 C 
ATOM     12  C   UNL     1      25.925  21.140  21.313  1.00  0.00     0.012 C 
ENDBRANCH   6  10
TORSDOF 2
ENDMDL
