MODEL 1
REMARK VINA RESULT:    -3.835      0.000      0.000
REMARK INTER + INTRA:          -4.954
REMARK INTER:                  -4.620
REMARK INTRA:                  -0.334
REMARK UNBOUND:                -0.334
REMARK SMILES O=c1c(O)c(-c2ccc(O)c(O)c2)oc2cc(O)cc(O)c12
REMARK SMILES IDX 5 1 3 2 2 3 1 4 22 5 20 6 19 7 17 8 16 9 15 10 14 11 6 12
REMARK SMILES IDX 7 13 8 14 9 15 13 16 11 17 10 18 12 20 4 22 21 24 18 26
REMARK H PARENT 10 19 12 21 4 23 21 25 18 27
REMARK Flexibility Score: inf
ROOT
ATOM      1  C   UNL     1     -20.187  12.957  -5.459  1.00  0.00     0.180 A 
ATOM      2  C   UNL     1     -21.164  12.358  -4.646  1.00  0.00     0.208 A 
ATOM      3  C   UNL     1     -21.215  10.957  -4.562  1.00  0.00     0.238 A 
ATOM      4  O   UNL     1     -22.125  10.426  -3.875  1.00  0.00    -0.285 OA
ATOM      5  C   UNL     1     -20.278  10.175  -5.278  1.00  0.00     0.111 A 
ATOM      6  C   UNL     1     -20.211   8.749  -5.235  1.00  0.00     0.134 A 
ATOM      7  C   UNL     1     -19.329   8.072  -6.087  1.00  0.00     0.093 A 
ATOM      8  C   UNL     1     -18.465   8.773  -6.932  1.00  0.00     0.123 A 
ATOM      9  C   UNL     1     -18.481  10.166  -6.937  1.00  0.00     0.094 A 
ATOM     10  C   UNL     1     -19.375  10.868  -6.127  1.00  0.00     0.146 A 
ATOM     11  O   UNL     1     -19.365  12.194  -6.171  1.00  0.00    -0.452 OA
ENDROOT
BRANCH   1  12
ATOM     12  C   UNL     1     -20.054  14.427  -5.580  1.00  0.00     0.025 A 
ATOM     13  C   UNL     1     -19.268  15.167  -4.680  1.00  0.00     0.016 A 
ATOM     14  C   UNL     1     -19.137  16.551  -4.827  1.00  0.00     0.051 A 
ATOM     15  C   UNL     1     -19.779  17.213  -5.881  1.00  0.00     0.157 A 
ATOM     16  C   UNL     1     -20.679  15.093  -6.648  1.00  0.00     0.062 A 
ATOM     17  C   UNL     1     -20.552  16.479  -6.797  1.00  0.00     0.158 A 
BRANCH  15  18
ATOM     18  O   UNL     1     -19.650  18.594  -6.024  1.00  0.00    -0.504 OA
ATOM     19  H   UNL     1     -20.086  19.237  -5.374  1.00  0.00     0.293 HD
ENDBRANCH  15  18
BRANCH  17  20
ATOM     20  O   UNL     1     -21.197  17.107  -7.862  1.00  0.00    -0.504 OA
ATOM     21  H   UNL     1     -22.078  17.592  -7.745  1.00  0.00     0.293 HD
ENDBRANCH  17  20
ENDBRANCH   1  12
BRANCH   2  22
ATOM     22  O   UNL     1     -22.093  13.149  -3.964  1.00  0.00    -0.502 OA
ATOM     23  H   UNL     1     -21.837  14.015  -3.504  1.00  0.00     0.293 HD
ENDBRANCH   2  22
BRANCH   6  24
ATOM     24  O   UNL     1     -20.964   7.959  -4.361  1.00  0.00    -0.507 OA
ATOM     25  H   UNL     1     -21.561   8.317  -3.632  1.00  0.00     0.293 HD
ENDBRANCH   6  24
BRANCH   8  26
ATOM     26  O   UNL     1     -17.578   8.092  -7.764  1.00  0.00    -0.508 OA
ATOM     27  H   UNL     1     -16.617   7.928  -7.493  1.00  0.00     0.293 HD
ENDBRANCH   8  26
TORSDOF 6
ENDMDL
MODEL 2
REMARK VINA RESULT:    -3.330      2.131      7.417
REMARK INTER + INTRA:          -4.345
REMARK INTER:                  -4.010
REMARK INTRA:                  -0.335
REMARK UNBOUND:                -0.334
REMARK SMILES O=c1c(O)c(-c2ccc(O)c(O)c2)oc2cc(O)cc(O)c12
REMARK SMILES IDX 5 1 3 2 2 3 1 4 22 5 20 6 19 7 17 8 16 9 15 10 14 11 6 12
REMARK SMILES IDX 7 13 8 14 9 15 13 16 11 17 10 18 12 20 4 22 21 24 18 26
REMARK H PARENT 10 19 12 21 4 23 21 25 18 27
REMARK Flexibility Score: inf
ROOT
ATOM      1  C   UNL     1     -20.866  14.785  -6.292  1.00  0.00     0.180 A 
ATOM      2  C   UNL     1     -20.761  15.433  -5.050  1.00  0.00     0.208 A 
ATOM      3  C   UNL     1     -21.007  16.814  -4.979  1.00  0.00     0.238 A 
ATOM      4  O   UNL     1     -20.859  17.398  -3.875  1.00  0.00    -0.285 OA
ATOM      5  C   UNL     1     -21.372  17.525  -6.148  1.00  0.00     0.111 A 
ATOM      6  C   UNL     1     -21.684  18.918  -6.185  1.00  0.00     0.134 A 
ATOM      7  C   UNL     1     -21.903  19.543  -7.419  1.00  0.00     0.093 A 
ATOM      8  C   UNL     1     -21.887  18.813  -8.609  1.00  0.00     0.123 A 
ATOM      9  C   UNL     1     -21.642  17.442  -8.577  1.00  0.00     0.094 A 
ATOM     10  C   UNL     1     -21.383  16.796  -7.366  1.00  0.00     0.146 A 
ATOM     11  O   UNL     1     -21.145  15.491  -7.382  1.00  0.00    -0.452 OA
ENDROOT
BRANCH   1  12
ATOM     12  C   UNL     1     -20.646  13.328  -6.443  1.00  0.00     0.025 A 
ATOM     13  C   UNL     1     -21.698  12.409  -6.287  1.00  0.00     0.016 A 
ATOM     14  C   UNL     1     -21.473  11.040  -6.457  1.00  0.00     0.051 A 
ATOM     15  C   UNL     1     -20.197  10.571  -6.797  1.00  0.00     0.157 A 
ATOM     16  C   UNL     1     -19.374  12.854  -6.804  1.00  0.00     0.062 A 
ATOM     17  C   UNL     1     -19.144  11.484  -6.974  1.00  0.00     0.158 A 
BRANCH  15  18
ATOM     18  O   UNL     1     -19.974   9.205  -6.964  1.00  0.00    -0.504 OA
ATOM     19  H   UNL     1     -20.216   8.536  -6.241  1.00  0.00     0.293 HD
ENDBRANCH  15  18
BRANCH  17  20
ATOM     20  O   UNL     1     -17.865  11.050  -7.320  1.00  0.00    -0.504 OA
ATOM     21  H   UNL     1     -17.075  11.152  -6.694  1.00  0.00     0.293 HD
ENDBRANCH  17  20
ENDBRANCH   1  12
BRANCH   2  22
ATOM     22  O   UNL     1     -20.379  14.717  -3.913  1.00  0.00    -0.502 OA
ATOM     23  H   UNL     1     -19.503  14.886  -3.431  1.00  0.00     0.293 HD
ENDBRANCH   2  22
BRANCH   6  24
ATOM     24  O   UNL     1     -21.816  19.718  -5.047  1.00  0.00    -0.507 OA
ATOM     25  H   UNL     1     -22.345  19.467  -4.225  1.00  0.00     0.293 HD
ENDBRANCH   6  24
BRANCH   8  26
ATOM     26  O   UNL     1     -22.122  19.441  -9.831  1.00  0.00    -0.508 OA
ATOM     27  H   UNL     1     -22.254  18.910 -10.683  1.00  0.00     0.293 HD
ENDBRANCH   8  26
TORSDOF 6
ENDMDL
MODEL 3
REMARK VINA RESULT:    -3.288      1.960      2.223
REMARK INTER + INTRA:          -4.294
REMARK INTER:                  -4.192
REMARK INTRA:                  -0.102
REMARK UNBOUND:                -0.334
REMARK SMILES O=c1c(O)c(-c2ccc(O)c(O)c2)oc2cc(O)cc(O)c12
REMARK SMILES IDX 5 1 3 2 2 3 1 4 22 5 20 6 19 7 17 8 16 9 15 10 14 11 6 12
REMARK SMILES IDX 7 13 8 14 9 15 13 16 11 17 10 18 12 20 4 22 21 24 18 26
REMARK H PARENT 10 19 12 21 4 23 21 25 18 27
REMARK Flexibility Score: inf
ROOT
ATOM      1  C   UNL     1     -20.811  13.089  -5.952  1.00  0.00     0.180 A 
ATOM      2  C   UNL     1     -19.973  12.640  -4.917  1.00  0.00     0.208 A 
ATOM      3  C   UNL     1     -19.664  11.273  -4.835  1.00  0.00     0.238 A 
ATOM      4  O   UNL     1     -18.958  10.870  -3.875  1.00  0.00    -0.285 OA
ATOM      5  C   UNL     1     -20.184  10.375  -5.798  1.00  0.00     0.111 A 
ATOM      6  C   UNL     1     -19.904   8.975  -5.834  1.00  0.00     0.134 A 
ATOM      7  C   UNL     1     -20.578   8.160  -6.753  1.00  0.00     0.093 A 
ATOM      8  C   UNL     1     -21.471   8.705  -7.679  1.00  0.00     0.123 A 
ATOM      9  C   UNL     1     -21.705  10.078  -7.690  1.00  0.00     0.094 A 
ATOM     10  C   UNL     1     -21.077  10.912  -6.762  1.00  0.00     0.146 A 
ATOM     11  O   UNL     1     -21.336  12.212  -6.800  1.00  0.00    -0.452 OA
ENDROOT
BRANCH   1  12
ATOM     12  C   UNL     1     -21.162  14.518  -6.119  1.00  0.00     0.025 A 
ATOM     13  C   UNL     1     -21.825  15.232  -5.106  1.00  0.00     0.016 A 
ATOM     14  C   UNL     1     -22.125  16.586  -5.275  1.00  0.00     0.051 A 
ATOM     15  C   UNL     1     -21.756  17.250  -6.453  1.00  0.00     0.157 A 
ATOM     16  C   UNL     1     -20.776  15.193  -7.289  1.00  0.00     0.062 A 
ATOM     17  C   UNL     1     -21.076  16.549  -7.463  1.00  0.00     0.158 A 
BRANCH  15  18
ATOM     18  O   UNL     1     -22.059  18.600  -6.621  1.00  0.00    -0.504 OA
ATOM     19  H   UNL     1     -22.235  19.207  -5.828  1.00  0.00     0.293 HD
ENDBRANCH  15  18
BRANCH  17  20
ATOM     20  O   UNL     1     -20.689  17.182  -8.644  1.00  0.00    -0.504 OA
ATOM     21  H   UNL     1     -20.182  16.697  -9.373  1.00  0.00     0.293 HD
ENDBRANCH  17  20
ENDBRANCH   1  12
BRANCH   2  22
ATOM     22  O   UNL     1     -19.488  13.541  -3.964  1.00  0.00    -0.502 OA
ATOM     23  H   UNL     1     -18.692  14.143  -4.140  1.00  0.00     0.293 HD
ENDBRANCH   2  22
BRANCH   6  24
ATOM     24  O   UNL     1     -18.961   8.346  -5.016  1.00  0.00    -0.507 OA
ATOM     25  H   UNL     1     -18.443   7.518  -5.267  1.00  0.00     0.293 HD
ENDBRANCH   6  24
BRANCH   8  26
ATOM     26  O   UNL     1     -22.125   7.888  -8.600  1.00  0.00    -0.508 OA
ATOM     27  H   UNL     1     -22.840   8.253  -9.217  1.00  0.00     0.293 HD
ENDBRANCH   8  26
TORSDOF 6
ENDMDL
MODEL 4
REMARK VINA RESULT:    -1.760     14.565     17.056
REMARK INTER + INTRA:          -2.454
REMARK INTER:                  -2.271
REMARK INTRA:                  -0.183
REMARK UNBOUND:                -0.334
REMARK SMILES O=c1c(O)c(-c2ccc(O)c(O)c2)oc2cc(O)cc(O)c12
REMARK SMILES IDX 5 1 3 2 2 3 1 4 22 5 20 6 19 7 17 8 16 9 15 10 14 11 6 12
REMARK SMILES IDX 7 13 8 14 9 15 13 16 11 17 10 18 12 20 4 22 21 24 18 26
REMARK H PARENT 10 19 12 21 4 23 21 25 18 27
REMARK Flexibility Score: inf
ROOT
ATOM      1  C   UNL     1     -16.910   9.778 -21.148  1.00  0.00     0.180 A 
ATOM      2  C   UNL     1     -16.810  11.033 -21.772  1.00  0.00     0.208 A 
ATOM      3  C   UNL     1     -17.859  11.468 -22.598  1.00  0.00     0.238 A 
ATOM      4  O   UNL     1     -17.740  12.569 -23.196  1.00  0.00    -0.285 OA
ATOM      5  C   UNL     1     -19.000  10.650 -22.777  1.00  0.00     0.111 A 
ATOM      6  C   UNL     1     -20.139  11.008 -23.561  1.00  0.00     0.134 A 
ATOM      7  C   UNL     1     -21.153  10.066 -23.775  1.00  0.00     0.093 A 
ATOM      8  C   UNL     1     -21.100   8.803 -23.180  1.00  0.00     0.123 A 
ATOM      9  C   UNL     1     -20.021   8.466 -22.366  1.00  0.00     0.094 A 
ATOM     10  C   UNL     1     -18.976   9.371 -22.163  1.00  0.00     0.146 A 
ATOM     11  O   UNL     1     -17.963   9.005 -21.389  1.00  0.00    -0.452 OA
ENDROOT
BRANCH   1  12
ATOM     12  C   UNL     1     -15.857   9.261 -20.243  1.00  0.00     0.025 A 
ATOM     13  C   UNL     1     -14.578   8.930 -20.723  1.00  0.00     0.016 A 
ATOM     14  C   UNL     1     -13.593   8.466 -19.847  1.00  0.00     0.051 A 
ATOM     15  C   UNL     1     -13.866   8.340 -18.479  1.00  0.00     0.157 A 
ATOM     16  C   UNL     1     -16.120   9.152 -18.868  1.00  0.00     0.062 A 
ATOM     17  C   UNL     1     -15.136   8.687 -17.987  1.00  0.00     0.158 A 
BRANCH  15  18
ATOM     18  O   UNL     1     -12.882   7.875 -17.607  1.00  0.00    -0.504 OA
ATOM     19  H   UNL     1     -11.896   8.017 -17.797  1.00  0.00     0.293 HD
ENDBRANCH  15  18
BRANCH  17  20
ATOM     20  O   UNL     1     -15.437   8.580 -16.630  1.00  0.00    -0.504 OA
ATOM     21  H   UNL     1     -15.766   9.369 -16.088  1.00  0.00     0.293 HD
ENDBRANCH  17  20
ENDBRANCH   1  12
BRANCH   2  22
ATOM     22  O   UNL     1     -15.665  11.816 -21.598  1.00  0.00    -0.502 OA
ATOM     23  H   UNL     1     -15.535  12.419 -20.795  1.00  0.00     0.293 HD
ENDBRANCH   2  22
BRANCH   6  24
ATOM     24  O   UNL     1     -20.333  12.273 -24.122  1.00  0.00    -0.507 OA
ATOM     25  H   UNL     1     -19.689  12.729 -24.749  1.00  0.00     0.293 HD
ENDBRANCH   6  24
BRANCH   8  26
ATOM     26  O   UNL     1     -22.122   7.878 -23.386  1.00  0.00    -0.508 OA
ATOM     27  H   UNL     1     -22.144   6.994 -22.892  1.00  0.00     0.293 HD
ENDBRANCH   8  26
TORSDOF 6
ENDMDL
MODEL 5
REMARK VINA RESULT:    -1.721     22.776     23.965
REMARK INTER + INTRA:          -2.407
REMARK INTER:                  -2.597
REMARK INTRA:                   0.190
REMARK UNBOUND:                -0.334
REMARK SMILES O=c1c(O)c(-c2ccc(O)c(O)c2)oc2cc(O)cc(O)c12
REMARK SMILES IDX 5 1 3 2 2 3 1 4 22 5 20 6 19 7 17 8 16 9 15 10 14 11 6 12
REMARK SMILES IDX 7 13 8 14 9 15 13 16 11 17 10 18 12 20 4 22 21 24 18 26
REMARK H PARENT 10 19 12 21 4 23 21 25 18 27
REMARK Flexibility Score: inf
ROOT
ATOM      1  C   UNL     1     -10.299  26.594 -22.019  1.00  0.00     0.180 A 
ATOM      2  C   UNL     1      -9.655  27.107 -20.881  1.00  0.00     0.208 A 
ATOM      3  C   UNL     1      -8.350  26.682 -20.586  1.00  0.00     0.238 A 
ATOM      4  O   UNL     1      -7.799  27.104 -19.536  1.00  0.00    -0.285 OA
ATOM      5  C   UNL     1      -7.699  25.762 -21.442  1.00  0.00     0.111 A 
ATOM      6  C   UNL     1      -6.363  25.292 -21.263  1.00  0.00     0.134 A 
ATOM      7  C   UNL     1      -5.867  24.282 -22.097  1.00  0.00     0.093 A 
ATOM      8  C   UNL     1      -6.637  23.772 -23.144  1.00  0.00     0.123 A 
ATOM      9  C   UNL     1      -7.921  24.266 -23.365  1.00  0.00     0.094 A 
ATOM     10  C   UNL     1      -8.457  25.247 -22.527  1.00  0.00     0.146 A 
ATOM     11  O   UNL     1      -9.687  25.682 -22.766  1.00  0.00    -0.452 OA
ENDROOT
BRANCH   1  12
ATOM     12  C   UNL     1     -11.665  27.013 -22.409  1.00  0.00     0.025 A 
ATOM     13  C   UNL     1     -12.018  27.193 -23.758  1.00  0.00     0.016 A 
ATOM     14  C   UNL     1     -13.319  27.565 -24.105  1.00  0.00     0.051 A 
ATOM     15  C   UNL     1     -14.290  27.751 -23.111  1.00  0.00     0.157 A 
ATOM     16  C   UNL     1     -12.647  27.180 -21.419  1.00  0.00     0.062 A 
ATOM     17  C   UNL     1     -13.951  27.554 -21.762  1.00  0.00     0.158 A 
BRANCH  15  18
ATOM     18  O   UNL     1     -15.587  28.125 -23.459  1.00  0.00    -0.504 OA
ATOM     19  H   UNL     1     -15.964  27.936 -24.382  1.00  0.00     0.293 HD
ENDBRANCH  15  18
BRANCH  17  20
ATOM     20  O   UNL     1     -14.896  27.723 -20.750  1.00  0.00    -0.504 OA
ATOM     21  H   UNL     1     -15.614  28.435 -20.799  1.00  0.00     0.293 HD
ENDBRANCH  17  20
ENDBRANCH   1  12
BRANCH   2  22
ATOM     22  O   UNL     1     -10.324  27.999 -20.037  1.00  0.00    -0.502 OA
ATOM     23  H   UNL     1      -9.953  28.914 -19.809  1.00  0.00     0.293 HD
ENDBRANCH   2  22
BRANCH   6  24
ATOM     24  O   UNL     1      -5.479  25.801 -20.306  1.00  0.00    -0.507 OA
ATOM     25  H   UNL     1      -5.272  25.360 -19.422  1.00  0.00     0.293 HD
ENDBRANCH   6  24
BRANCH   8  26
ATOM     26  O   UNL     1      -6.130  22.778 -23.980  1.00  0.00    -0.508 OA
ATOM     27  H   UNL     1      -5.848  22.979 -24.931  1.00  0.00     0.293 HD
ENDBRANCH   8  26
TORSDOF 6
ENDMDL
MODEL 6
REMARK VINA RESULT:    -1.365     23.105     25.525
REMARK INTER + INTRA:          -1.979
REMARK INTER:                  -1.709
REMARK INTRA:                  -0.270
REMARK UNBOUND:                -0.334
REMARK SMILES O=c1c(O)c(-c2ccc(O)c(O)c2)oc2cc(O)cc(O)c12
REMARK SMILES IDX 5 1 3 2 2 3 1 4 22 5 20 6 19 7 17 8 16 9 15 10 14 11 6 12
REMARK SMILES IDX 7 13 8 14 9 15 13 16 11 17 10 18 12 20 4 22 21 24 18 26
REMARK H PARENT 10 19 12 21 4 23 21 25 18 27
REMARK Flexibility Score: inf
ROOT
ATOM      1  C   UNL     1      -7.607  26.762 -22.029  1.00  0.00     0.180 A 
ATOM      2  C   UNL     1      -7.796  27.279 -20.735  1.00  0.00     0.208 A 
ATOM      3  C   UNL     1      -9.095  27.613 -20.319  1.00  0.00     0.238 A 
ATOM      4  O   UNL     1      -9.251  28.125 -19.180  1.00  0.00    -0.285 OA
ATOM      5  C   UNL     1     -10.189  27.410 -21.193  1.00  0.00     0.111 A 
ATOM      6  C   UNL     1     -11.552  27.676 -20.861  1.00  0.00     0.134 A 
ATOM      7  C   UNL     1     -12.538  27.563 -21.849  1.00  0.00     0.093 A 
ATOM      8  C   UNL     1     -12.219  27.131 -23.139  1.00  0.00     0.123 A 
ATOM      9  C   UNL     1     -10.900  26.812 -23.456  1.00  0.00     0.094 A 
ATOM     10  C   UNL     1      -9.889  26.950 -22.502  1.00  0.00     0.146 A 
ATOM     11  O   UNL     1      -8.645  26.646 -22.849  1.00  0.00    -0.452 OA
ENDROOT
BRANCH   1  12
ATOM     12  C   UNL     1      -6.272  26.364 -22.531  1.00  0.00     0.025 A 
ATOM     13  C   UNL     1      -5.907  25.011 -22.645  1.00  0.00     0.016 A 
ATOM     14  C   UNL     1      -4.651  24.658 -23.145  1.00  0.00     0.051 A 
ATOM     15  C   UNL     1      -3.746  25.648 -23.550  1.00  0.00     0.157 A 
ATOM     16  C   UNL     1      -5.370  27.353 -22.958  1.00  0.00     0.062 A 
ATOM     17  C   UNL     1      -4.110  27.003 -23.457  1.00  0.00     0.158 A 
BRANCH  15  18
ATOM     18  O   UNL     1      -2.493  25.293 -24.045  1.00  0.00    -0.504 OA
ATOM     19  H   UNL     1      -2.338  25.138 -25.035  1.00  0.00     0.293 HD
ENDBRANCH  15  18
BRANCH  17  20
ATOM     20  O   UNL     1      -3.236  28.012 -23.858  1.00  0.00    -0.504 OA
ATOM     21  H   UNL     1      -2.560  28.420 -23.226  1.00  0.00     0.293 HD
ENDBRANCH  17  20
ENDBRANCH   1  12
BRANCH   2  22
ATOM     22  O   UNL     1      -6.699  27.491 -19.896  1.00  0.00    -0.502 OA
ATOM     23  H   UNL     1      -6.329  26.768 -19.290  1.00  0.00     0.293 HD
ENDBRANCH   2  22
BRANCH   6  24
ATOM     24  O   UNL     1     -11.990  28.023 -19.580  1.00  0.00    -0.507 OA
ATOM     25  H   UNL     1     -12.439  28.894 -19.342  1.00  0.00     0.293 HD
ENDBRANCH   6  24
BRANCH   8  26
ATOM     26  O   UNL     1     -13.209  27.006 -24.112  1.00  0.00    -0.508 OA
ATOM     27  H   UNL     1     -14.181  26.865 -23.864  1.00  0.00     0.293 HD
ENDBRANCH   8  26
TORSDOF 6
ENDMDL
MODEL 7
REMARK VINA RESULT:    -0.904     23.176     24.910
REMARK INTER + INTRA:          -1.423
REMARK INTER:                  -1.966
REMARK INTRA:                   0.543
REMARK UNBOUND:                -0.334
REMARK SMILES O=c1c(O)c(-c2ccc(O)c(O)c2)oc2cc(O)cc(O)c12
REMARK SMILES IDX 5 1 3 2 2 3 1 4 22 5 20 6 19 7 17 8 16 9 15 10 14 11 6 12
REMARK SMILES IDX 7 13 8 14 9 15 13 16 11 17 10 18 12 20 4 22 21 24 18 26
REMARK H PARENT 10 19 12 21 4 23 21 25 18 27
REMARK Flexibility Score: inf
ROOT
ATOM      1  C   UNL     1     -10.063  27.914 -21.653  1.00  0.00     0.180 A 
ATOM      2  C   UNL     1      -9.772  28.002 -20.281  1.00  0.00     0.208 A 
ATOM      3  C   UNL     1      -8.431  27.963 -19.865  1.00  0.00     0.238 A 
ATOM      4  O   UNL     1      -8.180  27.988 -18.632  1.00  0.00    -0.285 OA
ATOM      5  C   UNL     1      -7.399  27.854 -20.827  1.00  0.00     0.111 A 
ATOM      6  C   UNL     1      -6.004  27.846 -20.521  1.00  0.00     0.134 A 
ATOM      7  C   UNL     1      -5.075  27.600 -21.540  1.00  0.00     0.093 A 
ATOM      8  C   UNL     1      -5.487  27.428 -22.863  1.00  0.00     0.123 A 
ATOM      9  C   UNL     1      -6.842  27.494 -23.181  1.00  0.00     0.094 A 
ATOM     10  C   UNL     1      -7.795  27.700 -22.181  1.00  0.00     0.146 A 
ATOM     11  O   UNL     1      -9.076  27.746 -22.525  1.00  0.00    -0.452 OA
ENDROOT
BRANCH   1  12
ATOM     12  C   UNL     1     -11.449  27.973 -22.170  1.00  0.00     0.025 A 
ATOM     13  C   UNL     1     -11.718  27.920 -23.549  1.00  0.00     0.016 A 
ATOM     14  C   UNL     1     -13.036  27.953 -24.015  1.00  0.00     0.051 A 
ATOM     15  C   UNL     1     -14.103  28.026 -23.110  1.00  0.00     0.157 A 
ATOM     16  C   UNL     1     -12.524  28.025 -21.267  1.00  0.00     0.062 A 
ATOM     17  C   UNL     1     -13.844  28.060 -21.729  1.00  0.00     0.158 A 
BRANCH  15  18
ATOM     18  O   UNL     1     -15.416  28.061 -23.576  1.00  0.00    -0.504 OA
ATOM     19  H   UNL     1     -16.134  28.598 -23.101  1.00  0.00     0.293 HD
ENDBRANCH  15  18
BRANCH  17  20
ATOM     20  O   UNL     1     -14.884  28.125 -20.803  1.00  0.00    -0.504 OA
ATOM     21  H   UNL     1     -14.929  28.847 -20.095  1.00  0.00     0.293 HD
ENDBRANCH  17  20
ENDBRANCH   1  12
BRANCH   2  22
ATOM     22  O   UNL     1     -10.808  28.089 -19.346  1.00  0.00    -0.502 OA
ATOM     23  H   UNL     1     -11.374  28.922 -19.236  1.00  0.00     0.293 HD
ENDBRANCH   2  22
BRANCH   6  24
ATOM     24  O   UNL     1      -5.482  28.099 -19.249  1.00  0.00    -0.507 OA
ATOM     25  H   UNL     1      -4.759  27.554 -18.805  1.00  0.00     0.293 HD
ENDBRANCH   6  24
BRANCH   8  26
ATOM     26  O   UNL     1      -4.555  27.200 -23.874  1.00  0.00    -0.508 OA
ATOM     27  H   UNL     1      -3.594  26.958 -23.664  1.00  0.00     0.293 HD
ENDBRANCH   8  26
TORSDOF 6
ENDMDL
