MODEL 1
REMARK VINA RESULT:    -5.128      0.000      0.000
REMARK INTER + INTRA:          -8.318
REMARK INTER:                  -7.526
REMARK INTRA:                  -0.792
REMARK UNBOUND:                -0.792
REMARK SMILES CCCOC(=O)c1ccccc1C(=O)OCCC
REMARK SMILES IDX 7 1 8 2 9 3 10 4 11 5 12 6 5 7 6 8 4 9 3 10 2 11 1 12 13 13
REMARK SMILES IDX 14 14 15 15 16 16 17 17 18 18
REMARK H PARENT
REMARK Flexibility Score: inf
ROOT
ATOM      1  C   UNL     1     180.876 178.544 184.221  1.00  0.00     0.074 A 
ATOM      2  C   UNL     1     180.970 177.141 184.221  1.00  0.00     0.016 A 
ATOM      3  C   UNL     1     181.405 176.455 183.086  1.00  0.00     0.001 A 
ATOM      4  C   UNL     1     181.750 177.158 181.935  1.00  0.00     0.001 A 
ATOM      5  C   UNL     1     181.642 178.549 181.906  1.00  0.00     0.016 A 
ATOM      6  C   UNL     1     181.186 179.259 183.030  1.00  0.00     0.074 A 
ENDROOT
BRANCH   1   7
ATOM      7  C   UNL     1     180.517 179.211 185.494  1.00  0.00     0.339 C 
ATOM      8  O   UNL     1     179.318 179.517 185.739  1.00  0.00    -0.246 OA
BRANCH   7   9
ATOM      9  O   UNL     1     181.527 179.553 186.399  1.00  0.00    -0.462 OA
BRANCH   9  10
ATOM     10  C   UNL     1     181.806 180.900 186.768  1.00  0.00     0.233 C 
BRANCH  10  11
ATOM     11  C   UNL     1     182.160 180.974 188.254  1.00  0.00     0.038 C 
ATOM     12  C   UNL     1     183.043 179.805 188.684  1.00  0.00     0.007 C 
ENDBRANCH  10  11
ENDBRANCH   9  10
ENDBRANCH   7   9
ENDBRANCH   1   7
BRANCH   6  13
ATOM     13  C   UNL     1     180.987 180.720 182.891  1.00  0.00     0.339 C 
ATOM     14  O   UNL     1     181.918 181.521 183.188  1.00  0.00    -0.246 OA
BRANCH  13  15
ATOM     15  O   UNL     1     179.737 181.210 182.491  1.00  0.00    -0.462 OA
BRANCH  15  16
ATOM     16  C   UNL     1     178.897 182.019 183.316  1.00  0.00     0.233 C 
BRANCH  16  17
ATOM     17  C   UNL     1     178.427 183.269 182.567  1.00  0.00     0.038 C 
ATOM     18  C   UNL     1     179.585 184.079 181.989  1.00  0.00     0.007 C 
ENDBRANCH  16  17
ENDBRANCH  15  16
ENDBRANCH  13  15
ENDBRANCH   6  13
TORSDOF 8
ENDMDL
MODEL 2
REMARK VINA RESULT:    -5.109      1.188      1.478
REMARK INTER + INTRA:          -8.290
REMARK INTER:                  -7.210
REMARK INTRA:                  -1.080
REMARK UNBOUND:                -0.792
REMARK SMILES CCCOC(=O)c1ccccc1C(=O)OCCC
REMARK SMILES IDX 7 1 8 2 9 3 10 4 11 5 12 6 5 7 6 8 4 9 3 10 2 11 1 12 13 13
REMARK SMILES IDX 14 14 15 15 16 16 17 17 18 18
REMARK H PARENT
REMARK Flexibility Score: inf
ROOT
ATOM      1  C   UNL     1     180.700 179.974 184.813  1.00  0.00     0.074 A 
ATOM      2  C   UNL     1     180.611 178.633 185.227  1.00  0.00     0.016 A 
ATOM      3  C   UNL     1     180.864 177.592 184.332  1.00  0.00     0.001 A 
ATOM      4  C   UNL     1     181.209 177.873 183.013  1.00  0.00     0.001 A 
ATOM      5  C   UNL     1     181.280 179.197 182.575  1.00  0.00     0.016 A 
ATOM      6  C   UNL     1     181.007 180.261 183.453  1.00  0.00     0.074 A 
ENDROOT
BRANCH   1   7
ATOM      7  C   UNL     1     180.529 181.025 185.842  1.00  0.00     0.339 C 
ATOM      8  O   UNL     1     179.411 181.586 186.003  1.00  0.00    -0.246 OA
BRANCH   7   9
ATOM      9  O   UNL     1     181.633 181.434 186.596  1.00  0.00    -0.462 OA
BRANCH   9  10
ATOM     10  C   UNL     1     181.794 181.097 187.970  1.00  0.00     0.233 C 
BRANCH  10  11
ATOM     11  C   UNL     1     182.851 180.002 188.121  1.00  0.00     0.038 C 
ATOM     12  C   UNL     1     183.787 179.949 186.916  1.00  0.00     0.007 C 
ENDBRANCH  10  11
ENDBRANCH   9  10
ENDBRANCH   7   9
ENDBRANCH   1   7
BRANCH   6  13
ATOM     13  C   UNL     1     180.989 181.632 182.893  1.00  0.00     0.339 C 
ATOM     14  O   UNL     1     181.914 182.445 183.171  1.00  0.00    -0.246 OA
BRANCH  13  15
ATOM     15  O   UNL     1     179.904 182.040 182.108  1.00  0.00    -0.462 OA
BRANCH  15  16
ATOM     16  C   UNL     1     178.560 182.117 182.586  1.00  0.00     0.233 C 
BRANCH  16  17
ATOM     17  C   UNL     1     178.078 183.570 182.645  1.00  0.00     0.038 C 
ATOM     18  C   UNL     1     178.543 184.292 183.907  1.00  0.00     0.007 C 
ENDBRANCH  16  17
ENDBRANCH  15  16
ENDBRANCH  13  15
ENDBRANCH   6  13
TORSDOF 8
ENDMDL
MODEL 3
REMARK VINA RESULT:    -5.106      1.202      4.954
REMARK INTER + INTRA:          -8.285
REMARK INTER:                  -7.268
REMARK INTRA:                  -1.017
REMARK UNBOUND:                -0.792
REMARK SMILES CCCOC(=O)c1ccccc1C(=O)OCCC
REMARK SMILES IDX 7 1 8 2 9 3 10 4 11 5 12 6 5 7 6 8 4 9 3 10 2 11 1 12 13 13
REMARK SMILES IDX 14 14 15 15 16 16 17 17 18 18
REMARK H PARENT
REMARK Flexibility Score: inf
ROOT
ATOM      1  C   UNL     1     180.966 180.195 183.299  1.00  0.00     0.074 A 
ATOM      2  C   UNL     1     181.166 179.013 182.565  1.00  0.00     0.016 A 
ATOM      3  C   UNL     1     181.098 177.765 183.188  1.00  0.00     0.001 A 
ATOM      4  C   UNL     1     180.829 177.680 184.551  1.00  0.00     0.001 A 
ATOM      5  C   UNL     1     180.649 178.841 185.303  1.00  0.00     0.016 A 
ATOM      6  C   UNL     1     180.736 180.109 184.702  1.00  0.00     0.074 A 
ENDROOT
BRANCH   1   7
ATOM      7  C   UNL     1     180.942 181.474 182.553  1.00  0.00     0.339 C 
ATOM      8  O   UNL     1     181.952 182.229 182.546  1.00  0.00    -0.246 OA
BRANCH   7   9
ATOM      9  O   UNL     1     179.767 181.868 181.904  1.00  0.00    -0.462 OA
BRANCH   9  10
ATOM     10  C   UNL     1     178.556 182.140 182.601  1.00  0.00     0.233 C 
BRANCH  10  11
ATOM     11  C   UNL     1     178.243 183.636 182.544  1.00  0.00     0.038 C 
ATOM     12  C   UNL     1     178.365 184.292 183.918  1.00  0.00     0.007 C 
ENDBRANCH  10  11
ENDBRANCH   9  10
ENDBRANCH   7   9
ENDBRANCH   1   7
BRANCH   6  13
ATOM     13  C   UNL     1     180.649 181.299 185.580  1.00  0.00     0.339 C 
ATOM     14  O   UNL     1     179.528 181.703 185.995  1.00  0.00    -0.246 OA
BRANCH  13  15
ATOM     15  O   UNL     1     181.815 182.011 185.891  1.00  0.00    -0.462 OA
BRANCH  15  16
ATOM     16  C   UNL     1     182.821 181.538 186.789  1.00  0.00     0.233 C 
BRANCH  16  17
ATOM     17  C   UNL     1     182.199 181.019 188.089  1.00  0.00     0.038 C 
ATOM     18  C   UNL     1     182.972 179.844 188.682  1.00  0.00     0.007 C 
ENDBRANCH  16  17
ENDBRANCH  15  16
ENDBRANCH  13  15
ENDBRANCH   6  13
TORSDOF 8
ENDMDL
MODEL 4
REMARK VINA RESULT:    -5.009      1.442      4.387
REMARK INTER + INTRA:          -8.143
REMARK INTER:                  -6.774
REMARK INTRA:                  -1.370
REMARK UNBOUND:                -0.792
REMARK SMILES CCCOC(=O)c1ccccc1C(=O)OCCC
REMARK SMILES IDX 7 1 8 2 9 3 10 4 11 5 12 6 5 7 6 8 4 9 3 10 2 11 1 12 13 13
REMARK SMILES IDX 14 14 15 15 16 16 17 17 18 18
REMARK H PARENT
REMARK Flexibility Score: inf
ROOT
ATOM      1  C   UNL     1     180.833 179.139 184.314  1.00  0.00     0.074 A 
ATOM      2  C   UNL     1     180.299 177.936 183.819  1.00  0.00     0.016 A 
ATOM      3  C   UNL     1     181.134 176.940 183.310  1.00  0.00     0.001 A 
ATOM      4  C   UNL     1     182.513 177.130 183.287  1.00  0.00     0.001 A 
ATOM      5  C   UNL     1     183.063 178.326 183.752  1.00  0.00     0.016 A 
ATOM      6  C   UNL     1     182.239 179.352 184.249  1.00  0.00     0.074 A 
ENDROOT
BRANCH   1   7
ATOM      7  C   UNL     1     179.898 180.102 184.941  1.00  0.00     0.339 C 
ATOM      8  O   UNL     1     179.360 179.839 186.051  1.00  0.00    -0.246 OA
BRANCH   7   9
ATOM      9  O   UNL     1     179.571 181.281 184.264  1.00  0.00    -0.462 OA
BRANCH   9  10
ATOM     10  C   UNL     1     178.934 181.287 182.991  1.00  0.00     0.233 C 
BRANCH  10  11
ATOM     11  C   UNL     1     179.889 181.832 181.929  1.00  0.00     0.038 C 
ATOM     12  C   UNL     1     180.374 180.733 180.986  1.00  0.00     0.007 C 
ENDBRANCH  10  11
ENDBRANCH   9  10
ENDBRANCH   7   9
ENDBRANCH   1   7
BRANCH   6  13
ATOM     13  C   UNL     1     182.879 180.635 184.618  1.00  0.00     0.339 C 
ATOM     14  O   UNL     1     183.029 181.543 183.754  1.00  0.00    -0.246 OA
BRANCH  13  15
ATOM     15  O   UNL     1     183.377 180.807 185.916  1.00  0.00    -0.462 OA
BRANCH  15  16
ATOM     16  C   UNL     1     182.763 181.641 186.900  1.00  0.00     0.233 C 
BRANCH  16  17
ATOM     17  C   UNL     1     182.156 180.804 188.031  1.00  0.00     0.038 C 
ATOM     18  C   UNL     1     183.092 179.698 188.511  1.00  0.00     0.007 C 
ENDBRANCH  16  17
ENDBRANCH  15  16
ENDBRANCH  13  15
ENDBRANCH   6  13
TORSDOF 8
ENDMDL
MODEL 5
REMARK VINA RESULT:    -4.931      1.180      1.572
REMARK INTER + INTRA:          -8.029
REMARK INTER:                  -6.973
REMARK INTRA:                  -1.056
REMARK UNBOUND:                -0.792
REMARK SMILES CCCOC(=O)c1ccccc1C(=O)OCCC
REMARK SMILES IDX 7 1 8 2 9 3 10 4 11 5 12 6 5 7 6 8 4 9 3 10 2 11 1 12 13 13
REMARK SMILES IDX 14 14 15 15 16 16 17 17 18 18
REMARK H PARENT
REMARK Flexibility Score: inf
ROOT
ATOM      1  C   UNL     1     181.240 178.522 184.498  1.00  0.00     0.074 A 
ATOM      2  C   UNL     1     180.853 177.189 184.277  1.00  0.00     0.016 A 
ATOM      3  C   UNL     1     181.480 176.417 183.297  1.00  0.00     0.001 A 
ATOM      4  C   UNL     1     182.501 176.964 182.525  1.00  0.00     0.001 A 
ATOM      5  C   UNL     1     182.886 178.292 182.713  1.00  0.00     0.016 A 
ATOM      6  C   UNL     1     182.253 179.095 183.678  1.00  0.00     0.074 A 
ENDROOT
BRANCH   1   7
ATOM      7  C   UNL     1     180.611 179.245 185.627  1.00  0.00     0.339 C 
ATOM      8  O   UNL     1     179.388 179.553 185.587  1.00  0.00    -0.246 OA
BRANCH   7   9
ATOM      9  O   UNL     1     181.397 179.636 186.716  1.00  0.00    -0.462 OA
BRANCH   9  10
ATOM     10  C   UNL     1     181.402 180.967 187.223  1.00  0.00     0.233 C 
BRANCH  10  11
ATOM     11  C   UNL     1     182.547 181.144 188.221  1.00  0.00     0.038 C 
ATOM     12  C   UNL     1     183.086 179.800 188.708  1.00  0.00     0.007 C 
ENDBRANCH  10  11
ENDBRANCH   9  10
ENDBRANCH   7   9
ENDBRANCH   1   7
BRANCH   6  13
ATOM     13  C   UNL     1     182.632 180.526 183.744  1.00  0.00     0.339 C 
ATOM     14  O   UNL     1     183.680 180.879 184.354  1.00  0.00    -0.246 OA
BRANCH  13  15
ATOM     15  O   UNL     1     181.784 181.489 183.182  1.00  0.00    -0.462 OA
BRANCH  15  16
ATOM     16  C   UNL     1     181.475 181.561 181.789  1.00  0.00     0.233 C 
BRANCH  16  17
ATOM     17  C   UNL     1     180.061 181.041 181.510  1.00  0.00     0.038 C 
ATOM     18  C   UNL     1     179.065 181.433 182.599  1.00  0.00     0.007 C 
ENDBRANCH  16  17
ENDBRANCH  15  16
ENDBRANCH  13  15
ENDBRANCH   6  13
TORSDOF 8
ENDMDL
MODEL 6
REMARK VINA RESULT:    -4.898      1.501      4.608
REMARK INTER + INTRA:          -7.981
REMARK INTER:                  -6.835
REMARK INTRA:                  -1.146
REMARK UNBOUND:                -0.792
REMARK SMILES CCCOC(=O)c1ccccc1C(=O)OCCC
REMARK SMILES IDX 7 1 8 2 9 3 10 4 11 5 12 6 5 7 6 8 4 9 3 10 2 11 1 12 13 13
REMARK SMILES IDX 14 14 15 15 16 16 17 17 18 18
REMARK H PARENT
REMARK Flexibility Score: inf
ROOT
ATOM      1  C   UNL     1     179.564 182.138 184.884  1.00  0.00     0.074 A 
ATOM      2  C   UNL     1     178.810 183.238 185.332  1.00  0.00     0.016 A 
ATOM      3  C   UNL     1     178.283 184.158 184.425  1.00  0.00     0.001 A 
ATOM      4  C   UNL     1     178.499 183.995 183.059  1.00  0.00     0.001 A 
ATOM      5  C   UNL     1     179.263 182.923 182.595  1.00  0.00     0.016 A 
ATOM      6  C   UNL     1     179.824 181.996 183.492  1.00  0.00     0.074 A 
ENDROOT
BRANCH   1   7
ATOM      7  C   UNL     1     179.996 181.142 185.892  1.00  0.00     0.339 C 
ATOM      8  O   UNL     1     179.348 180.072 186.052  1.00  0.00    -0.246 OA
BRANCH   7   9
ATOM      9  O   UNL     1     181.097 181.424 186.708  1.00  0.00    -0.462 OA
BRANCH   9  10
ATOM     10  C   UNL     1     182.442 181.251 186.272  1.00  0.00     0.233 C 
BRANCH  10  11
ATOM     11  C   UNL     1     182.755 179.763 186.115  1.00  0.00     0.038 C 
ATOM     12  C   UNL     1     183.767 179.512 184.999  1.00  0.00     0.007 C 
ENDBRANCH  10  11
ENDBRANCH   9  10
ENDBRANCH   7   9
ENDBRANCH   1   7
BRANCH   6  13
ATOM     13  C   UNL     1     180.717 180.952 182.939  1.00  0.00     0.339 C 
ATOM     14  O   UNL     1     181.889 181.246 182.573  1.00  0.00    -0.246 OA
BRANCH  13  15
ATOM     15  O   UNL     1     180.228 179.651 182.764  1.00  0.00    -0.462 OA
BRANCH  15  16
ATOM     16  C   UNL     1     181.061 178.503 182.596  1.00  0.00     0.233 C 
BRANCH  16  17
ATOM     17  C   UNL     1     180.844 177.493 183.728  1.00  0.00     0.038 C 
ATOM     18  C   UNL     1     181.586 176.180 183.494  1.00  0.00     0.007 C 
ENDBRANCH  16  17
ENDBRANCH  15  16
ENDBRANCH  13  15
ENDBRANCH   6  13
TORSDOF 8
ENDMDL
MODEL 7
REMARK VINA RESULT:    -4.892      1.266      4.165
REMARK INTER + INTRA:          -7.971
REMARK INTER:                  -6.639
REMARK INTRA:                  -1.331
REMARK UNBOUND:                -0.792
REMARK SMILES CCCOC(=O)c1ccccc1C(=O)OCCC
REMARK SMILES IDX 7 1 8 2 9 3 10 4 11 5 12 6 5 7 6 8 4 9 3 10 2 11 1 12 13 13
REMARK SMILES IDX 14 14 15 15 16 16 17 17 18 18
REMARK H PARENT
REMARK Flexibility Score: inf
ROOT
ATOM      1  C   UNL     1     180.806 179.483 183.171  1.00  0.00     0.074 A 
ATOM      2  C   UNL     1     181.285 178.752 182.069  1.00  0.00     0.016 A 
ATOM      3  C   UNL     1     181.559 177.388 182.182  1.00  0.00     0.001 A 
ATOM      4  C   UNL     1     181.360 176.734 183.394  1.00  0.00     0.001 A 
ATOM      5  C   UNL     1     180.907 177.444 184.507  1.00  0.00     0.016 A 
ATOM      6  C   UNL     1     180.646 178.824 184.423  1.00  0.00     0.074 A 
ENDROOT
BRANCH   1   7
ATOM      7  C   UNL     1     180.430 180.898 182.950  1.00  0.00     0.339 C 
ATOM      8  O   UNL     1     179.364 181.188 182.341  1.00  0.00    -0.246 OA
BRANCH   7   9
ATOM      9  O   UNL     1     181.296 181.913 183.370  1.00  0.00    -0.462 OA
BRANCH   9  10
ATOM     10  C   UNL     1     182.698 181.877 183.127  1.00  0.00     0.233 C 
BRANCH  10  11
ATOM     11  C   UNL     1     183.455 181.696 184.443  1.00  0.00     0.038 C 
ATOM     12  C   UNL     1     184.120 180.323 184.530  1.00  0.00     0.007 C 
ENDBRANCH  10  11
ENDBRANCH   9  10
ENDBRANCH   7   9
ENDBRANCH   1   7
BRANCH   6  13
ATOM     13  C   UNL     1     180.279 179.535 185.669  1.00  0.00     0.339 C 
ATOM     14  O   UNL     1     179.078 179.857 185.888  1.00  0.00    -0.246 OA
BRANCH  13  15
ATOM     15  O   UNL     1     181.285 179.906 186.571  1.00  0.00    -0.462 OA
BRANCH  15  16
ATOM     16  C   UNL     1     181.245 181.094 187.364  1.00  0.00     0.233 C 
BRANCH  16  17
ATOM     17  C   UNL     1     182.436 181.156 188.325  1.00  0.00     0.038 C 
ATOM     18  C   UNL     1     183.057 179.786 188.580  1.00  0.00     0.007 C 
ENDBRANCH  16  17
ENDBRANCH  15  16
ENDBRANCH  13  15
ENDBRANCH   6  13
TORSDOF 8
ENDMDL
MODEL 8
REMARK VINA RESULT:    -4.891      1.696      2.592
REMARK INTER + INTRA:          -7.969
REMARK INTER:                  -6.572
REMARK INTRA:                  -1.397
REMARK UNBOUND:                -0.792
REMARK SMILES CCCOC(=O)c1ccccc1C(=O)OCCC
REMARK SMILES IDX 7 1 8 2 9 3 10 4 11 5 12 6 5 7 6 8 4 9 3 10 2 11 1 12 13 13
REMARK SMILES IDX 14 14 15 15 16 16 17 17 18 18
REMARK H PARENT
REMARK Flexibility Score: inf
ROOT
ATOM      1  C   UNL     1     182.323 179.840 184.635  1.00  0.00     0.074 A 
ATOM      2  C   UNL     1     182.970 178.701 184.126  1.00  0.00     0.016 A 
ATOM      3  C   UNL     1     182.237 177.577 183.737  1.00  0.00     0.001 A 
ATOM      4  C   UNL     1     180.850 177.575 183.853  1.00  0.00     0.001 A 
ATOM      5  C   UNL     1     180.189 178.687 184.377  1.00  0.00     0.016 A 
ATOM      6  C   UNL     1     180.908 179.820 184.796  1.00  0.00     0.074 A 
ENDROOT
BRANCH   1   7
ATOM      7  C   UNL     1     183.151 181.034 184.921  1.00  0.00     0.339 C 
ATOM      8  O   UNL     1     183.259 181.956 184.067  1.00  0.00    -0.246 OA
BRANCH   7   9
ATOM      9  O   UNL     1     183.863 181.105 186.123  1.00  0.00    -0.462 OA
BRANCH   9  10
ATOM     10  C   UNL     1     183.450 181.921 187.215  1.00  0.00     0.233 C 
BRANCH  10  11
ATOM     11  C   UNL     1     183.651 181.174 188.533  1.00  0.00     0.038 C 
ATOM     12  C   UNL     1     182.924 179.831 188.541  1.00  0.00     0.007 C 
ENDBRANCH  10  11
ENDBRANCH   9  10
ENDBRANCH   7   9
ENDBRANCH   1   7
BRANCH   6  13
ATOM     13  C   UNL     1     180.154 180.916 185.448  1.00  0.00     0.339 C 
ATOM     14  O   UNL     1     180.171 181.040 186.704  1.00  0.00    -0.246 OA
BRANCH  13  15
ATOM     15  O   UNL     1     179.368 181.771 184.665  1.00  0.00    -0.462 OA
BRANCH  15  16
ATOM     16  C   UNL     1     179.815 182.371 183.447  1.00  0.00     0.233 C 
BRANCH  16  17
ATOM     17  C   UNL     1     179.143 181.722 182.233  1.00  0.00     0.038 C 
ATOM     18  C   UNL     1     180.126 180.945 181.362  1.00  0.00     0.007 C 
ENDBRANCH  16  17
ENDBRANCH  15  16
ENDBRANCH  13  15
ENDBRANCH   6  13
TORSDOF 8
ENDMDL
MODEL 9
REMARK VINA RESULT:    -4.826      1.778      2.655
REMARK INTER + INTRA:          -7.875
REMARK INTER:                  -6.486
REMARK INTRA:                  -1.389
REMARK UNBOUND:                -0.792
REMARK SMILES CCCOC(=O)c1ccccc1C(=O)OCCC
REMARK SMILES IDX 7 1 8 2 9 3 10 4 11 5 12 6 5 7 6 8 4 9 3 10 2 11 1 12 13 13
REMARK SMILES IDX 14 14 15 15 16 16 17 17 18 18
REMARK H PARENT
REMARK Flexibility Score: inf
ROOT
ATOM      1  C   UNL     1     180.839 178.258 183.833  1.00  0.00     0.074 A 
ATOM      2  C   UNL     1     180.984 176.902 184.174  1.00  0.00     0.016 A 
ATOM      3  C   UNL     1     181.634 176.015 183.314  1.00  0.00     0.001 A 
ATOM      4  C   UNL     1     182.147 176.468 182.102  1.00  0.00     0.001 A 
ATOM      5  C   UNL     1     181.994 177.805 181.733  1.00  0.00     0.016 A 
ATOM      6  C   UNL     1     181.323 178.711 182.573  1.00  0.00     0.074 A 
ENDROOT
BRANCH   1   7
ATOM      7  C   UNL     1     180.240 179.163 184.841  1.00  0.00     0.339 C 
ATOM      8  O   UNL     1     179.049 179.561 184.715  1.00  0.00    -0.246 OA
BRANCH   7   9
ATOM      9  O   UNL     1     181.024 179.621 185.904  1.00  0.00    -0.462 OA
BRANCH   9  10
ATOM     10  C   UNL     1     180.880 180.924 186.461  1.00  0.00     0.233 C 
BRANCH  10  11
ATOM     11  C   UNL     1     181.738 181.054 187.720  1.00  0.00     0.038 C 
ATOM     12  C   UNL     1     182.721 179.893 187.857  1.00  0.00     0.007 C 
ENDBRANCH  10  11
ENDBRANCH   9  10
ENDBRANCH   7   9
ENDBRANCH   1   7
BRANCH   6  13
ATOM     13  C   UNL     1     181.097 180.085 182.068  1.00  0.00     0.339 C 
ATOM     14  O   UNL     1     180.230 180.300 181.176  1.00  0.00    -0.246 OA
BRANCH  13  15
ATOM     15  O   UNL     1     181.900 181.132 182.539  1.00  0.00    -0.462 OA
BRANCH  15  16
ATOM     16  C   UNL     1     183.323 181.058 182.647  1.00  0.00     0.233 C 
BRANCH  16  17
ATOM     17  C   UNL     1     183.760 180.953 184.111  1.00  0.00     0.038 C 
ATOM     18  C   UNL     1     184.312 179.574 184.462  1.00  0.00     0.007 C 
ENDBRANCH  16  17
ENDBRANCH  15  16
ENDBRANCH  13  15
ENDBRANCH   6  13
TORSDOF 8
ENDMDL
