MODEL 1
REMARK VINA RESULT:    -3.838      0.000      0.000
REMARK INTER + INTRA:          -9.488
REMARK INTER:                  -6.979
REMARK INTRA:                  -2.509
REMARK UNBOUND:                -2.509
REMARK SMILES CCCCCCCCCCCCCC[C@H](C)C(=O)[O-]
REMARK SMILES IDX 9 1 10 2 11 3 12 4 13 5 14 6 15 7 16 8 17 9 18 10 19 11 8 12
REMARK SMILES IDX 7 13 6 14 5 15 4 16 3 17 2 18 1 19
REMARK H PARENT
REMARK Flexibility Score: inf
ROOT
ATOM      1  C   UNL     1      23.795  29.891 -15.980  1.00  0.00     0.000 C 
ENDROOT
BRANCH   1   2
ATOM      2  C   UNL     1      24.779  29.257 -14.975  1.00  0.00     0.000 C 
BRANCH   2   3
ATOM      3  C   UNL     1      26.207  29.031 -15.505  1.00  0.00     0.000 C 
BRANCH   3   4
ATOM      4  C   UNL     1      27.174  30.161 -15.113  1.00  0.00     0.000 C 
BRANCH   4   5
ATOM      5  C   UNL     1      27.127  30.483 -13.610  1.00  0.00     0.001 C 
BRANCH   5   6
ATOM      6  C   UNL     1      28.434  30.119 -12.882  1.00  0.00     0.009 C 
BRANCH   6   7
ATOM      7  C   UNL     1      28.212  29.113 -11.732  1.00  0.00     0.032 C 
ATOM      8  C   UNL     1      27.054  28.149 -12.021  1.00  0.00     0.014 C 
BRANCH   7   9
ATOM      9  C   UNL     1      27.942  29.856 -10.453  1.00  0.00     0.044 C 
ATOM     10  O   UNL     1      27.224  29.335  -9.558  1.00  0.00    -0.550 OA
ATOM     11  O   UNL     1      28.481  31.120 -10.248  1.00  0.00    -0.550 OA
ENDBRANCH   7   9
ENDBRANCH   6   7
ENDBRANCH   5   6
ENDBRANCH   4   5
ENDBRANCH   3   4
ENDBRANCH   2   3
ENDBRANCH   1   2
BRANCH   1  12
ATOM     12  C   UNL     1      23.696  31.427 -15.927  1.00  0.00     0.000 C 
BRANCH  12  13
ATOM     13  C   UNL     1      23.199  31.947 -14.567  1.00  0.00    -0.000 C 
BRANCH  13  14
ATOM     14  C   UNL     1      24.288  32.697 -13.779  1.00  0.00    -0.000 C 
BRANCH  14  15
ATOM     15  C   UNL     1      24.117  32.684 -12.249  1.00  0.00    -0.000 C 
BRANCH  15  16
ATOM     16  C   UNL     1      24.808  31.487 -11.578  1.00  0.00    -0.000 C 
BRANCH  16  17
ATOM     17  C   UNL     1      23.799  30.637 -10.797  1.00  0.00    -0.000 C 
BRANCH  17  18
ATOM     18  C   UNL     1      23.501  29.324 -11.531  1.00  0.00    -0.003 C 
ATOM     19  C   UNL     1      22.137  29.372 -12.214  1.00  0.00     0.004 C 
ENDBRANCH  17  18
ENDBRANCH  16  17
ENDBRANCH  15  16
ENDBRANCH  14  15
ENDBRANCH  13  14
ENDBRANCH  12  13
ENDBRANCH   1  12
TORSDOF 14
ENDMDL
MODEL 2
REMARK VINA RESULT:    -3.831      2.102      4.597
REMARK INTER + INTRA:          -9.475
REMARK INTER:                  -6.982
REMARK INTRA:                  -2.494
REMARK UNBOUND:                -2.509
REMARK SMILES CCCCCCCCCCCCCC[C@H](C)C(=O)[O-]
REMARK SMILES IDX 9 1 10 2 11 3 12 4 13 5 14 6 15 7 16 8 17 9 18 10 19 11 8 12
REMARK SMILES IDX 7 13 6 14 5 15 4 16 3 17 2 18 1 19
REMARK H PARENT
REMARK Flexibility Score: inf
ROOT
ATOM      1  C   UNL     1      27.348  30.547 -14.763  1.00  0.00     0.000 C 
ENDROOT
BRANCH   1   2
ATOM      2  C   UNL     1      26.518  29.386 -15.350  1.00  0.00     0.000 C 
BRANCH   2   3
ATOM      3  C   UNL     1      25.825  28.482 -14.313  1.00  0.00     0.000 C 
BRANCH   3   4
ATOM      4  C   UNL     1      24.297  28.665 -14.290  1.00  0.00     0.000 C 
BRANCH   4   5
ATOM      5  C   UNL     1      23.785  29.492 -15.480  1.00  0.00     0.001 C 
BRANCH   5   6
ATOM      6  C   UNL     1      23.102  30.802 -15.045  1.00  0.00     0.009 C 
BRANCH   6   7
ATOM      7  C   UNL     1      23.341  31.129 -13.555  1.00  0.00     0.032 C 
ATOM      8  C   UNL     1      22.029  31.352 -12.793  1.00  0.00     0.014 C 
BRANCH   7   9
ATOM      9  C   UNL     1      24.208  32.352 -13.437  1.00  0.00     0.044 C 
ATOM     10  O   UNL     1      24.466  32.837 -12.303  1.00  0.00    -0.550 OA
ATOM     11  O   UNL     1      24.729  32.956 -14.575  1.00  0.00    -0.550 OA
ENDBRANCH   7   9
ENDBRANCH   6   7
ENDBRANCH   5   6
ENDBRANCH   4   5
ENDBRANCH   3   4
ENDBRANCH   2   3
ENDBRANCH   1   2
BRANCH   1  12
ATOM     12  C   UNL     1      27.571  30.495 -13.240  1.00  0.00     0.000 C 
BRANCH  12  13
ATOM     13  C   UNL     1      29.041  30.247 -12.861  1.00  0.00    -0.000 C 
BRANCH  13  14
ATOM     14  C   UNL     1      29.248  30.073 -11.346  1.00  0.00    -0.000 C 
BRANCH  14  15
ATOM     15  C   UNL     1      28.035  30.435 -10.471  1.00  0.00    -0.000 C 
BRANCH  15  16
ATOM     16  C   UNL     1      27.556  29.269  -9.594  1.00  0.00    -0.000 C 
BRANCH  16  17
ATOM     17  C   UNL     1      26.378  28.537 -10.246  1.00  0.00    -0.000 C 
BRANCH  17  18
ATOM     18  C   UNL     1      25.273  29.521 -10.648  1.00  0.00    -0.003 C 
ATOM     19  C   UNL     1      23.900  28.857 -10.604  1.00  0.00     0.004 C 
ENDBRANCH  17  18
ENDBRANCH  16  17
ENDBRANCH  15  16
ENDBRANCH  14  15
ENDBRANCH  13  14
ENDBRANCH  12  13
ENDBRANCH   1  12
TORSDOF 14
ENDMDL
MODEL 3
REMARK VINA RESULT:    -3.826      4.153      5.851
REMARK INTER + INTRA:          -9.466
REMARK INTER:                  -7.308
REMARK INTRA:                  -2.157
REMARK UNBOUND:                -2.509
REMARK SMILES CCCCCCCCCCCCCC[C@H](C)C(=O)[O-]
REMARK SMILES IDX 9 1 10 2 11 3 12 4 13 5 14 6 15 7 16 8 17 9 18 10 19 11 8 12
REMARK SMILES IDX 7 13 6 14 5 15 4 16 3 17 2 18 1 19
REMARK H PARENT
REMARK Flexibility Score: inf
ROOT
ATOM      1  C   UNL     1      25.534  27.023 -12.326  1.00  0.00     0.000 C 
ENDROOT
BRANCH   1   2
ATOM      2  C   UNL     1      26.998  26.687 -12.678  1.00  0.00     0.000 C 
BRANCH   2   3
ATOM      3  C   UNL     1      27.185  25.711 -13.854  1.00  0.00     0.000 C 
BRANCH   3   4
ATOM      4  C   UNL     1      25.880  25.450 -14.626  1.00  0.00     0.000 C 
BRANCH   4   5
ATOM      5  C   UNL     1      25.491  23.962 -14.638  1.00  0.00     0.001 C 
BRANCH   5   6
ATOM      6  C   UNL     1      26.656  23.038 -14.239  1.00  0.00     0.009 C 
BRANCH   6   7
ATOM      7  C   UNL     1      26.231  21.948 -13.232  1.00  0.00     0.032 C 
ATOM      8  C   UNL     1      24.725  21.983 -12.942  1.00  0.00     0.014 C 
BRANCH   7   9
ATOM      9  C   UNL     1      26.995  22.117 -11.949  1.00  0.00     0.044 C 
ATOM     10  O   UNL     1      27.676  21.162 -11.487  1.00  0.00    -0.550 OA
ATOM     11  O   UNL     1      26.956  23.324 -11.262  1.00  0.00    -0.550 OA
ENDBRANCH   7   9
ENDBRANCH   6   7
ENDBRANCH   5   6
ENDBRANCH   4   5
ENDBRANCH   3   4
ENDBRANCH   2   3
ENDBRANCH   1   2
BRANCH   1  12
ATOM     12  C   UNL     1      25.125  28.494 -12.531  1.00  0.00     0.000 C 
BRANCH  12  13
ATOM     13  C   UNL     1      25.064  28.896 -14.014  1.00  0.00    -0.000 C 
BRANCH  13  14
ATOM     14  C   UNL     1      26.322  29.649 -14.484  1.00  0.00    -0.000 C 
BRANCH  14  15
ATOM     15  C   UNL     1      26.966  30.570 -13.433  1.00  0.00    -0.000 C 
BRANCH  15  16
ATOM     16  C   UNL     1      28.497  30.449 -13.384  1.00  0.00    -0.000 C 
BRANCH  16  17
ATOM     17  C   UNL     1      28.956  29.817 -12.065  1.00  0.00    -0.000 C 
BRANCH  17  18
ATOM     18  C   UNL     1      28.163  30.379 -10.879  1.00  0.00    -0.003 C 
ATOM     19  C   UNL     1      27.687  29.262  -9.955  1.00  0.00     0.004 C 
ENDBRANCH  17  18
ENDBRANCH  16  17
ENDBRANCH  15  16
ENDBRANCH  14  15
ENDBRANCH  13  14
ENDBRANCH  12  13
ENDBRANCH   1  12
TORSDOF 14
ENDMDL
MODEL 4
REMARK VINA RESULT:    -3.801      2.923      4.352
REMARK INTER + INTRA:          -9.420
REMARK INTER:                  -6.814
REMARK INTRA:                  -2.606
REMARK UNBOUND:                -2.509
REMARK SMILES CCCCCCCCCCCCCC[C@H](C)C(=O)[O-]
REMARK SMILES IDX 9 1 10 2 11 3 12 4 13 5 14 6 15 7 16 8 17 9 18 10 19 11 8 12
REMARK SMILES IDX 7 13 6 14 5 15 4 16 3 17 2 18 1 19
REMARK H PARENT
REMARK Flexibility Score: inf
ROOT
ATOM      1  C   UNL     1      27.215  30.356 -14.495  1.00  0.00     0.000 C 
ENDROOT
BRANCH   1   2
ATOM      2  C   UNL     1      27.143  30.287 -12.955  1.00  0.00     0.000 C 
BRANCH   2   3
ATOM      3  C   UNL     1      27.786  29.039 -12.322  1.00  0.00     0.000 C 
BRANCH   3   4
ATOM      4  C   UNL     1      26.833  28.296 -11.369  1.00  0.00     0.000 C 
BRANCH   4   5
ATOM      5  C   UNL     1      26.392  26.932 -11.924  1.00  0.00     0.001 C 
BRANCH   5   6
ATOM      6  C   UNL     1      27.176  26.519 -13.183  1.00  0.00     0.009 C 
BRANCH   6   7
ATOM      7  C   UNL     1      26.314  25.719 -14.183  1.00  0.00     0.032 C 
ATOM      8  C   UNL     1      24.814  25.976 -13.990  1.00  0.00     0.014 C 
BRANCH   7   9
ATOM      9  C   UNL     1      26.597  24.250 -14.036  1.00  0.00     0.044 C 
ATOM     10  O   UNL     1      27.593  23.860 -13.370  1.00  0.00    -0.550 OA
ATOM     11  O   UNL     1      25.763  23.311 -14.632  1.00  0.00    -0.550 OA
ENDBRANCH   7   9
ENDBRANCH   6   7
ENDBRANCH   5   6
ENDBRANCH   4   5
ENDBRANCH   3   4
ENDBRANCH   2   3
ENDBRANCH   1   2
BRANCH   1  12
ATOM     12  C   UNL     1      26.143  29.542 -15.244  1.00  0.00     0.000 C 
BRANCH  12  13
ATOM     13  C   UNL     1      24.771  29.582 -14.550  1.00  0.00    -0.000 C 
BRANCH  13  14
ATOM     14  C   UNL     1      23.742  30.444 -15.305  1.00  0.00    -0.000 C 
BRANCH  14  15
ATOM     15  C   UNL     1      23.221  31.670 -14.535  1.00  0.00    -0.000 C 
BRANCH  15  16
ATOM     16  C   UNL     1      24.344  32.607 -14.065  1.00  0.00    -0.000 C 
BRANCH  16  17
ATOM     17  C   UNL     1      24.355  32.729 -12.537  1.00  0.00    -0.000 C 
BRANCH  17  18
ATOM     18  C   UNL     1      23.312  31.802 -11.903  1.00  0.00    -0.003 C 
ATOM     19  C   UNL     1      23.976  30.735 -11.036  1.00  0.00     0.004 C 
ENDBRANCH  17  18
ENDBRANCH  16  17
ENDBRANCH  15  16
ENDBRANCH  14  15
ENDBRANCH  13  14
ENDBRANCH  12  13
ENDBRANCH   1  12
TORSDOF 14
ENDMDL
MODEL 5
REMARK VINA RESULT:    -3.761      3.257      5.856
REMARK INTER + INTRA:          -9.347
REMARK INTER:                  -7.405
REMARK INTRA:                  -1.942
REMARK UNBOUND:                -2.509
REMARK SMILES CCCCCCCCCCCCCC[C@H](C)C(=O)[O-]
REMARK SMILES IDX 9 1 10 2 11 3 12 4 13 5 14 6 15 7 16 8 17 9 18 10 19 11 8 12
REMARK SMILES IDX 7 13 6 14 5 15 4 16 3 17 2 18 1 19
REMARK H PARENT
REMARK Flexibility Score: inf
ROOT
ATOM      1  C   UNL     1      25.842  28.677 -10.275  1.00  0.00     0.000 C 
ENDROOT
BRANCH   1   2
ATOM      2  C   UNL     1      27.358  28.869 -10.064  1.00  0.00     0.000 C 
BRANCH   2   3
ATOM      3  C   UNL     1      27.845  30.330 -10.080  1.00  0.00     0.000 C 
BRANCH   3   4
ATOM      4  C   UNL     1      28.967  30.575 -11.103  1.00  0.00     0.000 C 
BRANCH   4   5
ATOM      5  C   UNL     1      28.802  29.722 -12.372  1.00  0.00     0.001 C 
BRANCH   5   6
ATOM      6  C   UNL     1      28.162  30.502 -13.535  1.00  0.00     0.009 C 
BRANCH   6   7
ATOM      7  C   UNL     1      26.691  30.101 -13.779  1.00  0.00     0.032 C 
ATOM      8  C   UNL     1      26.449  29.636 -15.221  1.00  0.00     0.014 C 
BRANCH   7   9
ATOM      9  C   UNL     1      25.790  31.264 -13.466  1.00  0.00     0.044 C 
ATOM     10  O   UNL     1      25.359  31.433 -12.295  1.00  0.00    -0.550 OA
ATOM     11  O   UNL     1      25.425  32.158 -14.466  1.00  0.00    -0.550 OA
ENDBRANCH   7   9
ENDBRANCH   6   7
ENDBRANCH   5   6
ENDBRANCH   4   5
ENDBRANCH   3   4
ENDBRANCH   2   3
ENDBRANCH   1   2
BRANCH   1  12
ATOM     12  C   UNL     1      25.448  27.790 -11.471  1.00  0.00     0.000 C 
BRANCH  12  13
ATOM     13  C   UNL     1      26.409  26.607 -11.679  1.00  0.00    -0.000 C 
BRANCH  13  14
ATOM     14  C   UNL     1      26.996  26.555 -13.101  1.00  0.00    -0.000 C 
BRANCH  14  15
ATOM     15  C   UNL     1      27.338  25.147 -13.619  1.00  0.00    -0.000 C 
BRANCH  15  16
ATOM     16  C   UNL     1      27.056  24.042 -12.589  1.00  0.00    -0.000 C 
BRANCH  16  17
ATOM     17  C   UNL     1      26.801  22.698 -13.280  1.00  0.00    -0.000 C 
BRANCH  17  18
ATOM     18  C   UNL     1      25.303  22.378 -13.326  1.00  0.00    -0.003 C 
ATOM     19  C   UNL     1      24.635  23.036 -14.531  1.00  0.00     0.004 C 
ENDBRANCH  17  18
ENDBRANCH  16  17
ENDBRANCH  15  16
ENDBRANCH  14  15
ENDBRANCH  13  14
ENDBRANCH  12  13
ENDBRANCH   1  12
TORSDOF 14
ENDMDL
MODEL 6
REMARK VINA RESULT:    -3.732      2.866      5.034
REMARK INTER + INTRA:          -9.295
REMARK INTER:                  -6.476
REMARK INTRA:                  -2.819
REMARK UNBOUND:                -2.509
REMARK SMILES CCCCCCCCCCCCCC[C@H](C)C(=O)[O-]
REMARK SMILES IDX 9 1 10 2 11 3 12 4 13 5 14 6 15 7 16 8 17 9 18 10 19 11 8 12
REMARK SMILES IDX 7 13 6 14 5 15 4 16 3 17 2 18 1 19
REMARK H PARENT
REMARK Flexibility Score: inf
ROOT
ATOM      1  C   UNL     1      27.798  29.650 -10.995  1.00  0.00     0.000 C 
ENDROOT
BRANCH   1   2
ATOM      2  C   UNL     1      26.301  29.810 -10.653  1.00  0.00     0.000 C 
BRANCH   2   3
ATOM      3  C   UNL     1      25.579  28.515 -10.237  1.00  0.00     0.000 C 
BRANCH   3   4
ATOM      4  C   UNL     1      24.506  28.080 -11.250  1.00  0.00     0.000 C 
BRANCH   4   5
ATOM      5  C   UNL     1      24.982  26.933 -12.157  1.00  0.00     0.001 C 
BRANCH   5   6
ATOM      6  C   UNL     1      26.181  26.167 -11.568  1.00  0.00     0.009 C 
BRANCH   6   7
ATOM      7  C   UNL     1      27.069  25.528 -12.657  1.00  0.00     0.032 C 
ATOM      8  C   UNL     1      26.717  26.033 -14.062  1.00  0.00     0.014 C 
BRANCH   7   9
ATOM      9  C   UNL     1      26.931  24.031 -12.610  1.00  0.00     0.044 C 
ATOM     10  O   UNL     1      27.957  23.301 -12.585  1.00  0.00    -0.550 OA
ATOM     11  O   UNL     1      25.672  23.442 -12.595  1.00  0.00    -0.550 OA
ENDBRANCH   7   9
ENDBRANCH   6   7
ENDBRANCH   5   6
ENDBRANCH   4   5
ENDBRANCH   3   4
ENDBRANCH   2   3
ENDBRANCH   1   2
BRANCH   1  12
ATOM     12  C   UNL     1      28.103  29.245 -12.449  1.00  0.00     0.000 C 
BRANCH  12  13
ATOM     13  C   UNL     1      28.337  30.455 -13.369  1.00  0.00    -0.000 C 
BRANCH  13  14
ATOM     14  C   UNL     1      27.340  30.518 -14.541  1.00  0.00    -0.000 C 
BRANCH  14  15
ATOM     15  C   UNL     1      26.108  29.606 -14.405  1.00  0.00    -0.000 C 
BRANCH  15  16
ATOM     16  C   UNL     1      24.797  30.387 -14.235  1.00  0.00    -0.000 C 
BRANCH  16  17
ATOM     17  C   UNL     1      25.063  31.893 -14.131  1.00  0.00    -0.000 C 
BRANCH  17  18
ATOM     18  C   UNL     1      24.574  32.447 -12.787  1.00  0.00    -0.003 C 
ATOM     19  C   UNL     1      23.397  31.636 -12.253  1.00  0.00     0.004 C 
ENDBRANCH  17  18
ENDBRANCH  16  17
ENDBRANCH  15  16
ENDBRANCH  14  15
ENDBRANCH  13  14
ENDBRANCH  12  13
ENDBRANCH   1  12
TORSDOF 14
ENDMDL
MODEL 7
REMARK VINA RESULT:    -3.714      2.614      4.540
REMARK INTER + INTRA:          -9.263
REMARK INTER:                  -6.555
REMARK INTRA:                  -2.708
REMARK UNBOUND:                -2.509
REMARK SMILES CCCCCCCCCCCCCC[C@H](C)C(=O)[O-]
REMARK SMILES IDX 9 1 10 2 11 3 12 4 13 5 14 6 15 7 16 8 17 9 18 10 19 11 8 12
REMARK SMILES IDX 7 13 6 14 5 15 4 16 3 17 2 18 1 19
REMARK H PARENT
REMARK Flexibility Score: inf
ROOT
ATOM      1  C   UNL     1      28.028  29.102 -12.755  1.00  0.00     0.000 C 
ENDROOT
BRANCH   1   2
ATOM      2  C   UNL     1      27.932  30.494 -13.414  1.00  0.00     0.000 C 
BRANCH   2   3
ATOM      3  C   UNL     1      26.944  30.598 -14.591  1.00  0.00     0.000 C 
BRANCH   3   4
ATOM      4  C   UNL     1      26.661  29.238 -15.254  1.00  0.00     0.000 C 
BRANCH   4   5
ATOM      5  C   UNL     1      25.297  28.658 -14.846  1.00  0.00     0.001 C 
BRANCH   5   6
ATOM      6  C   UNL     1      25.079  27.226 -15.370  1.00  0.00     0.009 C 
BRANCH   6   7
ATOM      7  C   UNL     1      25.004  26.184 -14.233  1.00  0.00     0.032 C 
ATOM      8  C   UNL     1      24.777  26.837 -12.863  1.00  0.00     0.014 C 
BRANCH   7   9
ATOM      9  C   UNL     1      26.271  25.375 -14.202  1.00  0.00     0.044 C 
ATOM     10  O   UNL     1      27.346  25.896 -13.799  1.00  0.00    -0.550 OA
ATOM     11  O   UNL     1      26.267  24.048 -14.616  1.00  0.00    -0.550 OA
ENDBRANCH   7   9
ENDBRANCH   6   7
ENDBRANCH   5   6
ENDBRANCH   4   5
ENDBRANCH   3   4
ENDBRANCH   2   3
ENDBRANCH   1   2
BRANCH   1  12
ATOM     12  C   UNL     1      27.384  28.986 -11.360  1.00  0.00     0.000 C 
BRANCH  12  13
ATOM     13  C   UNL     1      26.581  30.238 -10.968  1.00  0.00    -0.000 C 
BRANCH  13  14
ATOM     14  C   UNL     1      25.065  29.978 -10.894  1.00  0.00    -0.000 C 
BRANCH  14  15
ATOM     15  C   UNL     1      24.228  30.660 -11.990  1.00  0.00    -0.000 C 
BRANCH  15  16
ATOM     16  C   UNL     1      24.433  32.181 -12.045  1.00  0.00    -0.000 C 
BRANCH  16  17
ATOM     17  C   UNL     1      24.295  32.703 -13.480  1.00  0.00    -0.000 C 
BRANCH  17  18
ATOM     18  C   UNL     1      23.332  31.830 -14.293  1.00  0.00    -0.003 C 
ATOM     19  C   UNL     1      23.599  31.962 -15.790  1.00  0.00     0.004 C 
ENDBRANCH  17  18
ENDBRANCH  16  17
ENDBRANCH  15  16
ENDBRANCH  14  15
ENDBRANCH  13  14
ENDBRANCH  12  13
ENDBRANCH   1  12
TORSDOF 14
ENDMDL
MODEL 8
REMARK VINA RESULT:    -3.700      3.686      5.649
REMARK INTER + INTRA:          -9.237
REMARK INTER:                  -6.616
REMARK INTRA:                  -2.621
REMARK UNBOUND:                -2.509
REMARK SMILES CCCCCCCCCCCCCC[C@H](C)C(=O)[O-]
REMARK SMILES IDX 9 1 10 2 11 3 12 4 13 5 14 6 15 7 16 8 17 9 18 10 19 11 8 12
REMARK SMILES IDX 7 13 6 14 5 15 4 16 3 17 2 18 1 19
REMARK H PARENT
REMARK Flexibility Score: inf
ROOT
ATOM      1  C   UNL     1      25.257  27.607 -11.823  1.00  0.00     0.000 C 
ENDROOT
BRANCH   1   2
ATOM      2  C   UNL     1      26.357  26.544 -12.027  1.00  0.00     0.000 C 
BRANCH   2   3
ATOM      3  C   UNL     1      27.032  26.552 -13.411  1.00  0.00     0.000 C 
BRANCH   3   4
ATOM      4  C   UNL     1      26.029  26.378 -14.565  1.00  0.00     0.000 C 
BRANCH   4   5
ATOM      5  C   UNL     1      25.284  25.035 -14.499  1.00  0.00     0.001 C 
BRANCH   5   6
ATOM      6  C   UNL     1      26.232  23.823 -14.574  1.00  0.00     0.009 C 
BRANCH   6   7
ATOM      7  C   UNL     1      26.052  22.855 -13.386  1.00  0.00     0.032 C 
ATOM      8  C   UNL     1      24.756  23.125 -12.609  1.00  0.00     0.014 C 
BRANCH   7   9
ATOM      9  C   UNL     1      27.229  22.966 -12.458  1.00  0.00     0.044 C 
ATOM     10  O   UNL     1      27.090  22.728 -11.228  1.00  0.00    -0.550 OA
ATOM     11  O   UNL     1      28.477  23.333 -12.947  1.00  0.00    -0.550 OA
ENDBRANCH   7   9
ENDBRANCH   6   7
ENDBRANCH   5   6
ENDBRANCH   4   5
ENDBRANCH   3   4
ENDBRANCH   2   3
ENDBRANCH   1   2
BRANCH   1  12
ATOM     12  C   UNL     1      25.623  28.764 -10.874  1.00  0.00     0.000 C 
BRANCH  12  13
ATOM     13  C   UNL     1      26.945  28.525 -10.125  1.00  0.00    -0.000 C 
BRANCH  13  14
ATOM     14  C   UNL     1      27.968  29.655 -10.340  1.00  0.00    -0.000 C 
BRANCH  14  15
ATOM     15  C   UNL     1      27.708  30.552 -11.564  1.00  0.00    -0.000 C 
BRANCH  15  16
ATOM     16  C   UNL     1      28.581  30.186 -12.774  1.00  0.00    -0.000 C 
BRANCH  16  17
ATOM     17  C   UNL     1      27.797  30.332 -14.082  1.00  0.00    -0.000 C 
BRANCH  17  18
ATOM     18  C   UNL     1      26.372  30.830 -13.817  1.00  0.00    -0.003 C 
ATOM     19  C   UNL     1      25.352  30.043 -14.636  1.00  0.00     0.004 C 
ENDBRANCH  17  18
ENDBRANCH  16  17
ENDBRANCH  15  16
ENDBRANCH  14  15
ENDBRANCH  13  14
ENDBRANCH  12  13
ENDBRANCH   1  12
TORSDOF 14
ENDMDL
MODEL 9
REMARK VINA RESULT:    -3.697      3.746      5.048
REMARK INTER + INTRA:          -9.232
REMARK INTER:                  -7.164
REMARK INTRA:                  -2.068
REMARK UNBOUND:                -2.509
REMARK SMILES CCCCCCCCCCCCCC[C@H](C)C(=O)[O-]
REMARK SMILES IDX 9 1 10 2 11 3 12 4 13 5 14 6 15 7 16 8 17 9 18 10 19 11 8 12
REMARK SMILES IDX 7 13 6 14 5 15 4 16 3 17 2 18 1 19
REMARK H PARENT
REMARK Flexibility Score: inf
ROOT
ATOM      1  C   UNL     1      24.460  29.144 -14.260  1.00  0.00     0.000 C 
ENDROOT
BRANCH   1   2
ATOM      2  C   UNL     1      24.671  28.046 -15.324  1.00  0.00     0.000 C 
BRANCH   2   3
ATOM      3  C   UNL     1      25.860  27.102 -15.068  1.00  0.00     0.000 C 
BRANCH   3   4
ATOM      4  C   UNL     1      25.933  26.616 -13.611  1.00  0.00     0.000 C 
BRANCH   4   5
ATOM      5  C   UNL     1      27.234  25.854 -13.308  1.00  0.00     0.001 C 
BRANCH   5   6
ATOM      6  C   UNL     1      27.011  24.633 -12.397  1.00  0.00     0.009 C 
BRANCH   6   7
ATOM      7  C   UNL     1      27.428  23.307 -13.069  1.00  0.00     0.032 C 
ATOM      8  C   UNL     1      26.599  23.008 -14.324  1.00  0.00     0.014 C 
BRANCH   7   9
ATOM      9  C   UNL     1      27.286  22.175 -12.090  1.00  0.00     0.044 C 
ATOM     10  O   UNL     1      28.266  21.825 -11.380  1.00  0.00    -0.550 OA
ATOM     11  O   UNL     1      26.074  21.507 -11.960  1.00  0.00    -0.550 OA
ENDBRANCH   7   9
ENDBRANCH   6   7
ENDBRANCH   5   6
ENDBRANCH   4   5
ENDBRANCH   3   4
ENDBRANCH   2   3
ENDBRANCH   1   2
BRANCH   1  12
ATOM     12  C   UNL     1      24.723  30.585 -14.736  1.00  0.00     0.000 C 
BRANCH  12  13
ATOM     13  C   UNL     1      25.982  31.202 -14.102  1.00  0.00    -0.000 C 
BRANCH  13  14
ATOM     14  C   UNL     1      27.275  30.470 -14.503  1.00  0.00    -0.000 C 
BRANCH  14  15
ATOM     15  C   UNL     1      28.371  30.436 -13.423  1.00  0.00    -0.000 C 
BRANCH  15  16
ATOM     16  C   UNL     1      28.128  29.360 -12.353  1.00  0.00    -0.000 C 
BRANCH  16  17
ATOM     17  C   UNL     1      27.507  29.970 -11.092  1.00  0.00    -0.000 C 
BRANCH  17  18
ATOM     18  C   UNL     1      26.149  29.329 -10.782  1.00  0.00    -0.003 C 
ATOM     19  C   UNL     1      26.319  27.913 -10.237  1.00  0.00     0.004 C 
ENDBRANCH  17  18
ENDBRANCH  16  17
ENDBRANCH  15  16
ENDBRANCH  14  15
ENDBRANCH  13  14
ENDBRANCH  12  13
ENDBRANCH   1  12
TORSDOF 14
ENDMDL
