MODEL 1
REMARK VINA RESULT:    -6.749      0.000      0.000
REMARK INTER + INTRA:         -18.684
REMARK INTER:                 -16.022
REMARK INTRA:                  -2.663
REMARK UNBOUND:                -2.663
REMARK SMILES O=C(OC[C@H]1O[C@H](OC(=O)c2cc(O)c(O)c(O)c2)[C@H](OC(=O)c2cc(O)c(O)c(O)c2)[C@@H](OC(=O)c2cc(O)c(O)c(O)c2)[C@H]1OC(=O)c1cc(O)c(O)c(O)c1)c1cc(O)c(O)c(O)c1
REMARK SMILES IDX 5 1 46 2 33 3 20 4 7 5 6 6 4 7 3 8 2 9 1 10 59 11 60 12
REMARK SMILES IDX 61 13 67 14 63 15 65 16 62 17 64 19 66 21 47 23 48 24 49 25
REMARK SMILES IDX 50 26 58 27 51 28 56 29 52 30 54 31 57 32 53 34 55 36 34 38
REMARK SMILES IDX 35 39 36 40 37 41 45 42 38 43 43 44 39 45 41 46 44 47 40 49
REMARK SMILES IDX 42 51 8 53 9 54 10 55 11 56 19 57 12 58 17 59 13 60 15 61
REMARK SMILES IDX 18 62 14 64 16 66 21 68 22 69 23 70 24 71 32 72 25 73 30 74
REMARK SMILES IDX 26 75 28 76 31 77 27 79 29 81
REMARK H PARENT 62 18 64 20 66 22 57 33 53 35 55 37 44 48 40 50 42 52 18 63
REMARK H PARENT 14 65 16 67 31 78 27 80 29 82
REMARK Flexibility Score: inf
ROOT
ATOM      1  C   UNL     1      70.229  44.261   8.602  1.00  0.00     0.205 C 
ATOM      2  C   UNL     1      71.069  43.416   7.627  1.00  0.00     0.254 C 
ATOM      3  C   UNL     1      72.038  44.365   6.913  1.00  0.00     0.267 C 
ATOM      4  C   UNL     1      72.900  45.102   7.954  1.00  0.00     0.290 C 
ATOM      5  C   UNL     1      71.985  45.769   9.007  1.00  0.00     0.357 C 
ATOM      6  O   UNL     1      71.069  44.848   9.586  1.00  0.00    -0.329 OA
ENDROOT
BRANCH   1   7
ATOM      7  C   UNL     1      69.134  43.434   9.300  1.00  0.00     0.269 C 
BRANCH   7   8
ATOM      8  O   UNL     1      67.862  44.019   9.045  1.00  0.00    -0.459 OA
BRANCH   8   9
ATOM      9  C   UNL     1      66.831  43.322   8.400  1.00  0.00     0.338 C 
ATOM     10  O   UNL     1      67.110  42.405   7.575  1.00  0.00    -0.246 OA
BRANCH   9  11
ATOM     11  C   UNL     1      65.421  43.682   8.659  1.00  0.00     0.067 A 
ATOM     12  C   UNL     1      64.544  42.744   9.218  1.00  0.00     0.066 A 
ATOM     13  C   UNL     1      63.197  43.053   9.421  1.00  0.00     0.162 A 
ATOM     14  C   UNL     1      64.934  44.957   8.307  1.00  0.00     0.066 A 
ATOM     15  C   UNL     1      62.700  44.319   9.033  1.00  0.00     0.200 A 
ATOM     16  C   UNL     1      63.581  45.268   8.482  1.00  0.00     0.162 A 
BRANCH  13  17
ATOM     17  O   UNL     1      62.393  42.080  10.019  1.00  0.00    -0.504 OA
ATOM     18  H   UNL     1      62.583  41.679  10.921  1.00  0.00     0.293 HD
ENDBRANCH  13  17
BRANCH  15  19
ATOM     19  O   UNL     1      61.352  44.663   9.174  1.00  0.00    -0.502 OA
ATOM     20  H   UNL     1      60.679  44.654   8.423  1.00  0.00     0.293 HD
ENDBRANCH  15  19
BRANCH  16  21
ATOM     21  O   UNL     1      63.130  46.531   8.095  1.00  0.00    -0.504 OA
ATOM     22  H   UNL     1      62.734  46.703   7.180  1.00  0.00     0.293 HD
ENDBRANCH  16  21
ENDBRANCH   9  11
ENDBRANCH   8   9
ENDBRANCH   7   8
ENDBRANCH   1   7
BRANCH   2  23
ATOM     23  O   UNL     1      71.822  42.436   8.343  1.00  0.00    -0.452 OA
BRANCH  23  24
ATOM     24  C   UNL     1      71.298  41.220   8.802  1.00  0.00     0.338 C 
ATOM     25  O   UNL     1      71.409  40.909  10.016  1.00  0.00    -0.246 OA
BRANCH  24  26
ATOM     26  C   UNL     1      70.600  40.323   7.855  1.00  0.00     0.067 A 
ATOM     27  C   UNL     1      69.780  39.279   8.322  1.00  0.00     0.066 A 
ATOM     28  C   UNL     1      70.795  40.471   6.472  1.00  0.00     0.066 A 
ATOM     29  C   UNL     1      69.175  38.387   7.419  1.00  0.00     0.162 A 
ATOM     30  C   UNL     1      70.187  39.592   5.570  1.00  0.00     0.162 A 
ATOM     31  C   UNL     1      69.377  38.547   6.038  1.00  0.00     0.200 A 
BRANCH  29  32
ATOM     32  O   UNL     1      68.383  37.344   7.890  1.00  0.00    -0.504 OA
ATOM     33  H   UNL     1      68.763  36.616   8.484  1.00  0.00     0.293 HD
ENDBRANCH  29  32
BRANCH  30  34
ATOM     34  O   UNL     1      70.406  39.771   4.206  1.00  0.00    -0.504 OA
ATOM     35  H   UNL     1      71.275  39.494   3.758  1.00  0.00     0.293 HD
ENDBRANCH  30  34
BRANCH  31  36
ATOM     36  O   UNL     1      68.791  37.676   5.122  1.00  0.00    -0.502 OA
ATOM     37  H   UNL     1      67.855  37.816   4.764  1.00  0.00     0.293 HD
ENDBRANCH  31  36
ENDBRANCH  24  26
ENDBRANCH  23  24
ENDBRANCH   2  23
BRANCH   3  38
ATOM     38  O   UNL     1      72.850  43.644   5.987  1.00  0.00    -0.450 OA
BRANCH  38  39
ATOM     39  C   UNL     1      73.927  42.843   6.391  1.00  0.00     0.338 C 
ATOM     40  O   UNL     1      74.807  43.311   7.164  1.00  0.00    -0.246 OA
BRANCH  39  41
ATOM     41  C   UNL     1      74.026  41.441   5.929  1.00  0.00     0.067 A 
ATOM     42  C   UNL     1      73.840  41.125   4.572  1.00  0.00     0.066 A 
ATOM     43  C   UNL     1      74.311  40.411   6.840  1.00  0.00     0.066 A 
ATOM     44  C   UNL     1      73.931  39.802   4.131  1.00  0.00     0.162 A 
ATOM     45  C   UNL     1      74.401  39.083   6.413  1.00  0.00     0.162 A 
ATOM     46  C   UNL     1      74.199  38.769   5.043  1.00  0.00     0.200 A 
BRANCH  44  47
ATOM     47  O   UNL     1      73.756  39.510   2.777  1.00  0.00    -0.504 OA
ATOM     48  H   UNL     1      73.829  38.560   2.422  1.00  0.00     0.293 HD
ENDBRANCH  44  47
BRANCH  45  49
ATOM     49  O   UNL     1      74.686  38.113   7.374  1.00  0.00    -0.504 OA
ATOM     50  H   UNL     1      74.451  37.136   7.280  1.00  0.00     0.293 HD
ENDBRANCH  45  49
BRANCH  46  51
ATOM     51  O   UNL     1      74.251  37.462   4.550  1.00  0.00    -0.502 OA
ATOM     52  H   UNL     1      74.932  36.775   4.853  1.00  0.00     0.293 HD
ENDBRANCH  46  51
ENDBRANCH  39  41
ENDBRANCH  38  39
ENDBRANCH   3  38
BRANCH   5  53
ATOM     53  O   UNL     1      71.297  46.882   8.436  1.00  0.00    -0.428 OA
BRANCH  53  54
ATOM     54  C   UNL     1      70.524  47.774   9.186  1.00  0.00     0.340 C 
ATOM     55  O   UNL     1      71.037  48.436  10.125  1.00  0.00    -0.246 OA
BRANCH  54  56
ATOM     56  C   UNL     1      69.098  47.941   8.863  1.00  0.00     0.067 A 
ATOM     57  C   UNL     1      68.277  48.764   9.644  1.00  0.00     0.066 A 
ATOM     58  C   UNL     1      68.553  47.282   7.755  1.00  0.00     0.066 A 
ATOM     59  C   UNL     1      66.931  48.962   9.313  1.00  0.00     0.162 A 
ATOM     60  C   UNL     1      67.207  47.442   7.424  1.00  0.00     0.162 A 
ATOM     61  C   UNL     1      66.383  48.296   8.187  1.00  0.00     0.200 A 
BRANCH  59  62
ATOM     62  O   UNL     1      66.187  49.827  10.122  1.00  0.00    -0.504 OA
ATOM     63  H   UNL     1      65.208  49.690  10.349  1.00  0.00     0.293 HD
ENDBRANCH  59  62
BRANCH  60  64
ATOM     64  O   UNL     1      66.703  46.735   6.331  1.00  0.00    -0.504 OA
ATOM     65  H   UNL     1      65.783  46.925   5.947  1.00  0.00     0.293 HD
ENDBRANCH  60  64
BRANCH  61  66
ATOM     66  O   UNL     1      65.045  48.460   7.800  1.00  0.00    -0.502 OA
ATOM     67  H   UNL     1      64.753  48.927   6.952  1.00  0.00     0.293 HD
ENDBRANCH  61  66
ENDBRANCH  54  56
ENDBRANCH  53  54
ENDBRANCH   5  53
BRANCH   4  68
ATOM     68  O   UNL     1      73.668  46.124   7.321  1.00  0.00    -0.448 OA
BRANCH  68  69
ATOM     69  C   UNL     1      73.636  46.398   5.951  1.00  0.00     0.339 C 
ATOM     70  O   UNL     1      74.478  45.864   5.175  1.00  0.00    -0.246 OA
BRANCH  69  71
ATOM     71  C   UNL     1      72.618  47.327   5.418  1.00  0.00     0.067 A 
ATOM     72  C   UNL     1      72.019  48.289   6.241  1.00  0.00     0.066 A 
ATOM     73  C   UNL     1      72.241  47.262   4.066  1.00  0.00     0.066 A 
ATOM     74  C   UNL     1      71.069  49.184   5.726  1.00  0.00     0.162 A 
ATOM     75  C   UNL     1      71.299  48.151   3.542  1.00  0.00     0.162 A 
ATOM     76  C   UNL     1      70.709  49.118   4.370  1.00  0.00     0.200 A 
BRANCH  74  77
ATOM     77  O   UNL     1      70.490  50.146   6.554  1.00  0.00    -0.504 OA
ATOM     78  H   UNL     1      70.698  51.133   6.446  1.00  0.00     0.293 HD
ENDBRANCH  74  77
BRANCH  75  79
ATOM     79  O   UNL     1      70.962  48.062   2.190  1.00  0.00    -0.504 OA
ATOM     80  H   UNL     1      71.597  47.687   1.498  1.00  0.00     0.293 HD
ENDBRANCH  75  79
BRANCH  76  81
ATOM     81  O   UNL     1      69.768  50.002   3.838  1.00  0.00    -0.502 OA
ATOM     82  H   UNL     1      69.012  50.384   4.386  1.00  0.00     0.293 HD
ENDBRANCH  76  81
ENDBRANCH  69  71
ENDBRANCH  68  69
ENDBRANCH   4  68
TORSDOF 31
ENDMDL
MODEL 2
REMARK VINA RESULT:    -6.096      1.408      2.417
REMARK INTER + INTRA:         -17.133
REMARK INTER:                 -15.785
REMARK INTRA:                  -1.348
REMARK UNBOUND:                -2.663
REMARK SMILES O=C(OC[C@H]1O[C@H](OC(=O)c2cc(O)c(O)c(O)c2)[C@H](OC(=O)c2cc(O)c(O)c(O)c2)[C@@H](OC(=O)c2cc(O)c(O)c(O)c2)[C@H]1OC(=O)c1cc(O)c(O)c(O)c1)c1cc(O)c(O)c(O)c1
REMARK SMILES IDX 5 1 46 2 33 3 20 4 7 5 6 6 4 7 3 8 2 9 1 10 59 11 60 12
REMARK SMILES IDX 61 13 67 14 63 15 65 16 62 17 64 19 66 21 47 23 48 24 49 25
REMARK SMILES IDX 50 26 58 27 51 28 56 29 52 30 54 31 57 32 53 34 55 36 34 38
REMARK SMILES IDX 35 39 36 40 37 41 45 42 38 43 43 44 39 45 41 46 44 47 40 49
REMARK SMILES IDX 42 51 8 53 9 54 10 55 11 56 19 57 12 58 17 59 13 60 15 61
REMARK SMILES IDX 18 62 14 64 16 66 21 68 22 69 23 70 24 71 32 72 25 73 30 74
REMARK SMILES IDX 26 75 28 76 31 77 27 79 29 81
REMARK H PARENT 62 18 64 20 66 22 57 33 53 35 55 37 44 48 40 50 42 52 18 63
REMARK H PARENT 14 65 16 67 31 78 27 80 29 82
REMARK Flexibility Score: inf
ROOT
ATOM      1  C   UNL     1      70.644  45.123   8.488  1.00  0.00     0.205 C 
ATOM      2  C   UNL     1      70.853  44.050   7.403  1.00  0.00     0.254 C 
ATOM      3  C   UNL     1      71.413  44.755   6.163  1.00  0.00     0.267 C 
ATOM      4  C   UNL     1      72.716  45.489   6.530  1.00  0.00     0.290 C 
ATOM      5  C   UNL     1      72.468  46.407   7.749  1.00  0.00     0.357 C 
ATOM      6  O   UNL     1      71.890  45.706   8.843  1.00  0.00    -0.329 OA
ENDROOT
BRANCH   1   7
ATOM      7  C   UNL     1      69.974  44.554   9.752  1.00  0.00     0.269 C 
BRANCH   7   8
ATOM      8  O   UNL     1      68.561  44.698   9.646  1.00  0.00    -0.459 OA
BRANCH   8   9
ATOM      9  C   UNL     1      67.684  43.613   9.787  1.00  0.00     0.338 C 
ATOM     10  O   UNL     1      68.142  42.436   9.846  1.00  0.00    -0.246 OA
BRANCH   9  11
ATOM     11  C   UNL     1      66.225  43.845   9.831  1.00  0.00     0.067 A 
ATOM     12  C   UNL     1      65.341  42.764   9.948  1.00  0.00     0.066 A 
ATOM     13  C   UNL     1      63.959  42.963   9.939  1.00  0.00     0.162 A 
ATOM     14  C   UNL     1      65.705  45.150   9.712  1.00  0.00     0.066 A 
ATOM     15  C   UNL     1      63.438  44.269   9.782  1.00  0.00     0.200 A 
ATOM     16  C   UNL     1      64.322  45.358   9.676  1.00  0.00     0.162 A 
BRANCH  13  17
ATOM     17  O   UNL     1      63.143  41.841  10.099  1.00  0.00    -0.504 OA
ATOM     18  H   UNL     1      62.183  41.803   9.803  1.00  0.00     0.293 HD
ENDBRANCH  13  17
BRANCH  15  19
ATOM     19  O   UNL     1      62.063  44.517   9.723  1.00  0.00    -0.502 OA
ATOM     20  H   UNL     1      61.494  44.386   8.901  1.00  0.00     0.293 HD
ENDBRANCH  15  19
BRANCH  16  21
ATOM     21  O   UNL     1      63.846  46.661   9.529  1.00  0.00    -0.504 OA
ATOM     22  H   UNL     1      62.979  46.865   9.047  1.00  0.00     0.293 HD
ENDBRANCH  16  21
ENDBRANCH   9  11
ENDBRANCH   8   9
ENDBRANCH   7   8
ENDBRANCH   1   7
BRANCH   2  23
ATOM     23  O   UNL     1      71.795  43.073   7.847  1.00  0.00    -0.452 OA
BRANCH  23  24
ATOM     24  C   UNL     1      71.630  42.283   8.994  1.00  0.00     0.338 C 
ATOM     25  O   UNL     1      71.912  42.755  10.125  1.00  0.00    -0.246 OA
BRANCH  24  26
ATOM     26  C   UNL     1      71.106  40.906   8.861  1.00  0.00     0.067 A 
ATOM     27  C   UNL     1      71.741  39.827   9.505  1.00  0.00     0.066 A 
ATOM     28  C   UNL     1      69.995  40.652   8.040  1.00  0.00     0.066 A 
ATOM     29  C   UNL     1      71.280  38.513   9.319  1.00  0.00     0.162 A 
ATOM     30  C   UNL     1      69.527  39.346   7.861  1.00  0.00     0.162 A 
ATOM     31  C   UNL     1      70.167  38.272   8.496  1.00  0.00     0.200 A 
BRANCH  29  32
ATOM     32  O   UNL     1      71.927  37.449   9.942  1.00  0.00    -0.504 OA
ATOM     33  H   UNL     1      71.515  36.971  10.735  1.00  0.00     0.293 HD
ENDBRANCH  29  32
BRANCH  30  34
ATOM     34  O   UNL     1      68.423  39.135   7.037  1.00  0.00    -0.504 OA
ATOM     35  H   UNL     1      67.526  38.832   7.404  1.00  0.00     0.293 HD
ENDBRANCH  30  34
BRANCH  31  36
ATOM     36  O   UNL     1      69.691  36.978   8.294  1.00  0.00    -0.502 OA
ATOM     37  H   UNL     1      69.370  36.655   7.391  1.00  0.00     0.293 HD
ENDBRANCH  31  36
ENDBRANCH  24  26
ENDBRANCH  23  24
ENDBRANCH   2  23
BRANCH   3  38
ATOM     38  O   UNL     1      71.629  43.814   5.111  1.00  0.00    -0.450 OA
BRANCH  38  39
ATOM     39  C   UNL     1      72.552  42.764   5.214  1.00  0.00     0.338 C 
ATOM     40  O   UNL     1      73.768  43.013   5.440  1.00  0.00    -0.246 OA
BRANCH  39  41
ATOM     41  C   UNL     1      72.101  41.361   5.079  1.00  0.00     0.067 A 
ATOM     42  C   UNL     1      70.809  41.073   4.607  1.00  0.00     0.066 A 
ATOM     43  C   UNL     1      72.960  40.304   5.417  1.00  0.00     0.066 A 
ATOM     44  C   UNL     1      70.378  39.750   4.480  1.00  0.00     0.162 A 
ATOM     45  C   UNL     1      72.540  38.975   5.298  1.00  0.00     0.162 A 
ATOM     46  C   UNL     1      71.230  38.691   4.833  1.00  0.00     0.200 A 
BRANCH  44  47
ATOM     47  O   UNL     1      69.095  39.483   3.996  1.00  0.00    -0.504 OA
ATOM     48  H   UNL     1      68.545  38.702   4.346  1.00  0.00     0.293 HD
ENDBRANCH  44  47
BRANCH  45  49
ATOM     49  O   UNL     1      73.448  37.977   5.652  1.00  0.00    -0.504 OA
ATOM     50  H   UNL     1      73.951  37.407   4.988  1.00  0.00     0.293 HD
ENDBRANCH  45  49
BRANCH  46  51
ATOM     51  O   UNL     1      70.736  37.389   4.710  1.00  0.00    -0.502 OA
ATOM     52  H   UNL     1      70.611  36.760   5.495  1.00  0.00     0.293 HD
ENDBRANCH  46  51
ENDBRANCH  39  41
ENDBRANCH  38  39
ENDBRANCH   3  38
BRANCH   5  53
ATOM     53  O   UNL     1      71.661  47.524   7.376  1.00  0.00    -0.428 OA
BRANCH  53  54
ATOM     54  C   UNL     1      71.026  48.357   8.304  1.00  0.00     0.340 C 
ATOM     55  O   UNL     1      71.699  49.038   9.120  1.00  0.00    -0.246 OA
BRANCH  54  56
ATOM     56  C   UNL     1      69.557  48.437   8.314  1.00  0.00     0.067 A 
ATOM     57  C   UNL     1      68.789  47.646   7.451  1.00  0.00     0.066 A 
ATOM     58  C   UNL     1      68.912  49.303   9.205  1.00  0.00     0.066 A 
ATOM     59  C   UNL     1      67.390  47.685   7.490  1.00  0.00     0.162 A 
ATOM     60  C   UNL     1      67.519  49.380   9.241  1.00  0.00     0.162 A 
ATOM     61  C   UNL     1      66.741  48.561   8.397  1.00  0.00     0.200 A 
BRANCH  59  62
ATOM     62  O   UNL     1      66.696  46.838   6.620  1.00  0.00    -0.504 OA
ATOM     63  H   UNL     1      65.787  46.436   6.824  1.00  0.00     0.293 HD
ENDBRANCH  59  62
BRANCH  60  64
ATOM     64  O   UNL     1      66.926  50.285  10.121  1.00  0.00    -0.504 OA
ATOM     65  H   UNL     1      65.942  50.527  10.060  1.00  0.00     0.293 HD
ENDBRANCH  60  64
BRANCH  61  66
ATOM     66  O   UNL     1      65.343  48.639   8.489  1.00  0.00    -0.502 OA
ATOM     67  H   UNL     1      64.723  48.670   7.691  1.00  0.00     0.293 HD
ENDBRANCH  61  66
ENDBRANCH  54  56
ENDBRANCH  53  54
ENDBRANCH   5  53
BRANCH   4  68
ATOM     68  O   UNL     1      73.144  46.304   5.440  1.00  0.00    -0.448 OA
BRANCH  68  69
ATOM     69  C   UNL     1      72.463  46.413   4.224  1.00  0.00     0.339 C 
ATOM     70  O   UNL     1      72.506  45.471   3.384  1.00  0.00    -0.246 OA
BRANCH  69  71
ATOM     71  C   UNL     1      71.705  47.645   3.923  1.00  0.00     0.067 A 
ATOM     72  C   UNL     1      71.360  47.975   2.606  1.00  0.00     0.066 A 
ATOM     73  C   UNL     1      71.310  48.503   4.962  1.00  0.00     0.066 A 
ATOM     74  C   UNL     1      70.621  49.134   2.326  1.00  0.00     0.162 A 
ATOM     75  C   UNL     1      70.571  49.659   4.695  1.00  0.00     0.162 A 
ATOM     76  C   UNL     1      70.221  49.979   3.375  1.00  0.00     0.200 A 
BRANCH  74  77
ATOM     77  O   UNL     1      70.272  49.444   1.011  1.00  0.00    -0.504 OA
ATOM     78  H   UNL     1      70.862  50.032   0.431  1.00  0.00     0.293 HD
ENDBRANCH  74  77
BRANCH  75  79
ATOM     79  O   UNL     1      70.187  50.479   5.758  1.00  0.00    -0.504 OA
ATOM     80  H   UNL     1      70.474  51.445   5.825  1.00  0.00     0.293 HD
ENDBRANCH  75  79
BRANCH  76  81
ATOM     81  O   UNL     1      69.482  51.135   3.116  1.00  0.00    -0.502 OA
ATOM     82  H   UNL     1      68.529  51.251   3.427  1.00  0.00     0.293 HD
ENDBRANCH  76  81
ENDBRANCH  69  71
ENDBRANCH  68  69
ENDBRANCH   4  68
TORSDOF 31
ENDMDL
MODEL 3
REMARK VINA RESULT:    -5.855      3.056     10.139
REMARK INTER + INTRA:         -16.560
REMARK INTER:                 -12.874
REMARK INTRA:                  -3.687
REMARK UNBOUND:                -2.663
REMARK SMILES O=C(OC[C@H]1O[C@H](OC(=O)c2cc(O)c(O)c(O)c2)[C@H](OC(=O)c2cc(O)c(O)c(O)c2)[C@@H](OC(=O)c2cc(O)c(O)c(O)c2)[C@H]1OC(=O)c1cc(O)c(O)c(O)c1)c1cc(O)c(O)c(O)c1
REMARK SMILES IDX 5 1 46 2 33 3 20 4 7 5 6 6 4 7 3 8 2 9 1 10 59 11 60 12
REMARK SMILES IDX 61 13 67 14 63 15 65 16 62 17 64 19 66 21 47 23 48 24 49 25
REMARK SMILES IDX 50 26 58 27 51 28 56 29 52 30 54 31 57 32 53 34 55 36 34 38
REMARK SMILES IDX 35 39 36 40 37 41 45 42 38 43 43 44 39 45 41 46 44 47 40 49
REMARK SMILES IDX 42 51 8 53 9 54 10 55 11 56 19 57 12 58 17 59 13 60 15 61
REMARK SMILES IDX 18 62 14 64 16 66 21 68 22 69 23 70 24 71 32 72 25 73 30 74
REMARK SMILES IDX 26 75 28 76 31 77 27 79 29 81
REMARK H PARENT 62 18 64 20 66 22 57 33 53 35 55 37 44 48 40 50 42 52 18 63
REMARK H PARENT 14 65 16 67 31 78 27 80 29 82
REMARK Flexibility Score: inf
ROOT
ATOM      1  C   UNL     1      72.325  44.801   4.165  1.00  0.00     0.205 C 
ATOM      2  C   UNL     1      72.204  45.699   5.409  1.00  0.00     0.254 C 
ATOM      3  C   UNL     1      72.195  44.783   6.638  1.00  0.00     0.267 C 
ATOM      4  C   UNL     1      73.471  43.921   6.649  1.00  0.00     0.290 C 
ATOM      5  C   UNL     1      73.619  43.196   5.292  1.00  0.00     0.357 C 
ATOM      6  O   UNL     1      73.558  44.095   4.191  1.00  0.00    -0.329 OA
ENDROOT
BRANCH   1   7
ATOM      7  C   UNL     1      72.229  45.602   2.853  1.00  0.00     0.269 C 
BRANCH   7   8
ATOM      8  O   UNL     1      72.244  44.706   1.747  1.00  0.00    -0.459 OA
BRANCH   8   9
ATOM      9  C   UNL     1      71.574  44.983   0.548  1.00  0.00     0.338 C 
ATOM     10  O   UNL     1      70.417  45.493   0.576  1.00  0.00    -0.246 OA
BRANCH   9  11
ATOM     11  C   UNL     1      72.205  44.647  -0.745  1.00  0.00     0.067 A 
ATOM     12  C   UNL     1      73.130  45.523  -1.328  1.00  0.00     0.066 A 
ATOM     13  C   UNL     1      73.696  45.245  -2.574  1.00  0.00     0.162 A 
ATOM     14  C   UNL     1      71.850  43.465  -1.427  1.00  0.00     0.066 A 
ATOM     15  C   UNL     1      73.312  44.077  -3.275  1.00  0.00     0.200 A 
ATOM     16  C   UNL     1      72.391  43.189  -2.688  1.00  0.00     0.162 A 
BRANCH  13  17
ATOM     17  O   UNL     1      74.639  46.145  -3.072  1.00  0.00    -0.504 OA
ATOM     18  H   UNL     1      74.524  47.143  -3.048  1.00  0.00     0.293 HD
ENDBRANCH  13  17
BRANCH  15  19
ATOM     19  O   UNL     1      73.815  43.774  -4.544  1.00  0.00    -0.502 OA
ATOM     20  H   UNL     1      73.250  43.669  -5.372  1.00  0.00     0.293 HD
ENDBRANCH  15  19
BRANCH  16  21
ATOM     21  O   UNL     1      71.996  42.023  -3.344  1.00  0.00    -0.504 OA
ATOM     22  H   UNL     1      71.313  42.033  -4.091  1.00  0.00     0.293 HD
ENDBRANCH  16  21
ENDBRANCH   9  11
ENDBRANCH   8   9
ENDBRANCH   7   8
ENDBRANCH   1   7
BRANCH   2  23
ATOM     23  O   UNL     1      73.324  46.580   5.495  1.00  0.00    -0.452 OA
BRANCH  23  24
ATOM     24  C   UNL     1      73.418  47.804   4.819  1.00  0.00     0.338 C 
ATOM     25  O   UNL     1      74.549  48.296   4.569  1.00  0.00    -0.246 OA
BRANCH  24  26
ATOM     26  C   UNL     1      72.183  48.496   4.388  1.00  0.00     0.067 A 
ATOM     27  C   UNL     1      71.969  48.813   3.034  1.00  0.00     0.066 A 
ATOM     28  C   UNL     1      71.231  48.893   5.341  1.00  0.00     0.066 A 
ATOM     29  C   UNL     1      70.827  49.530   2.640  1.00  0.00     0.162 A 
ATOM     30  C   UNL     1      70.087  49.598   4.952  1.00  0.00     0.162 A 
ATOM     31  C   UNL     1      69.881  49.922   3.603  1.00  0.00     0.200 A 
BRANCH  29  32
ATOM     32  O   UNL     1      70.633  49.860   1.301  1.00  0.00    -0.504 OA
ATOM     33  H   UNL     1      70.360  49.162   0.619  1.00  0.00     0.293 HD
ENDBRANCH  29  32
BRANCH  30  34
ATOM     34  O   UNL     1      69.167  49.977   5.927  1.00  0.00    -0.504 OA
ATOM     35  H   UNL     1      69.395  50.651   6.651  1.00  0.00     0.293 HD
ENDBRANCH  30  34
BRANCH  31  36
ATOM     36  O   UNL     1      68.741  50.635   3.239  1.00  0.00    -0.502 OA
ATOM     37  H   UNL     1      68.351  50.595   2.307  1.00  0.00     0.293 HD
ENDBRANCH  31  36
ENDBRANCH  24  26
ENDBRANCH  23  24
ENDBRANCH   2  23
BRANCH   3  38
ATOM     38  O   UNL     1      72.081  45.554   7.833  1.00  0.00    -0.450 OA
BRANCH  38  39
ATOM     39  C   UNL     1      71.126  46.569   7.990  1.00  0.00     0.338 C 
ATOM     40  O   UNL     1      71.492  47.773   8.074  1.00  0.00    -0.246 OA
BRANCH  39  41
ATOM     41  C   UNL     1      69.686  46.234   8.035  1.00  0.00     0.067 A 
ATOM     42  C   UNL     1      68.758  46.984   7.291  1.00  0.00     0.066 A 
ATOM     43  C   UNL     1      69.231  45.160   8.817  1.00  0.00     0.066 A 
ATOM     44  C   UNL     1      67.397  46.671   7.331  1.00  0.00     0.162 A 
ATOM     45  C   UNL     1      67.870  44.840   8.869  1.00  0.00     0.162 A 
ATOM     46  C   UNL     1      66.938  45.609   8.126  1.00  0.00     0.200 A 
BRANCH  44  47
ATOM     47  O   UNL     1      66.493  47.420   6.575  1.00  0.00    -0.504 OA
ATOM     48  H   UNL     1      66.780  47.912   5.733  1.00  0.00     0.293 HD
ENDBRANCH  44  47
BRANCH  45  49
ATOM     49  O   UNL     1      67.492  43.761   9.668  1.00  0.00    -0.504 OA
ATOM     50  H   UNL     1      66.970  43.849  10.528  1.00  0.00     0.293 HD
ENDBRANCH  45  49
BRANCH  46  51
ATOM     51  O   UNL     1      65.562  45.360   8.149  1.00  0.00    -0.502 OA
ATOM     52  H   UNL     1      64.968  45.411   7.329  1.00  0.00     0.293 HD
ENDBRANCH  46  51
ENDBRANCH  39  41
ENDBRANCH  38  39
ENDBRANCH   3  38
BRANCH   5  53
ATOM     53  O   UNL     1      72.638  42.168   5.166  1.00  0.00    -0.428 OA
BRANCH  53  54
ATOM     54  C   UNL     1      72.957  40.826   4.927  1.00  0.00     0.340 C 
ATOM     55  O   UNL     1      74.050  40.512   4.391  1.00  0.00    -0.246 OA
BRANCH  54  56
ATOM     56  C   UNL     1      72.001  39.778   5.317  1.00  0.00     0.067 A 
ATOM     57  C   UNL     1      72.361  38.784   6.235  1.00  0.00     0.066 A 
ATOM     58  C   UNL     1      70.709  39.777   4.777  1.00  0.00     0.066 A 
ATOM     59  C   UNL     1      71.439  37.812   6.644  1.00  0.00     0.162 A 
ATOM     60  C   UNL     1      69.784  38.801   5.148  1.00  0.00     0.162 A 
ATOM     61  C   UNL     1      70.130  37.817   6.097  1.00  0.00     0.200 A 
BRANCH  59  62
ATOM     62  O   UNL     1      71.867  36.875   7.590  1.00  0.00    -0.504 OA
ATOM     63  H   UNL     1      72.840  36.659   7.774  1.00  0.00     0.293 HD
ENDBRANCH  59  62
BRANCH  60  64
ATOM     64  O   UNL     1      68.521  38.822   4.555  1.00  0.00    -0.504 OA
ATOM     65  H   UNL     1      68.013  39.687   4.404  1.00  0.00     0.293 HD
ENDBRANCH  60  64
BRANCH  61  66
ATOM     66  O   UNL     1      69.161  36.875   6.473  1.00  0.00    -0.502 OA
ATOM     67  H   UNL     1      68.929  36.651   7.431  1.00  0.00     0.293 HD
ENDBRANCH  61  66
ENDBRANCH  54  56
ENDBRANCH  53  54
ENDBRANCH   5  53
BRANCH   4  68
ATOM     68  O   UNL     1      73.388  42.933   7.674  1.00  0.00    -0.448 OA
BRANCH  68  69
ATOM     69  C   UNL     1      72.413  42.919   8.676  1.00  0.00     0.339 C 
ATOM     70  O   UNL     1      72.428  43.791   9.590  1.00  0.00    -0.246 OA
BRANCH  69  71
ATOM     71  C   UNL     1      71.374  41.869   8.667  1.00  0.00     0.067 A 
ATOM     72  C   UNL     1      71.545  40.679   9.386  1.00  0.00     0.066 A 
ATOM     73  C   UNL     1      70.189  42.054   7.936  1.00  0.00     0.066 A 
ATOM     74  C   UNL     1      70.547  39.694   9.393  1.00  0.00     0.162 A 
ATOM     75  C   UNL     1      69.186  41.080   7.938  1.00  0.00     0.162 A 
ATOM     76  C   UNL     1      69.360  39.895   8.668  1.00  0.00     0.200 A 
BRANCH  74  77
ATOM     77  O   UNL     1      70.724  38.519  10.124  1.00  0.00    -0.504 OA
ATOM     78  H   UNL     1      70.284  38.386  11.029  1.00  0.00     0.293 HD
ENDBRANCH  74  77
BRANCH  75  79
ATOM     79  O   UNL     1      68.018  41.310   7.210  1.00  0.00    -0.504 OA
ATOM     80  H   UNL     1      67.965  41.159   6.211  1.00  0.00     0.293 HD
ENDBRANCH  75  79
BRANCH  76  81
ATOM     81  O   UNL     1      68.354  38.927   8.665  1.00  0.00    -0.502 OA
ATOM     82  H   UNL     1      67.821  38.696   9.490  1.00  0.00     0.293 HD
ENDBRANCH  76  81
ENDBRANCH  69  71
ENDBRANCH  68  69
ENDBRANCH   4  68
TORSDOF 31
ENDMDL
MODEL 4
REMARK VINA RESULT:    -5.775      1.368      2.312
REMARK INTER + INTRA:         -16.370
REMARK INTER:                 -15.300
REMARK INTRA:                  -1.070
REMARK UNBOUND:                -2.663
REMARK SMILES O=C(OC[C@H]1O[C@H](OC(=O)c2cc(O)c(O)c(O)c2)[C@H](OC(=O)c2cc(O)c(O)c(O)c2)[C@@H](OC(=O)c2cc(O)c(O)c(O)c2)[C@H]1OC(=O)c1cc(O)c(O)c(O)c1)c1cc(O)c(O)c(O)c1
REMARK SMILES IDX 5 1 46 2 33 3 20 4 7 5 6 6 4 7 3 8 2 9 1 10 59 11 60 12
REMARK SMILES IDX 61 13 67 14 63 15 65 16 62 17 64 19 66 21 47 23 48 24 49 25
REMARK SMILES IDX 50 26 58 27 51 28 56 29 52 30 54 31 57 32 53 34 55 36 34 38
REMARK SMILES IDX 35 39 36 40 37 41 45 42 38 43 43 44 39 45 41 46 44 47 40 49
REMARK SMILES IDX 42 51 8 53 9 54 10 55 11 56 19 57 12 58 17 59 13 60 15 61
REMARK SMILES IDX 18 62 14 64 16 66 21 68 22 69 23 70 24 71 32 72 25 73 30 74
REMARK SMILES IDX 26 75 28 76 31 77 27 79 29 81
REMARK H PARENT 62 18 64 20 66 22 57 33 53 35 55 37 44 48 40 50 42 52 18 63
REMARK H PARENT 14 65 16 67 31 78 27 80 29 82
REMARK Flexibility Score: inf
ROOT
ATOM      1  C   UNL     1      70.951  44.598   8.600  1.00  0.00     0.205 C 
ATOM      2  C   UNL     1      71.208  43.670   7.399  1.00  0.00     0.254 C 
ATOM      3  C   UNL     1      71.674  44.548   6.232  1.00  0.00     0.267 C 
ATOM      4  C   UNL     1      72.927  45.339   6.649  1.00  0.00     0.290 C 
ATOM      5  C   UNL     1      72.647  46.097   7.968  1.00  0.00     0.357 C 
ATOM      6  O   UNL     1      72.159  45.237   8.990  1.00  0.00    -0.329 OA
ENDROOT
BRANCH   1   7
ATOM      7  C   UNL     1      70.365  43.843   9.808  1.00  0.00     0.269 C 
BRANCH   7   8
ATOM      8  O   UNL     1      69.010  44.235  10.001  1.00  0.00    -0.459 OA
BRANCH   8   9
ATOM      9  C   UNL     1      67.941  43.341   9.845  1.00  0.00     0.338 C 
ATOM     10  O   UNL     1      68.158  42.095   9.837  1.00  0.00    -0.246 OA
BRANCH   9  11
ATOM     11  C   UNL     1      66.569  43.857   9.657  1.00  0.00     0.067 A 
ATOM     12  C   UNL     1      66.268  45.191   9.962  1.00  0.00     0.066 A 
ATOM     13  C   UNL     1      64.965  45.678   9.839  1.00  0.00     0.162 A 
ATOM     14  C   UNL     1      65.540  43.002   9.211  1.00  0.00     0.066 A 
ATOM     15  C   UNL     1      63.926  44.810   9.427  1.00  0.00     0.200 A 
ATOM     16  C   UNL     1      64.227  43.473   9.109  1.00  0.00     0.162 A 
BRANCH  13  17
ATOM     17  O   UNL     1      64.750  47.028  10.123  1.00  0.00    -0.504 OA
ATOM     18  H   UNL     1      65.491  47.696  10.248  1.00  0.00     0.293 HD
ENDBRANCH  13  17
BRANCH  15  19
ATOM     19  O   UNL     1      62.598  45.237   9.329  1.00  0.00    -0.502 OA
ATOM     20  H   UNL     1      61.797  44.625   9.364  1.00  0.00     0.293 HD
ENDBRANCH  15  19
BRANCH  16  21
ATOM     21  O   UNL     1      63.231  42.590   8.690  1.00  0.00    -0.504 OA
ATOM     22  H   UNL     1      62.250  42.838   8.713  1.00  0.00     0.293 HD
ENDBRANCH  16  21
ENDBRANCH   9  11
ENDBRANCH   8   9
ENDBRANCH   7   8
ENDBRANCH   1   7
BRANCH   2  23
ATOM     23  O   UNL     1      72.235  42.728   7.711  1.00  0.00    -0.452 OA
BRANCH  23  24
ATOM     24  C   UNL     1      72.221  41.890   8.834  1.00  0.00     0.338 C 
ATOM     25  O   UNL     1      72.757  42.271   9.906  1.00  0.00    -0.246 OA
BRANCH  24  26
ATOM     26  C   UNL     1      71.556  40.571   8.750  1.00  0.00     0.067 A 
ATOM     27  C   UNL     1      72.215  39.466   8.180  1.00  0.00     0.066 A 
ATOM     28  C   UNL     1      70.231  40.421   9.192  1.00  0.00     0.066 A 
ATOM     29  C   UNL     1      71.555  38.234   8.041  1.00  0.00     0.162 A 
ATOM     30  C   UNL     1      69.573  39.194   9.065  1.00  0.00     0.162 A 
ATOM     31  C   UNL     1      70.230  38.097   8.487  1.00  0.00     0.200 A 
BRANCH  29  32
ATOM     32  O   UNL     1      72.206  37.151   7.456  1.00  0.00    -0.504 OA
ATOM     33  H   UNL     1      71.791  36.634   6.689  1.00  0.00     0.293 HD
ENDBRANCH  29  32
BRANCH  30  34
ATOM     34  O   UNL     1      68.259  39.086   9.513  1.00  0.00    -0.504 OA
ATOM     35  H   UNL     1      67.651  39.895   9.600  1.00  0.00     0.293 HD
ENDBRANCH  30  34
BRANCH  31  36
ATOM     36  O   UNL     1      69.551  36.886   8.359  1.00  0.00    -0.502 OA
ATOM     37  H   UNL     1      69.444  36.417   7.470  1.00  0.00     0.293 HD
ENDBRANCH  31  36
ENDBRANCH  24  26
ENDBRANCH  23  24
ENDBRANCH   2  23
BRANCH   3  38
ATOM     38  O   UNL     1      71.928  43.747   5.078  1.00  0.00    -0.450 OA
BRANCH  38  39
ATOM     39  C   UNL     1      72.794  42.645   5.099  1.00  0.00     0.338 C 
ATOM     40  O   UNL     1      74.036  42.820   5.240  1.00  0.00    -0.246 OA
BRANCH  39  41
ATOM     41  C   UNL     1      72.254  41.273   4.979  1.00  0.00     0.067 A 
ATOM     42  C   UNL     1      73.107  40.198   4.671  1.00  0.00     0.066 A 
ATOM     43  C   UNL     1      70.885  41.028   5.174  1.00  0.00     0.066 A 
ATOM     44  C   UNL     1      72.601  38.901   4.555  1.00  0.00     0.162 A 
ATOM     45  C   UNL     1      70.366  39.735   5.057  1.00  0.00     0.162 A 
ATOM     46  C   UNL     1      71.230  38.657   4.734  1.00  0.00     0.200 A 
BRANCH  44  47
ATOM     47  O   UNL     1      73.466  37.844   4.262  1.00  0.00    -0.504 OA
ATOM     48  H   UNL     1      74.092  37.874   3.461  1.00  0.00     0.293 HD
ENDBRANCH  44  47
BRANCH  45  49
ATOM     49  O   UNL     1      68.997  39.569   5.264  1.00  0.00    -0.504 OA
ATOM     50  H   UNL     1      68.559  38.683   5.472  1.00  0.00     0.293 HD
ENDBRANCH  45  49
BRANCH  46  51
ATOM     51  O   UNL     1      70.776  37.344   4.578  1.00  0.00    -0.502 OA
ATOM     52  H   UNL     1      70.080  37.067   3.895  1.00  0.00     0.293 HD
ENDBRANCH  46  51
ENDBRANCH  39  41
ENDBRANCH  38  39
ENDBRANCH   3  38
BRANCH   5  53
ATOM     53  O   UNL     1      71.746  47.179   7.739  1.00  0.00    -0.428 OA
BRANCH  53  54
ATOM     54  C   UNL     1      71.039  47.820   8.763  1.00  0.00     0.340 C 
ATOM     55  O   UNL     1      71.631  48.220   9.798  1.00  0.00    -0.246 OA
BRANCH  54  56
ATOM     56  C   UNL     1      69.590  48.031   8.616  1.00  0.00     0.067 A 
ATOM     57  C   UNL     1      68.932  49.027   9.349  1.00  0.00     0.066 A 
ATOM     58  C   UNL     1      68.857  47.240   7.724  1.00  0.00     0.066 A 
ATOM     59  C   UNL     1      67.562  49.262   9.178  1.00  0.00     0.162 A 
ATOM     60  C   UNL     1      67.486  47.437   7.559  1.00  0.00     0.162 A 
ATOM     61  C   UNL     1      66.824  48.460   8.270  1.00  0.00     0.200 A 
BRANCH  59  62
ATOM     62  O   UNL     1      66.987  50.297   9.921  1.00  0.00    -0.504 OA
ATOM     63  H   UNL     1      66.224  50.877   9.590  1.00  0.00     0.293 HD
ENDBRANCH  59  62
BRANCH  60  64
ATOM     64  O   UNL     1      66.794  46.598   6.685  1.00  0.00    -0.504 OA
ATOM     65  H   UNL     1      66.571  46.878   5.736  1.00  0.00     0.293 HD
ENDBRANCH  60  64
BRANCH  61  66
ATOM     66  O   UNL     1      65.452  48.652   8.049  1.00  0.00    -0.502 OA
ATOM     67  H   UNL     1      64.866  49.252   8.612  1.00  0.00     0.293 HD
ENDBRANCH  61  66
ENDBRANCH  54  56
ENDBRANCH  53  54
ENDBRANCH   5  53
BRANCH   4  68
ATOM     68  O   UNL     1      73.258  46.299   5.647  1.00  0.00    -0.448 OA
BRANCH  68  69
ATOM     69  C   UNL     1      72.581  46.432   4.431  1.00  0.00     0.339 C 
ATOM     70  O   UNL     1      72.701  45.549   3.537  1.00  0.00    -0.246 OA
BRANCH  69  71
ATOM     71  C   UNL     1      71.737  47.622   4.195  1.00  0.00     0.067 A 
ATOM     72  C   UNL     1      71.104  48.279   5.257  1.00  0.00     0.066 A 
ATOM     73  C   UNL     1      71.565  48.117   2.892  1.00  0.00     0.066 A 
ATOM     74  C   UNL     1      70.321  49.421   5.031  1.00  0.00     0.162 A 
ATOM     75  C   UNL     1      70.790  49.256   2.655  1.00  0.00     0.162 A 
ATOM     76  C   UNL     1      70.165  49.915   3.725  1.00  0.00     0.200 A 
BRANCH  74  77
ATOM     77  O   UNL     1      69.707  50.074   6.100  1.00  0.00    -0.504 OA
ATOM     78  H   UNL     1      69.620  51.085   6.125  1.00  0.00     0.293 HD
ENDBRANCH  74  77
BRANCH  75  79
ATOM     79  O   UNL     1      70.654  49.723   1.347  1.00  0.00    -0.504 OA
ATOM     80  H   UNL     1      71.283  50.407   0.949  1.00  0.00     0.293 HD
ENDBRANCH  75  79
BRANCH  76  81
ATOM     81  O   UNL     1      69.393  51.052   3.480  1.00  0.00    -0.502 OA
ATOM     82  H   UNL     1      69.664  51.759   2.813  1.00  0.00     0.293 HD
ENDBRANCH  76  81
ENDBRANCH  69  71
ENDBRANCH  68  69
ENDBRANCH   4  68
TORSDOF 31
ENDMDL
MODEL 5
REMARK VINA RESULT:    -5.731      2.991      9.932
REMARK INTER + INTRA:         -16.267
REMARK INTER:                 -12.221
REMARK INTRA:                  -4.046
REMARK UNBOUND:                -2.663
REMARK SMILES O=C(OC[C@H]1O[C@H](OC(=O)c2cc(O)c(O)c(O)c2)[C@H](OC(=O)c2cc(O)c(O)c(O)c2)[C@@H](OC(=O)c2cc(O)c(O)c(O)c2)[C@H]1OC(=O)c1cc(O)c(O)c(O)c1)c1cc(O)c(O)c(O)c1
REMARK SMILES IDX 5 1 46 2 33 3 20 4 7 5 6 6 4 7 3 8 2 9 1 10 59 11 60 12
REMARK SMILES IDX 61 13 67 14 63 15 65 16 62 17 64 19 66 21 47 23 48 24 49 25
REMARK SMILES IDX 50 26 58 27 51 28 56 29 52 30 54 31 57 32 53 34 55 36 34 38
REMARK SMILES IDX 35 39 36 40 37 41 45 42 38 43 43 44 39 45 41 46 44 47 40 49
REMARK SMILES IDX 42 51 8 53 9 54 10 55 11 56 19 57 12 58 17 59 13 60 15 61
REMARK SMILES IDX 18 62 14 64 16 66 21 68 22 69 23 70 24 71 32 72 25 73 30 74
REMARK SMILES IDX 26 75 28 76 31 77 27 79 29 81
REMARK H PARENT 62 18 64 20 66 22 57 33 53 35 55 37 44 48 40 50 42 52 18 63
REMARK H PARENT 14 65 16 67 31 78 27 80 29 82
REMARK Flexibility Score: inf
ROOT
ATOM      1  C   UNL     1      72.397  44.829   4.232  1.00  0.00     0.205 C 
ATOM      2  C   UNL     1      72.442  45.731   5.479  1.00  0.00     0.254 C 
ATOM      3  C   UNL     1      72.544  44.817   6.705  1.00  0.00     0.267 C 
ATOM      4  C   UNL     1      73.787  43.917   6.577  1.00  0.00     0.290 C 
ATOM      5  C   UNL     1      73.761  43.187   5.215  1.00  0.00     0.357 C 
ATOM      6  O   UNL     1      73.603  44.086   4.124  1.00  0.00    -0.329 OA
ENDROOT
BRANCH   1   7
ATOM      7  C   UNL     1      72.179  45.631   2.936  1.00  0.00     0.269 C 
BRANCH   7   8
ATOM      8  O   UNL     1      72.063  44.735   1.836  1.00  0.00    -0.459 OA
BRANCH   8   9
ATOM      9  C   UNL     1      71.407  45.085   0.648  1.00  0.00     0.338 C 
ATOM     10  O   UNL     1      70.289  45.673   0.697  1.00  0.00    -0.246 OA
BRANCH   9  11
ATOM     11  C   UNL     1      72.006  44.737  -0.657  1.00  0.00     0.067 A 
ATOM     12  C   UNL     1      71.653  43.543  -1.300  1.00  0.00     0.066 A 
ATOM     13  C   UNL     1      72.249  43.175  -2.508  1.00  0.00     0.162 A 
ATOM     14  C   UNL     1      72.971  45.578  -1.247  1.00  0.00     0.066 A 
ATOM     15  C   UNL     1      73.244  44.002  -3.081  1.00  0.00     0.200 A 
ATOM     16  C   UNL     1      73.593  45.207  -2.444  1.00  0.00     0.162 A 
BRANCH  13  17
ATOM     17  O   UNL     1      71.818  41.991  -3.108  1.00  0.00    -0.504 OA
ATOM     18  H   UNL     1      71.660  41.136  -2.603  1.00  0.00     0.293 HD
ENDBRANCH  13  17
BRANCH  15  19
ATOM     19  O   UNL     1      73.902  43.658  -4.266  1.00  0.00    -0.502 OA
ATOM     20  H   UNL     1      73.652  42.878  -4.853  1.00  0.00     0.293 HD
ENDBRANCH  15  19
BRANCH  16  21
ATOM     21  O   UNL     1      74.562  46.053  -2.983  1.00  0.00    -0.504 OA
ATOM     22  H   UNL     1      74.534  46.356  -3.949  1.00  0.00     0.293 HD
ENDBRANCH  16  21
ENDBRANCH   9  11
ENDBRANCH   8   9
ENDBRANCH   7   8
ENDBRANCH   1   7
BRANCH   2  23
ATOM     23  O   UNL     1      73.592  46.579   5.435  1.00  0.00    -0.452 OA
BRANCH  23  24
ATOM     24  C   UNL     1      73.591  47.881   4.918  1.00  0.00     0.338 C 
ATOM     25  O   UNL     1      74.674  48.513   4.811  1.00  0.00    -0.246 OA
BRANCH  24  26
ATOM     26  C   UNL     1      72.315  48.494   4.487  1.00  0.00     0.067 A 
ATOM     27  C   UNL     1      71.369  48.931   5.432  1.00  0.00     0.066 A 
ATOM     28  C   UNL     1      72.010  48.594   3.119  1.00  0.00     0.066 A 
ATOM     29  C   UNL     1      70.130  49.448   5.016  1.00  0.00     0.162 A 
ATOM     30  C   UNL     1      70.782  49.117   2.701  1.00  0.00     0.162 A 
ATOM     31  C   UNL     1      69.837  49.544   3.646  1.00  0.00     0.200 A 
BRANCH  29  32
ATOM     32  O   UNL     1      69.190  49.859   5.958  1.00  0.00    -0.504 OA
ATOM     33  H   UNL     1      68.334  50.325   5.683  1.00  0.00     0.293 HD
ENDBRANCH  29  32
BRANCH  30  34
ATOM     34  O   UNL     1      70.516  49.198   1.336  1.00  0.00    -0.504 OA
ATOM     35  H   UNL     1      71.230  49.457   0.661  1.00  0.00     0.293 HD
ENDBRANCH  30  34
BRANCH  31  36
ATOM     36  O   UNL     1      68.616  50.051   3.207  1.00  0.00    -0.502 OA
ATOM     37  H   UNL     1      67.730  49.668   3.510  1.00  0.00     0.293 HD
ENDBRANCH  31  36
ENDBRANCH  24  26
ENDBRANCH  23  24
ENDBRANCH   2  23
BRANCH   3  38
ATOM     38  O   UNL     1      72.587  45.593   7.902  1.00  0.00    -0.450 OA
BRANCH  38  39
ATOM     39  C   UNL     1      71.656  46.603   8.181  1.00  0.00     0.338 C 
ATOM     40  O   UNL     1      72.050  47.782   8.398  1.00  0.00    -0.246 OA
BRANCH  39  41
ATOM     41  C   UNL     1      70.209  46.295   8.203  1.00  0.00     0.067 A 
ATOM     42  C   UNL     1      69.718  45.246   8.998  1.00  0.00     0.066 A 
ATOM     43  C   UNL     1      69.311  47.051   7.433  1.00  0.00     0.066 A 
ATOM     44  C   UNL     1      68.352  44.951   9.021  1.00  0.00     0.162 A 
ATOM     45  C   UNL     1      67.942  46.764   7.444  1.00  0.00     0.162 A 
ATOM     46  C   UNL     1      67.454  45.694   8.239  1.00  0.00     0.200 A 
BRANCH  44  47
ATOM     47  O   UNL     1      67.882  43.912   9.828  1.00  0.00    -0.504 OA
ATOM     48  H   UNL     1      67.487  44.089  10.749  1.00  0.00     0.293 HD
ENDBRANCH  44  47
BRANCH  45  49
ATOM     49  O   UNL     1      67.110  47.557   6.654  1.00  0.00    -0.504 OA
ATOM     50  H   UNL     1      66.104  47.475   6.632  1.00  0.00     0.293 HD
ENDBRANCH  45  49
BRANCH  46  51
ATOM     51  O   UNL     1      66.104  45.337   8.280  1.00  0.00    -0.502 OA
ATOM     52  H   UNL     1      65.344  46.006   8.228  1.00  0.00     0.293 HD
ENDBRANCH  46  51
ENDBRANCH  39  41
ENDBRANCH  38  39
ENDBRANCH   3  38
BRANCH   5  53
ATOM     53  O   UNL     1      72.742  42.188   5.204  1.00  0.00    -0.428 OA
BRANCH  53  54
ATOM     54  C   UNL     1      73.001  40.827   5.012  1.00  0.00     0.340 C 
ATOM     55  O   UNL     1      74.128  40.439   4.611  1.00  0.00    -0.246 OA
BRANCH  54  56
ATOM     56  C   UNL     1      71.941  39.845   5.290  1.00  0.00     0.067 A 
ATOM     57  C   UNL     1      72.157  38.789   6.185  1.00  0.00     0.066 A 
ATOM     58  C   UNL     1      70.694  39.969   4.666  1.00  0.00     0.066 A 
ATOM     59  C   UNL     1      71.136  37.880   6.487  1.00  0.00     0.162 A 
ATOM     60  C   UNL     1      69.672  39.057   4.930  1.00  0.00     0.162 A 
ATOM     61  C   UNL     1      69.873  38.012   5.856  1.00  0.00     0.200 A 
BRANCH  59  62
ATOM     62  O   UNL     1      71.422  36.875   7.418  1.00  0.00    -0.504 OA
ATOM     63  H   UNL     1      71.136  35.908   7.313  1.00  0.00     0.293 HD
ENDBRANCH  59  62
BRANCH  60  64
ATOM     64  O   UNL     1      68.460  39.203   4.255  1.00  0.00    -0.504 OA
ATOM     65  H   UNL     1      67.738  39.840   4.579  1.00  0.00     0.293 HD
ENDBRANCH  60  64
BRANCH  61  66
ATOM     66  O   UNL     1      68.810  37.138   6.124  1.00  0.00    -0.502 OA
ATOM     67  H   UNL     1      68.892  36.130   6.135  1.00  0.00     0.293 HD
ENDBRANCH  61  66
ENDBRANCH  54  56
ENDBRANCH  53  54
ENDBRANCH   5  53
BRANCH   4  68
ATOM     68  O   UNL     1      73.789  42.933   7.609  1.00  0.00    -0.448 OA
BRANCH  68  69
ATOM     69  C   UNL     1      72.888  42.912   8.678  1.00  0.00     0.339 C 
ATOM     70  O   UNL     1      73.065  43.669   9.674  1.00  0.00    -0.246 OA
BRANCH  69  71
ATOM     71  C   UNL     1      71.736  41.987   8.641  1.00  0.00     0.067 A 
ATOM     72  C   UNL     1      70.595  42.287   7.887  1.00  0.00     0.066 A 
ATOM     73  C   UNL     1      71.775  40.783   9.362  1.00  0.00     0.066 A 
ATOM     74  C   UNL     1      69.512  41.396   7.837  1.00  0.00     0.162 A 
ATOM     75  C   UNL     1      70.703  39.886   9.316  1.00  0.00     0.162 A 
ATOM     76  C   UNL     1      69.567  40.189   8.552  1.00  0.00     0.200 A 
BRANCH  74  77
ATOM     77  O   UNL     1      68.387  41.701   7.070  1.00  0.00    -0.504 OA
ATOM     78  H   UNL     1      68.176  42.655   6.793  1.00  0.00     0.293 HD
ENDBRANCH  74  77
BRANCH  75  79
ATOM     79  O   UNL     1      70.787  38.693  10.037  1.00  0.00    -0.504 OA
ATOM     80  H   UNL     1      70.309  38.559  10.918  1.00  0.00     0.293 HD
ENDBRANCH  75  79
BRANCH  76  81
ATOM     81  O   UNL     1      68.501  39.288   8.511  1.00  0.00    -0.502 OA
ATOM     82  H   UNL     1      68.460  38.468   9.099  1.00  0.00     0.293 HD
ENDBRANCH  76  81
ENDBRANCH  69  71
ENDBRANCH  68  69
ENDBRANCH   4  68
TORSDOF 31
ENDMDL
MODEL 6
REMARK VINA RESULT:    -5.442      1.315      6.298
REMARK INTER + INTRA:         -15.582
REMARK INTER:                 -16.195
REMARK INTRA:                   0.614
REMARK UNBOUND:                -2.663
REMARK SMILES O=C(OC[C@H]1O[C@H](OC(=O)c2cc(O)c(O)c(O)c2)[C@H](OC(=O)c2cc(O)c(O)c(O)c2)[C@@H](OC(=O)c2cc(O)c(O)c(O)c2)[C@H]1OC(=O)c1cc(O)c(O)c(O)c1)c1cc(O)c(O)c(O)c1
REMARK SMILES IDX 5 1 46 2 33 3 20 4 7 5 6 6 4 7 3 8 2 9 1 10 59 11 60 12
REMARK SMILES IDX 61 13 67 14 63 15 65 16 62 17 64 19 66 21 47 23 48 24 49 25
REMARK SMILES IDX 50 26 58 27 51 28 56 29 52 30 54 31 57 32 53 34 55 36 34 38
REMARK SMILES IDX 35 39 36 40 37 41 45 42 38 43 43 44 39 45 41 46 44 47 40 49
REMARK SMILES IDX 42 51 8 53 9 54 10 55 11 56 19 57 12 58 17 59 13 60 15 61
REMARK SMILES IDX 18 62 14 64 16 66 21 68 22 69 23 70 24 71 32 72 25 73 30 74
REMARK SMILES IDX 26 75 28 76 31 77 27 79 29 81
REMARK H PARENT 62 18 64 20 66 22 57 33 53 35 55 37 44 48 40 50 42 52 18 63
REMARK H PARENT 14 65 16 67 31 78 27 80 29 82
REMARK Flexibility Score: inf
ROOT
ATOM      1  C   UNL     1      69.727  44.818   7.254  1.00  0.00     0.205 C 
ATOM      2  C   UNL     1      70.172  43.679   8.190  1.00  0.00     0.254 C 
ATOM      3  C   UNL     1      71.482  43.111   7.634  1.00  0.00     0.267 C 
ATOM      4  C   UNL     1      72.529  44.236   7.528  1.00  0.00     0.290 C 
ATOM      5  C   UNL     1      71.937  45.422   6.731  1.00  0.00     0.357 C 
ATOM      6  O   UNL     1      70.693  45.861   7.262  1.00  0.00    -0.329 OA
ENDROOT
BRANCH   1   7
ATOM      7  C   UNL     1      68.355  45.396   7.647  1.00  0.00     0.269 C 
BRANCH   7   8
ATOM      8  O   UNL     1      67.721  44.525   8.578  1.00  0.00    -0.459 OA
BRANCH   8   9
ATOM      9  C   UNL     1      66.726  43.615   8.195  1.00  0.00     0.338 C 
ATOM     10  O   UNL     1      67.045  42.548   7.594  1.00  0.00    -0.246 OA
BRANCH   9  11
ATOM     11  C   UNL     1      65.305  43.918   8.464  1.00  0.00     0.067 A 
ATOM     12  C   UNL     1      64.491  42.975   9.105  1.00  0.00     0.066 A 
ATOM     13  C   UNL     1      63.134  43.226   9.320  1.00  0.00     0.162 A 
ATOM     14  C   UNL     1      64.743  45.139   8.041  1.00  0.00     0.066 A 
ATOM     15  C   UNL     1      62.563  44.437   8.862  1.00  0.00     0.200 A 
ATOM     16  C   UNL     1      63.380  45.391   8.228  1.00  0.00     0.162 A 
BRANCH  13  17
ATOM     17  O   UNL     1      62.396  42.256  10.000  1.00  0.00    -0.504 OA
ATOM     18  H   UNL     1      62.810  41.467  10.466  1.00  0.00     0.293 HD
ENDBRANCH  13  17
BRANCH  15  19
ATOM     19  O   UNL     1      61.201  44.718   9.013  1.00  0.00    -0.502 OA
ATOM     20  H   UNL     1      60.769  45.595   8.765  1.00  0.00     0.293 HD
ENDBRANCH  15  19
BRANCH  16  21
ATOM     21  O   UNL     1      62.854  46.599   7.770  1.00  0.00    -0.504 OA
ATOM     22  H   UNL     1      63.444  47.394   7.554  1.00  0.00     0.293 HD
ENDBRANCH  16  21
ENDBRANCH   9  11
ENDBRANCH   8   9
ENDBRANCH   7   8
ENDBRANCH   1   7
BRANCH   2  23
ATOM     23  O   UNL     1      70.406  44.182   9.507  1.00  0.00    -0.452 OA
BRANCH  23  24
ATOM     24  C   UNL     1      71.452  45.053   9.842  1.00  0.00     0.338 C 
ATOM     25  O   UNL     1      72.587  44.589  10.125  1.00  0.00    -0.246 OA
BRANCH  24  26
ATOM     26  C   UNL     1      71.213  46.513   9.842  1.00  0.00     0.067 A 
ATOM     27  C   UNL     1      69.917  47.032  10.021  1.00  0.00     0.066 A 
ATOM     28  C   UNL     1      72.276  47.400   9.607  1.00  0.00     0.066 A 
ATOM     29  C   UNL     1      69.685  48.416   9.952  1.00  0.00     0.162 A 
ATOM     30  C   UNL     1      72.052  48.780   9.547  1.00  0.00     0.162 A 
ATOM     31  C   UNL     1      70.757  49.293   9.717  1.00  0.00     0.200 A 
BRANCH  29  32
ATOM     32  O   UNL     1      68.397  48.920  10.108  1.00  0.00    -0.504 OA
ATOM     33  H   UNL     1      67.726  48.475  10.724  1.00  0.00     0.293 HD
ENDBRANCH  29  32
BRANCH  30  34
ATOM     34  O   UNL     1      73.132  49.626   9.309  1.00  0.00    -0.504 OA
ATOM     35  H   UNL     1      74.083  49.370   9.556  1.00  0.00     0.293 HD
ENDBRANCH  30  34
BRANCH  31  36
ATOM     36  O   UNL     1      70.555  50.670   9.641  1.00  0.00    -0.502 OA
ATOM     37  H   UNL     1      70.876  51.222   8.856  1.00  0.00     0.293 HD
ENDBRANCH  31  36
ENDBRANCH  24  26
ENDBRANCH  23  24
ENDBRANCH   2  23
BRANCH   3  38
ATOM     38  O   UNL     1      71.951  42.044   8.456  1.00  0.00    -0.450 OA
BRANCH  38  39
ATOM     39  C   UNL     1      71.125  40.990   8.870  1.00  0.00     0.338 C 
ATOM     40  O   UNL     1      70.791  40.887  10.082  1.00  0.00    -0.246 OA
BRANCH  39  41
ATOM     41  C   UNL     1      70.624  40.006   7.884  1.00  0.00     0.067 A 
ATOM     42  C   UNL     1      71.114  40.009   6.566  1.00  0.00     0.066 A 
ATOM     43  C   UNL     1      69.659  39.056   8.255  1.00  0.00     0.066 A 
ATOM     44  C   UNL     1      70.644  39.083   5.631  1.00  0.00     0.162 A 
ATOM     45  C   UNL     1      69.177  38.127   7.328  1.00  0.00     0.162 A 
ATOM     46  C   UNL     1      69.666  38.144   5.996  1.00  0.00     0.200 A 
BRANCH  44  47
ATOM     47  O   UNL     1      71.152  39.094   4.331  1.00  0.00    -0.504 OA
ATOM     48  H   UNL     1      70.665  39.565   3.572  1.00  0.00     0.293 HD
ENDBRANCH  44  47
BRANCH  45  49
ATOM     49  O   UNL     1      68.218  37.214   7.768  1.00  0.00    -0.504 OA
ATOM     50  H   UNL     1      67.990  37.057   8.739  1.00  0.00     0.293 HD
ENDBRANCH  45  49
BRANCH  46  51
ATOM     51  O   UNL     1      69.213  37.260   5.012  1.00  0.00    -0.502 OA
ATOM     52  H   UNL     1      68.498  36.559   5.172  1.00  0.00     0.293 HD
ENDBRANCH  46  51
ENDBRANCH  39  41
ENDBRANCH  38  39
ENDBRANCH   3  38
BRANCH   5  53
ATOM     53  O   UNL     1      71.811  45.082   5.351  1.00  0.00    -0.428 OA
BRANCH  53  54
ATOM     54  C   UNL     1      72.245  45.914   4.313  1.00  0.00     0.340 C 
ATOM     55  O   UNL     1      73.199  45.568   3.570  1.00  0.00    -0.246 OA
BRANCH  54  56
ATOM     56  C   UNL     1      71.568  47.201   4.089  1.00  0.00     0.067 A 
ATOM     57  C   UNL     1      71.183  48.006   5.168  1.00  0.00     0.066 A 
ATOM     58  C   UNL     1      71.315  47.638   2.784  1.00  0.00     0.066 A 
ATOM     59  C   UNL     1      70.581  49.253   4.959  1.00  0.00     0.162 A 
ATOM     60  C   UNL     1      70.690  48.864   2.552  1.00  0.00     0.162 A 
ATOM     61  C   UNL     1      70.330  49.694   3.634  1.00  0.00     0.200 A 
BRANCH  59  62
ATOM     62  O   UNL     1      70.259  50.012   6.088  1.00  0.00    -0.504 OA
ATOM     63  H   UNL     1      69.317  50.300   6.328  1.00  0.00     0.293 HD
ENDBRANCH  59  62
BRANCH  60  64
ATOM     64  O   UNL     1      70.427  49.238   1.234  1.00  0.00    -0.504 OA
ATOM     65  H   UNL     1      71.146  49.222   0.518  1.00  0.00     0.293 HD
ENDBRANCH  60  64
BRANCH  61  66
ATOM     66  O   UNL     1      69.738  50.936   3.360  1.00  0.00    -0.502 OA
ATOM     67  H   UNL     1      68.887  51.053   2.827  1.00  0.00     0.293 HD
ENDBRANCH  61  66
ENDBRANCH  54  56
ENDBRANCH  53  54
ENDBRANCH   5  53
BRANCH   4  68
ATOM     68  O   UNL     1      73.684  43.768   6.835  1.00  0.00    -0.448 OA
BRANCH  68  69
ATOM     69  C   UNL     1      74.468  42.688   7.253  1.00  0.00     0.339 C 
ATOM     70  O   UNL     1      75.124  42.757   8.329  1.00  0.00    -0.246 OA
BRANCH  69  71
ATOM     71  C   UNL     1      74.535  41.471   6.417  1.00  0.00     0.067 A 
ATOM     72  C   UNL     1      74.401  41.544   5.025  1.00  0.00     0.066 A 
ATOM     73  C   UNL     1      74.743  40.216   7.012  1.00  0.00     0.066 A 
ATOM     74  C   UNL     1      74.487  40.390   4.233  1.00  0.00     0.162 A 
ATOM     75  C   UNL     1      74.834  39.059   6.233  1.00  0.00     0.162 A 
ATOM     76  C   UNL     1      74.707  39.141   4.838  1.00  0.00     0.200 A 
BRANCH  74  77
ATOM     77  O   UNL     1      74.365  40.479   2.846  1.00  0.00    -0.504 OA
ATOM     78  H   UNL     1      74.880  39.860   2.227  1.00  0.00     0.293 HD
ENDBRANCH  74  77
BRANCH  75  79
ATOM     79  O   UNL     1      75.054  37.833   6.863  1.00  0.00    -0.504 OA
ATOM     80  H   UNL     1      75.981  37.456   7.001  1.00  0.00     0.293 HD
ENDBRANCH  75  79
BRANCH  76  81
ATOM     81  O   UNL     1      74.800  37.981   4.066  1.00  0.00    -0.502 OA
ATOM     82  H   UNL     1      74.454  37.088   4.385  1.00  0.00     0.293 HD
ENDBRANCH  76  81
ENDBRANCH  69  71
ENDBRANCH  68  69
ENDBRANCH   4  68
TORSDOF 31
ENDMDL
MODEL 7
REMARK VINA RESULT:    -5.314      1.804      7.606
REMARK INTER + INTRA:         -15.277
REMARK INTER:                 -11.895
REMARK INTRA:                  -3.381
REMARK UNBOUND:                -2.663
REMARK SMILES O=C(OC[C@H]1O[C@H](OC(=O)c2cc(O)c(O)c(O)c2)[C@H](OC(=O)c2cc(O)c(O)c(O)c2)[C@@H](OC(=O)c2cc(O)c(O)c(O)c2)[C@H]1OC(=O)c1cc(O)c(O)c(O)c1)c1cc(O)c(O)c(O)c1
REMARK SMILES IDX 5 1 46 2 33 3 20 4 7 5 6 6 4 7 3 8 2 9 1 10 59 11 60 12
REMARK SMILES IDX 61 13 67 14 63 15 65 16 62 17 64 19 66 21 47 23 48 24 49 25
REMARK SMILES IDX 50 26 58 27 51 28 56 29 52 30 54 31 57 32 53 34 55 36 34 38
REMARK SMILES IDX 35 39 36 40 37 41 45 42 38 43 43 44 39 45 41 46 44 47 40 49
REMARK SMILES IDX 42 51 8 53 9 54 10 55 11 56 19 57 12 58 17 59 13 60 15 61
REMARK SMILES IDX 18 62 14 64 16 66 21 68 22 69 23 70 24 71 32 72 25 73 30 74
REMARK SMILES IDX 26 75 28 76 31 77 27 79 29 81
REMARK H PARENT 62 18 64 20 66 22 57 33 53 35 55 37 44 48 40 50 42 52 18 63
REMARK H PARENT 14 65 16 67 31 78 27 80 29 82
REMARK Flexibility Score: inf
ROOT
ATOM      1  C   UNL     1      68.872  42.786   9.327  1.00  0.00     0.205 C 
ATOM      2  C   UNL     1      69.664  44.033   8.896  1.00  0.00     0.254 C 
ATOM      3  C   UNL     1      71.103  43.589   8.611  1.00  0.00     0.267 C 
ATOM      4  C   UNL     1      71.100  42.487   7.536  1.00  0.00     0.290 C 
ATOM      5  C   UNL     1      70.135  41.354   7.956  1.00  0.00     0.357 C 
ATOM      6  O   UNL     1      68.834  41.841   8.266  1.00  0.00    -0.329 OA
ENDROOT
BRANCH   1   7
ATOM      7  C   UNL     1      67.431  43.125   9.752  1.00  0.00     0.269 C 
BRANCH   7   8
ATOM      8  O   UNL     1      66.733  43.695   8.650  1.00  0.00    -0.459 OA
BRANCH   8   9
ATOM      9  C   UNL     1      65.595  43.095   8.092  1.00  0.00     0.338 C 
ATOM     10  O   UNL     1      65.718  42.286   7.128  1.00  0.00    -0.246 OA
BRANCH   9  11
ATOM     11  C   UNL     1      64.253  43.434   8.609  1.00  0.00     0.067 A 
ATOM     12  C   UNL     1      63.201  42.515   8.501  1.00  0.00     0.066 A 
ATOM     13  C   UNL     1      61.915  42.841   8.938  1.00  0.00     0.162 A 
ATOM     14  C   UNL     1      64.005  44.701   9.176  1.00  0.00     0.066 A 
ATOM     15  C   UNL     1      61.660  44.125   9.473  1.00  0.00     0.200 A 
ATOM     16  C   UNL     1      62.716  45.047   9.593  1.00  0.00     0.162 A 
BRANCH  13  17
ATOM     17  O   UNL     1      60.929  41.859   8.833  1.00  0.00    -0.504 OA
ATOM     18  H   UNL     1      61.090  40.947   8.441  1.00  0.00     0.293 HD
ENDBRANCH  13  17
BRANCH  15  19
ATOM     19  O   UNL     1      60.381  44.517   9.884  1.00  0.00    -0.502 OA
ATOM     20  H   UNL     1      60.012  44.375  10.812  1.00  0.00     0.293 HD
ENDBRANCH  15  19
BRANCH  16  21
ATOM     21  O   UNL     1      62.504  46.320  10.124  1.00  0.00    -0.504 OA
ATOM     22  H   UNL     1      62.515  46.495  11.122  1.00  0.00     0.293 HD
ENDBRANCH  16  21
ENDBRANCH   9  11
ENDBRANCH   8   9
ENDBRANCH   7   8
ENDBRANCH   1   7
BRANCH   2  23
ATOM     23  O   UNL     1      69.105  44.588   7.704  1.00  0.00    -0.452 OA
BRANCH  23  24
ATOM     24  C   UNL     1      69.065  45.959   7.417  1.00  0.00     0.338 C 
ATOM     25  O   UNL     1      70.014  46.495   6.788  1.00  0.00    -0.246 OA
BRANCH  24  26
ATOM     26  C   UNL     1      67.895  46.759   7.841  1.00  0.00     0.067 A 
ATOM     27  C   UNL     1      66.613  46.490   7.327  1.00  0.00     0.066 A 
ATOM     28  C   UNL     1      68.063  47.838   8.725  1.00  0.00     0.066 A 
ATOM     29  C   UNL     1      65.518  47.297   7.680  1.00  0.00     0.162 A 
ATOM     30  C   UNL     1      66.974  48.636   9.088  1.00  0.00     0.162 A 
ATOM     31  C   UNL     1      65.699  48.372   8.566  1.00  0.00     0.200 A 
BRANCH  29  32
ATOM     32  O   UNL     1      64.257  47.037   7.150  1.00  0.00    -0.504 OA
ATOM     33  H   UNL     1      63.801  47.691   6.524  1.00  0.00     0.293 HD
ENDBRANCH  29  32
BRANCH  30  34
ATOM     34  O   UNL     1      67.182  49.698   9.965  1.00  0.00    -0.504 OA
ATOM     35  H   UNL     1      66.463  50.391  10.154  1.00  0.00     0.293 HD
ENDBRANCH  30  34
BRANCH  31  36
ATOM     36  O   UNL     1      64.630  49.188   8.932  1.00  0.00    -0.502 OA
ATOM     37  H   UNL     1      64.763  50.120   9.303  1.00  0.00     0.293 HD
ENDBRANCH  31  36
ENDBRANCH  24  26
ENDBRANCH  23  24
ENDBRANCH   2  23
BRANCH   3  38
ATOM     38  O   UNL     1      71.897  44.703   8.207  1.00  0.00    -0.450 OA
BRANCH  38  39
ATOM     39  C   UNL     1      72.478  45.589   9.125  1.00  0.00     0.338 C 
ATOM     40  O   UNL     1      73.104  45.142  10.125  1.00  0.00    -0.246 OA
BRANCH  39  41
ATOM     41  C   UNL     1      72.375  47.051   8.915  1.00  0.00     0.067 A 
ATOM     42  C   UNL     1      73.246  47.703   8.024  1.00  0.00     0.066 A 
ATOM     43  C   UNL     1      71.406  47.801   9.600  1.00  0.00     0.066 A 
ATOM     44  C   UNL     1      73.154  49.082   7.823  1.00  0.00     0.162 A 
ATOM     45  C   UNL     1      71.306  49.183   9.410  1.00  0.00     0.162 A 
ATOM     46  C   UNL     1      72.196  49.837   8.519  1.00  0.00     0.200 A 
BRANCH  44  47
ATOM     47  O   UNL     1      74.018  49.710   6.924  1.00  0.00    -0.504 OA
ATOM     48  H   UNL     1      74.948  49.343   6.734  1.00  0.00     0.293 HD
ENDBRANCH  44  47
BRANCH  45  49
ATOM     49  O   UNL     1      70.319  49.862  10.125  1.00  0.00    -0.504 OA
ATOM     50  H   UNL     1      70.423  50.801  10.482  1.00  0.00     0.293 HD
ENDBRANCH  45  49
BRANCH  46  51
ATOM     51  O   UNL     1      72.168  51.217   8.299  1.00  0.00    -0.502 OA
ATOM     52  H   UNL     1      72.489  51.656   7.444  1.00  0.00     0.293 HD
ENDBRANCH  46  51
ENDBRANCH  39  41
ENDBRANCH  38  39
ENDBRANCH   3  38
BRANCH   5  53
ATOM     53  O   UNL     1      70.677  40.618   9.051  1.00  0.00    -0.428 OA
BRANCH  53  54
ATOM     54  C   UNL     1      70.865  39.231   9.027  1.00  0.00     0.340 C 
ATOM     55  O   UNL     1      70.616  38.532  10.043  1.00  0.00    -0.246 OA
BRANCH  54  56
ATOM     56  C   UNL     1      71.353  38.591   7.795  1.00  0.00     0.067 A 
ATOM     57  C   UNL     1      70.456  38.096   6.840  1.00  0.00     0.066 A 
ATOM     58  C   UNL     1      72.729  38.484   7.563  1.00  0.00     0.066 A 
ATOM     59  C   UNL     1      70.915  37.529   5.645  1.00  0.00     0.162 A 
ATOM     60  C   UNL     1      73.209  37.896   6.392  1.00  0.00     0.162 A 
ATOM     61  C   UNL     1      72.311  37.426   5.412  1.00  0.00     0.200 A 
BRANCH  59  62
ATOM     62  O   UNL     1      69.955  37.090   4.728  1.00  0.00    -0.504 OA
ATOM     63  H   UNL     1      70.172  36.763   3.793  1.00  0.00     0.293 HD
ENDBRANCH  59  62
BRANCH  60  64
ATOM     64  O   UNL     1      74.590  37.781   6.224  1.00  0.00    -0.504 OA
ATOM     65  H   UNL     1      75.003  37.531   5.332  1.00  0.00     0.293 HD
ENDBRANCH  60  64
BRANCH  61  66
ATOM     66  O   UNL     1      72.832  36.875   4.232  1.00  0.00    -0.502 OA
ATOM     67  H   UNL     1      72.950  37.389   3.370  1.00  0.00     0.293 HD
ENDBRANCH  61  66
ENDBRANCH  54  56
ENDBRANCH  53  54
ENDBRANCH   5  53
BRANCH   4  68
ATOM     68  O   UNL     1      72.406  41.930   7.399  1.00  0.00    -0.448 OA
BRANCH  68  69
ATOM     69  C   UNL     1      73.420  42.486   6.615  1.00  0.00     0.339 C 
ATOM     70  O   UNL     1      74.589  42.010   6.654  1.00  0.00    -0.246 OA
BRANCH  69  71
ATOM     71  C   UNL     1      73.118  43.646   5.750  1.00  0.00     0.067 A 
ATOM     72  C   UNL     1      73.857  44.831   5.850  1.00  0.00     0.066 A 
ATOM     73  C   UNL     1      72.083  43.570   4.803  1.00  0.00     0.066 A 
ATOM     74  C   UNL     1      73.582  45.922   5.012  1.00  0.00     0.162 A 
ATOM     75  C   UNL     1      71.802  44.649   3.961  1.00  0.00     0.162 A 
ATOM     76  C   UNL     1      72.552  45.831   4.061  1.00  0.00     0.200 A 
BRANCH  74  77
ATOM     77  O   UNL     1      74.334  47.092   5.113  1.00  0.00    -0.504 OA
ATOM     78  H   UNL     1      74.464  47.564   6.002  1.00  0.00     0.293 HD
ENDBRANCH  74  77
BRANCH  75  79
ATOM     79  O   UNL     1      70.773  44.529   3.025  1.00  0.00    -0.504 OA
ATOM     80  H   UNL     1      70.380  43.634   2.767  1.00  0.00     0.293 HD
ENDBRANCH  75  79
BRANCH  76  81
ATOM     81  O   UNL     1      72.266  46.905   3.215  1.00  0.00    -0.502 OA
ATOM     82  H   UNL     1      71.678  47.675   3.496  1.00  0.00     0.293 HD
ENDBRANCH  76  81
ENDBRANCH  69  71
ENDBRANCH  68  69
ENDBRANCH   4  68
TORSDOF 31
ENDMDL
MODEL 8
REMARK VINA RESULT:    -5.263      1.490      8.291
REMARK INTER + INTRA:         -15.156
REMARK INTER:                 -12.342
REMARK INTRA:                  -2.814
REMARK UNBOUND:                -2.663
REMARK SMILES O=C(OC[C@H]1O[C@H](OC(=O)c2cc(O)c(O)c(O)c2)[C@H](OC(=O)c2cc(O)c(O)c(O)c2)[C@@H](OC(=O)c2cc(O)c(O)c(O)c2)[C@H]1OC(=O)c1cc(O)c(O)c(O)c1)c1cc(O)c(O)c(O)c1
REMARK SMILES IDX 5 1 46 2 33 3 20 4 7 5 6 6 4 7 3 8 2 9 1 10 59 11 60 12
REMARK SMILES IDX 61 13 67 14 63 15 65 16 62 17 64 19 66 21 47 23 48 24 49 25
REMARK SMILES IDX 50 26 58 27 51 28 56 29 52 30 54 31 57 32 53 34 55 36 34 38
REMARK SMILES IDX 35 39 36 40 37 41 45 42 38 43 43 44 39 45 41 46 44 47 40 49
REMARK SMILES IDX 42 51 8 53 9 54 10 55 11 56 19 57 12 58 17 59 13 60 15 61
REMARK SMILES IDX 18 62 14 64 16 66 21 68 22 69 23 70 24 71 32 72 25 73 30 74
REMARK SMILES IDX 26 75 28 76 31 77 27 79 29 81
REMARK H PARENT 62 18 64 20 66 22 57 33 53 35 55 37 44 48 40 50 42 52 18 63
REMARK H PARENT 14 65 16 67 31 78 27 80 29 82
REMARK Flexibility Score: inf
ROOT
ATOM      1  C   UNL     1      69.519  42.733   7.528  1.00  0.00     0.205 C 
ATOM      2  C   UNL     1      69.222  43.722   8.669  1.00  0.00     0.254 C 
ATOM      3  C   UNL     1      70.498  44.535   8.916  1.00  0.00     0.267 C 
ATOM      4  C   UNL     1      70.920  45.240   7.614  1.00  0.00     0.290 C 
ATOM      5  C   UNL     1      71.014  44.204   6.470  1.00  0.00     0.357 C 
ATOM      6  O   UNL     1      69.821  43.442   6.334  1.00  0.00    -0.329 OA
ENDROOT
BRANCH   1   7
ATOM      7  C   UNL     1      68.342  41.775   7.263  1.00  0.00     0.269 C 
BRANCH   7   8
ATOM      8  O   UNL     1      67.870  41.249   8.499  1.00  0.00    -0.459 OA
BRANCH   8   9
ATOM      9  C   UNL     1      68.299  40.013   9.001  1.00  0.00     0.338 C 
ATOM     10  O   UNL     1      67.874  39.605  10.120  1.00  0.00    -0.246 OA
BRANCH   9  11
ATOM     11  C   UNL     1      69.273  39.204   8.238  1.00  0.00     0.067 A 
ATOM     12  C   UNL     1      70.495  38.837   8.818  1.00  0.00     0.066 A 
ATOM     13  C   UNL     1      71.447  38.118   8.092  1.00  0.00     0.162 A 
ATOM     14  C   UNL     1      69.002  38.830   6.906  1.00  0.00     0.066 A 
ATOM     15  C   UNL     1      71.189  37.775   6.743  1.00  0.00     0.200 A 
ATOM     16  C   UNL     1      69.959  38.131   6.161  1.00  0.00     0.162 A 
BRANCH  13  17
ATOM     17  O   UNL     1      72.623  37.755   8.749  1.00  0.00    -0.504 OA
ATOM     18  H   UNL     1      72.897  38.122   9.644  1.00  0.00     0.293 HD
ENDBRANCH  13  17
BRANCH  15  19
ATOM     19  O   UNL     1      72.126  37.093   5.959  1.00  0.00    -0.502 OA
ATOM     20  H   UNL     1      73.123  37.228   6.016  1.00  0.00     0.293 HD
ENDBRANCH  15  19
BRANCH  16  21
ATOM     21  O   UNL     1      69.665  37.803   4.838  1.00  0.00    -0.504 OA
ATOM     22  H   UNL     1      69.047  37.038   4.598  1.00  0.00     0.293 HD
ENDBRANCH  16  21
ENDBRANCH   9  11
ENDBRANCH   8   9
ENDBRANCH   7   8
ENDBRANCH   1   7
BRANCH   2  23
ATOM     23  O   UNL     1      68.170  44.612   8.293  1.00  0.00    -0.452 OA
BRANCH  23  24
ATOM     24  C   UNL     1      67.080  44.934   9.114  1.00  0.00     0.338 C 
ATOM     25  O   UNL     1      67.251  45.665  10.124  1.00  0.00    -0.246 OA
BRANCH  24  26
ATOM     26  C   UNL     1      65.733  44.427   8.770  1.00  0.00     0.067 A 
ATOM     27  C   UNL     1      64.910  45.121   7.864  1.00  0.00     0.066 A 
ATOM     28  C   UNL     1      65.239  43.268   9.391  1.00  0.00     0.066 A 
ATOM     29  C   UNL     1      63.607  44.671   7.594  1.00  0.00     0.162 A 
ATOM     30  C   UNL     1      63.945  42.811   9.118  1.00  0.00     0.162 A 
ATOM     31  C   UNL     1      63.124  43.511   8.221  1.00  0.00     0.200 A 
BRANCH  29  32
ATOM     32  O   UNL     1      62.791  45.376   6.713  1.00  0.00    -0.504 OA
ATOM     33  H   UNL     1      61.904  45.000   6.397  1.00  0.00     0.293 HD
ENDBRANCH  29  32
BRANCH  30  34
ATOM     34  O   UNL     1      63.491  41.660   9.756  1.00  0.00    -0.504 OA
ATOM     35  H   UNL     1      63.266  41.644  10.746  1.00  0.00     0.293 HD
ENDBRANCH  30  34
BRANCH  31  36
ATOM     36  O   UNL     1      61.835  43.044   7.973  1.00  0.00    -0.502 OA
ATOM     37  H   UNL     1      61.657  42.184   7.470  1.00  0.00     0.293 HD
ENDBRANCH  31  36
ENDBRANCH  24  26
ENDBRANCH  23  24
ENDBRANCH   2  23
BRANCH   3  38
ATOM     38  O   UNL     1      70.293  45.475   9.970  1.00  0.00    -0.450 OA
BRANCH  38  39
ATOM     39  C   UNL     1      70.842  46.765   9.949  1.00  0.00     0.338 C 
ATOM     40  O   UNL     1      72.091  46.921  10.021  1.00  0.00    -0.246 OA
BRANCH  39  41
ATOM     41  C   UNL     1      69.960  47.947   9.820  1.00  0.00     0.067 A 
ATOM     42  C   UNL     1      68.591  47.784   9.545  1.00  0.00     0.066 A 
ATOM     43  C   UNL     1      70.480  49.241   9.976  1.00  0.00     0.066 A 
ATOM     44  C   UNL     1      67.754  48.897   9.422  1.00  0.00     0.162 A 
ATOM     45  C   UNL     1      69.654  50.363   9.852  1.00  0.00     0.162 A 
ATOM     46  C   UNL     1      68.275  50.193   9.561  1.00  0.00     0.200 A 
BRANCH  44  47
ATOM     47  O   UNL     1      66.395  48.715   9.161  1.00  0.00    -0.504 OA
ATOM     48  H   UNL     1      65.914  49.247   8.440  1.00  0.00     0.293 HD
ENDBRANCH  44  47
BRANCH  45  49
ATOM     49  O   UNL     1      70.240  51.618  10.019  1.00  0.00    -0.504 OA
ATOM     50  H   UNL     1      70.711  52.126   9.284  1.00  0.00     0.293 HD
ENDBRANCH  45  49
BRANCH  46  51
ATOM     51  O   UNL     1      67.397  51.269   9.400  1.00  0.00    -0.502 OA
ATOM     52  H   UNL     1      67.117  51.635   8.497  1.00  0.00     0.293 HD
ENDBRANCH  46  51
ENDBRANCH  39  41
ENDBRANCH  38  39
ENDBRANCH   3  38
BRANCH   5  53
ATOM     53  O   UNL     1      72.144  43.354   6.658  1.00  0.00    -0.428 OA
BRANCH  53  54
ATOM     54  C   UNL     1      72.990  42.958   5.616  1.00  0.00     0.340 C 
ATOM     55  O   UNL     1      73.259  43.746   4.673  1.00  0.00    -0.246 OA
BRANCH  54  56
ATOM     56  C   UNL     1      73.574  41.608   5.635  1.00  0.00     0.067 A 
ATOM     57  C   UNL     1      74.090  41.066   6.819  1.00  0.00     0.066 A 
ATOM     58  C   UNL     1      73.604  40.844   4.463  1.00  0.00     0.066 A 
ATOM     59  C   UNL     1      74.604  39.763   6.852  1.00  0.00     0.162 A 
ATOM     60  C   UNL     1      74.137  39.555   4.466  1.00  0.00     0.162 A 
ATOM     61  C   UNL     1      74.628  38.992   5.662  1.00  0.00     0.200 A 
BRANCH  59  62
ATOM     62  O   UNL     1      75.068  39.283   8.081  1.00  0.00    -0.504 OA
ATOM     63  H   UNL     1      76.049  39.210   8.326  1.00  0.00     0.293 HD
ENDBRANCH  59  62
BRANCH  60  64
ATOM     64  O   UNL     1      74.176  38.849   3.263  1.00  0.00    -0.504 OA
ATOM     65  H   UNL     1      74.849  39.066   2.535  1.00  0.00     0.293 HD
ENDBRANCH  60  64
BRANCH  61  66
ATOM     66  O   UNL     1      75.122  37.679   5.633  1.00  0.00    -0.502 OA
ATOM     67  H   UNL     1      76.015  37.400   6.017  1.00  0.00     0.293 HD
ENDBRANCH  61  66
ENDBRANCH  54  56
ENDBRANCH  53  54
ENDBRANCH   5  53
BRANCH   4  68
ATOM     68  O   UNL     1      72.204  45.841   7.774  1.00  0.00    -0.448 OA
BRANCH  68  69
ATOM     69  C   UNL     1      72.847  46.597   6.790  1.00  0.00     0.339 C 
ATOM     70  O   UNL     1      74.098  46.514   6.640  1.00  0.00    -0.246 OA
BRANCH  69  71
ATOM     71  C   UNL     1      72.055  47.506   5.935  1.00  0.00     0.067 A 
ATOM     72  C   UNL     1      72.229  47.523   4.546  1.00  0.00     0.066 A 
ATOM     73  C   UNL     1      71.103  48.364   6.510  1.00  0.00     0.066 A 
ATOM     74  C   UNL     1      71.459  48.370   3.736  1.00  0.00     0.162 A 
ATOM     75  C   UNL     1      70.328  49.211   5.712  1.00  0.00     0.162 A 
ATOM     76  C   UNL     1      70.502  49.217   4.320  1.00  0.00     0.200 A 
BRANCH  74  77
ATOM     77  O   UNL     1      71.633  48.368   2.351  1.00  0.00    -0.504 OA
ATOM     78  H   UNL     1      70.902  48.045   1.725  1.00  0.00     0.293 HD
ENDBRANCH  74  77
BRANCH  75  79
ATOM     79  O   UNL     1      69.385  50.040   6.321  1.00  0.00    -0.504 OA
ATOM     80  H   UNL     1      69.390  50.225   7.315  1.00  0.00     0.293 HD
ENDBRANCH  75  79
BRANCH  76  81
ATOM     81  O   UNL     1      69.723  50.065   3.530  1.00  0.00    -0.502 OA
ATOM     82  H   UNL     1      68.817  50.399   3.822  1.00  0.00     0.293 HD
ENDBRANCH  76  81
ENDBRANCH  69  71
ENDBRANCH  68  69
ENDBRANCH   4  68
TORSDOF 31
ENDMDL
MODEL 9
REMARK VINA RESULT:    -5.065      1.646      6.673
REMARK INTER + INTRA:         -14.687
REMARK INTER:                 -13.647
REMARK INTRA:                  -1.040
REMARK UNBOUND:                -2.663
REMARK SMILES O=C(OC[C@H]1O[C@H](OC(=O)c2cc(O)c(O)c(O)c2)[C@H](OC(=O)c2cc(O)c(O)c(O)c2)[C@@H](OC(=O)c2cc(O)c(O)c(O)c2)[C@H]1OC(=O)c1cc(O)c(O)c(O)c1)c1cc(O)c(O)c(O)c1
REMARK SMILES IDX 5 1 46 2 33 3 20 4 7 5 6 6 4 7 3 8 2 9 1 10 59 11 60 12
REMARK SMILES IDX 61 13 67 14 63 15 65 16 62 17 64 19 66 21 47 23 48 24 49 25
REMARK SMILES IDX 50 26 58 27 51 28 56 29 52 30 54 31 57 32 53 34 55 36 34 38
REMARK SMILES IDX 35 39 36 40 37 41 45 42 38 43 43 44 39 45 41 46 44 47 40 49
REMARK SMILES IDX 42 51 8 53 9 54 10 55 11 56 19 57 12 58 17 59 13 60 15 61
REMARK SMILES IDX 18 62 14 64 16 66 21 68 22 69 23 70 24 71 32 72 25 73 30 74
REMARK SMILES IDX 26 75 28 76 31 77 27 79 29 81
REMARK H PARENT 62 18 64 20 66 22 57 33 53 35 55 37 44 48 40 50 42 52 18 63
REMARK H PARENT 14 65 16 67 31 78 27 80 29 82
REMARK Flexibility Score: inf
ROOT
ATOM      1  C   UNL     1      72.584  44.284   9.092  1.00  0.00     0.205 C 
ATOM      2  C   UNL     1      72.345  42.769   8.961  1.00  0.00     0.254 C 
ATOM      3  C   UNL     1      70.878  42.503   9.318  1.00  0.00     0.267 C 
ATOM      4  C   UNL     1      69.963  43.330   8.396  1.00  0.00     0.290 C 
ATOM      5  C   UNL     1      70.389  44.815   8.440  1.00  0.00     0.357 C 
ATOM      6  O   UNL     1      71.773  44.988   8.160  1.00  0.00    -0.329 OA
ENDROOT
BRANCH   1   7
ATOM      7  C   UNL     1      74.058  44.666   8.868  1.00  0.00     0.269 C 
BRANCH   7   8
ATOM      8  O   UNL     1      74.128  45.860   8.095  1.00  0.00    -0.459 OA
BRANCH   8   9
ATOM      9  C   UNL     1      73.867  47.124   8.642  1.00  0.00     0.338 C 
ATOM     10  O   UNL     1      74.407  47.460   9.735  1.00  0.00    -0.246 OA
BRANCH   9  11
ATOM     11  C   UNL     1      72.938  48.047   7.958  1.00  0.00     0.067 A 
ATOM     12  C   UNL     1      72.749  49.348   8.445  1.00  0.00     0.066 A 
ATOM     13  C   UNL     1      71.835  50.215   7.841  1.00  0.00     0.162 A 
ATOM     14  C   UNL     1      72.200  47.617   6.837  1.00  0.00     0.066 A 
ATOM     15  C   UNL     1      71.069  49.769   6.738  1.00  0.00     0.200 A 
ATOM     16  C   UNL     1      71.264  48.468   6.240  1.00  0.00     0.162 A 
BRANCH  13  17
ATOM     17  O   UNL     1      71.731  51.507   8.358  1.00  0.00    -0.504 OA
ATOM     18  H   UNL     1      71.927  51.741   9.316  1.00  0.00     0.293 HD
ENDBRANCH  13  17
BRANCH  15  19
ATOM     19  O   UNL     1      70.110  50.582   6.125  1.00  0.00    -0.502 OA
ATOM     20  H   UNL     1      69.158  50.305   5.943  1.00  0.00     0.293 HD
ENDBRANCH  15  19
BRANCH  16  21
ATOM     21  O   UNL     1      70.533  47.997   5.149  1.00  0.00    -0.504 OA
ATOM     22  H   UNL     1      70.608  47.040   4.825  1.00  0.00     0.293 HD
ENDBRANCH  16  21
ENDBRANCH   9  11
ENDBRANCH   8   9
ENDBRANCH   7   8
ENDBRANCH   1   7
BRANCH   2  23
ATOM     23  O   UNL     1      72.580  42.344   7.618  1.00  0.00    -0.452 OA
BRANCH  23  24
ATOM     24  C   UNL     1      73.628  42.815   6.815  1.00  0.00     0.338 C 
ATOM     25  O   UNL     1      74.792  42.366   6.978  1.00  0.00    -0.246 OA
BRANCH  24  26
ATOM     26  C   UNL     1      73.348  43.823   5.769  1.00  0.00     0.067 A 
ATOM     27  C   UNL     1      74.154  44.970   5.638  1.00  0.00     0.066 A 
ATOM     28  C   UNL     1      72.235  43.672   4.925  1.00  0.00     0.066 A 
ATOM     29  C   UNL     1      73.842  45.957   4.689  1.00  0.00     0.162 A 
ATOM     30  C   UNL     1      71.928  44.647   3.971  1.00  0.00     0.162 A 
ATOM     31  C   UNL     1      72.727  45.794   3.850  1.00  0.00     0.200 A 
BRANCH  29  32
ATOM     32  O   UNL     1      74.631  47.099   4.581  1.00  0.00    -0.504 OA
ATOM     33  H   UNL     1      74.302  48.003   4.901  1.00  0.00     0.293 HD
ENDBRANCH  29  32
BRANCH  30  34
ATOM     34  O   UNL     1      70.814  44.462   3.155  1.00  0.00    -0.504 OA
ATOM     35  H   UNL     1      70.473  45.189   2.535  1.00  0.00     0.293 HD
ENDBRANCH  30  34
BRANCH  31  36
ATOM     36  O   UNL     1      72.395  46.759   2.901  1.00  0.00    -0.502 OA
ATOM     37  H   UNL     1      73.062  47.441   2.566  1.00  0.00     0.293 HD
ENDBRANCH  31  36
ENDBRANCH  24  26
ENDBRANCH  23  24
ENDBRANCH   2  23
BRANCH   3  38
ATOM     38  O   UNL     1      70.588  41.109   9.220  1.00  0.00    -0.450 OA
BRANCH  38  39
ATOM     39  C   UNL     1      71.590  40.132   9.138  1.00  0.00     0.338 C 
ATOM     40  O   UNL     1      72.389  39.965  10.100  1.00  0.00    -0.246 OA
BRANCH  39  41
ATOM     41  C   UNL     1      71.701  39.280   7.934  1.00  0.00     0.067 A 
ATOM     42  C   UNL     1      72.941  38.727   7.567  1.00  0.00     0.066 A 
ATOM     43  C   UNL     1      70.570  39.012   7.146  1.00  0.00     0.066 A 
ATOM     44  C   UNL     1      73.051  37.923   6.429  1.00  0.00     0.162 A 
ATOM     45  C   UNL     1      70.668  38.212   6.004  1.00  0.00     0.162 A 
ATOM     46  C   UNL     1      71.924  37.667   5.632  1.00  0.00     0.200 A 
BRANCH  44  47
ATOM     47  O   UNL     1      74.288  37.372   6.089  1.00  0.00    -0.504 OA
ATOM     48  H   UNL     1      74.364  36.445   5.676  1.00  0.00     0.293 HD
ENDBRANCH  44  47
BRANCH  45  49
ATOM     49  O   UNL     1      69.502  37.989   5.270  1.00  0.00    -0.504 OA
ATOM     50  H   UNL     1      68.570  38.066   5.651  1.00  0.00     0.293 HD
ENDBRANCH  45  49
BRANCH  46  51
ATOM     51  O   UNL     1      72.100  36.879   4.491  1.00  0.00    -0.502 OA
ATOM     52  H   UNL     1      72.413  37.244   3.598  1.00  0.00     0.293 HD
ENDBRANCH  46  51
ENDBRANCH  39  41
ENDBRANCH  38  39
ENDBRANCH   3  38
BRANCH   5  53
ATOM     53  O   UNL     1      70.047  45.395   9.697  1.00  0.00    -0.428 OA
BRANCH  53  54
ATOM     54  C   UNL     1      70.000  46.776   9.920  1.00  0.00     0.340 C 
ATOM     55  O   UNL     1      71.055  47.429  10.125  1.00  0.00    -0.246 OA
BRANCH  54  56
ATOM     56  C   UNL     1      68.700  47.465   9.906  1.00  0.00     0.067 A 
ATOM     57  C   UNL     1      68.627  48.858   9.778  1.00  0.00     0.066 A 
ATOM     58  C   UNL     1      67.517  46.724  10.008  1.00  0.00     0.066 A 
ATOM     59  C   UNL     1      67.391  49.513   9.717  1.00  0.00     0.162 A 
ATOM     60  C   UNL     1      66.275  47.358   9.979  1.00  0.00     0.162 A 
ATOM     61  C   UNL     1      66.195  48.757   9.817  1.00  0.00     0.200 A 
BRANCH  59  62
ATOM     62  O   UNL     1      67.404  50.901   9.553  1.00  0.00    -0.504 OA
ATOM     63  H   UNL     1      68.213  51.428   9.245  1.00  0.00     0.293 HD
ENDBRANCH  59  62
BRANCH  60  64
ATOM     64  O   UNL     1      65.126  46.579  10.120  1.00  0.00    -0.504 OA
ATOM     65  H   UNL     1      65.163  45.564  10.120  1.00  0.00     0.293 HD
ENDBRANCH  60  64
BRANCH  61  66
ATOM     66  O   UNL     1      64.927  49.354   9.754  1.00  0.00    -0.502 OA
ATOM     67  H   UNL     1      64.668  50.068   9.086  1.00  0.00     0.293 HD
ENDBRANCH  61  66
ENDBRANCH  54  56
ENDBRANCH  53  54
ENDBRANCH   5  53
BRANCH   4  68
ATOM     68  O   UNL     1      68.610  43.242   8.839  1.00  0.00    -0.448 OA
BRANCH  68  69
ATOM     69  C   UNL     1      67.574  42.674   8.092  1.00  0.00     0.339 C 
ATOM     70  O   UNL     1      67.812  41.732   7.286  1.00  0.00    -0.246 OA
BRANCH  69  71
ATOM     71  C   UNL     1      66.199  43.194   8.243  1.00  0.00     0.067 A 
ATOM     72  C   UNL     1      65.824  44.418   7.673  1.00  0.00     0.066 A 
ATOM     73  C   UNL     1      65.240  42.458   8.959  1.00  0.00     0.066 A 
ATOM     74  C   UNL     1      64.512  44.897   7.800  1.00  0.00     0.162 A 
ATOM     75  C   UNL     1      63.929  42.925   9.088  1.00  0.00     0.162 A 
ATOM     76  C   UNL     1      63.559  44.148   8.508  1.00  0.00     0.200 A 
BRANCH  74  77
ATOM     77  O   UNL     1      64.149  46.111   7.216  1.00  0.00    -0.504 OA
ATOM     78  H   UNL     1      63.259  46.228   6.744  1.00  0.00     0.293 HD
ENDBRANCH  74  77
BRANCH  75  79
ATOM     79  O   UNL     1      63.003  42.157   9.797  1.00  0.00    -0.504 OA
ATOM     80  H   UNL     1      62.501  42.518  10.596  1.00  0.00     0.293 HD
ENDBRANCH  75  79
BRANCH  76  81
ATOM     81  O   UNL     1      62.247  44.607   8.641  1.00  0.00    -0.502 OA
ATOM     82  H   UNL     1      61.887  45.384   8.108  1.00  0.00     0.293 HD
ENDBRANCH  76  81
ENDBRANCH  69  71
ENDBRANCH  68  69
ENDBRANCH   4  68
TORSDOF 31
ENDMDL
