MODEL 1
REMARK VINA RESULT:    -4.356      0.000      0.000
REMARK INTER + INTRA:          -5.040
REMARK INTER:                  -4.993
REMARK INTRA:                  -0.047
REMARK UNBOUND:                -0.047
REMARK SMILES CC(C)[C@@H]([NH3+])C(=O)[O-]
REMARK SMILES IDX 4 1 5 2 6 6 7 7 8 8 2 9 1 10 3 11
REMARK H PARENT 5 3 5 4 5 5
REMARK Flexibility Score: inf
ROOT
ATOM      1  C   UNL     1      66.291  26.869  36.571  1.00  0.00     0.230 C 
ENDROOT
BRANCH   1   2
ATOM      2  N   UNL     1      65.544  25.603  36.602  1.00  0.00    -0.350 N 
ATOM      3  H   UNL     1      64.828  25.588  35.838  1.00  0.00     0.345 HD
ATOM      4  H   UNL     1      66.190  24.798  36.434  1.00  0.00     0.345 HD
ATOM      5  H   UNL     1      65.062  25.480  37.523  1.00  0.00     0.345 HD
ENDBRANCH   1   2
BRANCH   1   6
ATOM      6  C   UNL     1      67.640  26.637  35.937  1.00  0.00     0.099 C 
ATOM      7  O   UNL     1      67.724  26.080  34.810  1.00  0.00    -0.544 OA
ATOM      8  O   UNL     1      68.799  27.034  36.592  1.00  0.00    -0.544 OA
ENDBRANCH   1   6
BRANCH   1   9
ATOM      9  C   UNL     1      65.510  27.985  35.813  1.00  0.00     0.047 C 
ATOM     10  C   UNL     1      65.107  29.128  36.762  1.00  0.00     0.014 C 
ATOM     11  C   UNL     1      64.250  27.436  35.123  1.00  0.00     0.014 C 
ENDBRANCH   1   9
TORSDOF 3
ENDMDL
MODEL 2
REMARK VINA RESULT:    -3.991     14.860     15.518
REMARK INTER + INTRA:          -4.621
REMARK INTER:                  -4.591
REMARK INTRA:                  -0.030
REMARK UNBOUND:                -0.047
REMARK SMILES CC(C)[C@@H]([NH3+])C(=O)[O-]
REMARK SMILES IDX 4 1 5 2 6 6 7 7 8 8 2 9 1 10 3 11
REMARK H PARENT 5 3 5 4 5 5
REMARK Flexibility Score: inf
ROOT
ATOM      1  C   UNL     1      59.750  14.819  30.730  1.00  0.00     0.230 C 
ENDROOT
BRANCH   1   2
ATOM      2  N   UNL     1      60.682  15.755  31.375  1.00  0.00    -0.350 N 
ATOM      3  H   UNL     1      60.295  16.073  32.294  1.00  0.00     0.345 HD
ATOM      4  H   UNL     1      61.593  15.281  31.573  1.00  0.00     0.345 HD
ATOM      5  H   UNL     1      60.846  16.591  30.767  1.00  0.00     0.345 HD
ENDBRANCH   1   2
BRANCH   1   6
ATOM      6  C   UNL     1      60.349  14.334  29.433  1.00  0.00     0.099 C 
ATOM      7  O   UNL     1      61.027  15.117  28.716  1.00  0.00    -0.544 OA
ATOM      8  O   UNL     1      60.155  13.022  29.019  1.00  0.00    -0.544 OA
ENDBRANCH   1   6
BRANCH   1   9
ATOM      9  C   UNL     1      59.401  13.616  31.659  1.00  0.00     0.047 C 
ATOM     10  C   UNL     1      58.307  13.994  32.673  1.00  0.00     0.014 C 
ATOM     11  C   UNL     1      60.634  13.100  32.418  1.00  0.00     0.014 C 
ENDBRANCH   1   9
TORSDOF 3
ENDMDL
MODEL 3
REMARK VINA RESULT:    -3.738      2.174      2.752
REMARK INTER + INTRA:          -4.332
REMARK INTER:                  -4.285
REMARK INTRA:                  -0.046
REMARK UNBOUND:                -0.047
REMARK SMILES CC(C)[C@@H]([NH3+])C(=O)[O-]
REMARK SMILES IDX 4 1 5 2 6 6 7 7 8 8 2 9 1 10 3 11
REMARK H PARENT 5 3 5 4 5 5
REMARK Flexibility Score: inf
ROOT
ATOM      1  C   UNL     1      64.654  27.699  35.487  1.00  0.00     0.230 C 
ENDROOT
BRANCH   1   2
ATOM      2  N   UNL     1      65.703  28.525  34.872  1.00  0.00    -0.350 N 
ATOM      3  H   UNL     1      66.590  27.976  34.785  1.00  0.00     0.345 HD
ATOM      4  H   UNL     1      65.421  28.808  33.905  1.00  0.00     0.345 HD
ATOM      5  H   UNL     1      65.886  29.379  35.448  1.00  0.00     0.345 HD
ENDBRANCH   1   2
BRANCH   1   6
ATOM      6  C   UNL     1      65.244  26.373  35.901  1.00  0.00     0.099 C 
ATOM      7  O   UNL     1      64.495  25.445  36.307  1.00  0.00    -0.544 OA
ATOM      8  O   UNL     1      66.617  26.167  35.838  1.00  0.00    -0.544 OA
ENDBRANCH   1   6
BRANCH   1   9
ATOM      9  C   UNL     1      63.992  28.412  36.705  1.00  0.00     0.047 C 
ATOM     10  C   UNL     1      62.509  28.721  36.432  1.00  0.00     0.014 C 
ATOM     11  C   UNL     1      64.719  29.717  37.070  1.00  0.00     0.014 C 
ENDBRANCH   1   9
TORSDOF 3
ENDMDL
MODEL 4
REMARK VINA RESULT:    -3.718     15.423     16.230
REMARK INTER + INTRA:          -4.309
REMARK INTER:                  -4.261
REMARK INTRA:                  -0.048
REMARK UNBOUND:                -0.047
REMARK SMILES CC(C)[C@@H]([NH3+])C(=O)[O-]
REMARK SMILES IDX 4 1 5 2 6 6 7 7 8 8 2 9 1 10 3 11
REMARK H PARENT 5 3 5 4 5 5
REMARK Flexibility Score: inf
ROOT
ATOM      1  C   UNL     1      58.622  13.991  32.672  1.00  0.00     0.230 C 
ENDROOT
BRANCH   1   2
ATOM      2  N   UNL     1      58.423  15.425  32.931  1.00  0.00    -0.350 N 
ATOM      3  H   UNL     1      58.615  15.978  32.063  1.00  0.00     0.345 HD
ATOM      4  H   UNL     1      57.430  15.610  33.200  1.00  0.00     0.345 HD
ATOM      5  H   UNL     1      59.061  15.755  33.692  1.00  0.00     0.345 HD
ENDBRANCH   1   2
BRANCH   1   6
ATOM      6  C   UNL     1      57.295  13.357  32.338  1.00  0.00     0.099 C 
ATOM      7  O   UNL     1      56.719  13.626  31.251  1.00  0.00    -0.544 OA
ATOM      8  O   UNL     1      56.699  12.472  33.228  1.00  0.00    -0.544 OA
ENDBRANCH   1   6
BRANCH   1   9
ATOM      9  C   UNL     1      59.654  13.746  31.529  1.00  0.00     0.047 C 
ATOM     10  C   UNL     1      60.884  12.976  32.043  1.00  0.00     0.014 C 
ATOM     11  C   UNL     1      60.118  15.061  30.882  1.00  0.00     0.014 C 
ENDBRANCH   1   9
TORSDOF 3
ENDMDL
MODEL 5
REMARK VINA RESULT:    -3.694      2.848      3.521
REMARK INTER + INTRA:          -4.281
REMARK INTER:                  -4.235
REMARK INTRA:                  -0.046
REMARK UNBOUND:                -0.047
REMARK SMILES CC(C)[C@@H]([NH3+])C(=O)[O-]
REMARK SMILES IDX 4 1 5 2 6 6 7 7 8 8 2 9 1 10 3 11
REMARK H PARENT 5 3 5 4 5 5
REMARK Flexibility Score: inf
ROOT
ATOM      1  C   UNL     1      65.243  28.042  35.658  1.00  0.00     0.230 C 
ENDROOT
BRANCH   1   2
ATOM      2  N   UNL     1      64.212  27.552  34.731  1.00  0.00    -0.350 N 
ATOM      3  H   UNL     1      64.383  26.545  34.501  1.00  0.00     0.345 HD
ATOM      4  H   UNL     1      63.268  27.609  35.177  1.00  0.00     0.345 HD
ATOM      5  H   UNL     1      64.217  28.108  33.845  1.00  0.00     0.345 HD
ENDBRANCH   1   2
BRANCH   1   6
ATOM      6  C   UNL     1      64.652  29.118  36.536  1.00  0.00     0.099 C 
ATOM      7  O   UNL     1      63.465  29.501  36.358  1.00  0.00    -0.544 OA
ATOM      8  O   UNL     1      65.413  29.692  37.547  1.00  0.00    -0.544 OA
ENDBRANCH   1   6
BRANCH   1   9
ATOM      9  C   UNL     1      65.841  26.891  36.522  1.00  0.00     0.047 C 
ATOM     10  C   UNL     1      67.218  26.454  35.992  1.00  0.00     0.014 C 
ATOM     11  C   UNL     1      64.910  25.669  36.573  1.00  0.00     0.014 C 
ENDBRANCH   1   9
TORSDOF 3
ENDMDL
MODEL 6
REMARK VINA RESULT:    -3.648      1.695      2.189
REMARK INTER + INTRA:          -4.228
REMARK INTER:                  -4.364
REMARK INTRA:                   0.136
REMARK UNBOUND:                -0.047
REMARK SMILES CC(C)[C@@H]([NH3+])C(=O)[O-]
REMARK SMILES IDX 4 1 5 2 6 6 7 7 8 8 2 9 1 10 3 11
REMARK H PARENT 5 3 5 4 5 5
REMARK Flexibility Score: inf
ROOT
ATOM      1  C   UNL     1      65.674  28.060  35.746  1.00  0.00     0.230 C 
ENDROOT
BRANCH   1   2
ATOM      2  N   UNL     1      65.681  29.093  36.793  1.00  0.00    -0.350 N 
ATOM      3  H   UNL     1      65.143  28.763  37.628  1.00  0.00     0.345 HD
ATOM      4  H   UNL     1      66.659  29.279  37.111  1.00  0.00     0.345 HD
ATOM      5  H   UNL     1      65.251  29.979  36.440  1.00  0.00     0.345 HD
ENDBRANCH   1   2
BRANCH   1   6
ATOM      6  C   UNL     1      66.810  27.098  35.989  1.00  0.00     0.099 C 
ATOM      7  O   UNL     1      67.293  26.964  37.144  1.00  0.00    -0.544 OA
ATOM      8  O   UNL     1      67.333  26.353  34.938  1.00  0.00    -0.544 OA
ENDBRANCH   1   6
BRANCH   1   9
ATOM      9  C   UNL     1      64.312  27.302  35.688  1.00  0.00     0.047 C 
ATOM     10  C   UNL     1      63.155  28.196  36.169  1.00  0.00     0.014 C 
ATOM     11  C   UNL     1      64.337  26.014  36.528  1.00  0.00     0.014 C 
ENDBRANCH   1   9
TORSDOF 3
ENDMDL
MODEL 7
REMARK VINA RESULT:    -3.636     15.805     16.444
REMARK INTER + INTRA:          -4.215
REMARK INTER:                  -4.166
REMARK INTRA:                  -0.049
REMARK UNBOUND:                -0.047
REMARK SMILES CC(C)[C@@H]([NH3+])C(=O)[O-]
REMARK SMILES IDX 4 1 5 2 6 6 7 7 8 8 2 9 1 10 3 11
REMARK H PARENT 5 3 5 4 5 5
REMARK Flexibility Score: inf
ROOT
ATOM      1  C   UNL     1      59.416  13.828  31.579  1.00  0.00     0.230 C 
ENDROOT
BRANCH   1   2
ATOM      2  N   UNL     1      59.536  13.998  30.123  1.00  0.00    -0.350 N 
ATOM      3  H   UNL     1      60.334  13.427  29.758  1.00  0.00     0.345 HD
ATOM      4  H   UNL     1      58.671  13.657  29.646  1.00  0.00     0.345 HD
ATOM      5  H   UNL     1      59.698  15.003  29.880  1.00  0.00     0.345 HD
ENDBRANCH   1   2
BRANCH   1   6
ATOM      6  C   UNL     1      57.979  14.039  31.988  1.00  0.00     0.099 C 
ATOM      7  O   UNL     1      57.043  13.665  31.233  1.00  0.00    -0.544 OA
ATOM      8  O   UNL     1      57.679  14.649  33.200  1.00  0.00    -0.544 OA
ENDBRANCH   1   6
BRANCH   1   9
ATOM      9  C   UNL     1      59.922  12.429  32.043  1.00  0.00     0.047 C 
ATOM     10  C   UNL     1      60.847  12.549  33.268  1.00  0.00     0.014 C 
ATOM     11  C   UNL     1      60.666  11.686  30.921  1.00  0.00     0.014 C 
ENDBRANCH   1   9
TORSDOF 3
ENDMDL
MODEL 8
REMARK VINA RESULT:    -3.621     13.660     14.263
REMARK INTER + INTRA:          -4.198
REMARK INTER:                  -4.136
REMARK INTRA:                  -0.062
REMARK UNBOUND:                -0.047
REMARK SMILES CC(C)[C@@H]([NH3+])C(=O)[O-]
REMARK SMILES IDX 4 1 5 2 6 6 7 7 8 8 2 9 1 10 3 11
REMARK H PARENT 5 3 5 4 5 5
REMARK Flexibility Score: inf
ROOT
ATOM      1  C   UNL     1      58.244  24.646  24.977  1.00  0.00     0.230 C 
ENDROOT
BRANCH   1   2
ATOM      2  N   UNL     1      56.876  24.139  25.169  1.00  0.00    -0.350 N 
ATOM      3  H   UNL     1      56.520  24.413  26.114  1.00  0.00     0.345 HD
ATOM      4  H   UNL     1      56.231  24.563  24.463  1.00  0.00     0.345 HD
ATOM      5  H   UNL     1      56.854  23.096  25.085  1.00  0.00     0.345 HD
ENDBRANCH   1   2
BRANCH   1   6
ATOM      6  C   UNL     1      59.140  23.510  24.547  1.00  0.00     0.099 C 
ATOM      7  O   UNL     1      59.019  23.006  23.399  1.00  0.00    -0.544 OA
ATOM      8  O   UNL     1      60.104  23.012  25.415  1.00  0.00    -0.544 OA
ENDBRANCH   1   6
BRANCH   1   9
ATOM      9  C   UNL     1      58.291  25.809  23.940  1.00  0.00     0.047 C 
ATOM     10  C   UNL     1      59.471  26.757  24.220  1.00  0.00     0.014 C 
ATOM     11  C   UNL     1      56.985  26.620  23.927  1.00  0.00     0.014 C 
ENDBRANCH   1   9
TORSDOF 3
ENDMDL
MODEL 9
REMARK VINA RESULT:    -3.606     13.167     14.155
REMARK INTER + INTRA:          -4.180
REMARK INTER:                  -4.106
REMARK INTRA:                  -0.074
REMARK UNBOUND:                -0.047
REMARK SMILES CC(C)[C@@H]([NH3+])C(=O)[O-]
REMARK SMILES IDX 4 1 5 2 6 6 7 7 8 8 2 9 1 10 3 11
REMARK H PARENT 5 3 5 4 5 5
REMARK Flexibility Score: inf
ROOT
ATOM      1  C   UNL     1      59.003  24.704  24.176  1.00  0.00     0.230 C 
ENDROOT
BRANCH   1   2
ATOM      2  N   UNL     1      59.894  25.868  24.063  1.00  0.00    -0.350 N 
ATOM      3  H   UNL     1      60.057  26.100  23.056  1.00  0.00     0.345 HD
ATOM      4  H   UNL     1      59.452  26.706  24.504  1.00  0.00     0.345 HD
ATOM      5  H   UNL     1      60.815  25.674  24.521  1.00  0.00     0.345 HD
ENDBRANCH   1   2
BRANCH   1   6
ATOM      6  C   UNL     1      59.552  23.754  25.212  1.00  0.00     0.099 C 
ATOM      7  O   UNL     1      59.762  24.151  26.389  1.00  0.00    -0.544 OA
ATOM      8  O   UNL     1      59.832  22.436  24.875  1.00  0.00    -0.544 OA
ENDBRANCH   1   6
BRANCH   1   9
ATOM      9  C   UNL     1      57.543  25.122  24.531  1.00  0.00     0.047 C 
ATOM     10  C   UNL     1      56.565  23.950  24.340  1.00  0.00     0.014 C 
ATOM     11  C   UNL     1      57.068  26.317  23.688  1.00  0.00     0.014 C 
ENDBRANCH   1   9
TORSDOF 3
ENDMDL
