MODEL 1
REMARK VINA RESULT:    -3.351      0.000      0.000
REMARK INTER + INTRA:         -10.165
REMARK INTER:                  -7.269
REMARK INTRA:                  -2.896
REMARK UNBOUND:                -2.896
REMARK SMILES CCCCCCCCCCCCCCCCCCCCCC(=O)[O-]
REMARK SMILES IDX 12 1 11 2 10 3 9 4 8 5 7 6 6 7 5 8 4 9 3 10 2 11 1 12 13 13
REMARK SMILES IDX 14 14 15 15 16 16 17 17 18 18 19 19 20 20 21 21 22 22 23 23
REMARK SMILES IDX 24 24
REMARK H PARENT
REMARK Flexibility Score: inf
ROOT
ATOM      1  C   UNL     1      23.629 -14.861  -1.497  1.00  0.00     0.000 C 
ENDROOT
BRANCH   1   2
ATOM      2  C   UNL     1      24.250 -13.497  -1.849  1.00  0.00     0.000 C 
BRANCH   2   3
ATOM      3  C   UNL     1      25.767 -13.454  -1.615  1.00  0.00     0.000 C 
BRANCH   3   4
ATOM      4  C   UNL     1      26.090 -13.491  -0.116  1.00  0.00    -0.000 C 
BRANCH   4   5
ATOM      5  C   UNL     1      27.601 -13.496   0.165  1.00  0.00    -0.000 C 
BRANCH   5   6
ATOM      6  C   UNL     1      28.050 -14.732   0.959  1.00  0.00    -0.000 C 
BRANCH   6   7
ATOM      7  C   UNL     1      29.146 -14.366   1.969  1.00  0.00    -0.000 C 
BRANCH   7   8
ATOM      8  C   UNL     1      29.480 -12.862   1.977  1.00  0.00    -0.000 C 
BRANCH   8   9
ATOM      9  C   UNL     1      30.730 -12.469   1.170  1.00  0.00    -0.000 C 
BRANCH   9  10
ATOM     10  C   UNL     1      30.527 -11.199   0.330  1.00  0.00    -0.000 C 
BRANCH  10  11
ATOM     11  C   UNL     1      30.480 -11.532  -1.165  1.00  0.00    -0.003 C 
ATOM     12  C   UNL     1      31.125 -12.886  -1.450  1.00  0.00     0.004 C 
ENDBRANCH  10  11
ENDBRANCH   9  10
ENDBRANCH   8   9
ENDBRANCH   7   8
ENDBRANCH   6   7
ENDBRANCH   5   6
ENDBRANCH   4   5
ENDBRANCH   3   4
ENDBRANCH   2   3
ENDBRANCH   1   2
BRANCH   1  13
ATOM     13  C   UNL     1      23.168 -15.699  -2.706  1.00  0.00     0.000 C 
BRANCH  13  14
ATOM     14  C   UNL     1      24.065 -15.595  -3.958  1.00  0.00     0.000 C 
BRANCH  14  15
ATOM     15  C   UNL     1      25.101 -16.721  -4.115  1.00  0.00     0.000 C 
BRANCH  15  16
ATOM     16  C   UNL     1      26.549 -16.201  -4.125  1.00  0.00     0.000 C 
BRANCH  16  17
ATOM     17  C   UNL     1      27.280 -16.460  -2.797  1.00  0.00     0.000 C 
BRANCH  17  18
ATOM     18  C   UNL     1      28.568 -15.634  -2.653  1.00  0.00     0.000 C 
BRANCH  18  19
ATOM     19  C   UNL     1      29.648 -16.130  -3.627  1.00  0.00     0.000 C 
BRANCH  19  20
ATOM     20  C   UNL     1      30.872 -16.724  -2.908  1.00  0.00     0.006 C 
BRANCH  20  21
ATOM     21  C   UNL     1      30.955 -16.379  -1.412  1.00  0.00     0.053 C 
BRANCH  21  22
ATOM     22  C   UNL     1      30.885 -17.602  -0.550  1.00  0.00     0.041 C 
ATOM     23  O   UNL     1      30.646 -17.496   0.682  1.00  0.00    -0.550 OA
ATOM     24  O   UNL     1      31.061 -18.861  -1.110  1.00  0.00    -0.550 OA
ENDBRANCH  21  22
ENDBRANCH  20  21
ENDBRANCH  19  20
ENDBRANCH  18  19
ENDBRANCH  17  18
ENDBRANCH  16  17
ENDBRANCH  15  16
ENDBRANCH  14  15
ENDBRANCH  13  14
ENDBRANCH   1  13
TORSDOF 20
ENDMDL
MODEL 2
REMARK VINA RESULT:    -3.194      1.532      6.539
REMARK INTER + INTRA:          -9.824
REMARK INTER:                  -7.701
REMARK INTRA:                  -2.123
REMARK UNBOUND:                -2.896
REMARK SMILES CCCCCCCCCCCCCCCCCCCCCC(=O)[O-]
REMARK SMILES IDX 12 1 11 2 10 3 9 4 8 5 7 6 6 7 5 8 4 9 3 10 2 11 1 12 13 13
REMARK SMILES IDX 14 14 15 15 16 16 17 17 18 18 19 19 20 20 21 21 22 22 23 23
REMARK SMILES IDX 24 24
REMARK H PARENT
REMARK Flexibility Score: inf
ROOT
ATOM      1  C   UNL     1      30.031 -15.853  -1.963  1.00  0.00     0.000 C 
ENDROOT
BRANCH   1   2
ATOM      2  C   UNL     1      29.048 -15.998  -3.139  1.00  0.00     0.000 C 
BRANCH   2   3
ATOM      3  C   UNL     1      27.652 -16.465  -2.696  1.00  0.00     0.000 C 
BRANCH   3   4
ATOM      4  C   UNL     1      26.635 -16.301  -3.834  1.00  0.00    -0.000 C 
BRANCH   4   5
ATOM      5  C   UNL     1      25.481 -17.312  -3.746  1.00  0.00    -0.000 C 
BRANCH   5   6
ATOM      6  C   UNL     1      24.117 -16.678  -4.058  1.00  0.00    -0.000 C 
BRANCH   6   7
ATOM      7  C   UNL     1      23.192 -16.741  -2.834  1.00  0.00    -0.000 C 
BRANCH   7   8
ATOM      8  C   UNL     1      22.901 -15.355  -2.227  1.00  0.00    -0.000 C 
BRANCH   8   9
ATOM      9  C   UNL     1      23.339 -14.161  -3.094  1.00  0.00    -0.000 C 
BRANCH   9  10
ATOM     10  C   UNL     1      24.384 -13.271  -2.404  1.00  0.00    -0.000 C 
BRANCH  10  11
ATOM     11  C   UNL     1      24.736 -13.812  -1.014  1.00  0.00    -0.003 C 
ATOM     12  C   UNL     1      24.806 -12.687   0.014  1.00  0.00     0.004 C 
ENDBRANCH  10  11
ENDBRANCH   9  10
ENDBRANCH   8   9
ENDBRANCH   7   8
ENDBRANCH   6   7
ENDBRANCH   5   6
ENDBRANCH   4   5
ENDBRANCH   3   4
ENDBRANCH   2   3
ENDBRANCH   1   2
BRANCH   1  13
ATOM     13  C   UNL     1      31.104 -14.762  -2.143  1.00  0.00     0.000 C 
BRANCH  13  14
ATOM     14  C   UNL     1      30.649 -13.515  -2.931  1.00  0.00     0.000 C 
BRANCH  14  15
ATOM     15  C   UNL     1      31.119 -12.169  -2.352  1.00  0.00     0.000 C 
BRANCH  15  16
ATOM     16  C   UNL     1      31.111 -12.147  -0.814  1.00  0.00     0.000 C 
BRANCH  16  17
ATOM     17  C   UNL     1      31.064 -10.720  -0.243  1.00  0.00     0.000 C 
BRANCH  17  18
ATOM     18  C   UNL     1      30.486 -10.664   1.180  1.00  0.00     0.000 C 
BRANCH  18  19
ATOM     19  C   UNL     1      30.604 -12.030   1.873  1.00  0.00     0.000 C 
BRANCH  19  20
ATOM     20  C   UNL     1      29.263 -12.529   2.440  1.00  0.00     0.006 C 
BRANCH  20  21
ATOM     21  C   UNL     1      29.030 -14.039   2.276  1.00  0.00     0.053 C 
BRANCH  21  22
ATOM     22  C   UNL     1      28.377 -14.367   0.969  1.00  0.00     0.041 C 
ATOM     23  O   UNL     1      28.067 -13.447   0.166  1.00  0.00    -0.550 OA
ATOM     24  O   UNL     1      28.130 -15.690   0.625  1.00  0.00    -0.550 OA
ENDBRANCH  21  22
ENDBRANCH  20  21
ENDBRANCH  19  20
ENDBRANCH  18  19
ENDBRANCH  17  18
ENDBRANCH  16  17
ENDBRANCH  15  16
ENDBRANCH  14  15
ENDBRANCH  13  14
ENDBRANCH   1  13
TORSDOF 20
ENDMDL
MODEL 3
REMARK VINA RESULT:    -3.077      1.140      2.323
REMARK INTER + INTRA:          -9.570
REMARK INTER:                  -7.028
REMARK INTRA:                  -2.542
REMARK UNBOUND:                -2.896
REMARK SMILES CCCCCCCCCCCCCCCCCCCCCC(=O)[O-]
REMARK SMILES IDX 12 1 11 2 10 3 9 4 8 5 7 6 6 7 5 8 4 9 3 10 2 11 1 12 13 13
REMARK SMILES IDX 14 14 15 15 16 16 17 17 18 18 19 19 20 20 21 21 22 22 23 23
REMARK SMILES IDX 24 24
REMARK H PARENT
REMARK Flexibility Score: inf
ROOT
ATOM      1  C   UNL     1      24.673 -13.523  -1.519  1.00  0.00     0.000 C 
ENDROOT
BRANCH   1   2
ATOM      2  C   UNL     1      25.147 -13.095  -0.118  1.00  0.00     0.000 C 
BRANCH   2   3
ATOM      3  C   UNL     1      26.630 -13.409   0.132  1.00  0.00     0.000 C 
BRANCH   3   4
ATOM      4  C   UNL     1      27.357 -13.699  -1.188  1.00  0.00    -0.000 C 
BRANCH   4   5
ATOM      5  C   UNL     1      28.886 -13.624  -1.051  1.00  0.00    -0.000 C 
BRANCH   5   6
ATOM      6  C   UNL     1      29.581 -13.278  -2.377  1.00  0.00    -0.000 C 
BRANCH   6   7
ATOM      7  C   UNL     1      30.852 -12.453  -2.130  1.00  0.00    -0.000 C 
BRANCH   7   8
ATOM      8  C   UNL     1      31.125 -12.201  -0.635  1.00  0.00    -0.000 C 
BRANCH   8   9
ATOM      9  C   UNL     1      30.782 -10.784  -0.142  1.00  0.00    -0.000 C 
BRANCH   9  10
ATOM     10  C   UNL     1      30.297 -10.756   1.316  1.00  0.00    -0.000 C 
BRANCH  10  11
ATOM     11  C   UNL     1      30.565 -12.096   2.009  1.00  0.00    -0.003 C 
ATOM     12  C   UNL     1      29.308 -12.625   2.692  1.00  0.00     0.004 C 
ENDBRANCH  10  11
ENDBRANCH   9  10
ENDBRANCH   8   9
ENDBRANCH   7   8
ENDBRANCH   6   7
ENDBRANCH   5   6
ENDBRANCH   4   5
ENDBRANCH   3   4
ENDBRANCH   2   3
ENDBRANCH   1   2
BRANCH   1  13
ATOM     13  C   UNL     1      23.597 -14.627  -1.534  1.00  0.00     0.000 C 
BRANCH  13  14
ATOM     14  C   UNL     1      23.773 -15.703  -2.627  1.00  0.00     0.000 C 
BRANCH  14  15
ATOM     15  C   UNL     1      24.250 -15.175  -3.991  1.00  0.00     0.000 C 
BRANCH  15  16
ATOM     16  C   UNL     1      25.783 -15.114  -4.104  1.00  0.00     0.000 C 
BRANCH  16  17
ATOM     17  C   UNL     1      26.460 -16.430  -3.688  1.00  0.00     0.000 C 
BRANCH  17  18
ATOM     18  C   UNL     1      27.967 -16.273  -3.435  1.00  0.00     0.000 C 
BRANCH  18  19
ATOM     19  C   UNL     1      28.362 -16.880  -2.079  1.00  0.00     0.000 C 
BRANCH  19  20
ATOM     20  C   UNL     1      29.786 -17.463  -2.079  1.00  0.00     0.006 C 
BRANCH  20  21
ATOM     21  C   UNL     1      30.793 -16.672  -1.229  1.00  0.00     0.053 C 
BRANCH  21  22
ATOM     22  C   UNL     1      30.608 -16.922   0.236  1.00  0.00     0.041 C 
ATOM     23  O   UNL     1      30.126 -16.024   0.977  1.00  0.00    -0.550 OA
ATOM     24  O   UNL     1      30.948 -18.154   0.782  1.00  0.00    -0.550 OA
ENDBRANCH  21  22
ENDBRANCH  20  21
ENDBRANCH  19  20
ENDBRANCH  18  19
ENDBRANCH  17  18
ENDBRANCH  16  17
ENDBRANCH  15  16
ENDBRANCH  14  15
ENDBRANCH  13  14
ENDBRANCH   1  13
TORSDOF 20
ENDMDL
MODEL 4
REMARK VINA RESULT:    -2.866      2.427      5.212
REMARK INTER + INTRA:          -9.113
REMARK INTER:                  -6.972
REMARK INTRA:                  -2.141
REMARK UNBOUND:                -2.896
REMARK SMILES CCCCCCCCCCCCCCCCCCCCCC(=O)[O-]
REMARK SMILES IDX 12 1 11 2 10 3 9 4 8 5 7 6 6 7 5 8 4 9 3 10 2 11 1 12 13 13
REMARK SMILES IDX 14 14 15 15 16 16 17 17 18 18 19 19 20 20 21 21 22 22 23 23
REMARK SMILES IDX 24 24
REMARK H PARENT
REMARK Flexibility Score: inf
ROOT
ATOM      1  C   UNL     1      23.178 -14.841  -2.096  1.00  0.00     0.000 C 
ENDROOT
BRANCH   1   2
ATOM      2  C   UNL     1      23.796 -16.219  -2.399  1.00  0.00     0.000 C 
BRANCH   2   3
ATOM      3  C   UNL     1      24.142 -16.404  -3.885  1.00  0.00     0.000 C 
BRANCH   3   4
ATOM      4  C   UNL     1      25.607 -16.827  -4.056  1.00  0.00    -0.000 C 
BRANCH   4   5
ATOM      5  C   UNL     1      26.579 -15.637  -3.991  1.00  0.00    -0.000 C 
BRANCH   5   6
ATOM      6  C   UNL     1      28.048 -16.068  -4.116  1.00  0.00    -0.000 C 
BRANCH   6   7
ATOM      7  C   UNL     1      28.814 -15.783  -2.816  1.00  0.00    -0.000 C 
BRANCH   7   8
ATOM      8  C   UNL     1      30.338 -15.702  -3.020  1.00  0.00    -0.000 C 
BRANCH   8   9
ATOM      9  C   UNL     1      31.020 -17.040  -3.357  1.00  0.00    -0.000 C 
BRANCH   9  10
ATOM     10  C   UNL     1      30.973 -18.047  -2.197  1.00  0.00    -0.000 C 
BRANCH  10  11
ATOM     11  C   UNL     1      31.098 -17.334  -0.846  1.00  0.00    -0.003 C 
ATOM     12  C   UNL     1      30.733 -18.267   0.306  1.00  0.00     0.004 C 
ENDBRANCH  10  11
ENDBRANCH   9  10
ENDBRANCH   8   9
ENDBRANCH   7   8
ENDBRANCH   6   7
ENDBRANCH   5   6
ENDBRANCH   4   5
ENDBRANCH   3   4
ENDBRANCH   2   3
ENDBRANCH   1   2
BRANCH   1  13
ATOM     13  C   UNL     1      24.186 -13.676  -2.032  1.00  0.00     0.000 C 
BRANCH  13  14
ATOM     14  C   UNL     1      24.368 -13.041  -0.637  1.00  0.00     0.000 C 
BRANCH  14  15
ATOM     15  C   UNL     1      25.802 -13.085  -0.082  1.00  0.00     0.000 C 
BRANCH  15  16
ATOM     16  C   UNL     1      26.831 -13.551  -1.127  1.00  0.00     0.000 C 
BRANCH  16  17
ATOM     17  C   UNL     1      28.233 -13.751  -0.527  1.00  0.00     0.000 C 
BRANCH  17  18
ATOM     18  C   UNL     1      28.257 -14.794   0.601  1.00  0.00     0.000 C 
BRANCH  18  19
ATOM     19  C   UNL     1      29.634 -14.833   1.282  1.00  0.00     0.000 C 
BRANCH  19  20
ATOM     20  C   UNL     1      30.612 -13.792   0.709  1.00  0.00     0.006 C 
BRANCH  20  21
ATOM     21  C   UNL     1      31.107 -12.759   1.733  1.00  0.00     0.053 C 
BRANCH  21  22
ATOM     22  C   UNL     1      30.231 -11.546   1.774  1.00  0.00     0.041 C 
ATOM     23  O   UNL     1      29.895 -10.969   0.705  1.00  0.00    -0.550 OA
ATOM     24  O   UNL     1      29.766 -11.061   2.990  1.00  0.00    -0.550 OA
ENDBRANCH  21  22
ENDBRANCH  20  21
ENDBRANCH  19  20
ENDBRANCH  18  19
ENDBRANCH  17  18
ENDBRANCH  16  17
ENDBRANCH  15  16
ENDBRANCH  14  15
ENDBRANCH  13  14
ENDBRANCH   1  13
TORSDOF 20
ENDMDL
MODEL 5
REMARK VINA RESULT:    -2.641      2.106      5.624
REMARK INTER + INTRA:          -8.625
REMARK INTER:                  -6.422
REMARK INTRA:                  -2.204
REMARK UNBOUND:                -2.896
REMARK SMILES CCCCCCCCCCCCCCCCCCCCCC(=O)[O-]
REMARK SMILES IDX 12 1 11 2 10 3 9 4 8 5 7 6 6 7 5 8 4 9 3 10 2 11 1 12 13 13
REMARK SMILES IDX 14 14 15 15 16 16 17 17 18 18 19 19 20 20 21 21 22 22 23 23
REMARK SMILES IDX 24 24
REMARK H PARENT
REMARK Flexibility Score: inf
ROOT
ATOM      1  C   UNL     1      27.798 -16.567  -2.215  1.00  0.00     0.000 C 
ENDROOT
BRANCH   1   2
ATOM      2  C   UNL     1      26.966 -16.434  -3.504  1.00  0.00     0.000 C 
BRANCH   2   3
ATOM      3  C   UNL     1      25.701 -17.306  -3.491  1.00  0.00     0.000 C 
BRANCH   3   4
ATOM      4  C   UNL     1      24.469 -16.486  -3.895  1.00  0.00    -0.000 C 
BRANCH   4   5
ATOM      5  C   UNL     1      23.252 -16.765  -2.999  1.00  0.00    -0.000 C 
BRANCH   5   6
ATOM      6  C   UNL     1      22.921 -15.588  -2.069  1.00  0.00    -0.000 C 
BRANCH   6   7
ATOM      7  C   UNL     1      23.364 -14.257  -2.692  1.00  0.00    -0.000 C 
BRANCH   7   8
ATOM      8  C   UNL     1      24.092 -13.338  -1.694  1.00  0.00    -0.000 C 
BRANCH   8   9
ATOM      9  C   UNL     1      25.296 -13.978  -0.980  1.00  0.00    -0.000 C 
BRANCH   9  10
ATOM     10  C   UNL     1      26.338 -12.947  -0.518  1.00  0.00    -0.000 C 
BRANCH  10  11
ATOM     11  C   UNL     1      27.732 -13.579  -0.430  1.00  0.00    -0.003 C 
ATOM     12  C   UNL     1      27.838 -14.516   0.770  1.00  0.00     0.004 C 
ENDBRANCH  10  11
ENDBRANCH   9  10
ENDBRANCH   8   9
ENDBRANCH   7   8
ENDBRANCH   6   7
ENDBRANCH   5   6
ENDBRANCH   4   5
ENDBRANCH   3   4
ENDBRANCH   2   3
ENDBRANCH   1   2
BRANCH   1  13
ATOM     13  C   UNL     1      29.135 -17.317  -2.377  1.00  0.00     0.000 C 
BRANCH  13  14
ATOM     14  C   UNL     1      30.333 -16.441  -2.800  1.00  0.00     0.000 C 
BRANCH  14  15
ATOM     15  C   UNL     1      30.333 -15.014  -2.225  1.00  0.00     0.000 C 
BRANCH  15  16
ATOM     16  C   UNL     1      29.550 -14.020  -3.099  1.00  0.00     0.000 C 
BRANCH  16  17
ATOM     17  C   UNL     1      30.290 -12.684  -3.284  1.00  0.00     0.000 C 
BRANCH  17  18
ATOM     18  C   UNL     1      31.125 -12.289  -2.055  1.00  0.00     0.000 C 
BRANCH  18  19
ATOM     19  C   UNL     1      30.412 -11.203  -1.235  1.00  0.00     0.000 C 
BRANCH  19  20
ATOM     20  C   UNL     1      31.059 -10.975   0.143  1.00  0.00     0.006 C 
BRANCH  20  21
ATOM     21  C   UNL     1      30.969 -12.182   1.090  1.00  0.00     0.053 C 
BRANCH  21  22
ATOM     22  C   UNL     1      30.130 -11.890   2.294  1.00  0.00     0.041 C 
ATOM     23  O   UNL     1      29.979 -10.703   2.690  1.00  0.00    -0.550 OA
ATOM     24  O   UNL     1      29.495 -12.924   2.970  1.00  0.00    -0.550 OA
ENDBRANCH  21  22
ENDBRANCH  20  21
ENDBRANCH  19  20
ENDBRANCH  18  19
ENDBRANCH  17  18
ENDBRANCH  16  17
ENDBRANCH  15  16
ENDBRANCH  14  15
ENDBRANCH  13  14
ENDBRANCH   1  13
TORSDOF 20
ENDMDL
MODEL 6
REMARK VINA RESULT:    -2.210      2.439      5.545
REMARK INTER + INTRA:          -7.690
REMARK INTER:                  -5.522
REMARK INTRA:                  -2.167
REMARK UNBOUND:                -2.896
REMARK SMILES CCCCCCCCCCCCCCCCCCCCCC(=O)[O-]
REMARK SMILES IDX 12 1 11 2 10 3 9 4 8 5 7 6 6 7 5 8 4 9 3 10 2 11 1 12 13 13
REMARK SMILES IDX 14 14 15 15 16 16 17 17 18 18 19 19 20 20 21 21 22 22 23 23
REMARK SMILES IDX 24 24
REMARK H PARENT
REMARK Flexibility Score: inf
ROOT
ATOM      1  C   UNL     1      24.645 -14.027  -1.559  1.00  0.00     0.000 C 
ENDROOT
BRANCH   1   2
ATOM      2  C   UNL     1      24.155 -13.688  -2.979  1.00  0.00     0.000 C 
BRANCH   2   3
ATOM      3  C   UNL     1      24.642 -14.693  -4.034  1.00  0.00     0.000 C 
BRANCH   3   4
ATOM      4  C   UNL     1      25.389 -15.860  -3.374  1.00  0.00    -0.000 C 
BRANCH   4   5
ATOM      5  C   UNL     1      26.842 -15.984  -3.861  1.00  0.00    -0.000 C 
BRANCH   5   6
ATOM      6  C   UNL     1      27.616 -14.662  -3.751  1.00  0.00    -0.000 C 
BRANCH   6   7
ATOM      7  C   UNL     1      29.108 -14.875  -4.046  1.00  0.00    -0.000 C 
BRANCH   7   8
ATOM      8  C   UNL     1      29.499 -16.362  -4.124  1.00  0.00    -0.000 C 
BRANCH   8   9
ATOM      9  C   UNL     1      30.960 -16.671  -3.749  1.00  0.00    -0.000 C 
BRANCH   9  10
ATOM     10  C   UNL     1      31.125 -17.105  -2.285  1.00  0.00    -0.000 C 
BRANCH  10  11
ATOM     11  C   UNL     1      29.778 -17.514  -1.678  1.00  0.00    -0.003 C 
ATOM     12  C   UNL     1      29.528 -16.796  -0.355  1.00  0.00     0.004 C 
ENDBRANCH  10  11
ENDBRANCH   9  10
ENDBRANCH   8   9
ENDBRANCH   7   8
ENDBRANCH   6   7
ENDBRANCH   5   6
ENDBRANCH   4   5
ENDBRANCH   3   4
ENDBRANCH   2   3
ENDBRANCH   1   2
BRANCH   1  13
ATOM     13  C   UNL     1      25.895 -13.250  -1.099  1.00  0.00     0.000 C 
BRANCH  13  14
ATOM     14  C   UNL     1      26.587 -13.806   0.163  1.00  0.00     0.000 C 
BRANCH  14  15
ATOM     15  C   UNL     1      28.085 -13.478   0.284  1.00  0.00     0.000 C 
BRANCH  15  16
ATOM     16  C   UNL     1      28.709 -13.038  -1.051  1.00  0.00     0.000 C 
BRANCH  16  17
ATOM     17  C   UNL     1      30.095 -13.659  -1.290  1.00  0.00     0.000 C 
BRANCH  17  18
ATOM     18  C   UNL     1      31.108 -12.656  -1.863  1.00  0.00     0.000 C 
BRANCH  18  19
ATOM     19  C   UNL     1      31.082 -11.339  -1.073  1.00  0.00     0.000 C 
BRANCH  19  20
ATOM     20  C   UNL     1      31.124 -11.556   0.450  1.00  0.00     0.006 C 
BRANCH  20  21
ATOM     21  C   UNL     1      30.375 -10.488   1.261  1.00  0.00     0.053 C 
BRANCH  21  22
ATOM     22  C   UNL     1      30.285 -10.846   2.713  1.00  0.00     0.041 C 
ATOM     23  O   UNL     1      30.944 -10.197   3.568  1.00  0.00    -0.550 OA
ATOM     24  O   UNL     1      29.457 -11.883   3.125  1.00  0.00    -0.550 OA
ENDBRANCH  21  22
ENDBRANCH  20  21
ENDBRANCH  19  20
ENDBRANCH  18  19
ENDBRANCH  17  18
ENDBRANCH  16  17
ENDBRANCH  15  16
ENDBRANCH  14  15
ENDBRANCH  13  14
ENDBRANCH   1  13
TORSDOF 20
ENDMDL
MODEL 7
REMARK VINA RESULT:    -2.127      2.590      5.677
REMARK INTER + INTRA:          -7.511
REMARK INTER:                  -7.020
REMARK INTRA:                  -0.491
REMARK UNBOUND:                -2.896
REMARK SMILES CCCCCCCCCCCCCCCCCCCCCC(=O)[O-]
REMARK SMILES IDX 12 1 11 2 10 3 9 4 8 5 7 6 6 7 5 8 4 9 3 10 2 11 1 12 13 13
REMARK SMILES IDX 14 14 15 15 16 16 17 17 18 18 19 19 20 20 21 21 22 22 23 23
REMARK SMILES IDX 24 24
REMARK H PARENT
REMARK Flexibility Score: inf
ROOT
ATOM      1  C   UNL     1      23.876 -14.665  -1.530  1.00  0.00     0.000 C 
ENDROOT
BRANCH   1   2
ATOM      2  C   UNL     1      23.621 -15.570  -2.749  1.00  0.00     0.000 C 
BRANCH   2   3
ATOM      3  C   UNL     1      24.250 -15.024  -4.040  1.00  0.00     0.000 C 
BRANCH   3   4
ATOM      4  C   UNL     1      25.748 -14.752  -3.845  1.00  0.00    -0.000 C 
BRANCH   4   5
ATOM      5  C   UNL     1      26.560 -16.039  -3.628  1.00  0.00    -0.000 C 
BRANCH   5   6
ATOM      6  C   UNL     1      28.010 -15.912  -4.121  1.00  0.00    -0.000 C 
BRANCH   6   7
ATOM      7  C   UNL     1      28.989 -16.508  -3.100  1.00  0.00    -0.000 C 
BRANCH   7   8
ATOM      8  C   UNL     1      29.526 -15.466  -2.102  1.00  0.00    -0.000 C 
BRANCH   8   9
ATOM      9  C   UNL     1      30.644 -15.971  -1.173  1.00  0.00    -0.000 C 
BRANCH   9  10
ATOM     10  C   UNL     1      30.109 -16.655   0.095  1.00  0.00    -0.000 C 
BRANCH  10  11
ATOM     11  C   UNL     1      30.810 -17.997   0.331  1.00  0.00    -0.003 C 
ATOM     12  C   UNL     1      30.950 -18.783  -0.969  1.00  0.00     0.004 C 
ENDBRANCH  10  11
ENDBRANCH   9  10
ENDBRANCH   8   9
ENDBRANCH   7   8
ENDBRANCH   6   7
ENDBRANCH   5   6
ENDBRANCH   4   5
ENDBRANCH   3   4
ENDBRANCH   2   3
ENDBRANCH   1   2
BRANCH   1  13
ATOM     13  C   UNL     1      24.979 -13.605  -1.725  1.00  0.00     0.000 C 
BRANCH  13  14
ATOM     14  C   UNL     1      25.672 -13.132  -0.429  1.00  0.00     0.000 C 
BRANCH  14  15
ATOM     15  C   UNL     1      27.183 -13.411  -0.359  1.00  0.00     0.000 C 
BRANCH  15  16
ATOM     16  C   UNL     1      27.719 -13.434   1.083  1.00  0.00     0.000 C 
BRANCH  16  17
ATOM     17  C   UNL     1      29.253 -13.522   1.143  1.00  0.00     0.000 C 
BRANCH  17  18
ATOM     18  C   UNL     1      29.852 -12.723   2.310  1.00  0.00     0.000 C 
BRANCH  18  19
ATOM     19  C   UNL     1      29.818 -11.215   2.017  1.00  0.00     0.000 C 
BRANCH  19  20
ATOM     20  C   UNL     1      31.051 -10.732   1.231  1.00  0.00     0.006 C 
BRANCH  20  21
ATOM     21  C   UNL     1      31.125 -11.255  -0.212  1.00  0.00     0.053 C 
BRANCH  21  22
ATOM     22  C   UNL     1      31.014 -10.149  -1.215  1.00  0.00     0.041 C 
ATOM     23  O   UNL     1      31.106 -10.399  -2.447  1.00  0.00    -0.550 OA
ATOM     24  O   UNL     1      30.787  -8.845  -0.794  1.00  0.00    -0.550 OA
ENDBRANCH  21  22
ENDBRANCH  20  21
ENDBRANCH  19  20
ENDBRANCH  18  19
ENDBRANCH  17  18
ENDBRANCH  16  17
ENDBRANCH  15  16
ENDBRANCH  14  15
ENDBRANCH  13  14
ENDBRANCH   1  13
TORSDOF 20
ENDMDL
MODEL 8
REMARK VINA RESULT:    -2.081      2.585      6.942
REMARK INTER + INTRA:          -7.411
REMARK INTER:                  -5.672
REMARK INTRA:                  -1.739
REMARK UNBOUND:                -2.896
REMARK SMILES CCCCCCCCCCCCCCCCCCCCCC(=O)[O-]
REMARK SMILES IDX 12 1 11 2 10 3 9 4 8 5 7 6 6 7 5 8 4 9 3 10 2 11 1 12 13 13
REMARK SMILES IDX 14 14 15 15 16 16 17 17 18 18 19 19 20 20 21 21 22 22 23 23
REMARK SMILES IDX 24 24
REMARK H PARENT
REMARK Flexibility Score: inf
ROOT
ATOM      1  C   UNL     1      29.231 -14.267   2.445  1.00  0.00     0.000 C 
ENDROOT
BRANCH   1   2
ATOM      2  C   UNL     1      29.454 -14.997   1.108  1.00  0.00     0.000 C 
BRANCH   2   3
ATOM      3  C   UNL     1      30.670 -15.935   1.135  1.00  0.00     0.000 C 
BRANCH   3   4
ATOM      4  C   UNL     1      30.602 -16.951  -0.013  1.00  0.00    -0.000 C 
BRANCH   4   5
ATOM      5  C   UNL     1      30.768 -16.297  -1.394  1.00  0.00    -0.000 C 
BRANCH   5   6
ATOM      6  C   UNL     1      29.995 -17.038  -2.495  1.00  0.00    -0.000 C 
BRANCH   6   7
ATOM      7  C   UNL     1      28.481 -16.961  -2.248  1.00  0.00    -0.000 C 
BRANCH   7   8
ATOM      8  C   UNL     1      27.798 -15.837  -3.049  1.00  0.00    -0.000 C 
BRANCH   8   9
ATOM      9  C   UNL     1      26.773 -16.314  -4.094  1.00  0.00    -0.000 C 
BRANCH   9  10
ATOM     10  C   UNL     1      25.384 -15.686  -3.904  1.00  0.00    -0.000 C 
BRANCH  10  11
ATOM     11  C   UNL     1      24.293 -16.762  -3.888  1.00  0.00    -0.003 C 
ATOM     12  C   UNL     1      23.256 -16.480  -2.804  1.00  0.00     0.004 C 
ENDBRANCH  10  11
ENDBRANCH   9  10
ENDBRANCH   8   9
ENDBRANCH   7   8
ENDBRANCH   6   7
ENDBRANCH   5   6
ENDBRANCH   4   5
ENDBRANCH   3   4
ENDBRANCH   2   3
ENDBRANCH   1   2
BRANCH   1  13
ATOM     13  C   UNL     1      29.536 -12.756   2.421  1.00  0.00     0.000 C 
BRANCH  13  14
ATOM     14  C   UNL     1      30.795 -12.352   1.624  1.00  0.00     0.000 C 
BRANCH  14  15
ATOM     15  C   UNL     1      30.820 -10.892   1.141  1.00  0.00     0.000 C 
BRANCH  15  16
ATOM     16  C   UNL     1      30.768 -10.769  -0.391  1.00  0.00     0.000 C 
BRANCH  16  17
ATOM     17  C   UNL     1      30.995 -12.115  -1.100  1.00  0.00     0.000 C 
BRANCH  17  18
ATOM     18  C   UNL     1      29.795 -12.548  -1.957  1.00  0.00     0.000 C 
BRANCH  18  19
ATOM     19  C   UNL     1      28.899 -13.531  -1.189  1.00  0.00     0.000 C 
BRANCH  19  20
ATOM     20  C   UNL     1      27.525 -12.934  -0.835  1.00  0.00     0.006 C 
BRANCH  20  21
ATOM     21  C   UNL     1      26.368 -13.945  -0.870  1.00  0.00     0.053 C 
BRANCH  21  22
ATOM     22  C   UNL     1      25.040 -13.285  -0.667  1.00  0.00     0.041 C 
ATOM     23  O   UNL     1      24.830 -12.582   0.358  1.00  0.00    -0.550 OA
ATOM     24  O   UNL     1      24.038 -13.426  -1.619  1.00  0.00    -0.550 OA
ENDBRANCH  21  22
ENDBRANCH  20  21
ENDBRANCH  19  20
ENDBRANCH  18  19
ENDBRANCH  17  18
ENDBRANCH  16  17
ENDBRANCH  15  16
ENDBRANCH  14  15
ENDBRANCH  13  14
ENDBRANCH   1  13
TORSDOF 20
ENDMDL
MODEL 9
REMARK VINA RESULT:    -1.975      1.299      1.930
REMARK INTER + INTRA:          -7.180
REMARK INTER:                  -5.297
REMARK INTRA:                  -1.883
REMARK UNBOUND:                -2.896
REMARK SMILES CCCCCCCCCCCCCCCCCCCCCC(=O)[O-]
REMARK SMILES IDX 12 1 11 2 10 3 9 4 8 5 7 6 6 7 5 8 4 9 3 10 2 11 1 12 13 13
REMARK SMILES IDX 14 14 15 15 16 16 17 17 18 18 19 19 20 20 21 21 22 22 23 23
REMARK SMILES IDX 24 24
REMARK H PARENT
REMARK Flexibility Score: inf
ROOT
ATOM      1  C   UNL     1      23.764 -15.041  -1.802  1.00  0.00     0.000 C 
ENDROOT
BRANCH   1   2
ATOM      2  C   UNL     1      24.168 -13.564  -1.641  1.00  0.00     0.000 C 
BRANCH   2   3
ATOM      3  C   UNL     1      24.665 -13.232  -0.226  1.00  0.00     0.000 C 
BRANCH   3   4
ATOM      4  C   UNL     1      26.143 -12.818  -0.249  1.00  0.00    -0.000 C 
BRANCH   4   5
ATOM      5  C   UNL     1      27.089 -14.013  -0.449  1.00  0.00    -0.000 C 
BRANCH   5   6
ATOM      6  C   UNL     1      27.634 -14.563   0.877  1.00  0.00    -0.000 C 
BRANCH   6   7
ATOM      7  C   UNL     1      29.169 -14.575   0.875  1.00  0.00    -0.000 C 
BRANCH   7   8
ATOM      8  C   UNL     1      29.780 -13.321   0.222  1.00  0.00    -0.000 C 
BRANCH   8   9
ATOM      9  C   UNL     1      31.124 -12.867   0.818  1.00  0.00    -0.000 C 
BRANCH   9  10
ATOM     10  C   UNL     1      30.984 -12.250   2.218  1.00  0.00    -0.000 C 
BRANCH  10  11
ATOM     11  C   UNL     1      29.963 -11.107   2.213  1.00  0.00    -0.003 C 
ATOM     12  C   UNL     1      30.455  -9.925   3.045  1.00  0.00     0.004 C 
ENDBRANCH  10  11
ENDBRANCH   9  10
ENDBRANCH   8   9
ENDBRANCH   7   8
ENDBRANCH   6   7
ENDBRANCH   5   6
ENDBRANCH   4   5
ENDBRANCH   3   4
ENDBRANCH   2   3
ENDBRANCH   1   2
BRANCH   1  13
ATOM     13  C   UNL     1      23.457 -15.478  -3.248  1.00  0.00     0.000 C 
BRANCH  13  14
ATOM     14  C   UNL     1      23.925 -16.902  -3.617  1.00  0.00     0.000 C 
BRANCH  14  15
ATOM     15  C   UNL     1      25.366 -17.244  -3.203  1.00  0.00     0.000 C 
BRANCH  15  16
ATOM     16  C   UNL     1      26.419 -16.605  -4.125  1.00  0.00     0.000 C 
BRANCH  16  17
ATOM     17  C   UNL     1      27.115 -15.395  -3.480  1.00  0.00     0.000 C 
BRANCH  17  18
ATOM     18  C   UNL     1      28.530 -15.158  -4.028  1.00  0.00     0.000 C 
BRANCH  18  19
ATOM     19  C   UNL     1      29.522 -14.887  -2.886  1.00  0.00     0.000 C 
BRANCH  19  20
ATOM     20  C   UNL     1      30.954 -15.345  -3.218  1.00  0.00     0.006 C 
BRANCH  20  21
ATOM     21  C   UNL     1      31.096 -16.857  -3.450  1.00  0.00     0.053 C 
BRANCH  21  22
ATOM     22  C   UNL     1      30.751 -17.647  -2.226  1.00  0.00     0.041 C 
ATOM     23  O   UNL     1      30.598 -18.896  -2.299  1.00  0.00    -0.550 OA
ATOM     24  O   UNL     1      30.619 -17.010  -0.998  1.00  0.00    -0.550 OA
ENDBRANCH  21  22
ENDBRANCH  20  21
ENDBRANCH  19  20
ENDBRANCH  18  19
ENDBRANCH  17  18
ENDBRANCH  16  17
ENDBRANCH  15  16
ENDBRANCH  14  15
ENDBRANCH  13  14
ENDBRANCH   1  13
TORSDOF 20
ENDMDL
