MODEL 1
REMARK VINA RESULT:    -1.508      0.000      0.000
REMARK INTER + INTRA:          -5.269
REMARK INTER:                  -3.800
REMARK INTRA:                  -1.468
REMARK UNBOUND:                -1.468
REMARK SMILES CCCCCCCCCCCCCCCCCCCCCCCCCCCC(=O)[O-]
REMARK SMILES IDX 15 1 16 2 17 3 18 4 19 5 20 6 21 7 22 8 23 9 24 10 25 11
REMARK SMILES IDX 26 12 27 13 28 14 29 15 30 16 14 17 13 18 12 19 11 20 10 21
REMARK SMILES IDX 9 22 8 23 7 24 6 25 5 26 4 27 3 28 2 29 1 30
REMARK H PARENT
REMARK Flexibility Score: inf
ROOT
ATOM      1  C   UNL     1      15.926  -6.463   5.027  1.00  0.00     0.000 C 
ENDROOT
BRANCH   1   2
ATOM      2  C   UNL     1      17.223  -7.285   4.911  1.00  0.00     0.000 C 
BRANCH   2   3
ATOM      3  C   UNL     1      18.253  -6.735   3.908  1.00  0.00     0.000 C 
BRANCH   3   4
ATOM      4  C   UNL     1      19.050  -5.543   4.467  1.00  0.00     0.000 C 
BRANCH   4   5
ATOM      5  C   UNL     1      19.974  -5.936   5.633  1.00  0.00     0.000 C 
BRANCH   5   6
ATOM      6  C   UNL     1      21.483  -5.856   5.333  1.00  0.00     0.000 C 
BRANCH   6   7
ATOM      7  C   UNL     1      21.870  -6.341   3.919  1.00  0.00     0.000 C 
BRANCH   7   8
ATOM      8  C   UNL     1      22.164  -7.849   3.879  1.00  0.00     0.000 C 
BRANCH   8   9
ATOM      9  C   UNL     1      21.373  -8.596   4.959  1.00  0.00     0.000 C 
BRANCH   9  10
ATOM     10  C   UNL     1      20.278  -9.469   4.330  1.00  0.00     0.000 C 
BRANCH  10  11
ATOM     11  C   UNL     1      19.345 -10.108   5.374  1.00  0.00     0.000 C 
BRANCH  11  12
ATOM     12  C   UNL     1      19.115  -9.267   6.647  1.00  0.00     0.006 C 
BRANCH  12  13
ATOM     13  C   UNL     1      19.721  -9.864   7.927  1.00  0.00     0.053 C 
BRANCH  13  14
ATOM     14  C   UNL     1      19.781  -8.864   9.041  1.00  0.00     0.041 C 
ATOM     15  O   UNL     1      20.214  -9.204  10.173  1.00  0.00    -0.550 OA
ATOM     16  O   UNL     1      19.394  -7.549   8.819  1.00  0.00    -0.550 OA
ENDBRANCH  13  14
ENDBRANCH  12  13
ENDBRANCH  11  12
ENDBRANCH  10  11
ENDBRANCH   9  10
ENDBRANCH   8   9
ENDBRANCH   7   8
ENDBRANCH   6   7
ENDBRANCH   5   6
ENDBRANCH   4   5
ENDBRANCH   3   4
ENDBRANCH   2   3
ENDBRANCH   1   2
BRANCH   1  17
ATOM     17  C   UNL     1      14.941  -6.736   3.880  1.00  0.00     0.000 C 
BRANCH  17  18
ATOM     18  C   UNL     1      13.488  -6.646   4.369  1.00  0.00     0.000 C 
BRANCH  18  19
ATOM     19  C   UNL     1      13.148  -7.713   5.421  1.00  0.00     0.000 C 
BRANCH  19  20
ATOM     20  C   UNL     1      13.669  -9.109   5.037  1.00  0.00     0.000 C 
BRANCH  20  21
ATOM     21  C   UNL     1      12.713  -9.858   4.094  1.00  0.00     0.000 C 
BRANCH  21  22
ATOM     22  C   UNL     1      11.387  -9.108   3.876  1.00  0.00    -0.000 C 
BRANCH  22  23
ATOM     23  C   UNL     1      10.385  -9.313   5.027  1.00  0.00    -0.000 C 
BRANCH  23  24
ATOM     24  C   UNL     1       8.935  -8.894   4.718  1.00  0.00    -0.000 C 
BRANCH  24  25
ATOM     25  C   UNL     1       8.476  -7.676   5.538  1.00  0.00    -0.000 C 
BRANCH  25  26
ATOM     26  C   UNL     1       7.597  -6.714   4.723  1.00  0.00    -0.000 C 
BRANCH  26  27
ATOM     27  C   UNL     1       6.417  -7.422   4.038  1.00  0.00    -0.000 C 
BRANCH  27  28
ATOM     28  C   UNL     1       5.077  -6.900   4.579  1.00  0.00    -0.000 C 
BRANCH  28  29
ATOM     29  C   UNL     1       4.767  -5.471   4.109  1.00  0.00    -0.003 C 
ATOM     30  C   UNL     1       3.378  -4.997   4.534  1.00  0.00     0.004 C 
ENDBRANCH  28  29
ENDBRANCH  27  28
ENDBRANCH  26  27
ENDBRANCH  25  26
ENDBRANCH  24  25
ENDBRANCH  23  24
ENDBRANCH  22  23
ENDBRANCH  21  22
ENDBRANCH  20  21
ENDBRANCH  19  20
ENDBRANCH  18  19
ENDBRANCH  17  18
ENDBRANCH   1  17
TORSDOF 26
ENDMDL
MODEL 2
REMARK VINA RESULT:    -0.493      1.639      2.351
REMARK INTER + INTRA:          -2.710
REMARK INTER:                  -1.630
REMARK INTRA:                  -1.080
REMARK UNBOUND:                -1.468
REMARK SMILES CCCCCCCCCCCCCCCCCCCCCCCCCCCC(=O)[O-]
REMARK SMILES IDX 15 1 16 2 17 3 18 4 19 5 20 6 21 7 22 8 23 9 24 10 25 11
REMARK SMILES IDX 26 12 27 13 28 14 29 15 30 16 14 17 13 18 12 19 11 20 10 21
REMARK SMILES IDX 9 22 8 23 7 24 6 25 5 26 4 27 3 28 2 29 1 30
REMARK H PARENT
REMARK Flexibility Score: inf
ROOT
ATOM      1  C   UNL     1      15.631  -6.554   4.965  1.00  0.00     0.000 C 
ENDROOT
BRANCH   1   2
ATOM      2  C   UNL     1      16.904  -7.420   4.969  1.00  0.00     0.000 C 
BRANCH   2   3
ATOM      3  C   UNL     1      17.979  -7.001   3.950  1.00  0.00     0.000 C 
BRANCH   3   4
ATOM      4  C   UNL     1      18.485  -5.566   4.177  1.00  0.00     0.000 C 
BRANCH   4   5
ATOM      5  C   UNL     1      19.320  -5.423   5.461  1.00  0.00     0.000 C 
BRANCH   5   6
ATOM      6  C   UNL     1      20.840  -5.285   5.246  1.00  0.00     0.000 C 
BRANCH   6   7
ATOM      7  C   UNL     1      21.331  -5.803   3.877  1.00  0.00     0.000 C 
BRANCH   7   8
ATOM      8  C   UNL     1      21.760  -7.277   3.930  1.00  0.00     0.000 C 
BRANCH   8   9
ATOM      9  C   UNL     1      21.388  -7.916   5.273  1.00  0.00     0.000 C 
BRANCH   9  10
ATOM     10  C   UNL     1      20.360  -9.039   5.078  1.00  0.00     0.000 C 
BRANCH  10  11
ATOM     11  C   UNL     1      19.595  -9.384   6.369  1.00  0.00     0.000 C 
BRANCH  11  12
ATOM     12  C   UNL     1      19.732  -8.350   7.506  1.00  0.00     0.006 C 
BRANCH  12  13
ATOM     13  C   UNL     1      18.458  -8.144   8.342  1.00  0.00     0.053 C 
BRANCH  13  14
ATOM     14  C   UNL     1      18.136  -6.693   8.527  1.00  0.00     0.041 C 
ATOM     15  O   UNL     1      19.054  -5.868   8.774  1.00  0.00    -0.550 OA
ATOM     16  O   UNL     1      16.828  -6.247   8.393  1.00  0.00    -0.550 OA
ENDBRANCH  13  14
ENDBRANCH  12  13
ENDBRANCH  11  12
ENDBRANCH  10  11
ENDBRANCH   9  10
ENDBRANCH   8   9
ENDBRANCH   7   8
ENDBRANCH   6   7
ENDBRANCH   5   6
ENDBRANCH   4   5
ENDBRANCH   3   4
ENDBRANCH   2   3
ENDBRANCH   1   2
BRANCH   1  17
ATOM     17  C   UNL     1      14.602  -7.010   3.920  1.00  0.00     0.000 C 
BRANCH  17  18
ATOM     18  C   UNL     1      13.224  -7.229   4.562  1.00  0.00     0.000 C 
BRANCH  18  19
ATOM     19  C   UNL     1      13.107  -8.588   5.270  1.00  0.00     0.000 C 
BRANCH  19  20
ATOM     20  C   UNL     1      12.923  -9.755   4.284  1.00  0.00     0.000 C 
BRANCH  20  21
ATOM     21  C   UNL     1      11.446 -10.011   3.939  1.00  0.00     0.000 C 
BRANCH  21  22
ATOM     22  C   UNL     1      10.585  -8.741   4.045  1.00  0.00    -0.000 C 
BRANCH  22  23
ATOM     23  C   UNL     1      10.474  -8.208   5.486  1.00  0.00    -0.000 C 
BRANCH  23  24
ATOM     24  C   UNL     1       9.114  -7.584   5.854  1.00  0.00    -0.000 C 
BRANCH  24  25
ATOM     25  C   UNL     1       8.185  -7.414   4.639  1.00  0.00    -0.000 C 
BRANCH  25  26
ATOM     26  C   UNL     1       6.913  -8.271   4.745  1.00  0.00    -0.000 C 
BRANCH  26  27
ATOM     27  C   UNL     1       7.151  -9.601   5.478  1.00  0.00    -0.000 C 
BRANCH  27  28
ATOM     28  C   UNL     1       5.885 -10.051   6.221  1.00  0.00    -0.000 C 
BRANCH  28  29
ATOM     29  C   UNL     1       6.087 -10.125   7.742  1.00  0.00    -0.003 C 
ATOM     30  C   UNL     1       7.458  -9.616   8.182  1.00  0.00     0.004 C 
ENDBRANCH  28  29
ENDBRANCH  27  28
ENDBRANCH  26  27
ENDBRANCH  25  26
ENDBRANCH  24  25
ENDBRANCH  23  24
ENDBRANCH  22  23
ENDBRANCH  21  22
ENDBRANCH  20  21
ENDBRANCH  19  20
ENDBRANCH  18  19
ENDBRANCH  17  18
ENDBRANCH   1  17
TORSDOF 26
ENDMDL
MODEL 3
REMARK VINA RESULT:    -0.127      4.016     11.273
REMARK INTER + INTRA:          -1.789
REMARK INTER:                  -0.065
REMARK INTRA:                  -1.724
REMARK UNBOUND:                -1.468
REMARK SMILES CCCCCCCCCCCCCCCCCCCCCCCCCCCC(=O)[O-]
REMARK SMILES IDX 15 1 16 2 17 3 18 4 19 5 20 6 21 7 22 8 23 9 24 10 25 11
REMARK SMILES IDX 26 12 27 13 28 14 29 15 30 16 14 17 13 18 12 19 11 20 10 21
REMARK SMILES IDX 9 22 8 23 7 24 6 25 5 26 4 27 3 28 2 29 1 30
REMARK H PARENT
REMARK Flexibility Score: inf
ROOT
ATOM      1  C   UNL     1      15.506  -7.237   7.499  1.00  0.00     0.000 C 
ENDROOT
BRANCH   1   2
ATOM      2  C   UNL     1      15.194  -7.221   5.991  1.00  0.00     0.000 C 
BRANCH   2   3
ATOM      3  C   UNL     1      15.575  -8.508   5.236  1.00  0.00     0.000 C 
BRANCH   3   4
ATOM      4  C   UNL     1      14.966  -9.771   5.870  1.00  0.00     0.000 C 
BRANCH   4   5
ATOM      5  C   UNL     1      13.571 -10.106   5.314  1.00  0.00     0.000 C 
BRANCH   5   6
ATOM      6  C   UNL     1      13.237  -9.472   3.950  1.00  0.00     0.000 C 
BRANCH   6   7
ATOM      7  C   UNL     1      11.827  -8.848   3.875  1.00  0.00     0.000 C 
BRANCH   7   8
ATOM      8  C   UNL     1      10.961  -9.212   5.091  1.00  0.00     0.000 C 
BRANCH   8   9
ATOM      9  C   UNL     1       9.617  -9.809   4.655  1.00  0.00     0.000 C 
BRANCH   9  10
ATOM     10  C   UNL     1       8.482  -9.320   5.565  1.00  0.00     0.000 C 
BRANCH  10  11
ATOM     11  C   UNL     1       7.156 -10.065   5.324  1.00  0.00     0.000 C 
BRANCH  11  12
ATOM     12  C   UNL     1       5.947  -9.161   5.004  1.00  0.00     0.006 C 
BRANCH  12  13
ATOM     13  C   UNL     1       6.275  -7.937   4.133  1.00  0.00     0.053 C 
BRANCH  13  14
ATOM     14  C   UNL     1       5.871  -6.654   4.792  1.00  0.00     0.041 C 
ATOM     15  O   UNL     1       5.897  -6.552   6.047  1.00  0.00    -0.550 OA
ATOM     16  O   UNL     1       5.501  -5.560   4.021  1.00  0.00    -0.550 OA
ENDBRANCH  13  14
ENDBRANCH  12  13
ENDBRANCH  11  12
ENDBRANCH  10  11
ENDBRANCH   9  10
ENDBRANCH   8   9
ENDBRANCH   7   8
ENDBRANCH   6   7
ENDBRANCH   5   6
ENDBRANCH   4   5
ENDBRANCH   3   4
ENDBRANCH   2   3
ENDBRANCH   1   2
BRANCH   1  17
ATOM     17  C   UNL     1      16.592  -6.226   7.895  1.00  0.00     0.000 C 
BRANCH  17  18
ATOM     18  C   UNL     1      17.991  -6.757   7.549  1.00  0.00     0.000 C 
BRANCH  18  19
ATOM     19  C   UNL     1      18.553  -7.697   8.627  1.00  0.00     0.000 C 
BRANCH  19  20
ATOM     20  C   UNL     1      19.917  -8.295   8.238  1.00  0.00     0.000 C 
BRANCH  20  21
ATOM     21  C   UNL     1      19.785  -9.518   7.316  1.00  0.00     0.000 C 
BRANCH  21  22
ATOM     22  C   UNL     1      18.524  -9.464   6.437  1.00  0.00    -0.000 C 
BRANCH  22  23
ATOM     23  C   UNL     1      18.841  -9.307   4.939  1.00  0.00    -0.000 C 
BRANCH  23  24
ATOM     24  C   UNL     1      19.003  -7.856   4.449  1.00  0.00    -0.000 C 
BRANCH  24  25
ATOM     25  C   UNL     1      20.402  -7.569   3.875  1.00  0.00    -0.000 C 
BRANCH  25  26
ATOM     26  C   UNL     1      21.527  -7.898   4.870  1.00  0.00    -0.000 C 
BRANCH  26  27
ATOM     27  C   UNL     1      22.562  -6.769   4.991  1.00  0.00    -0.000 C 
BRANCH  27  28
ATOM     28  C   UNL     1      22.175  -5.575   4.106  1.00  0.00    -0.000 C 
BRANCH  28  29
ATOM     29  C   UNL     1      21.112  -4.677   4.756  1.00  0.00    -0.003 C 
ATOM     30  C   UNL     1      20.863  -3.390   3.972  1.00  0.00     0.004 C 
ENDBRANCH  28  29
ENDBRANCH  27  28
ENDBRANCH  26  27
ENDBRANCH  25  26
ENDBRANCH  24  25
ENDBRANCH  23  24
ENDBRANCH  22  23
ENDBRANCH  21  22
ENDBRANCH  20  21
ENDBRANCH  19  20
ENDBRANCH  18  19
ENDBRANCH  17  18
ENDBRANCH   1  17
TORSDOF 26
ENDMDL
MODEL 4
REMARK VINA RESULT:     0.115      4.040     11.108
REMARK INTER + INTRA:          -1.178
REMARK INTER:                   1.226
REMARK INTRA:                  -2.404
REMARK UNBOUND:                -1.468
REMARK SMILES CCCCCCCCCCCCCCCCCCCCCCCCCCCC(=O)[O-]
REMARK SMILES IDX 15 1 16 2 17 3 18 4 19 5 20 6 21 7 22 8 23 9 24 10 25 11
REMARK SMILES IDX 26 12 27 13 28 14 29 15 30 16 14 17 13 18 12 19 11 20 10 21
REMARK SMILES IDX 9 22 8 23 7 24 6 25 5 26 4 27 3 28 2 29 1 30
REMARK H PARENT
REMARK Flexibility Score: inf
ROOT
ATOM      1  C   UNL     1      17.668  -6.458   8.321  1.00  0.00     0.000 C 
ENDROOT
BRANCH   1   2
ATOM      2  C   UNL     1      16.761  -6.773   7.117  1.00  0.00     0.000 C 
BRANCH   2   3
ATOM      3  C   UNL     1      15.250  -6.697   7.407  1.00  0.00     0.000 C 
BRANCH   3   4
ATOM      4  C   UNL     1      14.467  -7.867   6.785  1.00  0.00     0.000 C 
BRANCH   4   5
ATOM      5  C   UNL     1      14.781  -8.070   5.293  1.00  0.00     0.000 C 
BRANCH   5   6
ATOM      6  C   UNL     1      14.633  -9.516   4.781  1.00  0.00     0.000 C 
BRANCH   6   7
ATOM      7  C   UNL     1      13.403  -9.739   3.875  1.00  0.00     0.000 C 
BRANCH   7   8
ATOM      8  C   UNL     1      12.407  -8.571   3.943  1.00  0.00     0.000 C 
BRANCH   8   9
ATOM      9  C   UNL     1      10.963  -9.079   4.038  1.00  0.00     0.000 C 
BRANCH   9  10
ATOM     10  C   UNL     1      10.275  -8.534   5.298  1.00  0.00     0.000 C 
BRANCH  10  11
ATOM     11  C   UNL     1       8.763  -8.823   5.329  1.00  0.00     0.000 C 
BRANCH  11  12
ATOM     12  C   UNL     1       7.879  -7.748   4.662  1.00  0.00     0.006 C 
BRANCH  12  13
ATOM     13  C   UNL     1       6.517  -7.529   5.340  1.00  0.00     0.053 C 
BRANCH  13  14
ATOM     14  C   UNL     1       5.787  -8.817   5.567  1.00  0.00     0.041 C 
ATOM     15  O   UNL     1       4.798  -9.119   4.848  1.00  0.00    -0.550 OA
ATOM     16  O   UNL     1       6.220  -9.700   6.547  1.00  0.00    -0.550 OA
ENDBRANCH  13  14
ENDBRANCH  12  13
ENDBRANCH  11  12
ENDBRANCH  10  11
ENDBRANCH   9  10
ENDBRANCH   8   9
ENDBRANCH   7   8
ENDBRANCH   6   7
ENDBRANCH   5   6
ENDBRANCH   4   5
ENDBRANCH   3   4
ENDBRANCH   2   3
ENDBRANCH   1   2
BRANCH   1  17
ATOM     17  C   UNL     1      18.976  -7.263   8.309  1.00  0.00     0.000 C 
BRANCH  17  18
ATOM     18  C   UNL     1      20.116  -6.455   7.671  1.00  0.00     0.000 C 
BRANCH  18  19
ATOM     19  C   UNL     1      19.783  -4.960   7.541  1.00  0.00     0.000 C 
BRANCH  19  20
ATOM     20  C   UNL     1      20.796  -4.203   6.664  1.00  0.00     0.000 C 
BRANCH  20  21
ATOM     21  C   UNL     1      20.842  -4.734   5.221  1.00  0.00     0.000 C 
BRANCH  21  22
ATOM     22  C   UNL     1      22.254  -4.678   4.614  1.00  0.00    -0.000 C 
BRANCH  22  23
ATOM     23  C   UNL     1      22.642  -5.972   3.875  1.00  0.00    -0.000 C 
BRANCH  23  24
ATOM     24  C   UNL     1      23.031  -7.155   4.781  1.00  0.00    -0.000 C 
BRANCH  24  25
ATOM     25  C   UNL     1      22.858  -8.520   4.091  1.00  0.00    -0.000 C 
BRANCH  25  26
ATOM     26  C   UNL     1      21.384  -8.940   3.976  1.00  0.00    -0.000 C 
BRANCH  26  27
ATOM     27  C   UNL     1      20.482  -8.231   4.999  1.00  0.00    -0.000 C 
BRANCH  27  28
ATOM     28  C   UNL     1      19.080  -7.995   4.419  1.00  0.00    -0.000 C 
BRANCH  28  29
ATOM     29  C   UNL     1      18.223  -9.270   4.406  1.00  0.00    -0.003 C 
ATOM     30  C   UNL     1      17.991  -9.842   5.803  1.00  0.00     0.004 C 
ENDBRANCH  28  29
ENDBRANCH  27  28
ENDBRANCH  26  27
ENDBRANCH  25  26
ENDBRANCH  24  25
ENDBRANCH  23  24
ENDBRANCH  22  23
ENDBRANCH  21  22
ENDBRANCH  20  21
ENDBRANCH  19  20
ENDBRANCH  18  19
ENDBRANCH  17  18
ENDBRANCH   1  17
TORSDOF 26
ENDMDL
MODEL 5
REMARK VINA RESULT:     0.358      2.469      5.288
REMARK INTER + INTRA:          -0.566
REMARK INTER:                  -0.710
REMARK INTRA:                   0.145
REMARK UNBOUND:                -1.468
REMARK SMILES CCCCCCCCCCCCCCCCCCCCCCCCCCCC(=O)[O-]
REMARK SMILES IDX 15 1 16 2 17 3 18 4 19 5 20 6 21 7 22 8 23 9 24 10 25 11
REMARK SMILES IDX 26 12 27 13 28 14 29 15 30 16 14 17 13 18 12 19 11 20 10 21
REMARK SMILES IDX 9 22 8 23 7 24 6 25 5 26 4 27 3 28 2 29 1 30
REMARK H PARENT
REMARK Flexibility Score: inf
ROOT
ATOM      1  C   UNL     1      18.754  -7.894   7.533  1.00  0.00     0.000 C 
ENDROOT
BRANCH   1   2
ATOM      2  C   UNL     1      19.665  -6.699   7.868  1.00  0.00     0.000 C 
BRANCH   2   3
ATOM      3  C   UNL     1      19.022  -5.625   8.765  1.00  0.00     0.000 C 
BRANCH   3   4
ATOM      4  C   UNL     1      17.545  -5.919   9.080  1.00  0.00     0.000 C 
BRANCH   4   5
ATOM      5  C   UNL     1      16.639  -5.823   7.841  1.00  0.00     0.000 C 
BRANCH   5   6
ATOM      6  C   UNL     1      15.934  -7.133   7.438  1.00  0.00     0.000 C 
BRANCH   6   7
ATOM      7  C   UNL     1      15.353  -7.120   6.008  1.00  0.00     0.000 C 
BRANCH   7   8
ATOM      8  C   UNL     1      16.035  -6.078   5.109  1.00  0.00     0.000 C 
BRANCH   8   9
ATOM      9  C   UNL     1      17.559  -6.115   5.275  1.00  0.00     0.000 C 
BRANCH   9  10
ATOM     10  C   UNL     1      18.260  -5.997   3.914  1.00  0.00     0.000 C 
BRANCH  10  11
ATOM     11  C   UNL     1      19.327  -4.887   3.883  1.00  0.00     0.000 C 
BRANCH  11  12
ATOM     12  C   UNL     1      20.464  -5.044   4.913  1.00  0.00     0.006 C 
BRANCH  12  13
ATOM     13  C   UNL     1      21.815  -5.473   4.317  1.00  0.00     0.053 C 
BRANCH  13  14
ATOM     14  C   UNL     1      22.155  -6.891   4.658  1.00  0.00     0.041 C 
ATOM     15  O   UNL     1      22.852  -7.147   5.676  1.00  0.00    -0.550 OA
ATOM     16  O   UNL     1      21.674  -7.933   3.875  1.00  0.00    -0.550 OA
ENDBRANCH  13  14
ENDBRANCH  12  13
ENDBRANCH  11  12
ENDBRANCH  10  11
ENDBRANCH   9  10
ENDBRANCH   8   9
ENDBRANCH   7   8
ENDBRANCH   6   7
ENDBRANCH   5   6
ENDBRANCH   4   5
ENDBRANCH   3   4
ENDBRANCH   2   3
ENDBRANCH   1   2
BRANCH   1  17
ATOM     17  C   UNL     1      19.450  -9.249   7.727  1.00  0.00     0.000 C 
BRANCH  17  18
ATOM     18  C   UNL     1      19.329 -10.117   6.466  1.00  0.00     0.000 C 
BRANCH  18  19
ATOM     19  C   UNL     1      19.533  -9.315   5.171  1.00  0.00     0.000 C 
BRANCH  19  20
ATOM     20  C   UNL     1      18.338  -9.435   4.207  1.00  0.00     0.000 C 
BRANCH  20  21
ATOM     21  C   UNL     1      17.079  -9.990   4.893  1.00  0.00     0.000 C 
BRANCH  21  22
ATOM     22  C   UNL     1      15.889 -10.123   3.927  1.00  0.00    -0.000 C 
BRANCH  22  23
ATOM     23  C   UNL     1      14.908  -8.940   4.014  1.00  0.00    -0.000 C 
BRANCH  23  24
ATOM     24  C   UNL     1      13.418  -9.324   4.080  1.00  0.00    -0.000 C 
BRANCH  24  25
ATOM     25  C   UNL     1      12.523  -8.174   4.573  1.00  0.00    -0.000 C 
BRANCH  25  26
ATOM     26  C   UNL     1      11.027  -8.519   4.503  1.00  0.00    -0.000 C 
BRANCH  26  27
ATOM     27  C   UNL     1      10.134  -7.417   5.097  1.00  0.00    -0.000 C 
BRANCH  27  28
ATOM     28  C   UNL     1       8.886  -8.021   5.756  1.00  0.00    -0.000 C 
BRANCH  28  29
ATOM     29  C   UNL     1       9.101  -9.473   6.209  1.00  0.00    -0.003 C 
ATOM     30  C   UNL     1       8.177  -9.877   7.357  1.00  0.00     0.004 C 
ENDBRANCH  28  29
ENDBRANCH  27  28
ENDBRANCH  26  27
ENDBRANCH  25  26
ENDBRANCH  24  25
ENDBRANCH  23  24
ENDBRANCH  22  23
ENDBRANCH  21  22
ENDBRANCH  20  21
ENDBRANCH  19  20
ENDBRANCH  18  19
ENDBRANCH  17  18
ENDBRANCH   1  17
TORSDOF 26
ENDMDL
MODEL 6
REMARK VINA RESULT:     0.470      1.735      3.064
REMARK INTER + INTRA:          -0.283
REMARK INTER:                   1.202
REMARK INTRA:                  -1.485
REMARK UNBOUND:                -1.468
REMARK SMILES CCCCCCCCCCCCCCCCCCCCCCCCCCCC(=O)[O-]
REMARK SMILES IDX 15 1 16 2 17 3 18 4 19 5 20 6 21 7 22 8 23 9 24 10 25 11
REMARK SMILES IDX 26 12 27 13 28 14 29 15 30 16 14 17 13 18 12 19 11 20 10 21
REMARK SMILES IDX 9 22 8 23 7 24 6 25 5 26 4 27 3 28 2 29 1 30
REMARK H PARENT
REMARK Flexibility Score: inf
ROOT
ATOM      1  C   UNL     1      17.469  -5.682   9.123  1.00  0.00     0.000 C 
ENDROOT
BRANCH   1   2
ATOM      2  C   UNL     1      18.995  -5.729   8.924  1.00  0.00     0.000 C 
BRANCH   2   3
ATOM      3  C   UNL     1      19.556  -4.667   7.961  1.00  0.00     0.000 C 
BRANCH   3   4
ATOM      4  C   UNL     1      20.876  -5.103   7.299  1.00  0.00     0.000 C 
BRANCH   4   5
ATOM      5  C   UNL     1      21.007  -4.612   5.847  1.00  0.00     0.000 C 
BRANCH   5   6
ATOM      6  C   UNL     1      21.827  -5.526   4.916  1.00  0.00     0.000 C 
BRANCH   6   7
ATOM      7  C   UNL     1      20.978  -6.288   3.875  1.00  0.00     0.000 C 
BRANCH   7   8
ATOM      8  C   UNL     1      19.470  -6.093   4.096  1.00  0.00     0.000 C 
BRANCH   8   9
ATOM      9  C   UNL     1      18.811  -7.385   4.592  1.00  0.00     0.000 C 
BRANCH   9  10
ATOM     10  C   UNL     1      19.398  -8.609   3.875  1.00  0.00     0.000 C 
BRANCH  10  11
ATOM     11  C   UNL     1      18.746  -9.933   4.314  1.00  0.00     0.000 C 
BRANCH  11  12
ATOM     12  C   UNL     1      18.572 -10.102   5.838  1.00  0.00     0.006 C 
BRANCH  12  13
ATOM     13  C   UNL     1      19.887 -10.125   6.634  1.00  0.00     0.053 C 
BRANCH  13  14
ATOM     14  C   UNL     1      19.829  -9.241   7.842  1.00  0.00     0.041 C 
ATOM     15  O   UNL     1      20.025  -8.002   7.729  1.00  0.00    -0.550 OA
ATOM     16  O   UNL     1      19.523  -9.779   9.085  1.00  0.00    -0.550 OA
ENDBRANCH  13  14
ENDBRANCH  12  13
ENDBRANCH  11  12
ENDBRANCH  10  11
ENDBRANCH   9  10
ENDBRANCH   8   9
ENDBRANCH   7   8
ENDBRANCH   6   7
ENDBRANCH   5   6
ENDBRANCH   4   5
ENDBRANCH   3   4
ENDBRANCH   2   3
ENDBRANCH   1   2
BRANCH   1  17
ATOM     17  C   UNL     1      16.707  -6.548   8.109  1.00  0.00     0.000 C 
BRANCH  17  18
ATOM     18  C   UNL     1      16.998  -6.096   6.670  1.00  0.00     0.000 C 
BRANCH  18  19
ATOM     19  C   UNL     1      15.877  -6.477   5.689  1.00  0.00     0.000 C 
BRANCH  19  20
ATOM     20  C   UNL     1      15.222  -7.825   6.035  1.00  0.00     0.000 C 
BRANCH  20  21
ATOM     21  C   UNL     1      15.456  -8.892   4.952  1.00  0.00     0.000 C 
BRANCH  21  22
ATOM     22  C   UNL     1      14.342  -8.913   3.891  1.00  0.00    -0.000 C 
BRANCH  22  23
ATOM     23  C   UNL     1      12.993  -9.406   4.447  1.00  0.00    -0.000 C 
BRANCH  23  24
ATOM     24  C   UNL     1      11.773  -8.544   4.072  1.00  0.00    -0.000 C 
BRANCH  24  25
ATOM     25  C   UNL     1      11.509  -7.409   5.078  1.00  0.00    -0.000 C 
BRANCH  25  26
ATOM     26  C   UNL     1      10.286  -7.683   5.969  1.00  0.00    -0.000 C 
BRANCH  26  27
ATOM     27  C   UNL     1       9.346  -8.746   5.378  1.00  0.00    -0.000 C 
BRANCH  27  28
ATOM     28  C   UNL     1       8.030  -8.109   4.906  1.00  0.00    -0.000 C 
BRANCH  28  29
ATOM     29  C   UNL     1       6.847  -9.088   4.960  1.00  0.00    -0.003 C 
ATOM     30  C   UNL     1       5.509  -8.387   5.186  1.00  0.00     0.004 C 
ENDBRANCH  28  29
ENDBRANCH  27  28
ENDBRANCH  26  27
ENDBRANCH  25  26
ENDBRANCH  24  25
ENDBRANCH  23  24
ENDBRANCH  22  23
ENDBRANCH  21  22
ENDBRANCH  20  21
ENDBRANCH  19  20
ENDBRANCH  18  19
ENDBRANCH  17  18
ENDBRANCH   1  17
TORSDOF 26
ENDMDL
MODEL 7
REMARK VINA RESULT:     0.516      3.953     10.869
REMARK INTER + INTRA:          -0.167
REMARK INTER:                   2.328
REMARK INTRA:                  -2.496
REMARK UNBOUND:                -1.468
REMARK SMILES CCCCCCCCCCCCCCCCCCCCCCCCCCCC(=O)[O-]
REMARK SMILES IDX 15 1 16 2 17 3 18 4 19 5 20 6 21 7 22 8 23 9 24 10 25 11
REMARK SMILES IDX 26 12 27 13 28 14 29 15 30 16 14 17 13 18 12 19 11 20 10 21
REMARK SMILES IDX 9 22 8 23 7 24 6 25 5 26 4 27 3 28 2 29 1 30
REMARK H PARENT
REMARK Flexibility Score: inf
ROOT
ATOM      1  C   UNL     1      15.525  -7.024   8.057  1.00  0.00     0.000 C 
ENDROOT
BRANCH   1   2
ATOM      2  C   UNL     1      15.423  -6.694   6.556  1.00  0.00     0.000 C 
BRANCH   2   3
ATOM      3  C   UNL     1      16.019  -7.757   5.616  1.00  0.00     0.000 C 
BRANCH   3   4
ATOM      4  C   UNL     1      15.663  -9.193   6.041  1.00  0.00     0.000 C 
BRANCH   4   5
ATOM      5  C   UNL     1      14.295  -9.652   5.508  1.00  0.00     0.000 C 
BRANCH   5   6
ATOM      6  C   UNL     1      13.992  -9.260   4.048  1.00  0.00     0.000 C 
BRANCH   6   7
ATOM      7  C   UNL     1      12.947  -8.133   3.904  1.00  0.00     0.000 C 
BRANCH   7   8
ATOM      8  C   UNL     1      11.525  -8.609   4.239  1.00  0.00     0.000 C 
BRANCH   8   9
ATOM      9  C   UNL     1      10.658  -7.450   4.746  1.00  0.00     0.000 C 
BRANCH   9  10
ATOM     10  C   UNL     1       9.406  -7.281   3.875  1.00  0.00     0.000 C 
BRANCH  10  11
ATOM     11  C   UNL     1       8.102  -7.273   4.693  1.00  0.00     0.000 C 
BRANCH  11  12
ATOM     12  C   UNL     1       8.098  -8.197   5.928  1.00  0.00     0.006 C 
BRANCH  12  13
ATOM     13  C   UNL     1       7.364  -9.533   5.726  1.00  0.00     0.053 C 
BRANCH  13  14
ATOM     14  C   UNL     1       6.524  -9.899   6.911  1.00  0.00     0.041 C 
ATOM     15  O   UNL     1       7.048  -9.992   8.053  1.00  0.00    -0.550 OA
ATOM     16  O   UNL     1       5.158 -10.100   6.762  1.00  0.00    -0.550 OA
ENDBRANCH  13  14
ENDBRANCH  12  13
ENDBRANCH  11  12
ENDBRANCH  10  11
ENDBRANCH   9  10
ENDBRANCH   8   9
ENDBRANCH   7   8
ENDBRANCH   6   7
ENDBRANCH   5   6
ENDBRANCH   4   5
ENDBRANCH   3   4
ENDBRANCH   2   3
ENDBRANCH   1   2
BRANCH   1  17
ATOM     17  C   UNL     1      16.295  -5.959   8.852  1.00  0.00     0.000 C 
BRANCH  17  18
ATOM     18  C   UNL     1      17.700  -5.744   8.268  1.00  0.00     0.000 C 
BRANCH  18  19
ATOM     19  C   UNL     1      18.426  -7.065   7.967  1.00  0.00     0.000 C 
BRANCH  19  20
ATOM     20  C   UNL     1      19.910  -6.856   7.616  1.00  0.00     0.000 C 
BRANCH  20  21
ATOM     21  C   UNL     1      20.731  -8.152   7.723  1.00  0.00     0.000 C 
BRANCH  21  22
ATOM     22  C   UNL     1      19.849  -9.413   7.733  1.00  0.00    -0.000 C 
BRANCH  22  23
ATOM     23  C   UNL     1      19.802 -10.124   6.368  1.00  0.00    -0.000 C 
BRANCH  23  24
ATOM     24  C   UNL     1      18.790  -9.546   5.360  1.00  0.00    -0.000 C 
BRANCH  24  25
ATOM     25  C   UNL     1      19.403  -9.299   3.971  1.00  0.00    -0.000 C 
BRANCH  25  26
ATOM     26  C   UNL     1      20.930  -9.471   3.960  1.00  0.00    -0.000 C 
BRANCH  26  27
ATOM     27  C   UNL     1      21.679  -8.131   3.875  1.00  0.00    -0.000 C 
BRANCH  27  28
ATOM     28  C   UNL     1      20.717  -6.954   4.090  1.00  0.00    -0.000 C 
BRANCH  28  29
ATOM     29  C   UNL     1      21.449  -5.650   4.442  1.00  0.00    -0.003 C 
ATOM     30  C   UNL     1      22.910  -5.651   3.993  1.00  0.00     0.004 C 
ENDBRANCH  28  29
ENDBRANCH  27  28
ENDBRANCH  26  27
ENDBRANCH  25  26
ENDBRANCH  24  25
ENDBRANCH  23  24
ENDBRANCH  22  23
ENDBRANCH  21  22
ENDBRANCH  20  21
ENDBRANCH  19  20
ENDBRANCH  18  19
ENDBRANCH  17  18
ENDBRANCH   1  17
TORSDOF 26
ENDMDL
MODEL 8
REMARK VINA RESULT:     0.825      1.655      2.536
REMARK INTER + INTRA:           0.611
REMARK INTER:                   0.776
REMARK INTRA:                  -0.165
REMARK UNBOUND:                -1.468
REMARK SMILES CCCCCCCCCCCCCCCCCCCCCCCCCCCC(=O)[O-]
REMARK SMILES IDX 15 1 16 2 17 3 18 4 19 5 20 6 21 7 22 8 23 9 24 10 25 11
REMARK SMILES IDX 26 12 27 13 28 14 29 15 30 16 14 17 13 18 12 19 11 20 10 21
REMARK SMILES IDX 9 22 8 23 7 24 6 25 5 26 4 27 3 28 2 29 1 30
REMARK H PARENT
REMARK Flexibility Score: inf
ROOT
ATOM      1  C   UNL     1      16.766  -6.671   7.327  1.00  0.00     0.000 C 
ENDROOT
BRANCH   1   2
ATOM      2  C   UNL     1      18.279  -6.937   7.222  1.00  0.00     0.000 C 
BRANCH   2   3
ATOM      3  C   UNL     1      19.173  -5.706   7.459  1.00  0.00     0.000 C 
BRANCH   3   4
ATOM      4  C   UNL     1      20.614  -5.913   6.960  1.00  0.00     0.000 C 
BRANCH   4   5
ATOM      5  C   UNL     1      21.189  -4.668   6.262  1.00  0.00     0.000 C 
BRANCH   5   6
ATOM      6  C   UNL     1      20.241  -3.980   5.260  1.00  0.00     0.000 C 
BRANCH   6   7
ATOM      7  C   UNL     1      20.154  -4.686   3.890  1.00  0.00     0.000 C 
BRANCH   7   8
ATOM      8  C   UNL     1      20.498  -6.181   3.979  1.00  0.00     0.000 C 
BRANCH   8   9
ATOM      9  C   UNL     1      22.011  -6.408   3.879  1.00  0.00     0.000 C 
BRANCH   9  10
ATOM     10  C   UNL     1      22.434  -7.640   4.692  1.00  0.00     0.000 C 
BRANCH  10  11
ATOM     11  C   UNL     1      22.290  -8.956   3.906  1.00  0.00     0.000 C 
BRANCH  11  12
ATOM     12  C   UNL     1      20.865  -9.548   3.876  1.00  0.00     0.006 C 
BRANCH  12  13
ATOM     13  C   UNL     1      20.383 -10.125   5.218  1.00  0.00     0.053 C 
BRANCH  13  14
ATOM     14  C   UNL     1      18.992  -9.683   5.552  1.00  0.00     0.041 C 
ATOM     15  O   UNL     1      18.357  -8.938   4.760  1.00  0.00    -0.550 OA
ATOM     16  O   UNL     1      18.382 -10.123   6.720  1.00  0.00    -0.550 OA
ENDBRANCH  13  14
ENDBRANCH  12  13
ENDBRANCH  11  12
ENDBRANCH  10  11
ENDBRANCH   9  10
ENDBRANCH   8   9
ENDBRANCH   7   8
ENDBRANCH   6   7
ENDBRANCH   5   6
ENDBRANCH   4   5
ENDBRANCH   3   4
ENDBRANCH   2   3
ENDBRANCH   1   2
BRANCH   1  17
ATOM     17  C   UNL     1      16.002  -7.051   6.050  1.00  0.00     0.000 C 
BRANCH  17  18
ATOM     18  C   UNL     1      14.550  -7.435   6.370  1.00  0.00     0.000 C 
BRANCH  18  19
ATOM     19  C   UNL     1      13.646  -7.429   5.127  1.00  0.00     0.000 C 
BRANCH  19  20
ATOM     20  C   UNL     1      13.123  -8.831   4.769  1.00  0.00     0.000 C 
BRANCH  20  21
ATOM     21  C   UNL     1      11.757  -8.791   4.064  1.00  0.00     0.000 C 
BRANCH  21  22
ATOM     22  C   UNL     1      10.735  -9.748   4.700  1.00  0.00    -0.000 C 
BRANCH  22  23
ATOM     23  C   UNL     1       9.420  -9.839   3.903  1.00  0.00    -0.000 C 
BRANCH  23  24
ATOM     24  C   UNL     1       8.365  -8.772   4.250  1.00  0.00    -0.000 C 
BRANCH  24  25
ATOM     25  C   UNL     1       6.970  -9.368   4.503  1.00  0.00    -0.000 C 
BRANCH  25  26
ATOM     26  C   UNL     1       6.010  -8.365   5.162  1.00  0.00    -0.000 C 
BRANCH  26  27
ATOM     27  C   UNL     1       6.326  -6.907   4.791  1.00  0.00    -0.000 C 
BRANCH  27  28
ATOM     28  C   UNL     1       5.266  -5.955   5.363  1.00  0.00    -0.000 C 
BRANCH  28  29
ATOM     29  C   UNL     1       4.637  -5.057   4.287  1.00  0.00    -0.003 C 
ATOM     30  C   UNL     1       3.115  -4.979   4.397  1.00  0.00     0.004 C 
ENDBRANCH  28  29
ENDBRANCH  27  28
ENDBRANCH  26  27
ENDBRANCH  25  26
ENDBRANCH  24  25
ENDBRANCH  23  24
ENDBRANCH  22  23
ENDBRANCH  21  22
ENDBRANCH  20  21
ENDBRANCH  19  20
ENDBRANCH  18  19
ENDBRANCH  17  18
ENDBRANCH   1  17
TORSDOF 26
ENDMDL
