MODEL 1
REMARK VINA RESULT:    -4.979      0.000      0.000
REMARK INTER + INTRA:          -5.617
REMARK INTER:                  -5.416
REMARK INTRA:                  -0.201
REMARK UNBOUND:                -0.201
REMARK SMILES CC(C)(C)[C@@H]1C=C[C@@H](O)CC1
REMARK SMILES IDX 5 1 11 2 10 3 8 4 7 5 6 6 2 7 1 8 3 9 4 10 9 11
REMARK H PARENT 9 12
REMARK Flexibility Score: inf
ROOT
ATOM      1  C   UNL     1     121.138 132.162 129.038  1.00  0.00     0.017 C 
ATOM      2  C   UNL     1     119.588 131.996 128.963  1.00  0.00     0.011 C 
ATOM      3  C   UNL     1     119.073 130.552 129.213  1.00  0.00     0.037 C 
ATOM      4  C   UNL     1     120.154 129.583 129.720  1.00  0.00     0.137 C 
ATOM      5  C   UNL     1     121.378 129.707 128.853  1.00  0.00     0.000 C 
ATOM      6  C   UNL     1     121.827 130.918 128.501  1.00  0.00    -0.025 C 
ENDROOT
BRANCH   1   7
ATOM      7  C   UNL     1     121.677 133.503 128.411  1.00  0.00    -0.032 C 
ATOM      8  C   UNL     1     122.015 134.563 129.487  1.00  0.00     0.011 C 
ATOM      9  C   UNL     1     122.950 133.229 127.575  1.00  0.00     0.011 C 
ATOM     10  C   UNL     1     120.615 134.094 127.452  1.00  0.00     0.011 C 
ENDBRANCH   1   7
BRANCH   4  11
ATOM     11  O   UNL     1     120.471 129.883 131.054  1.00  0.00    -0.389 OA
ATOM     12  H   UNL     1     121.324 129.418 131.256  1.00  0.00     0.211 HD
ENDBRANCH   4  11
TORSDOF 2
ENDMDL
MODEL 2
REMARK VINA RESULT:    -4.872     15.204     15.919
REMARK INTER + INTRA:          -5.501
REMARK INTER:                  -5.305
REMARK INTRA:                  -0.196
REMARK UNBOUND:                -0.201
REMARK SMILES CC(C)(C)[C@@H]1C=C[C@@H](O)CC1
REMARK SMILES IDX 5 1 11 2 10 3 8 4 7 5 6 6 2 7 1 8 3 9 4 10 9 11
REMARK H PARENT 9 12
REMARK Flexibility Score: inf
ROOT
ATOM      1  C   UNL     1     127.031 120.238 119.769  1.00  0.00     0.017 C 
ATOM      2  C   UNL     1     126.329 120.177 121.161  1.00  0.00     0.011 C 
ATOM      3  C   UNL     1     124.869 119.646 121.133  1.00  0.00     0.037 C 
ATOM      4  C   UNL     1     124.447 119.052 119.779  1.00  0.00     0.137 C 
ATOM      5  C   UNL     1     124.823 120.009 118.679  1.00  0.00     0.000 C 
ATOM      6  C   UNL     1     126.026 120.596 118.687  1.00  0.00    -0.025 C 
ENDROOT
BRANCH   1   7
ATOM      7  C   UNL     1     128.333 121.125 119.739  1.00  0.00    -0.032 C 
ATOM      8  C   UNL     1     128.989 121.257 121.135  1.00  0.00     0.011 C 
ATOM      9  C   UNL     1     129.372 120.517 118.765  1.00  0.00     0.011 C 
ATOM     10  C   UNL     1     127.988 122.542 119.220  1.00  0.00     0.011 C 
ENDBRANCH   1   7
BRANCH   4  11
ATOM     11  O   UNL     1     125.082 117.816 119.585  1.00  0.00    -0.389 OA
ATOM     12  H   UNL     1     124.452 117.118 119.905  1.00  0.00     0.211 HD
ENDBRANCH   4  11
TORSDOF 2
ENDMDL
MODEL 3
REMARK VINA RESULT:    -4.656     15.253     16.244
REMARK INTER + INTRA:          -5.266
REMARK INTER:                  -5.067
REMARK INTRA:                  -0.199
REMARK UNBOUND:                -0.201
REMARK SMILES CC(C)(C)[C@@H]1C=C[C@@H](O)CC1
REMARK SMILES IDX 5 1 11 2 10 3 8 4 7 5 6 6 2 7 1 8 3 9 4 10 9 11
REMARK H PARENT 9 12
REMARK Flexibility Score: inf
ROOT
ATOM      1  C   UNL     1     127.037 120.044 119.981  1.00  0.00     0.017 C 
ATOM      2  C   UNL     1     127.215 121.357 119.156  1.00  0.00     0.011 C 
ATOM      3  C   UNL     1     128.476 122.189 119.518  1.00  0.00     0.037 C 
ATOM      4  C   UNL     1     129.454 121.465 120.458  1.00  0.00     0.137 C 
ATOM      5  C   UNL     1     128.689 120.886 121.619  1.00  0.00     0.000 C 
ATOM      6  C   UNL     1     127.534 120.245 121.404  1.00  0.00    -0.025 C 
ENDROOT
BRANCH   1   7
ATOM      7  C   UNL     1     125.593 119.419 119.899  1.00  0.00    -0.032 C 
ATOM      8  C   UNL     1     125.626 117.878 119.753  1.00  0.00     0.011 C 
ATOM      9  C   UNL     1     124.784 119.774 121.169  1.00  0.00     0.011 C 
ATOM     10  C   UNL     1     124.835 120.013 118.687  1.00  0.00     0.011 C 
ENDBRANCH   1   7
BRANCH   4  11
ATOM     11  O   UNL     1     130.118 120.446 119.757  1.00  0.00    -0.389 OA
ATOM     12  H   UNL     1     130.462 120.852 118.919  1.00  0.00     0.211 HD
ENDBRANCH   4  11
TORSDOF 2
ENDMDL
MODEL 4
REMARK VINA RESULT:    -4.647      9.570     11.841
REMARK INTER + INTRA:          -5.256
REMARK INTER:                  -5.059
REMARK INTRA:                  -0.197
REMARK UNBOUND:                -0.201
REMARK SMILES CC(C)(C)[C@@H]1C=C[C@@H](O)CC1
REMARK SMILES IDX 5 1 11 2 10 3 8 4 7 5 6 6 2 7 1 8 3 9 4 10 9 11
REMARK H PARENT 9 12
REMARK Flexibility Score: inf
ROOT
ATOM      1  C   UNL     1     115.271 122.303 131.401  1.00  0.00     0.017 C 
ATOM      2  C   UNL     1     114.066 121.356 131.104  1.00  0.00     0.011 C 
ATOM      3  C   UNL     1     113.857 120.220 132.143  1.00  0.00     0.037 C 
ATOM      4  C   UNL     1     114.726 120.360 133.404  1.00  0.00     0.137 C 
ATOM      5  C   UNL     1     116.150 120.632 132.999  1.00  0.00     0.000 C 
ATOM      6  C   UNL     1     116.411 121.521 132.033  1.00  0.00    -0.025 C 
ENDROOT
BRANCH   1   7
ATOM      7  C   UNL     1     115.716 123.187 130.175  1.00  0.00    -0.032 C 
ATOM      8  C   UNL     1     114.663 123.194 129.040  1.00  0.00     0.011 C 
ATOM      9  C   UNL     1     115.957 124.647 130.629  1.00  0.00     0.011 C 
ATOM     10  C   UNL     1     117.052 122.654 129.604  1.00  0.00     0.011 C 
ENDBRANCH   1   7
BRANCH   4  11
ATOM     11  O   UNL     1     114.239 121.408 134.200  1.00  0.00    -0.389 OA
ATOM     12  H   UNL     1     114.743 122.223 133.940  1.00  0.00     0.211 HD
ENDBRANCH   4  11
TORSDOF 2
ENDMDL
MODEL 5
REMARK VINA RESULT:    -4.620     11.992     13.179
REMARK INTER + INTRA:          -5.226
REMARK INTER:                  -5.027
REMARK INTRA:                  -0.200
REMARK UNBOUND:                -0.201
REMARK SMILES CC(C)(C)[C@@H]1C=C[C@@H](O)CC1
REMARK SMILES IDX 5 1 11 2 10 3 8 4 7 5 6 6 2 7 1 8 3 9 4 10 9 11
REMARK H PARENT 9 12
REMARK Flexibility Score: inf
ROOT
ATOM      1  C   UNL     1     115.376 120.461 131.398  1.00  0.00     0.017 C 
ATOM      2  C   UNL     1     116.712 121.080 131.917  1.00  0.00     0.011 C 
ATOM      3  C   UNL     1     116.810 121.220 133.461  1.00  0.00     0.037 C 
ATOM      4  C   UNL     1     115.678 120.515 134.225  1.00  0.00     0.137 C 
ATOM      5  C   UNL     1     114.355 120.889 133.611  1.00  0.00     0.000 C 
ATOM      6  C   UNL     1     114.217 120.898 132.279  1.00  0.00    -0.025 C 
ENDROOT
BRANCH   1   7
ATOM      7  C   UNL     1     115.116 120.679 129.860  1.00  0.00    -0.032 C 
ATOM      8  C   UNL     1     114.683 119.376 129.144  1.00  0.00     0.011 C 
ATOM      9  C   UNL     1     114.012 121.743 129.649  1.00  0.00     0.011 C 
ATOM     10  C   UNL     1     116.403 121.210 129.183  1.00  0.00     0.011 C 
ENDBRANCH   1   7
BRANCH   4  11
ATOM     11  O   UNL     1     115.863 119.125 134.169  1.00  0.00    -0.389 OA
ATOM     12  H   UNL     1     116.833 118.960 134.305  1.00  0.00     0.211 HD
ENDBRANCH   4  11
TORSDOF 2
ENDMDL
MODEL 6
REMARK VINA RESULT:    -4.361     10.756     12.412
REMARK INTER + INTRA:          -4.944
REMARK INTER:                  -4.747
REMARK INTRA:                  -0.197
REMARK UNBOUND:                -0.201
REMARK SMILES CC(C)(C)[C@@H]1C=C[C@@H](O)CC1
REMARK SMILES IDX 5 1 11 2 10 3 8 4 7 5 6 6 2 7 1 8 3 9 4 10 9 11
REMARK H PARENT 9 12
REMARK Flexibility Score: inf
ROOT
ATOM      1  C   UNL     1     114.560 121.786 128.718  1.00  0.00     0.017 C 
ATOM      2  C   UNL     1     113.770 122.430 129.899  1.00  0.00     0.011 C 
ATOM      3  C   UNL     1     113.747 121.589 131.206  1.00  0.00     0.037 C 
ATOM      4  C   UNL     1     114.699 120.381 131.186  1.00  0.00     0.137 C 
ATOM      5  C   UNL     1     114.505 119.616 129.904  1.00  0.00     0.000 C 
ATOM      6  C   UNL     1     114.405 120.274 128.743  1.00  0.00    -0.025 C 
ENDROOT
BRANCH   1   7
ATOM      7  C   UNL     1     114.259 122.429 127.311  1.00  0.00    -0.032 C 
ATOM      8  C   UNL     1     113.868 121.370 126.251  1.00  0.00     0.011 C 
ATOM      9  C   UNL     1     113.106 123.454 127.428  1.00  0.00     0.011 C 
ATOM     10  C   UNL     1     115.507 123.193 126.808  1.00  0.00     0.011 C 
ENDBRANCH   1   7
BRANCH   4  11
ATOM     11  O   UNL     1     116.027 120.823 131.292  1.00  0.00    -0.389 OA
ATOM     12  H   UNL     1     116.265 120.787 132.255  1.00  0.00     0.211 HD
ENDBRANCH   4  11
TORSDOF 2
ENDMDL
MODEL 7
REMARK VINA RESULT:    -4.354     12.392     13.417
REMARK INTER + INTRA:          -4.937
REMARK INTER:                  -4.739
REMARK INTRA:                  -0.197
REMARK UNBOUND:                -0.201
REMARK SMILES CC(C)(C)[C@@H]1C=C[C@@H](O)CC1
REMARK SMILES IDX 5 1 11 2 10 3 8 4 7 5 6 6 2 7 1 8 3 9 4 10 9 11
REMARK H PARENT 9 12
REMARK Flexibility Score: inf
ROOT
ATOM      1  C   UNL     1     115.072 120.101 130.052  1.00  0.00     0.017 C 
ATOM      2  C   UNL     1     114.336 120.327 128.695  1.00  0.00     0.011 C 
ATOM      3  C   UNL     1     115.057 119.732 127.454  1.00  0.00     0.037 C 
ATOM      4  C   UNL     1     116.249 118.824 127.800  1.00  0.00     0.137 C 
ATOM      5  C   UNL     1     117.128 119.520 128.804  1.00  0.00     0.000 C 
ATOM      6  C   UNL     1     116.578 120.151 129.849  1.00  0.00    -0.025 C 
ENDROOT
BRANCH   1   7
ATOM      7  C   UNL     1     114.563 121.020 131.226  1.00  0.00    -0.032 C 
ATOM      8  C   UNL     1     113.649 122.165 130.724  1.00  0.00     0.011 C 
ATOM      9  C   UNL     1     113.773 120.180 132.258  1.00  0.00     0.011 C 
ATOM     10  C   UNL     1     115.772 121.642 131.965  1.00  0.00     0.011 C 
ENDBRANCH   1   7
BRANCH   4  11
ATOM     11  O   UNL     1     115.782 117.608 128.323  1.00  0.00    -0.389 OA
ATOM     12  H   UNL     1     115.112 117.258 127.679  1.00  0.00     0.211 HD
ENDBRANCH   4  11
TORSDOF 2
ENDMDL
MODEL 8
REMARK VINA RESULT:    -4.331     12.329     13.144
REMARK INTER + INTRA:          -4.912
REMARK INTER:                  -4.715
REMARK INTRA:                  -0.197
REMARK UNBOUND:                -0.201
REMARK SMILES CC(C)(C)[C@@H]1C=C[C@@H](O)CC1
REMARK SMILES IDX 5 1 11 2 10 3 8 4 7 5 6 6 2 7 1 8 3 9 4 10 9 11
REMARK H PARENT 9 12
REMARK Flexibility Score: inf
ROOT
ATOM      1  C   UNL     1     116.599 120.822 133.046  1.00  0.00     0.017 C 
ATOM      2  C   UNL     1     116.717 120.573 131.510  1.00  0.00     0.011 C 
ATOM      3  C   UNL     1     115.369 120.604 130.737  1.00  0.00     0.037 C 
ATOM      4  C   UNL     1     114.181 121.105 131.575  1.00  0.00     0.137 C 
ATOM      5  C   UNL     1     114.168 120.385 132.898  1.00  0.00     0.000 C 
ATOM      6  C   UNL     1     115.309 120.220 133.579  1.00  0.00    -0.025 C 
ENDROOT
BRANCH   1   7
ATOM      7  C   UNL     1     117.877 120.408 133.869  1.00  0.00    -0.032 C 
ATOM      8  C   UNL     1     118.081 121.290 135.125  1.00  0.00     0.011 C 
ATOM      9  C   UNL     1     117.767 118.931 134.319  1.00  0.00     0.011 C 
ATOM     10  C   UNL     1     119.135 120.525 132.974  1.00  0.00     0.011 C 
ENDBRANCH   1   7
BRANCH   4  11
ATOM     11  O   UNL     1     114.294 122.489 131.777  1.00  0.00    -0.389 OA
ATOM     12  H   UNL     1     114.576 122.883 130.911  1.00  0.00     0.211 HD
ENDBRANCH   4  11
TORSDOF 2
ENDMDL
MODEL 9
REMARK VINA RESULT:    -4.322     11.744     13.098
REMARK INTER + INTRA:          -4.902
REMARK INTER:                  -4.703
REMARK INTRA:                  -0.199
REMARK UNBOUND:                -0.201
REMARK SMILES CC(C)(C)[C@@H]1C=C[C@@H](O)CC1
REMARK SMILES IDX 5 1 11 2 10 3 8 4 7 5 6 6 2 7 1 8 3 9 4 10 9 11
REMARK H PARENT 9 12
REMARK Flexibility Score: inf
ROOT
ATOM      1  C   UNL     1     114.894 120.461 129.615  1.00  0.00     0.017 C 
ATOM      2  C   UNL     1     116.089 120.270 130.600  1.00  0.00     0.011 C 
ATOM      3  C   UNL     1     115.793 120.669 132.072  1.00  0.00     0.037 C 
ATOM      4  C   UNL     1     114.310 120.963 132.352  1.00  0.00     0.137 C 
ATOM      5  C   UNL     1     113.779 121.894 131.295  1.00  0.00     0.000 C 
ATOM      6  C   UNL     1     114.079 121.682 130.008  1.00  0.00    -0.025 C 
ENDROOT
BRANCH   1   7
ATOM      7  C   UNL     1     115.299 120.435 128.093  1.00  0.00    -0.032 C 
ATOM      8  C   UNL     1     116.127 119.179 127.724  1.00  0.00     0.011 C 
ATOM      9  C   UNL     1     114.035 120.467 127.202  1.00  0.00     0.011 C 
ATOM     10  C   UNL     1     116.135 121.693 127.754  1.00  0.00     0.011 C 
ENDBRANCH   1   7
BRANCH   4  11
ATOM     11  O   UNL     1     113.582 119.763 132.353  1.00  0.00    -0.389 OA
ATOM     12  H   UNL     1     113.479 119.491 131.403  1.00  0.00     0.211 HD
ENDBRANCH   4  11
TORSDOF 2
ENDMDL
