MODEL 1
REMARK VINA RESULT:    -4.365      0.000      0.000
REMARK INTER + INTRA:          -5.570
REMARK INTER:                  -5.386
REMARK INTRA:                  -0.184
REMARK UNBOUND:                -0.184
REMARK SMILES CCCCC=CC(C)=O
REMARK SMILES IDX 4 1 3 2 2 3 1 4 5 5 6 6 7 7 9 8 8 9
REMARK H PARENT
REMARK Flexibility Score: inf
ROOT
ATOM      1  C   UNL     1     -13.969 -14.144  28.601  1.00  0.00     0.027 C 
ENDROOT
BRANCH   1   2
ATOM      2  C   UNL     1     -14.615 -13.969  29.984  1.00  0.00     0.004 C 
BRANCH   2   3
ATOM      3  C   UNL     1     -14.050 -14.947  31.026  1.00  0.00    -0.003 C 
ATOM      4  C   UNL     1     -14.814 -14.906  32.348  1.00  0.00     0.004 C 
ENDBRANCH   2   3
ENDBRANCH   1   2
BRANCH   1   5
ATOM      5  C   UNL     1     -12.935 -15.234  28.620  1.00  0.00    -0.023 C 
ATOM      6  C   UNL     1     -12.890 -16.170  27.665  1.00  0.00     0.042 C 
BRANCH   6   7
ATOM      7  C   UNL     1     -11.877 -17.241  27.657  1.00  0.00     0.152 C 
ATOM      8  O   UNL     1     -11.657 -17.929  28.692  1.00  0.00    -0.295 OA
ATOM      9  C   UNL     1     -11.103 -17.518  26.409  1.00  0.00     0.093 C 
ENDBRANCH   6   7
ENDBRANCH   1   5
TORSDOF 4
ENDMDL
MODEL 2
REMARK VINA RESULT:    -4.311      2.136      5.210
REMARK INTER + INTRA:          -5.504
REMARK INTER:                  -5.365
REMARK INTRA:                  -0.139
REMARK UNBOUND:                -0.184
REMARK SMILES CCCCC=CC(C)=O
REMARK SMILES IDX 4 1 3 2 2 3 1 4 5 5 6 6 7 7 9 8 8 9
REMARK H PARENT
REMARK Flexibility Score: inf
ROOT
ATOM      1  C   UNL     1     -11.730 -16.361  28.952  1.00  0.00     0.027 C 
ENDROOT
BRANCH   1   2
ATOM      2  C   UNL     1     -12.388 -17.530  28.204  1.00  0.00     0.004 C 
BRANCH   2   3
ATOM      3  C   UNL     1     -12.491 -17.279  26.692  1.00  0.00    -0.003 C 
ATOM      4  C   UNL     1     -11.149 -17.425  25.977  1.00  0.00     0.004 C 
ENDBRANCH   2   3
ENDBRANCH   1   2
BRANCH   1   5
ATOM      5  C   UNL     1     -12.763 -15.421  29.504  1.00  0.00    -0.023 C 
ATOM      6  C   UNL     1     -13.337 -15.634  30.694  1.00  0.00     0.042 C 
BRANCH   6   7
ATOM      7  C   UNL     1     -14.343 -14.717  31.260  1.00  0.00     0.152 C 
ATOM      8  O   UNL     1     -14.965 -13.905  30.520  1.00  0.00    -0.295 OA
ATOM      9  C   UNL     1     -14.634 -14.750  32.725  1.00  0.00     0.093 C 
ENDBRANCH   6   7
ENDBRANCH   1   5
TORSDOF 4
ENDMDL
MODEL 3
REMARK VINA RESULT:    -4.288      2.286      3.135
REMARK INTER + INTRA:          -5.475
REMARK INTER:                  -5.326
REMARK INTRA:                  -0.149
REMARK UNBOUND:                -0.184
REMARK SMILES CCCCC=CC(C)=O
REMARK SMILES IDX 4 1 3 2 2 3 1 4 5 5 6 6 7 7 9 8 8 9
REMARK H PARENT
REMARK Flexibility Score: inf
ROOT
ATOM      1  C   UNL     1     -12.439 -16.024  28.386  1.00  0.00     0.027 C 
ENDROOT
BRANCH   1   2
ATOM      2  C   UNL     1     -13.246 -14.976  29.168  1.00  0.00     0.004 C 
BRANCH   2   3
ATOM      3  C   UNL     1     -14.118 -14.102  28.254  1.00  0.00    -0.003 C 
ATOM      4  C   UNL     1     -15.107 -13.237  29.034  1.00  0.00     0.004 C 
ENDBRANCH   2   3
ENDBRANCH   1   2
BRANCH   1   5
ATOM      5  C   UNL     1     -12.636 -17.397  28.960  1.00  0.00    -0.023 C 
ATOM      6  C   UNL     1     -13.231 -18.369  28.258  1.00  0.00     0.042 C 
BRANCH   6   7
ATOM      7  C   UNL     1     -13.422 -19.728  28.798  1.00  0.00     0.152 C 
ATOM      8  O   UNL     1     -14.071 -20.595  28.150  1.00  0.00    -0.295 OA
ATOM      9  C   UNL     1     -12.839 -20.085  30.127  1.00  0.00     0.093 C 
ENDBRANCH   6   7
ENDBRANCH   1   5
TORSDOF 4
ENDMDL
MODEL 4
REMARK VINA RESULT:    -4.277      3.458      4.261
REMARK INTER + INTRA:          -5.462
REMARK INTER:                  -5.201
REMARK INTRA:                  -0.260
REMARK UNBOUND:                -0.184
REMARK SMILES CCCCC=CC(C)=O
REMARK SMILES IDX 4 1 3 2 2 3 1 4 5 5 6 6 7 7 9 8 8 9
REMARK H PARENT
REMARK Flexibility Score: inf
ROOT
ATOM      1  C   UNL     1     -13.262 -20.237  29.455  1.00  0.00     0.027 C 
ENDROOT
BRANCH   1   2
ATOM      2  C   UNL     1     -13.245 -19.564  30.835  1.00  0.00     0.004 C 
BRANCH   2   3
ATOM      3  C   UNL     1     -12.017 -19.962  31.669  1.00  0.00    -0.003 C 
ATOM      4  C   UNL     1     -10.905 -18.916  31.618  1.00  0.00     0.004 C 
ENDBRANCH   2   3
ENDBRANCH   1   2
BRANCH   1   5
ATOM      5  C   UNL     1     -13.305 -19.215  28.354  1.00  0.00    -0.023 C 
ATOM      6  C   UNL     1     -12.278 -18.389  28.128  1.00  0.00     0.042 C 
BRANCH   6   7
ATOM      7  C   UNL     1     -12.294 -17.388  27.045  1.00  0.00     0.152 C 
ATOM      8  O   UNL     1     -13.168 -16.477  27.021  1.00  0.00    -0.295 OA
ATOM      9  C   UNL     1     -11.263 -17.449  25.965  1.00  0.00     0.093 C 
ENDBRANCH   6   7
ENDBRANCH   1   5
TORSDOF 4
ENDMDL
MODEL 5
REMARK VINA RESULT:    -4.274      2.439      3.091
REMARK INTER + INTRA:          -5.458
REMARK INTER:                  -5.214
REMARK INTRA:                  -0.243
REMARK UNBOUND:                -0.184
REMARK SMILES CCCCC=CC(C)=O
REMARK SMILES IDX 4 1 3 2 2 3 1 4 5 5 6 6 7 7 9 8 8 9
REMARK H PARENT
REMARK Flexibility Score: inf
ROOT
ATOM      1  C   UNL     1     -12.114 -16.447  28.151  1.00  0.00     0.027 C 
ENDROOT
BRANCH   1   2
ATOM      2  C   UNL     1     -12.748 -15.380  29.056  1.00  0.00     0.004 C 
BRANCH   2   3
ATOM      3  C   UNL     1     -12.776 -15.802  30.533  1.00  0.00    -0.003 C 
ATOM      4  C   UNL     1     -13.948 -15.190  31.298  1.00  0.00     0.004 C 
ENDBRANCH   2   3
ENDBRANCH   1   2
BRANCH   1   5
ATOM      5  C   UNL     1     -12.305 -17.824  28.720  1.00  0.00    -0.023 C 
ATOM      6  C   UNL     1     -13.312 -18.611  28.322  1.00  0.00     0.042 C 
BRANCH   6   7
ATOM      7  C   UNL     1     -13.510 -19.970  28.859  1.00  0.00     0.152 C 
ATOM      8  O   UNL     1     -14.053 -20.868  28.158  1.00  0.00    -0.295 OA
ATOM      9  C   UNL     1     -13.060 -20.289  30.248  1.00  0.00     0.093 C 
ENDBRANCH   6   7
ENDBRANCH   1   5
TORSDOF 4
ENDMDL
MODEL 6
REMARK VINA RESULT:    -4.167      2.701      4.539
REMARK INTER + INTRA:          -5.326
REMARK INTER:                  -5.058
REMARK INTRA:                  -0.268
REMARK UNBOUND:                -0.184
REMARK SMILES CCCCC=CC(C)=O
REMARK SMILES IDX 4 1 3 2 2 3 1 4 5 5 6 6 7 7 9 8 8 9
REMARK H PARENT
REMARK Flexibility Score: inf
ROOT
ATOM      1  C   UNL     1     -11.576 -16.086  28.598  1.00  0.00     0.027 C 
ENDROOT
BRANCH   1   2
ATOM      2  C   UNL     1     -12.827 -16.163  27.711  1.00  0.00     0.004 C 
BRANCH   2   3
ATOM      3  C   UNL     1     -12.684 -17.189  26.576  1.00  0.00    -0.003 C 
ATOM      4  C   UNL     1     -11.231 -17.404  26.156  1.00  0.00     0.004 C 
ENDBRANCH   2   3
ENDBRANCH   1   2
BRANCH   1   5
ATOM      5  C   UNL     1     -11.767 -16.856  29.873  1.00  0.00    -0.023 C 
ATOM      6  C   UNL     1     -11.479 -18.160  29.950  1.00  0.00     0.042 C 
BRANCH   6   7
ATOM      7  C   UNL     1     -11.647 -18.933  31.195  1.00  0.00     0.152 C 
ATOM      8  O   UNL     1     -10.739 -18.951  32.072  1.00  0.00    -0.295 OA
ATOM      9  C   UNL     1     -12.909 -19.701  31.424  1.00  0.00     0.093 C 
ENDBRANCH   6   7
ENDBRANCH   1   5
TORSDOF 4
ENDMDL
MODEL 7
REMARK VINA RESULT:    -4.145      2.654      3.826
REMARK INTER + INTRA:          -5.299
REMARK INTER:                  -5.000
REMARK INTRA:                  -0.299
REMARK UNBOUND:                -0.184
REMARK SMILES CCCCC=CC(C)=O
REMARK SMILES IDX 4 1 3 2 2 3 1 4 5 5 6 6 7 7 9 8 8 9
REMARK H PARENT
REMARK Flexibility Score: inf
ROOT
ATOM      1  C   UNL     1     -11.878 -16.204  30.464  1.00  0.00     0.027 C 
ENDROOT
BRANCH   1   2
ATOM      2  C   UNL     1     -11.641 -15.747  29.017  1.00  0.00     0.004 C 
BRANCH   2   3
ATOM      3  C   UNL     1     -12.944 -15.368  28.298  1.00  0.00    -0.003 C 
ATOM      4  C   UNL     1     -13.243 -16.272  27.104  1.00  0.00     0.004 C 
ENDBRANCH   2   3
ENDBRANCH   1   2
BRANCH   1   5
ATOM      5  C   UNL     1     -12.595 -17.523  30.504  1.00  0.00    -0.023 C 
ATOM      6  C   UNL     1     -12.138 -18.588  29.834  1.00  0.00     0.042 C 
BRANCH   6   7
ATOM      7  C   UNL     1     -12.820 -19.895  29.870  1.00  0.00     0.152 C 
ATOM      8  O   UNL     1     -12.661 -20.679  30.846  1.00  0.00    -0.295 OA
ATOM      9  C   UNL     1     -13.712 -20.295  28.741  1.00  0.00     0.093 C 
ENDBRANCH   6   7
ENDBRANCH   1   5
TORSDOF 4
ENDMDL
MODEL 8
REMARK VINA RESULT:    -3.993      2.409      3.751
REMARK INTER + INTRA:          -5.111
REMARK INTER:                  -4.913
REMARK INTRA:                  -0.197
REMARK UNBOUND:                -0.184
REMARK SMILES CCCCC=CC(C)=O
REMARK SMILES IDX 4 1 3 2 2 3 1 4 5 5 6 6 7 7 9 8 8 9
REMARK H PARENT
REMARK Flexibility Score: inf
ROOT
ATOM      1  C   UNL     1     -13.223 -17.641  27.132  1.00  0.00     0.027 C 
ENDROOT
BRANCH   1   2
ATOM      2  C   UNL     1     -13.258 -16.112  26.988  1.00  0.00     0.004 C 
BRANCH   2   3
ATOM      3  C   UNL     1     -12.950 -15.389  28.308  1.00  0.00    -0.003 C 
ATOM      4  C   UNL     1     -13.918 -14.242  28.592  1.00  0.00     0.004 C 
ENDBRANCH   2   3
ENDBRANCH   1   2
BRANCH   1   5
ATOM      5  C   UNL     1     -12.452 -18.053  28.353  1.00  0.00    -0.023 C 
ATOM      6  C   UNL     1     -12.872 -19.050  29.141  1.00  0.00     0.042 C 
BRANCH   6   7
ATOM      7  C   UNL     1     -12.124 -19.478  30.337  1.00  0.00     0.152 C 
ATOM      8  O   UNL     1     -10.862 -19.509  30.333  1.00  0.00    -0.295 OA
ATOM      9  C   UNL     1     -12.867 -19.878  31.571  1.00  0.00     0.093 C 
ENDBRANCH   6   7
ENDBRANCH   1   5
TORSDOF 4
ENDMDL
MODEL 9
REMARK VINA RESULT:    -3.931      3.191      4.005
REMARK INTER + INTRA:          -5.035
REMARK INTER:                  -4.748
REMARK INTRA:                  -0.287
REMARK UNBOUND:                -0.184
REMARK SMILES CCCCC=CC(C)=O
REMARK SMILES IDX 4 1 3 2 2 3 1 4 5 5 6 6 7 7 9 8 8 9
REMARK H PARENT
REMARK Flexibility Score: inf
ROOT
ATOM      1  C   UNL     1     -11.070 -17.419  30.469  1.00  0.00     0.027 C 
ENDROOT
BRANCH   1   2
ATOM      2  C   UNL     1     -10.714 -18.880  30.782  1.00  0.00     0.004 C 
BRANCH   2   3
ATOM      3  C   UNL     1     -11.767 -19.567  31.665  1.00  0.00    -0.003 C 
ATOM      4  C   UNL     1     -12.889 -20.211  30.852  1.00  0.00     0.004 C 
ENDBRANCH   2   3
ENDBRANCH   1   2
BRANCH   1   5
ATOM      5  C   UNL     1     -11.187 -17.195  28.988  1.00  0.00    -0.023 C 
ATOM      6  C   UNL     1     -12.318 -17.466  28.328  1.00  0.00     0.042 C 
BRANCH   6   7
ATOM      7  C   UNL     1     -12.458 -17.241  26.877  1.00  0.00     0.152 C 
ATOM      8  O   UNL     1     -13.563 -16.886  26.382  1.00  0.00    -0.295 OA
ATOM      9  C   UNL     1     -11.277 -17.434  25.982  1.00  0.00     0.093 C 
ENDBRANCH   6   7
ENDBRANCH   1   5
TORSDOF 4
ENDMDL
