MODEL 1
REMARK VINA RESULT:    -0.797      0.000      0.000
REMARK INTER + INTRA:          -1.197
REMARK INTER:                  -0.984
REMARK INTRA:                  -0.214
REMARK UNBOUND:                -0.214
REMARK SMILES C=CCc1ccc(OC)c(OC)c1
REMARK SMILES IDX 7 1 10 2 13 3 4 4 5 5 6 6 8 7 9 8 11 9 12 10 3 11 2 12 1 13
REMARK H PARENT
REMARK Flexibility Score: inf
ROOT
ATOM      1  C   UNL     1      -4.614  -9.352   1.522  1.00  0.00     0.160 A 
ATOM      2  C   UNL     1      -4.803  -7.969   1.665  1.00  0.00     0.160 A 
ATOM      3  C   UNL     1      -5.952  -7.362   1.120  1.00  0.00     0.054 A 
ATOM      4  C   UNL     1      -6.905  -8.129   0.431  1.00  0.00    -0.040 A 
ATOM      5  C   UNL     1      -6.713  -9.511   0.303  1.00  0.00     0.008 A 
ATOM      6  C   UNL     1      -5.577 -10.119   0.839  1.00  0.00     0.051 A 
ENDROOT
BRANCH   1   7
ATOM      7  O   UNL     1      -3.458  -9.928   2.075  1.00  0.00    -0.493 OA
ATOM      8  C   UNL     1      -2.190  -9.971   1.427  1.00  0.00     0.278 C 
ENDBRANCH   1   7
BRANCH   2   9
ATOM      9  O   UNL     1      -3.829  -7.231   2.357  1.00  0.00    -0.493 OA
ATOM     10  C   UNL     1      -2.857  -6.396   1.736  1.00  0.00     0.278 C 
ENDBRANCH   2   9
BRANCH   4  11
ATOM     11  C   UNL     1      -8.147  -7.484  -0.123  1.00  0.00     0.062 C 
BRANCH  11  12
ATOM     12  C   UNL     1      -8.067  -5.988  -0.008  1.00  0.00    -0.030 C 
ATOM     13  C   UNL     1      -9.075  -5.268   0.497  1.00  0.00     0.004 C 
ENDBRANCH  11  12
ENDBRANCH   4  11
TORSDOF 4
ENDMDL
MODEL 2
REMARK VINA RESULT:    -0.686      1.312      2.594
REMARK INTER + INTRA:          -1.060
REMARK INTER:                  -0.948
REMARK INTRA:                  -0.113
REMARK UNBOUND:                -0.214
REMARK SMILES C=CCc1ccc(OC)c(OC)c1
REMARK SMILES IDX 7 1 10 2 13 3 4 4 5 5 6 6 8 7 9 8 11 9 12 10 3 11 2 12 1 13
REMARK H PARENT
REMARK Flexibility Score: inf
ROOT
ATOM      1  C   UNL     1      -4.728  -8.043   1.834  1.00  0.00     0.160 A 
ATOM      2  C   UNL     1      -4.771  -9.294   1.198  1.00  0.00     0.160 A 
ATOM      3  C   UNL     1      -5.960  -9.719   0.575  1.00  0.00     0.054 A 
ATOM      4  C   UNL     1      -7.103  -8.905   0.588  1.00  0.00    -0.040 A 
ATOM      5  C   UNL     1      -7.048  -7.653   1.215  1.00  0.00     0.008 A 
ATOM      6  C   UNL     1      -5.874  -7.225   1.836  1.00  0.00     0.051 A 
ENDROOT
BRANCH   1   7
ATOM      7  O   UNL     1      -3.529  -7.648   2.448  1.00  0.00    -0.493 OA
ATOM      8  C   UNL     1      -2.458  -6.990   1.778  1.00  0.00     0.278 C 
ENDBRANCH   1   7
BRANCH   2   9
ATOM      9  O   UNL     1      -3.611 -10.085   1.206  1.00  0.00    -0.493 OA
ATOM     10  C   UNL     1      -2.601 -10.048   0.203  1.00  0.00     0.278 C 
ENDBRANCH   2   9
BRANCH   4  11
ATOM     11  C   UNL     1      -8.364  -9.348  -0.107  1.00  0.00     0.062 C 
BRANCH  11  12
ATOM     12  C   UNL     1      -9.384  -8.245  -0.113  1.00  0.00    -0.030 C 
ATOM     13  C   UNL     1     -10.691  -8.497   0.014  1.00  0.00     0.004 C 
ENDBRANCH  11  12
ENDBRANCH   4  11
TORSDOF 4
ENDMDL
MODEL 3
REMARK VINA RESULT:    -0.680      2.302      5.006
REMARK INTER + INTRA:          -1.053
REMARK INTER:                  -1.857
REMARK INTRA:                   0.804
REMARK UNBOUND:                -0.214
REMARK SMILES C=CCc1ccc(OC)c(OC)c1
REMARK SMILES IDX 7 1 10 2 13 3 4 4 5 5 6 6 8 7 9 8 11 9 12 10 3 11 2 12 1 13
REMARK H PARENT
REMARK Flexibility Score: inf
ROOT
ATOM      1  C   UNL     1      -7.725  -8.404  -0.019  1.00  0.00     0.160 A 
ATOM      2  C   UNL     1      -6.772  -7.396   0.192  1.00  0.00     0.160 A 
ATOM      3  C   UNL     1      -5.409  -7.735   0.300  1.00  0.00     0.054 A 
ATOM      4  C   UNL     1      -4.998  -9.074   0.204  1.00  0.00    -0.040 A 
ATOM      5  C   UNL     1      -5.955 -10.073  -0.018  1.00  0.00     0.008 A 
ATOM      6  C   UNL     1      -7.307  -9.745  -0.125  1.00  0.00     0.051 A 
ENDROOT
BRANCH   1   7
ATOM      7  O   UNL     1      -9.076  -8.035  -0.120  1.00  0.00    -0.493 OA
ATOM      8  C   UNL     1     -10.170  -8.942  -0.021  1.00  0.00     0.278 C 
ENDBRANCH   1   7
BRANCH   2   9
ATOM      9  O   UNL     1      -7.218  -6.068   0.287  1.00  0.00    -0.493 OA
ATOM     10  C   UNL     1      -8.504  -5.616  -0.125  1.00  0.00     0.278 C 
ENDBRANCH   2   9
BRANCH   4  11
ATOM     11  C   UNL     1      -3.538  -9.431   0.287  1.00  0.00     0.062 C 
BRANCH  11  12
ATOM     12  C   UNL     1      -2.970  -9.042   1.623  1.00  0.00    -0.030 C 
ATOM     13  C   UNL     1      -2.081  -9.811   2.259  1.00  0.00     0.004 C 
ENDBRANCH  11  12
ENDBRANCH   4  11
TORSDOF 4
ENDMDL
MODEL 4
REMARK VINA RESULT:    -0.396      2.373      5.199
REMARK INTER + INTRA:          -0.702
REMARK INTER:                  -0.747
REMARK INTRA:                   0.045
REMARK UNBOUND:                -0.214
REMARK SMILES C=CCc1ccc(OC)c(OC)c1
REMARK SMILES IDX 7 1 10 2 13 3 4 4 5 5 6 6 8 7 9 8 11 9 12 10 3 11 2 12 1 13
REMARK H PARENT
REMARK Flexibility Score: inf
ROOT
ATOM      1  C   UNL     1      -6.406  -6.971   1.935  1.00  0.00     0.160 A 
ATOM      2  C   UNL     1      -6.558  -7.553   0.667  1.00  0.00     0.160 A 
ATOM      3  C   UNL     1      -5.485  -8.262   0.092  1.00  0.00     0.054 A 
ATOM      4  C   UNL     1      -4.265  -8.387   0.775  1.00  0.00    -0.040 A 
ATOM      5  C   UNL     1      -4.126  -7.813   2.045  1.00  0.00     0.008 A 
ATOM      6  C   UNL     1      -5.184  -7.107   2.621  1.00  0.00     0.051 A 
ENDROOT
BRANCH   1   7
ATOM      7  O   UNL     1      -7.493  -6.268   2.481  1.00  0.00    -0.493 OA
ATOM      8  C   UNL     1      -7.443  -4.909   2.906  1.00  0.00     0.278 C 
ENDBRANCH   1   7
BRANCH   2   9
ATOM      9  O   UNL     1      -7.791  -7.406   0.010  1.00  0.00    -0.493 OA
ATOM     10  C   UNL     1      -8.762  -8.438  -0.125  1.00  0.00     0.278 C 
ENDBRANCH   2   9
BRANCH   4  11
ATOM     11  C   UNL     1      -3.131  -9.173   0.172  1.00  0.00     0.062 C 
BRANCH  11  12
ATOM     12  C   UNL     1      -2.549 -10.125   1.178  1.00  0.00    -0.030 C 
ATOM     13  C   UNL     1      -1.630  -9.732   2.066  1.00  0.00     0.004 C 
ENDBRANCH  11  12
ENDBRANCH   4  11
TORSDOF 4
ENDMDL
