MODEL 1
REMARK VINA RESULT:    -3.822      0.000      0.000
REMARK INTER + INTRA:          -7.491
REMARK INTER:                  -6.057
REMARK INTRA:                  -1.434
REMARK UNBOUND:                -1.434
REMARK SMILES CCCCCCCCCCCC(=O)[O-]
REMARK SMILES IDX 7 1 8 2 9 3 10 4 11 5 12 6 13 7 14 8 6 9 5 10 4 11 3 12 2 13
REMARK SMILES IDX 1 14
REMARK H PARENT
REMARK Flexibility Score: inf
ROOT
ATOM      1  C   UNL     1      53.351  25.192  35.389  1.00  0.00     0.000 C 
ENDROOT
BRANCH   1   2
ATOM      2  C   UNL     1      53.555  25.879  34.028  1.00  0.00     0.000 C 
BRANCH   2   3
ATOM      3  C   UNL     1      52.966  27.307  34.001  1.00  0.00     0.000 C 
BRANCH   3   4
ATOM      4  C   UNL     1      52.626  27.856  35.399  1.00  0.00     0.006 C 
BRANCH   4   5
ATOM      5  C   UNL     1      52.738  29.383  35.514  1.00  0.00     0.053 C 
BRANCH   5   6
ATOM      6  C   UNL     1      53.616  29.794  36.656  1.00  0.00     0.041 C 
ATOM      7  O   UNL     1      53.131  30.421  37.634  1.00  0.00    -0.550 OA
ATOM      8  O   UNL     1      54.967  29.469  36.651  1.00  0.00    -0.550 OA
ENDBRANCH   5   6
ENDBRANCH   4   5
ENDBRANCH   3   4
ENDBRANCH   2   3
ENDBRANCH   1   2
BRANCH   1   9
ATOM      9  C   UNL     1      52.247  24.122  35.354  1.00  0.00     0.000 C 
BRANCH   9  10
ATOM     10  C   UNL     1      51.104  24.418  36.339  1.00  0.00    -0.000 C 
BRANCH  10  11
ATOM     11  C   UNL     1      49.788  24.673  35.588  1.00  0.00    -0.000 C 
BRANCH  11  12
ATOM     12  C   UNL     1      49.417  26.164  35.534  1.00  0.00    -0.000 C 
BRANCH  12  13
ATOM     13  C   UNL     1      49.265  26.684  34.096  1.00  0.00    -0.003 C 
ATOM     14  C   UNL     1      49.771  25.660  33.086  1.00  0.00     0.004 C 
ENDBRANCH  12  13
ENDBRANCH  11  12
ENDBRANCH  10  11
ENDBRANCH   9  10
ENDBRANCH   1   9
TORSDOF 10
ENDMDL
MODEL 2
REMARK VINA RESULT:    -3.790      1.057      2.466
REMARK INTER + INTRA:          -7.441
REMARK INTER:                  -6.216
REMARK INTRA:                  -1.224
REMARK UNBOUND:                -1.434
REMARK SMILES CCCCCCCCCCCC(=O)[O-]
REMARK SMILES IDX 7 1 8 2 9 3 10 4 11 5 12 6 13 7 14 8 6 9 5 10 4 11 3 12 2 13
REMARK SMILES IDX 1 14
REMARK H PARENT
REMARK Flexibility Score: inf
ROOT
ATOM      1  C   UNL     1      50.785  26.272  33.262  1.00  0.00     0.000 C 
ENDROOT
BRANCH   1   2
ATOM      2  C   UNL     1      52.273  26.194  33.644  1.00  0.00     0.000 C 
BRANCH   2   3
ATOM      3  C   UNL     1      52.607  27.068  34.874  1.00  0.00     0.000 C 
BRANCH   3   4
ATOM      4  C   UNL     1      53.266  28.411  34.509  1.00  0.00     0.006 C 
BRANCH   4   5
ATOM      5  C   UNL     1      52.751  29.602  35.330  1.00  0.00     0.053 C 
BRANCH   5   6
ATOM      6  C   UNL     1      53.511  29.768  36.610  1.00  0.00     0.041 C 
ATOM      7  O   UNL     1      52.969  30.328  37.599  1.00  0.00    -0.550 OA
ATOM      8  O   UNL     1      54.810  29.287  36.720  1.00  0.00    -0.550 OA
ENDBRANCH   5   6
ENDBRANCH   4   5
ENDBRANCH   3   4
ENDBRANCH   2   3
ENDBRANCH   1   2
BRANCH   1   9
ATOM      9  C   UNL     1      49.899  26.758  34.420  1.00  0.00     0.000 C 
BRANCH   9  10
ATOM     10  C   UNL     1      48.735  25.799  34.719  1.00  0.00    -0.000 C 
BRANCH  10  11
ATOM     11  C   UNL     1      49.049  24.384  34.210  1.00  0.00    -0.000 C 
BRANCH  11  12
ATOM     12  C   UNL     1      49.396  23.409  35.346  1.00  0.00    -0.000 C 
BRANCH  12  13
ATOM     13  C   UNL     1      50.908  23.167  35.477  1.00  0.00    -0.003 C 
ATOM     14  C   UNL     1      51.513  24.051  36.564  1.00  0.00     0.004 C 
ENDBRANCH  12  13
ENDBRANCH  11  12
ENDBRANCH  10  11
ENDBRANCH   9  10
ENDBRANCH   1   9
TORSDOF 10
ENDMDL
MODEL 3
REMARK VINA RESULT:    -3.787      0.994      2.040
REMARK INTER + INTRA:          -7.436
REMARK INTER:                  -6.348
REMARK INTRA:                  -1.088
REMARK UNBOUND:                -1.434
REMARK SMILES CCCCCCCCCCCC(=O)[O-]
REMARK SMILES IDX 7 1 8 2 9 3 10 4 11 5 12 6 13 7 14 8 6 9 5 10 4 11 3 12 2 13
REMARK SMILES IDX 1 14
REMARK H PARENT
REMARK Flexibility Score: inf
ROOT
ATOM      1  C   UNL     1      53.245  26.024  34.417  1.00  0.00     0.000 C 
ENDROOT
BRANCH   1   2
ATOM      2  C   UNL     1      52.988  27.519  34.166  1.00  0.00     0.000 C 
BRANCH   2   3
ATOM      3  C   UNL     1      52.456  28.239  35.425  1.00  0.00     0.000 C 
BRANCH   3   4
ATOM      4  C   UNL     1      52.929  29.701  35.540  1.00  0.00     0.006 C 
BRANCH   4   5
ATOM      5  C   UNL     1      53.100  30.189  36.985  1.00  0.00     0.053 C 
BRANCH   5   6
ATOM      6  C   UNL     1      54.526  30.108  37.436  1.00  0.00     0.041 C 
ATOM      7  O   UNL     1      54.867  30.591  38.548  1.00  0.00    -0.550 OA
ATOM      8  O   UNL     1      55.478  29.483  36.638  1.00  0.00    -0.550 OA
ENDBRANCH   5   6
ENDBRANCH   4   5
ENDBRANCH   3   4
ENDBRANCH   2   3
ENDBRANCH   1   2
BRANCH   1   9
ATOM      9  C   UNL     1      52.368  25.114  33.541  1.00  0.00     0.000 C 
BRANCH   9  10
ATOM     10  C   UNL     1      51.212  25.873  32.868  1.00  0.00    -0.000 C 
BRANCH  10  11
ATOM     11  C   UNL     1      49.858  25.414  33.429  1.00  0.00    -0.000 C 
BRANCH  11  12
ATOM     12  C   UNL     1      49.191  26.479  34.314  1.00  0.00    -0.000 C 
BRANCH  12  13
ATOM     13  C   UNL     1      49.451  26.253  35.811  1.00  0.00    -0.003 C 
ATOM     14  C   UNL     1      49.792  24.793  36.094  1.00  0.00     0.004 C 
ENDBRANCH  12  13
ENDBRANCH  11  12
ENDBRANCH  10  11
ENDBRANCH   9  10
ENDBRANCH   1   9
TORSDOF 10
ENDMDL
MODEL 4
REMARK VINA RESULT:    -3.755      3.215      5.128
REMARK INTER + INTRA:          -7.384
REMARK INTER:                  -5.768
REMARK INTRA:                  -1.615
REMARK UNBOUND:                -1.434
REMARK SMILES CCCCCCCCCCCC(=O)[O-]
REMARK SMILES IDX 7 1 8 2 9 3 10 4 11 5 12 6 13 7 14 8 6 9 5 10 4 11 3 12 2 13
REMARK SMILES IDX 1 14
REMARK H PARENT
REMARK Flexibility Score: inf
ROOT
ATOM      1  C   UNL     1      51.230  24.432  36.251  1.00  0.00     0.000 C 
ENDROOT
BRANCH   1   2
ATOM      2  C   UNL     1      49.982  25.332  36.277  1.00  0.00     0.000 C 
BRANCH   2   3
ATOM      3  C   UNL     1      50.182  26.630  35.464  1.00  0.00     0.000 C 
BRANCH   3   4
ATOM      4  C   UNL     1      49.473  26.612  34.097  1.00  0.00     0.006 C 
BRANCH   4   5
ATOM      5  C   UNL     1      50.381  26.202  32.929  1.00  0.00     0.053 C 
BRANCH   5   6
ATOM      6  C   UNL     1      50.398  24.717  32.731  1.00  0.00     0.041 C 
ATOM      7  O   UNL     1      51.361  24.170  32.132  1.00  0.00    -0.550 OA
ATOM      8  O   UNL     1      49.362  23.934  33.224  1.00  0.00    -0.550 OA
ENDBRANCH   5   6
ENDBRANCH   4   5
ENDBRANCH   3   4
ENDBRANCH   2   3
ENDBRANCH   1   2
BRANCH   1   9
ATOM      9  C   UNL     1      52.540  25.233  36.179  1.00  0.00     0.000 C 
BRANCH   9  10
ATOM     10  C   UNL     1      53.438  24.797  35.010  1.00  0.00    -0.000 C 
BRANCH  10  11
ATOM     11  C   UNL     1      53.744  25.985  34.085  1.00  0.00    -0.000 C 
BRANCH  11  12
ATOM     12  C   UNL     1      54.109  27.261  34.859  1.00  0.00    -0.000 C 
BRANCH  12  13
ATOM     13  C   UNL     1      53.331  28.493  34.371  1.00  0.00    -0.003 C 
ATOM     14  C   UNL     1      52.750  29.276  35.544  1.00  0.00     0.004 C 
ENDBRANCH  12  13
ENDBRANCH  11  12
ENDBRANCH  10  11
ENDBRANCH   9  10
ENDBRANCH   1   9
TORSDOF 10
ENDMDL
MODEL 5
REMARK VINA RESULT:    -3.741      2.935      4.916
REMARK INTER + INTRA:          -7.362
REMARK INTER:                  -6.152
REMARK INTRA:                  -1.210
REMARK UNBOUND:                -1.434
REMARK SMILES CCCCCCCCCCCC(=O)[O-]
REMARK SMILES IDX 7 1 8 2 9 3 10 4 11 5 12 6 13 7 14 8 6 9 5 10 4 11 3 12 2 13
REMARK SMILES IDX 1 14
REMARK H PARENT
REMARK Flexibility Score: inf
ROOT
ATOM      1  C   UNL     1      52.630  24.096  33.016  1.00  0.00     0.000 C 
ENDROOT
BRANCH   1   2
ATOM      2  C   UNL     1      51.276  24.522  32.423  1.00  0.00     0.000 C 
BRANCH   2   3
ATOM      3  C   UNL     1      50.881  25.956  32.838  1.00  0.00     0.000 C 
BRANCH   3   4
ATOM      4  C   UNL     1      49.374  26.123  33.110  1.00  0.00     0.006 C 
BRANCH   4   5
ATOM      5  C   UNL     1      49.018  26.242  34.599  1.00  0.00     0.053 C 
BRANCH   5   6
ATOM      6  C   UNL     1      49.583  25.109  35.400  1.00  0.00     0.041 C 
ATOM      7  O   UNL     1      50.438  25.333  36.297  1.00  0.00    -0.550 OA
ATOM      8  O   UNL     1      49.152  23.808  35.171  1.00  0.00    -0.550 OA
ENDBRANCH   5   6
ENDBRANCH   4   5
ENDBRANCH   3   4
ENDBRANCH   2   3
ENDBRANCH   1   2
BRANCH   1   9
ATOM      9  C   UNL     1      53.208  25.139  33.986  1.00  0.00     0.000 C 
BRANCH   9  10
ATOM     10  C   UNL     1      54.618  25.604  33.586  1.00  0.00    -0.000 C 
BRANCH  10  11
ATOM     11  C   UNL     1      54.956  26.951  34.245  1.00  0.00    -0.000 C 
BRANCH  11  12
ATOM     12  C   UNL     1      53.991  28.072  33.829  1.00  0.00    -0.000 C 
BRANCH  12  13
ATOM     13  C   UNL     1      53.455  28.866  35.030  1.00  0.00    -0.003 C 
ATOM     14  C   UNL     1      52.083  28.355  35.457  1.00  0.00     0.004 C 
ENDBRANCH  12  13
ENDBRANCH  11  12
ENDBRANCH  10  11
ENDBRANCH   9  10
ENDBRANCH   1   9
TORSDOF 10
ENDMDL
MODEL 6
REMARK VINA RESULT:    -3.693      1.455      1.808
REMARK INTER + INTRA:          -7.286
REMARK INTER:                  -5.791
REMARK INTRA:                  -1.495
REMARK UNBOUND:                -1.434
REMARK SMILES CCCCCCCCCCCC(=O)[O-]
REMARK SMILES IDX 7 1 8 2 9 3 10 4 11 5 12 6 13 7 14 8 6 9 5 10 4 11 3 12 2 13
REMARK SMILES IDX 1 14
REMARK H PARENT
REMARK Flexibility Score: inf
ROOT
ATOM      1  C   UNL     1      53.172  24.872  34.758  1.00  0.00     0.000 C 
ENDROOT
BRANCH   1   2
ATOM      2  C   UNL     1      53.231  26.018  33.735  1.00  0.00     0.000 C 
BRANCH   2   3
ATOM      3  C   UNL     1      52.920  27.389  34.375  1.00  0.00     0.000 C 
BRANCH   3   4
ATOM      4  C   UNL     1      53.923  28.490  33.981  1.00  0.00     0.006 C 
BRANCH   4   5
ATOM      5  C   UNL     1      55.393  28.101  34.195  1.00  0.00     0.053 C 
BRANCH   5   6
ATOM      6  C   UNL     1      55.743  28.018  35.649  1.00  0.00     0.041 C 
ATOM      7  O   UNL     1      55.842  29.068  36.336  1.00  0.00    -0.550 OA
ATOM      8  O   UNL     1      55.941  26.782  36.252  1.00  0.00    -0.550 OA
ENDBRANCH   5   6
ENDBRANCH   4   5
ENDBRANCH   3   4
ENDBRANCH   2   3
ENDBRANCH   1   2
BRANCH   1   9
ATOM      9  C   UNL     1      52.535  25.297  36.091  1.00  0.00     0.000 C 
BRANCH   9  10
ATOM     10  C   UNL     1      51.373  24.382  36.512  1.00  0.00    -0.000 C 
BRANCH  10  11
ATOM     11  C   UNL     1      50.126  24.654  35.656  1.00  0.00    -0.000 C 
BRANCH  11  12
ATOM     12  C   UNL     1      49.708  26.132  35.672  1.00  0.00    -0.000 C 
BRANCH  12  13
ATOM     13  C   UNL     1      49.265  26.637  34.290  1.00  0.00    -0.003 C 
ATOM     14  C   UNL     1      49.494  25.575  33.219  1.00  0.00     0.004 C 
ENDBRANCH  12  13
ENDBRANCH  11  12
ENDBRANCH  10  11
ENDBRANCH   9  10
ENDBRANCH   1   9
TORSDOF 10
ENDMDL
MODEL 7
REMARK VINA RESULT:    -3.633      1.621      2.990
REMARK INTER + INTRA:          -7.191
REMARK INTER:                  -6.031
REMARK INTRA:                  -1.159
REMARK UNBOUND:                -1.434
REMARK SMILES CCCCCCCCCCCC(=O)[O-]
REMARK SMILES IDX 7 1 8 2 9 3 10 4 11 5 12 6 13 7 14 8 6 9 5 10 4 11 3 12 2 13
REMARK SMILES IDX 1 14
REMARK H PARENT
REMARK Flexibility Score: inf
ROOT
ATOM      1  C   UNL     1      49.551  26.494  33.289  1.00  0.00     0.000 C 
ENDROOT
BRANCH   1   2
ATOM      2  C   UNL     1      50.959  25.966  32.967  1.00  0.00     0.000 C 
BRANCH   2   3
ATOM      3  C   UNL     1      51.970  26.277  34.092  1.00  0.00     0.000 C 
BRANCH   3   4
ATOM      4  C   UNL     1      51.685  27.603  34.824  1.00  0.00     0.006 C 
BRANCH   4   5
ATOM      5  C   UNL     1      52.884  28.151  35.610  1.00  0.00     0.053 C 
BRANCH   5   6
ATOM      6  C   UNL     1      52.906  29.649  35.621  1.00  0.00     0.041 C 
ATOM      7  O   UNL     1      52.458  30.296  34.639  1.00  0.00    -0.550 OA
ATOM      8  O   UNL     1      53.403  30.333  36.725  1.00  0.00    -0.550 OA
ENDBRANCH   5   6
ENDBRANCH   4   5
ENDBRANCH   3   4
ENDBRANCH   2   3
ENDBRANCH   1   2
BRANCH   1   9
ATOM      9  C   UNL     1      48.793  25.600  34.283  1.00  0.00     0.000 C 
BRANCH   9  10
ATOM     10  C   UNL     1      48.292  24.294  33.645  1.00  0.00    -0.000 C 
BRANCH  10  11
ATOM     11  C   UNL     1      48.867  23.072  34.377  1.00  0.00    -0.000 C 
BRANCH  11  12
ATOM     12  C   UNL     1      49.795  23.460  35.539  1.00  0.00    -0.000 C 
BRANCH  12  13
ATOM     13  C   UNL     1      51.190  22.826  35.420  1.00  0.00    -0.003 C 
ATOM     14  C   UNL     1      51.462  22.365  33.991  1.00  0.00     0.004 C 
ENDBRANCH  12  13
ENDBRANCH  11  12
ENDBRANCH  10  11
ENDBRANCH   9  10
ENDBRANCH   1   9
TORSDOF 10
ENDMDL
MODEL 8
REMARK VINA RESULT:    -3.602      1.923      3.272
REMARK INTER + INTRA:          -7.143
REMARK INTER:                  -5.560
REMARK INTRA:                  -1.583
REMARK UNBOUND:                -1.434
REMARK SMILES CCCCCCCCCCCC(=O)[O-]
REMARK SMILES IDX 7 1 8 2 9 3 10 4 11 5 12 6 13 7 14 8 6 9 5 10 4 11 3 12 2 13
REMARK SMILES IDX 1 14
REMARK H PARENT
REMARK Flexibility Score: inf
ROOT
ATOM      1  C   UNL     1      51.147  25.034  36.236  1.00  0.00     0.000 C 
ENDROOT
BRANCH   1   2
ATOM      2  C   UNL     1      52.509  25.634  35.847  1.00  0.00     0.000 C 
BRANCH   2   3
ATOM      3  C   UNL     1      52.407  27.134  35.493  1.00  0.00     0.000 C 
BRANCH   3   4
ATOM      4  C   UNL     1      53.218  27.525  34.243  1.00  0.00     0.006 C 
BRANCH   4   5
ATOM      5  C   UNL     1      54.364  26.557  33.914  1.00  0.00     0.053 C 
BRANCH   5   6
ATOM      6  C   UNL     1      55.687  27.256  33.861  1.00  0.00     0.041 C 
ATOM      7  O   UNL     1      56.617  26.798  33.148  1.00  0.00    -0.550 OA
ATOM      8  O   UNL     1      55.890  28.426  34.584  1.00  0.00    -0.550 OA
ENDBRANCH   5   6
ENDBRANCH   4   5
ENDBRANCH   3   4
ENDBRANCH   2   3
ENDBRANCH   1   2
BRANCH   1   9
ATOM      9  C   UNL     1      49.972  25.971  35.915  1.00  0.00     0.000 C 
BRANCH   9  10
ATOM     10  C   UNL     1      49.093  25.448  34.767  1.00  0.00    -0.000 C 
BRANCH  10  11
ATOM     11  C   UNL     1      49.306  26.280  33.493  1.00  0.00    -0.000 C 
BRANCH  11  12
ATOM     12  C   UNL     1      50.497  25.788  32.656  1.00  0.00    -0.000 C 
BRANCH  12  13
ATOM     13  C   UNL     1      50.645  24.259  32.681  1.00  0.00    -0.003 C 
ATOM     14  C   UNL     1      52.112  23.849  32.593  1.00  0.00     0.004 C 
ENDBRANCH  12  13
ENDBRANCH  11  12
ENDBRANCH  10  11
ENDBRANCH   9  10
ENDBRANCH   1   9
TORSDOF 10
ENDMDL
MODEL 9
REMARK VINA RESULT:    -3.602      1.950      3.589
REMARK INTER + INTRA:          -7.142
REMARK INTER:                  -5.693
REMARK INTRA:                  -1.449
REMARK UNBOUND:                -1.434
REMARK SMILES CCCCCCCCCCCC(=O)[O-]
REMARK SMILES IDX 7 1 8 2 9 3 10 4 11 5 12 6 13 7 14 8 6 9 5 10 4 11 3 12 2 13
REMARK SMILES IDX 1 14
REMARK H PARENT
REMARK Flexibility Score: inf
ROOT
ATOM      1  C   UNL     1      48.670  25.562  34.117  1.00  0.00     0.000 C 
ENDROOT
BRANCH   1   2
ATOM      2  C   UNL     1      49.360  26.218  32.909  1.00  0.00     0.000 C 
BRANCH   2   3
ATOM      3  C   UNL     1      50.883  25.958  32.893  1.00  0.00     0.000 C 
BRANCH   3   4
ATOM      4  C   UNL     1      51.630  26.622  34.066  1.00  0.00     0.006 C 
BRANCH   4   5
ATOM      5  C   UNL     1      53.158  26.622  33.912  1.00  0.00     0.053 C 
BRANCH   5   6
ATOM      6  C   UNL     1      53.739  27.987  34.115  1.00  0.00     0.041 C 
ATOM      7  O   UNL     1      53.040  28.904  34.621  1.00  0.00    -0.550 OA
ATOM      8  O   UNL     1      55.059  28.245  33.762  1.00  0.00    -0.550 OA
ENDBRANCH   5   6
ENDBRANCH   4   5
ENDBRANCH   3   4
ENDBRANCH   2   3
ENDBRANCH   1   2
BRANCH   1   9
ATOM      9  C   UNL     1      48.119  24.163  33.799  1.00  0.00     0.000 C 
BRANCH   9  10
ATOM     10  C   UNL     1      48.910  23.042  34.492  1.00  0.00    -0.000 C 
BRANCH  10  11
ATOM     11  C   UNL     1      49.832  23.616  35.579  1.00  0.00    -0.000 C 
BRANCH  11  12
ATOM     12  C   UNL     1      51.278  23.111  35.456  1.00  0.00    -0.000 C 
BRANCH  12  13
ATOM     13  C   UNL     1      51.541  22.387  34.126  1.00  0.00    -0.003 C 
ATOM     14  C   UNL     1      52.849  22.855  33.495  1.00  0.00     0.004 C 
ENDBRANCH  12  13
ENDBRANCH  11  12
ENDBRANCH  10  11
ENDBRANCH   9  10
ENDBRANCH   1   9
TORSDOF 10
ENDMDL
