MODEL 1
REMARK VINA RESULT:    -3.085      0.000      0.000
REMARK INTER + INTRA:          -4.194
REMARK INTER:                  -3.986
REMARK INTRA:                  -0.208
REMARK UNBOUND:                -0.208
REMARK SMILES CCCCCCC(=O)[O-]
REMARK SMILES IDX 5 1 6 2 7 3 8 4 9 5 4 6 3 7 2 8 1 9
REMARK H PARENT
REMARK Flexibility Score: inf
ROOT
ATOM      1  C   UNL     1      15.225  13.491   9.736  1.00  0.00     0.006 C 
ENDROOT
BRANCH   1   2
ATOM      2  C   UNL     1      14.736  14.222   8.479  1.00  0.00     0.053 C 
BRANCH   2   3
ATOM      3  C   UNL     1      14.780  13.337   7.271  1.00  0.00     0.041 C 
ATOM      4  O   UNL     1      13.713  12.911   6.757  1.00  0.00    -0.550 OA
ATOM      5  O   UNL     1      16.003  12.955   6.734  1.00  0.00    -0.550 OA
ENDBRANCH   2   3
ENDBRANCH   1   2
BRANCH   1   6
ATOM      6  C   UNL     1      14.248  12.392  10.186  1.00  0.00     0.000 C 
BRANCH   6   7
ATOM      7  C   UNL     1      14.787  11.568  11.366  1.00  0.00    -0.000 C 
BRANCH   7   8
ATOM      8  C   UNL     1      14.698  12.320  12.701  1.00  0.00    -0.003 C 
ATOM      9  C   UNL     1      13.288  12.855  12.936  1.00  0.00     0.004 C 
ENDBRANCH   7   8
ENDBRANCH   6   7
ENDBRANCH   1   6
TORSDOF 5
ENDMDL
MODEL 2
REMARK VINA RESULT:    -3.036      1.156      1.875
REMARK INTER + INTRA:          -4.132
REMARK INTER:                  -3.934
REMARK INTRA:                  -0.197
REMARK UNBOUND:                -0.208
REMARK SMILES CCCCCCC(=O)[O-]
REMARK SMILES IDX 5 1 6 2 7 3 8 4 9 5 4 6 3 7 2 8 1 9
REMARK H PARENT
REMARK Flexibility Score: inf
ROOT
ATOM      1  C   UNL     1      14.114  12.316   9.927  1.00  0.00     0.006 C 
ENDROOT
BRANCH   1   2
ATOM      2  C   UNL     1      14.544  13.475   9.018  1.00  0.00     0.053 C 
BRANCH   2   3
ATOM      3  C   UNL     1      14.465  13.101   7.569  1.00  0.00     0.041 C 
ATOM      4  O   UNL     1      13.368  12.746   7.064  1.00  0.00    -0.550 OA
ATOM      5  O   UNL     1      15.613  13.111   6.785  1.00  0.00    -0.550 OA
ENDBRANCH   2   3
ENDBRANCH   1   2
BRANCH   1   6
ATOM      6  C   UNL     1      14.067  12.727  11.408  1.00  0.00     0.000 C 
BRANCH   6   7
ATOM      7  C   UNL     1      14.943  11.831  12.299  1.00  0.00    -0.000 C 
BRANCH   7   8
ATOM      8  C   UNL     1      16.318  11.547  11.678  1.00  0.00    -0.003 C 
ATOM      9  C   UNL     1      16.641  10.056  11.720  1.00  0.00     0.004 C 
ENDBRANCH   7   8
ENDBRANCH   6   7
ENDBRANCH   1   6
TORSDOF 5
ENDMDL
MODEL 3
REMARK VINA RESULT:    -2.983      3.083      4.858
REMARK INTER + INTRA:          -4.063
REMARK INTER:                  -3.807
REMARK INTRA:                  -0.256
REMARK UNBOUND:                -0.208
REMARK SMILES CCCCCCC(=O)[O-]
REMARK SMILES IDX 5 1 6 2 7 3 8 4 9 5 4 6 3 7 2 8 1 9
REMARK H PARENT
REMARK Flexibility Score: inf
ROOT
ATOM      1  C   UNL     1      15.482  12.781  10.319  1.00  0.00     0.006 C 
ENDROOT
BRANCH   1   2
ATOM      2  C   UNL     1      14.043  12.743  10.848  1.00  0.00     0.053 C 
BRANCH   2   3
ATOM      3  C   UNL     1      14.000  12.469  12.320  1.00  0.00     0.041 C 
ATOM      4  O   UNL     1      14.920  11.808  12.869  1.00  0.00    -0.550 OA
ATOM      5  O   UNL     1      12.924  12.912  13.080  1.00  0.00    -0.550 OA
ENDBRANCH   2   3
ENDBRANCH   1   2
BRANCH   1   6
ATOM      6  C   UNL     1      15.799  14.099   9.591  1.00  0.00     0.000 C 
BRANCH   6   7
ATOM      7  C   UNL     1      14.817  14.393   8.446  1.00  0.00    -0.000 C 
BRANCH   7   8
ATOM      8  C   UNL     1      14.895  13.352   7.321  1.00  0.00    -0.003 C 
ATOM      9  C   UNL     1      13.535  12.703   7.078  1.00  0.00     0.004 C 
ENDBRANCH   7   8
ENDBRANCH   6   7
ENDBRANCH   1   6
TORSDOF 5
ENDMDL
MODEL 4
REMARK VINA RESULT:    -2.941      0.715      1.445
REMARK INTER + INTRA:          -4.009
REMARK INTER:                  -3.732
REMARK INTRA:                  -0.277
REMARK UNBOUND:                -0.208
REMARK SMILES CCCCCCC(=O)[O-]
REMARK SMILES IDX 5 1 6 2 7 3 8 4 9 5 4 6 3 7 2 8 1 9
REMARK H PARENT
REMARK Flexibility Score: inf
ROOT
ATOM      1  C   UNL     1      15.688  13.837   9.728  1.00  0.00     0.006 C 
ENDROOT
BRANCH   1   2
ATOM      2  C   UNL     1      14.801  14.313   8.571  1.00  0.00     0.053 C 
BRANCH   2   3
ATOM      3  C   UNL     1      14.753  13.310   7.459  1.00  0.00     0.041 C 
ATOM      4  O   UNL     1      15.791  13.050   6.796  1.00  0.00    -0.550 OA
ATOM      5  O   UNL     1      13.554  12.690   7.132  1.00  0.00    -0.550 OA
ENDBRANCH   2   3
ENDBRANCH   1   2
BRANCH   1   6
ATOM      6  C   UNL     1      15.236  12.476  10.284  1.00  0.00     0.000 C 
BRANCH   6   7
ATOM      7  C   UNL     1      13.859  12.542  10.963  1.00  0.00    -0.000 C 
BRANCH   7   8
ATOM      8  C   UNL     1      13.960  12.735  12.483  1.00  0.00    -0.003 C 
ATOM      9  C   UNL     1      15.015  11.810  13.084  1.00  0.00     0.004 C 
ENDBRANCH   7   8
ENDBRANCH   6   7
ENDBRANCH   1   6
TORSDOF 5
ENDMDL
MODEL 5
REMARK VINA RESULT:    -2.881      2.655      4.625
REMARK INTER + INTRA:          -3.932
REMARK INTER:                  -3.672
REMARK INTRA:                  -0.259
REMARK UNBOUND:                -0.208
REMARK SMILES CCCCCCC(=O)[O-]
REMARK SMILES IDX 5 1 6 2 7 3 8 4 9 5 4 6 3 7 2 8 1 9
REMARK H PARENT
REMARK Flexibility Score: inf
ROOT
ATOM      1  C   UNL     1      14.077  12.835   8.378  1.00  0.00     0.006 C 
ENDROOT
BRANCH   1   2
ATOM      2  C   UNL     1      14.804  13.169   9.687  1.00  0.00     0.053 C 
BRANCH   2   3
ATOM      3  C   UNL     1      14.352  12.289  10.812  1.00  0.00     0.041 C 
ATOM      4  O   UNL     1      14.869  11.153  10.976  1.00  0.00    -0.550 OA
ATOM      5  O   UNL     1      13.334  12.710  11.659  1.00  0.00    -0.550 OA
ENDBRANCH   2   3
ENDBRANCH   1   2
BRANCH   1   6
ATOM      6  C   UNL     1      14.711  13.541   7.166  1.00  0.00     0.000 C 
BRANCH   6   7
ATOM      7  C   UNL     1      15.895  14.439   7.557  1.00  0.00    -0.000 C 
BRANCH   7   8
ATOM      8  C   UNL     1      15.675  15.907   7.166  1.00  0.00    -0.003 C 
ATOM      9  C   UNL     1      15.253  16.739   8.374  1.00  0.00     0.004 C 
ENDBRANCH   7   8
ENDBRANCH   6   7
ENDBRANCH   1   6
TORSDOF 5
ENDMDL
MODEL 6
REMARK VINA RESULT:    -2.859      2.113      2.672
REMARK INTER + INTRA:          -3.903
REMARK INTER:                  -3.705
REMARK INTRA:                  -0.198
REMARK UNBOUND:                -0.208
REMARK SMILES CCCCCCC(=O)[O-]
REMARK SMILES IDX 5 1 6 2 7 3 8 4 9 5 4 6 3 7 2 8 1 9
REMARK H PARENT
REMARK Flexibility Score: inf
ROOT
ATOM      1  C   UNL     1      14.848  13.675   7.070  1.00  0.00     0.006 C 
ENDROOT
BRANCH   1   2
ATOM      2  C   UNL     1      16.108  14.340   7.639  1.00  0.00     0.053 C 
BRANCH   2   3
ATOM      3  C   UNL     1      16.055  15.831   7.508  1.00  0.00     0.041 C 
ATOM      4  O   UNL     1      15.133  16.485   8.063  1.00  0.00    -0.550 OA
ATOM      5  O   UNL     1      17.005  16.496   6.742  1.00  0.00    -0.550 OA
ENDBRANCH   2   3
ENDBRANCH   1   2
BRANCH   1   6
ATOM      6  C   UNL     1      14.059  12.910   8.147  1.00  0.00     0.000 C 
BRANCH   6   7
ATOM      7  C   UNL     1      14.655  13.083   9.552  1.00  0.00    -0.000 C 
BRANCH   7   8
ATOM      8  C   UNL     1      14.110  12.056  10.554  1.00  0.00    -0.003 C 
ATOM      9  C   UNL     1      13.795  12.712  11.896  1.00  0.00     0.004 C 
ENDBRANCH   7   8
ENDBRANCH   6   7
ENDBRANCH   1   6
TORSDOF 5
ENDMDL
MODEL 7
REMARK VINA RESULT:    -2.724      2.842      4.682
REMARK INTER + INTRA:          -3.728
REMARK INTER:                  -3.535
REMARK INTRA:                  -0.192
REMARK UNBOUND:                -0.208
REMARK SMILES CCCCCCC(=O)[O-]
REMARK SMILES IDX 5 1 6 2 7 3 8 4 9 5 4 6 3 7 2 8 1 9
REMARK H PARENT
REMARK Flexibility Score: inf
ROOT
ATOM      1  C   UNL     1      13.984  11.997  10.325  1.00  0.00     0.006 C 
ENDROOT
BRANCH   1   2
ATOM      2  C   UNL     1      14.620  12.044  11.720  1.00  0.00     0.053 C 
BRANCH   2   3
ATOM      3  C   UNL     1      16.048  11.591  11.694  1.00  0.00     0.041 C 
ATOM      4  O   UNL     1      16.324  10.375  11.529  1.00  0.00    -0.550 OA
ATOM      5  O   UNL     1      17.072  12.510  11.888  1.00  0.00    -0.550 OA
ENDBRANCH   2   3
ENDBRANCH   1   2
BRANCH   1   6
ATOM      6  C   UNL     1      14.565  13.068   9.385  1.00  0.00     0.000 C 
BRANCH   6   7
ATOM      7  C   UNL     1      14.004  12.969   7.958  1.00  0.00    -0.000 C 
BRANCH   7   8
ATOM      8  C   UNL     1      15.083  13.176   6.885  1.00  0.00    -0.003 C 
ATOM      9  C   UNL     1      16.411  13.585   7.515  1.00  0.00     0.004 C 
ENDBRANCH   7   8
ENDBRANCH   6   7
ENDBRANCH   1   6
TORSDOF 5
ENDMDL
MODEL 8
REMARK VINA RESULT:    -2.633      3.078      4.597
REMARK INTER + INTRA:          -3.610
REMARK INTER:                  -3.450
REMARK INTRA:                  -0.160
REMARK UNBOUND:                -0.208
REMARK SMILES CCCCCCC(=O)[O-]
REMARK SMILES IDX 5 1 6 2 7 3 8 4 9 5 4 6 3 7 2 8 1 9
REMARK H PARENT
REMARK Flexibility Score: inf
ROOT
ATOM      1  C   UNL     1      15.617  15.169   7.266  1.00  0.00     0.006 C 
ENDROOT
BRANCH   1   2
ATOM      2  C   UNL     1      15.648  13.637   7.325  1.00  0.00     0.053 C 
BRANCH   2   3
ATOM      3  C   UNL     1      14.375  13.077   7.881  1.00  0.00     0.041 C 
ATOM      4  O   UNL     1      14.246  12.903   9.120  1.00  0.00    -0.550 OA
ATOM      5  O   UNL     1      13.343  12.714   7.024  1.00  0.00    -0.550 OA
ENDBRANCH   2   3
ENDBRANCH   1   2
BRANCH   1   6
ATOM      6  C   UNL     1      17.019  15.785   7.412  1.00  0.00     0.000 C 
BRANCH   6   7
ATOM      7  C   UNL     1      17.001  17.125   8.164  1.00  0.00    -0.000 C 
BRANCH   7   8
ATOM      8  C   UNL     1      15.664  17.386   8.872  1.00  0.00    -0.003 C 
ATOM      9  C   UNL     1      15.703  18.697   9.653  1.00  0.00     0.004 C 
ENDBRANCH   7   8
ENDBRANCH   6   7
ENDBRANCH   1   6
TORSDOF 5
ENDMDL
MODEL 9
REMARK VINA RESULT:    -2.535      2.140      3.593
REMARK INTER + INTRA:          -3.484
REMARK INTER:                  -3.144
REMARK INTRA:                  -0.340
REMARK UNBOUND:                -0.208
REMARK SMILES CCCCCCC(=O)[O-]
REMARK SMILES IDX 5 1 6 2 7 3 8 4 9 5 4 6 3 7 2 8 1 9
REMARK H PARENT
REMARK Flexibility Score: inf
ROOT
ATOM      1  C   UNL     1      16.202  13.425   9.425  1.00  0.00     0.006 C 
ENDROOT
BRANCH   1   2
ATOM      2  C   UNL     1      14.708  13.169   9.190  1.00  0.00     0.053 C 
BRANCH   2   3
ATOM      3  C   UNL     1      14.355  13.240   7.736  1.00  0.00     0.041 C 
ATOM      4  O   UNL     1      14.975  14.023   6.970  1.00  0.00    -0.550 OA
ATOM      5  O   UNL     1      13.316  12.466   7.233  1.00  0.00    -0.550 OA
ENDBRANCH   2   3
ENDBRANCH   1   2
BRANCH   1   6
ATOM      6  C   UNL     1      16.462  14.181  10.739  1.00  0.00     0.000 C 
BRANCH   6   7
ATOM      7  C   UNL     1      16.364  15.706  10.572  1.00  0.00    -0.000 C 
BRANCH   7   8
ATOM      8  C   UNL     1      16.720  16.168   9.153  1.00  0.00    -0.003 C 
ATOM      9  C   UNL     1      15.647  17.096   8.592  1.00  0.00     0.004 C 
ENDBRANCH   7   8
ENDBRANCH   6   7
ENDBRANCH   1   6
TORSDOF 5
ENDMDL
