MODEL 1
REMARK VINA RESULT:    -3.244      0.000      0.000
REMARK INTER + INTRA:          -3.761
REMARK INTER:                  -3.718
REMARK INTRA:                  -0.044
REMARK UNBOUND:                -0.044
REMARK SMILES CC(C)[C@H]([NH3+])C(=O)[O-]
REMARK SMILES IDX 4 1 5 2 6 6 7 7 8 8 2 9 1 10 3 11
REMARK H PARENT 5 3 5 4 5 5
REMARK Flexibility Score: inf
ROOT
ATOM      1  C   UNL     1     -23.593   6.130 -14.623  1.00  0.00     0.230 C 
ENDROOT
BRANCH   1   2
ATOM      2  N   UNL     1     -24.596   7.004 -13.994  1.00  0.00    -0.350 N 
ATOM      3  H   UNL     1     -24.139   7.619 -13.283  1.00  0.00     0.345 HD
ATOM      4  H   UNL     1     -25.028   7.617 -14.723  1.00  0.00     0.345 HD
ATOM      5  H   UNL     1     -25.352   6.449 -13.533  1.00  0.00     0.345 HD
ENDBRANCH   1   2
BRANCH   1   6
ATOM      6  C   UNL     1     -22.467   6.944 -15.216  1.00  0.00     0.099 C 
ATOM      7  O   UNL     1     -21.420   6.387 -15.636  1.00  0.00    -0.544 OA
ATOM      8  O   UNL     1     -22.573   8.328 -15.272  1.00  0.00    -0.544 OA
ENDBRANCH   1   6
BRANCH   1   9
ATOM      9  C   UNL     1     -24.240   5.156 -15.653  1.00  0.00     0.047 C 
ATOM     10  C   UNL     1     -25.774   5.212 -15.587  1.00  0.00     0.014 C 
ATOM     11  C   UNL     1     -23.760   3.701 -15.515  1.00  0.00     0.014 C 
ENDBRANCH   1   9
TORSDOF 3
ENDMDL
MODEL 2
REMARK VINA RESULT:    -3.183      2.324      3.104
REMARK INTER + INTRA:          -3.692
REMARK INTER:                  -3.623
REMARK INTRA:                  -0.068
REMARK UNBOUND:                -0.044
REMARK SMILES CC(C)[C@H]([NH3+])C(=O)[O-]
REMARK SMILES IDX 4 1 5 2 6 6 7 7 8 8 2 9 1 10 3 11
REMARK H PARENT 5 3 5 4 5 5
REMARK Flexibility Score: inf
ROOT
ATOM      1  C   UNL     1     -24.512   5.229 -15.867  1.00  0.00     0.230 C 
ENDROOT
BRANCH   1   2
ATOM      2  N   UNL     1     -25.845   4.663 -15.611  1.00  0.00    -0.350 N 
ATOM      3  H   UNL     1     -25.773   3.868 -14.935  1.00  0.00     0.345 HD
ATOM      4  H   UNL     1     -26.459   5.396 -15.185  1.00  0.00     0.345 HD
ATOM      5  H   UNL     1     -26.293   4.325 -16.493  1.00  0.00     0.345 HD
ENDBRANCH   1   2
BRANCH   1   6
ATOM      6  C   UNL     1     -23.534   4.145 -16.254  1.00  0.00     0.099 C 
ATOM      7  O   UNL     1     -23.365   3.136 -15.521  1.00  0.00    -0.544 OA
ATOM      8  O   UNL     1     -22.787   4.274 -17.419  1.00  0.00    -0.544 OA
ENDBRANCH   1   6
BRANCH   1   9
ATOM      9  C   UNL     1     -24.011   6.093 -14.670  1.00  0.00     0.047 C 
ATOM     10  C   UNL     1     -25.020   7.197 -14.318  1.00  0.00     0.014 C 
ATOM     11  C   UNL     1     -22.617   6.704 -14.890  1.00  0.00     0.014 C 
ENDBRANCH   1   9
TORSDOF 3
ENDMDL
MODEL 3
REMARK VINA RESULT:    -3.182      2.606      3.263
REMARK INTER + INTRA:          -3.690
REMARK INTER:                  -3.650
REMARK INTRA:                  -0.040
REMARK UNBOUND:                -0.044
REMARK SMILES CC(C)[C@H]([NH3+])C(=O)[O-]
REMARK SMILES IDX 4 1 5 2 6 6 7 7 8 8 2 9 1 10 3 11
REMARK H PARENT 5 3 5 4 5 5
REMARK Flexibility Score: inf
ROOT
ATOM      1  C   UNL     1     -22.633   5.682 -15.275  1.00  0.00     0.230 C 
ENDROOT
BRANCH   1   2
ATOM      2  N   UNL     1     -21.488   6.358 -15.904  1.00  0.00    -0.350 N 
ATOM      3  H   UNL     1     -20.643   6.274 -15.293  1.00  0.00     0.345 HD
ATOM      4  H   UNL     1     -21.273   5.899 -16.819  1.00  0.00     0.345 HD
ATOM      5  H   UNL     1     -21.687   7.369 -16.076  1.00  0.00     0.345 HD
ENDBRANCH   1   2
BRANCH   1   6
ATOM      6  C   UNL     1     -23.102   4.521 -16.121  1.00  0.00     0.099 C 
ATOM      7  O   UNL     1     -23.776   3.585 -15.616  1.00  0.00    -0.544 OA
ATOM      8  O   UNL     1     -22.761   4.466 -17.466  1.00  0.00    -0.544 OA
ENDBRANCH   1   6
BRANCH   1   9
ATOM      9  C   UNL     1     -23.780   6.682 -14.937  1.00  0.00     0.047 C 
ATOM     10  C   UNL     1     -23.283   8.135 -14.978  1.00  0.00     0.014 C 
ATOM     11  C   UNL     1     -24.469   6.400 -13.591  1.00  0.00     0.014 C 
ENDBRANCH   1   9
TORSDOF 3
ENDMDL
MODEL 4
REMARK VINA RESULT:    -3.153      2.266      2.790
REMARK INTER + INTRA:          -3.657
REMARK INTER:                  -3.823
REMARK INTRA:                   0.166
REMARK UNBOUND:                -0.044
REMARK SMILES CC(C)[C@H]([NH3+])C(=O)[O-]
REMARK SMILES IDX 4 1 5 2 6 6 7 7 8 8 2 9 1 10 3 11
REMARK H PARENT 5 3 5 4 5 5
REMARK Flexibility Score: inf
ROOT
ATOM      1  C   UNL     1     -24.344   4.986 -14.997  1.00  0.00     0.230 C 
ENDROOT
BRANCH   1   2
ATOM      2  N   UNL     1     -25.399   4.751 -15.995  1.00  0.00    -0.350 N 
ATOM      3  H   UNL     1     -25.713   3.754 -15.956  1.00  0.00     0.345 HD
ATOM      4  H   UNL     1     -26.223   5.359 -15.781  1.00  0.00     0.345 HD
ATOM      5  H   UNL     1     -25.066   4.968 -16.962  1.00  0.00     0.345 HD
ENDBRANCH   1   2
BRANCH   1   6
ATOM      6  C   UNL     1     -24.647   6.217 -14.176  1.00  0.00     0.099 C 
ATOM      7  O   UNL     1     -24.269   6.304 -12.978  1.00  0.00    -0.544 OA
ATOM      8  O   UNL     1     -25.376   7.258 -14.737  1.00  0.00    -0.544 OA
ENDBRANCH   1   6
BRANCH   1   9
ATOM      9  C   UNL     1     -22.930   5.029 -15.649  1.00  0.00     0.047 C 
ATOM     10  C   UNL     1     -22.266   6.401 -15.454  1.00  0.00     0.014 C 
ATOM     11  C   UNL     1     -22.925   4.649 -17.140  1.00  0.00     0.014 C 
ENDBRANCH   1   9
TORSDOF 3
ENDMDL
MODEL 5
REMARK VINA RESULT:    -3.133      2.163      2.574
REMARK INTER + INTRA:          -3.634
REMARK INTER:                  -3.584
REMARK INTRA:                  -0.050
REMARK UNBOUND:                -0.044
REMARK SMILES CC(C)[C@H]([NH3+])C(=O)[O-]
REMARK SMILES IDX 4 1 5 2 6 6 7 7 8 8 2 9 1 10 3 11
REMARK H PARENT 5 3 5 4 5 5
REMARK Flexibility Score: inf
ROOT
ATOM      1  C   UNL     1     -23.631   6.147 -15.186  1.00  0.00     0.230 C 
ENDROOT
BRANCH   1   2
ATOM      2  N   UNL     1     -22.240   6.120 -14.709  1.00  0.00    -0.350 N 
ATOM      3  H   UNL     1     -22.193   5.671 -13.765  1.00  0.00     0.345 HD
ATOM      4  H   UNL     1     -21.658   5.551 -15.367  1.00  0.00     0.345 HD
ATOM      5  H   UNL     1     -21.835   7.081 -14.653  1.00  0.00     0.345 HD
ENDBRANCH   1   2
BRANCH   1   6
ATOM      6  C   UNL     1     -24.549   6.714 -14.128  1.00  0.00     0.099 C 
ATOM      7  O   UNL     1     -24.523   6.276 -12.948  1.00  0.00    -0.544 OA
ATOM      8  O   UNL     1     -25.456   7.711 -14.465  1.00  0.00    -0.544 OA
ENDBRANCH   1   6
BRANCH   1   9
ATOM      9  C   UNL     1     -24.094   4.751 -15.700  1.00  0.00     0.047 C 
ATOM     10  C   UNL     1     -23.182   4.240 -16.826  1.00  0.00     0.014 C 
ATOM     11  C   UNL     1     -25.563   4.715 -16.155  1.00  0.00     0.014 C 
ENDBRANCH   1   9
TORSDOF 3
ENDMDL
MODEL 6
REMARK VINA RESULT:    -3.107      3.074      3.930
REMARK INTER + INTRA:          -3.605
REMARK INTER:                  -3.569
REMARK INTRA:                  -0.035
REMARK UNBOUND:                -0.044
REMARK SMILES CC(C)[C@H]([NH3+])C(=O)[O-]
REMARK SMILES IDX 4 1 5 2 6 6 7 7 8 8 2 9 1 10 3 11
REMARK H PARENT 5 3 5 4 5 5
REMARK Flexibility Score: inf
ROOT
ATOM      1  C   UNL     1     -24.681   4.751 -15.543  1.00  0.00     0.230 C 
ENDROOT
BRANCH   1   2
ATOM      2  N   UNL     1     -23.738   4.021 -16.404  1.00  0.00    -0.350 N 
ATOM      3  H   UNL     1     -24.219   3.210 -16.856  1.00  0.00     0.345 HD
ATOM      4  H   UNL     1     -23.393   4.656 -17.160  1.00  0.00     0.345 HD
ATOM      5  H   UNL     1     -22.916   3.671 -15.861  1.00  0.00     0.345 HD
ENDBRANCH   1   2
BRANCH   1   6
ATOM      6  C   UNL     1     -25.982   5.004 -16.267  1.00  0.00     0.099 C 
ATOM      7  O   UNL     1     -26.959   5.531 -15.673  1.00  0.00    -0.544 OA
ATOM      8  O   UNL     1     -26.117   4.625 -17.597  1.00  0.00    -0.544 OA
ENDBRANCH   1   6
BRANCH   1   9
ATOM      9  C   UNL     1     -24.048   6.054 -14.968  1.00  0.00     0.047 C 
ATOM     10  C   UNL     1     -22.533   6.098 -15.222  1.00  0.00     0.014 C 
ATOM     11  C   UNL     1     -24.337   6.273 -13.473  1.00  0.00     0.014 C 
ENDBRANCH   1   9
TORSDOF 3
ENDMDL
MODEL 7
REMARK VINA RESULT:    -3.007      2.089      2.907
REMARK INTER + INTRA:          -3.491
REMARK INTER:                  -3.670
REMARK INTRA:                   0.180
REMARK UNBOUND:                -0.044
REMARK SMILES CC(C)[C@H]([NH3+])C(=O)[O-]
REMARK SMILES IDX 4 1 5 2 6 6 7 7 8 8 2 9 1 10 3 11
REMARK H PARENT 5 3 5 4 5 5
REMARK Flexibility Score: inf
ROOT
ATOM      1  C   UNL     1     -23.428   5.542 -14.812  1.00  0.00     0.230 C 
ENDROOT
BRANCH   1   2
ATOM      2  N   UNL     1     -22.583   6.695 -15.157  1.00  0.00    -0.350 N 
ATOM      3  H   UNL     1     -22.707   6.942 -16.166  1.00  0.00     0.345 HD
ATOM      4  H   UNL     1     -22.871   7.522 -14.584  1.00  0.00     0.345 HD
ATOM      5  H   UNL     1     -21.573   6.499 -14.974  1.00  0.00     0.345 HD
ENDBRANCH   1   2
BRANCH   1   6
ATOM      6  C   UNL     1     -23.256   4.430 -15.819  1.00  0.00     0.099 C 
ATOM      7  O   UNL     1     -22.917   4.681 -17.006  1.00  0.00    -0.544 OA
ATOM      8  O   UNL     1     -23.503   3.115 -15.445  1.00  0.00    -0.544 OA
ENDBRANCH   1   6
BRANCH   1   9
ATOM      9  C   UNL     1     -24.918   5.955 -14.618  1.00  0.00     0.047 C 
ATOM     10  C   UNL     1     -25.811   5.352 -15.713  1.00  0.00     0.014 C 
ATOM     11  C   UNL     1     -25.133   7.476 -14.543  1.00  0.00     0.014 C 
ENDBRANCH   1   9
TORSDOF 3
ENDMDL
MODEL 8
REMARK VINA RESULT:    -2.945      2.215      3.275
REMARK INTER + INTRA:          -3.419
REMARK INTER:                  -3.714
REMARK INTRA:                   0.295
REMARK UNBOUND:                -0.044
REMARK SMILES CC(C)[C@H]([NH3+])C(=O)[O-]
REMARK SMILES IDX 4 1 5 2 6 6 7 7 8 8 2 9 1 10 3 11
REMARK H PARENT 5 3 5 4 5 5
REMARK Flexibility Score: inf
ROOT
ATOM      1  C   UNL     1     -23.810   6.098 -14.752  1.00  0.00     0.230 C 
ENDROOT
BRANCH   1   2
ATOM      2  N   UNL     1     -23.967   6.003 -13.292  1.00  0.00    -0.350 N 
ATOM      3  H   UNL     1     -23.208   6.542 -12.815  1.00  0.00     0.345 HD
ATOM      4  H   UNL     1     -24.885   6.421 -13.013  1.00  0.00     0.345 HD
ATOM      5  H   UNL     1     -23.939   5.011 -12.968  1.00  0.00     0.345 HD
ENDBRANCH   1   2
BRANCH   1   6
ATOM      6  C   UNL     1     -24.308   4.842 -15.428  1.00  0.00     0.099 C 
ATOM      7  O   UNL     1     -25.369   4.851 -16.106  1.00  0.00    -0.544 OA
ATOM      8  O   UNL     1     -23.606   3.653 -15.277  1.00  0.00    -0.544 OA
ENDBRANCH   1   6
BRANCH   1   9
ATOM      9  C   UNL     1     -22.349   6.460 -15.154  1.00  0.00     0.047 C 
ATOM     10  C   UNL     1     -22.168   7.979 -15.292  1.00  0.00     0.014 C 
ATOM     11  C   UNL     1     -21.866   5.754 -16.432  1.00  0.00     0.014 C 
ENDBRANCH   1   9
TORSDOF 3
ENDMDL
MODEL 9
REMARK VINA RESULT:    -2.936      2.363      2.875
REMARK INTER + INTRA:          -3.409
REMARK INTER:                  -3.439
REMARK INTRA:                   0.030
REMARK UNBOUND:                -0.044
REMARK SMILES CC(C)[C@H]([NH3+])C(=O)[O-]
REMARK SMILES IDX 4 1 5 2 6 6 7 7 8 8 2 9 1 10 3 11
REMARK H PARENT 5 3 5 4 5 5
REMARK Flexibility Score: inf
ROOT
ATOM      1  C   UNL     1     -24.059   6.666 -14.347  1.00  0.00     0.230 C 
ENDROOT
BRANCH   1   2
ATOM      2  N   UNL     1     -24.081   5.843 -13.129  1.00  0.00    -0.350 N 
ATOM      3  H   UNL     1     -24.404   6.415 -12.315  1.00  0.00     0.345 HD
ATOM      4  H   UNL     1     -24.755   5.052 -13.255  1.00  0.00     0.345 HD
ATOM      5  H   UNL     1     -23.138   5.447 -12.917  1.00  0.00     0.345 HD
ENDBRANCH   1   2
BRANCH   1   6
ATOM      6  C   UNL     1     -25.462   7.022 -14.780  1.00  0.00     0.099 C 
ATOM      7  O   UNL     1     -26.255   6.134 -15.191  1.00  0.00    -0.544 OA
ATOM      8  O   UNL     1     -25.877   8.347 -14.753  1.00  0.00    -0.544 OA
ENDBRANCH   1   6
BRANCH   1   9
ATOM      9  C   UNL     1     -23.230   5.995 -15.483  1.00  0.00     0.047 C 
ATOM     10  C   UNL     1     -23.394   4.468 -15.467  1.00  0.00     0.014 C 
ATOM     11  C   UNL     1     -21.737   6.365 -15.459  1.00  0.00     0.014 C 
ENDBRANCH   1   9
TORSDOF 3
ENDMDL
