MODEL 1
REMARK VINA RESULT:    -4.491      0.000      0.000
REMARK INTER + INTRA:          -6.935
REMARK INTER:                  -6.591
REMARK INTRA:                  -0.344
REMARK UNBOUND:                -0.344
REMARK SMILES O=C([O-])CCCCCCCC(=O)[O-]
REMARK SMILES IDX 7 1 6 2 5 3 4 4 2 5 1 6 3 7 8 8 9 9 10 10 11 11 12 12 13 13
REMARK H PARENT
REMARK Flexibility Score: inf
ROOT
ATOM      1  C   UNL     1      13.863 -32.304  20.934  1.00  0.00     0.000 C 
ENDROOT
BRANCH   1   2
ATOM      2  C   UNL     1      13.046 -31.178  21.585  1.00  0.00     0.000 C 
BRANCH   2   3
ATOM      3  C   UNL     1      13.880 -30.327  22.557  1.00  0.00     0.006 C 
BRANCH   3   4
ATOM      4  C   UNL     1      13.167 -30.091  23.895  1.00  0.00     0.053 C 
BRANCH   4   5
ATOM      5  C   UNL     1      12.433 -28.787  23.872  1.00  0.00     0.041 C 
ATOM      6  O   UNL     1      12.963 -27.754  24.361  1.00  0.00    -0.550 OA
ATOM      7  O   UNL     1      11.145 -28.722  23.357  1.00  0.00    -0.550 OA
ENDBRANCH   4   5
ENDBRANCH   3   4
ENDBRANCH   2   3
ENDBRANCH   1   2
BRANCH   1   8
ATOM      8  C   UNL     1      14.859 -32.908  21.935  1.00  0.00     0.000 C 
BRANCH   8   9
ATOM      9  C   UNL     1      15.366 -34.301  21.519  1.00  0.00     0.006 C 
BRANCH   9  10
ATOM     10  C   UNL     1      15.295 -34.564  20.005  1.00  0.00     0.053 C 
BRANCH  10  11
ATOM     11  C   UNL     1      16.616 -34.978  19.430  1.00  0.00     0.041 C 
ATOM     12  O   UNL     1      17.426 -34.108  19.015  1.00  0.00    -0.550 OA
ATOM     13  O   UNL     1      16.970 -36.322  19.385  1.00  0.00    -0.550 OA
ENDBRANCH  10  11
ENDBRANCH   9  10
ENDBRANCH   8   9
ENDBRANCH   1   8
TORSDOF 8
ENDMDL
MODEL 2
REMARK VINA RESULT:    -4.386      1.368      2.084
REMARK INTER + INTRA:          -6.781
REMARK INTER:                  -6.254
REMARK INTRA:                  -0.527
REMARK UNBOUND:                -0.344
REMARK SMILES O=C([O-])CCCCCCCC(=O)[O-]
REMARK SMILES IDX 7 1 6 2 5 3 4 4 2 5 1 6 3 7 8 8 9 9 10 10 11 11 12 12 13 13
REMARK H PARENT
REMARK Flexibility Score: inf
ROOT
ATOM      1  C   UNL     1      16.060 -32.548  23.470  1.00  0.00     0.000 C 
ENDROOT
BRANCH   1   2
ATOM      2  C   UNL     1      14.648 -32.948  23.925  1.00  0.00     0.000 C 
BRANCH   2   3
ATOM      3  C   UNL     1      13.663 -31.768  23.905  1.00  0.00     0.006 C 
BRANCH   3   4
ATOM      4  C   UNL     1      13.251 -31.366  22.483  1.00  0.00     0.053 C 
BRANCH   4   5
ATOM      5  C   UNL     1      12.175 -30.329  22.525  1.00  0.00     0.041 C 
ATOM      6  O   UNL     1      11.175 -30.424  21.764  1.00  0.00    -0.550 OA
ATOM      7  O   UNL     1      12.297 -29.232  23.367  1.00  0.00    -0.550 OA
ENDBRANCH   4   5
ENDBRANCH   3   4
ENDBRANCH   2   3
ENDBRANCH   1   2
BRANCH   1   8
ATOM      8  C   UNL     1      16.514 -33.399  22.276  1.00  0.00     0.000 C 
BRANCH   8   9
ATOM      9  C   UNL     1      15.426 -34.364  21.772  1.00  0.00     0.006 C 
BRANCH   9  10
ATOM     10  C   UNL     1      15.243 -34.354  20.244  1.00  0.00     0.053 C 
BRANCH  10  11
ATOM     11  C   UNL     1      16.436 -34.897  19.518  1.00  0.00     0.041 C 
ATOM     12  O   UNL     1      17.220 -34.116  18.916  1.00  0.00    -0.550 OA
ATOM     13  O   UNL     1      16.705 -36.260  19.534  1.00  0.00    -0.550 OA
ENDBRANCH  10  11
ENDBRANCH   9  10
ENDBRANCH   8   9
ENDBRANCH   1   8
TORSDOF 8
ENDMDL
MODEL 3
REMARK VINA RESULT:    -4.370      1.831      6.456
REMARK INTER + INTRA:          -6.757
REMARK INTER:                  -6.091
REMARK INTRA:                  -0.667
REMARK UNBOUND:                -0.344
REMARK SMILES O=C([O-])CCCCCCCC(=O)[O-]
REMARK SMILES IDX 7 1 6 2 5 3 4 4 2 5 1 6 3 7 8 8 9 9 10 10 11 11 12 12 13 13
REMARK H PARENT
REMARK Flexibility Score: inf
ROOT
ATOM      1  C   UNL     1      16.175 -33.102  23.500  1.00  0.00     0.000 C 
ENDROOT
BRANCH   1   2
ATOM      2  C   UNL     1      16.586 -33.952  22.288  1.00  0.00     0.000 C 
BRANCH   2   3
ATOM      3  C   UNL     1      15.378 -34.483  21.500  1.00  0.00     0.006 C 
BRANCH   3   4
ATOM      4  C   UNL     1      15.555 -34.343  19.982  1.00  0.00     0.053 C 
BRANCH   4   5
ATOM      5  C   UNL     1      16.702 -35.178  19.510  1.00  0.00     0.041 C 
ATOM      6  O   UNL     1      17.734 -34.629  19.042  1.00  0.00    -0.550 OA
ATOM      7  O   UNL     1      16.613 -36.564  19.541  1.00  0.00    -0.550 OA
ENDBRANCH   4   5
ENDBRANCH   3   4
ENDBRANCH   2   3
ENDBRANCH   1   2
BRANCH   1   8
ATOM      8  C   UNL     1      14.774 -33.490  23.992  1.00  0.00     0.000 C 
BRANCH   8   9
ATOM      9  C   UNL     1      13.834 -32.282  24.157  1.00  0.00     0.006 C 
BRANCH   9  10
ATOM     10  C   UNL     1      14.116 -31.133  23.173  1.00  0.00     0.053 C 
BRANCH  10  11
ATOM     11  C   UNL     1      13.156 -31.113  22.023  1.00  0.00     0.041 C 
ATOM     12  O   UNL     1      13.507 -31.554  20.896  1.00  0.00    -0.550 OA
ATOM     13  O   UNL     1      11.861 -30.640  22.200  1.00  0.00    -0.550 OA
ENDBRANCH  10  11
ENDBRANCH   9  10
ENDBRANCH   8   9
ENDBRANCH   1   8
TORSDOF 8
ENDMDL
MODEL 4
REMARK VINA RESULT:    -4.348      1.069      6.930
REMARK INTER + INTRA:          -6.725
REMARK INTER:                  -6.323
REMARK INTRA:                  -0.402
REMARK UNBOUND:                -0.344
REMARK SMILES O=C([O-])CCCCCCCC(=O)[O-]
REMARK SMILES IDX 7 1 6 2 5 3 4 4 2 5 1 6 3 7 8 8 9 9 10 10 11 11 12 12 13 13
REMARK H PARENT
REMARK Flexibility Score: inf
ROOT
ATOM      1  C   UNL     1      15.407 -32.738  22.455  1.00  0.00     0.000 C 
ENDROOT
BRANCH   1   2
ATOM      2  C   UNL     1      14.395 -32.579  21.311  1.00  0.00     0.000 C 
BRANCH   2   3
ATOM      3  C   UNL     1      14.584 -33.628  20.203  1.00  0.00     0.006 C 
BRANCH   3   4
ATOM      4  C   UNL     1      15.337 -34.873  20.690  1.00  0.00     0.053 C 
BRANCH   4   5
ATOM      5  C   UNL     1      16.441 -35.220  19.743  1.00  0.00     0.041 C 
ATOM      6  O   UNL     1      16.902 -34.346  18.961  1.00  0.00    -0.550 OA
ATOM      7  O   UNL     1      16.927 -36.520  19.686  1.00  0.00    -0.550 OA
ENDBRANCH   4   5
ENDBRANCH   3   4
ENDBRANCH   2   3
ENDBRANCH   1   2
BRANCH   1   8
ATOM      8  C   UNL     1      14.944 -31.978  23.706  1.00  0.00     0.000 C 
BRANCH   8   9
ATOM      9  C   UNL     1      13.495 -31.470  23.605  1.00  0.00     0.006 C 
BRANCH   9  10
ATOM     10  C   UNL     1      13.364 -29.938  23.662  1.00  0.00     0.053 C 
BRANCH  10  11
ATOM     11  C   UNL     1      12.031 -29.456  23.176  1.00  0.00     0.041 C 
ATOM     12  O   UNL     1      11.491 -28.448  23.705  1.00  0.00    -0.550 OA
ATOM     13  O   UNL     1      11.399 -30.095  22.116  1.00  0.00    -0.550 OA
ENDBRANCH  10  11
ENDBRANCH   9  10
ENDBRANCH   8   9
ENDBRANCH   1   8
TORSDOF 8
ENDMDL
MODEL 5
REMARK VINA RESULT:    -4.319      1.860      6.490
REMARK INTER + INTRA:          -6.682
REMARK INTER:                  -5.978
REMARK INTRA:                  -0.705
REMARK UNBOUND:                -0.344
REMARK SMILES O=C([O-])CCCCCCCC(=O)[O-]
REMARK SMILES IDX 7 1 6 2 5 3 4 4 2 5 1 6 3 7 8 8 9 9 10 10 11 11 12 12 13 13
REMARK H PARENT
REMARK Flexibility Score: inf
ROOT
ATOM      1  C   UNL     1      16.365 -30.304  23.279  1.00  0.00     0.000 C 
ENDROOT
BRANCH   1   2
ATOM      2  C   UNL     1      16.814 -31.699  22.817  1.00  0.00     0.000 C 
BRANCH   2   3
ATOM      3  C   UNL     1      16.417 -32.807  23.806  1.00  0.00     0.006 C 
BRANCH   3   4
ATOM      4  C   UNL     1      15.168 -33.578  23.357  1.00  0.00     0.053 C 
BRANCH   4   5
ATOM      5  C   UNL     1      15.326 -34.050  21.947  1.00  0.00     0.041 C 
ATOM      6  O   UNL     1      14.582 -33.591  21.039  1.00  0.00    -0.550 OA
ATOM      7  O   UNL     1      16.259 -35.032  21.641  1.00  0.00    -0.550 OA
ENDBRANCH   4   5
ENDBRANCH   3   4
ENDBRANCH   2   3
ENDBRANCH   1   2
BRANCH   1   8
ATOM      8  C   UNL     1      15.449 -29.649  22.235  1.00  0.00     0.000 C 
BRANCH   8   9
ATOM      9  C   UNL     1      14.014 -30.204  22.256  1.00  0.00     0.006 C 
BRANCH   9  10
ATOM     10  C   UNL     1      13.352 -30.172  23.645  1.00  0.00     0.053 C 
BRANCH  10  11
ATOM     11  C   UNL     1      12.384 -29.037  23.795  1.00  0.00     0.041 C 
ATOM     12  O   UNL     1      12.656 -28.069  24.553  1.00  0.00    -0.550 OA
ATOM     13  O   UNL     1      11.197 -29.030  23.071  1.00  0.00    -0.550 OA
ENDBRANCH  10  11
ENDBRANCH   9  10
ENDBRANCH   8   9
ENDBRANCH   1   8
TORSDOF 8
ENDMDL
MODEL 6
REMARK VINA RESULT:    -4.300      1.541      7.038
REMARK INTER + INTRA:          -6.655
REMARK INTER:                  -6.264
REMARK INTRA:                  -0.390
REMARK UNBOUND:                -0.344
REMARK SMILES O=C([O-])CCCCCCCC(=O)[O-]
REMARK SMILES IDX 7 1 6 2 5 3 4 4 2 5 1 6 3 7 8 8 9 9 10 10 11 11 12 12 13 13
REMARK H PARENT
REMARK Flexibility Score: inf
ROOT
ATOM      1  C   UNL     1      15.446 -31.430  23.268  1.00  0.00     0.000 C 
ENDROOT
BRANCH   1   2
ATOM      2  C   UNL     1      15.934 -32.777  23.823  1.00  0.00     0.000 C 
BRANCH   2   3
ATOM      3  C   UNL     1      15.276 -33.978  23.125  1.00  0.00     0.006 C 
BRANCH   3   4
ATOM      4  C   UNL     1      16.215 -34.668  22.127  1.00  0.00     0.053 C 
BRANCH   4   5
ATOM      5  C   UNL     1      15.600 -34.696  20.764  1.00  0.00     0.041 C 
ATOM      6  O   UNL     1      15.966 -35.559  19.922  1.00  0.00    -0.550 OA
ATOM      7  O   UNL     1      14.658 -33.741  20.406  1.00  0.00    -0.550 OA
ENDBRANCH   4   5
ENDBRANCH   3   4
ENDBRANCH   2   3
ENDBRANCH   1   2
BRANCH   1   8
ATOM      8  C   UNL     1      13.941 -31.472  22.971  1.00  0.00     0.000 C 
BRANCH   8   9
ATOM      9  C   UNL     1      13.151 -30.362  23.687  1.00  0.00     0.006 C 
BRANCH   9  10
ATOM     10  C   UNL     1      13.609 -28.938  23.328  1.00  0.00     0.053 C 
BRANCH  10  11
ATOM     11  C   UNL     1      12.694 -27.884  23.874  1.00  0.00     0.041 C 
ATOM     12  O   UNL     1      13.171 -26.845  24.403  1.00  0.00    -0.550 OA
ATOM     13  O   UNL     1      11.316 -28.030  23.770  1.00  0.00    -0.550 OA
ENDBRANCH  10  11
ENDBRANCH   9  10
ENDBRANCH   8   9
ENDBRANCH   1   8
TORSDOF 8
ENDMDL
MODEL 7
REMARK VINA RESULT:    -4.286      0.630      7.350
REMARK INTER + INTRA:          -6.635
REMARK INTER:                  -6.380
REMARK INTRA:                  -0.255
REMARK UNBOUND:                -0.344
REMARK SMILES O=C([O-])CCCCCCCC(=O)[O-]
REMARK SMILES IDX 7 1 6 2 5 3 4 4 2 5 1 6 3 7 8 8 9 9 10 10 11 11 12 12 13 13
REMARK H PARENT
REMARK Flexibility Score: inf
ROOT
ATOM      1  C   UNL     1      13.877 -32.103  20.722  1.00  0.00     0.000 C 
ENDROOT
BRANCH   1   2
ATOM      2  C   UNL     1      14.598 -33.108  21.632  1.00  0.00     0.000 C 
BRANCH   2   3
ATOM      3  C   UNL     1      15.872 -33.681  20.990  1.00  0.00     0.006 C 
BRANCH   3   4
ATOM      4  C   UNL     1      15.569 -34.708  19.891  1.00  0.00     0.053 C 
BRANCH   4   5
ATOM      5  C   UNL     1      16.800 -35.486  19.551  1.00  0.00     0.041 C 
ATOM      6  O   UNL     1      16.805 -36.742  19.658  1.00  0.00    -0.550 OA
ATOM      7  O   UNL     1      17.958 -34.824  19.163  1.00  0.00    -0.550 OA
ENDBRANCH   4   5
ENDBRANCH   3   4
ENDBRANCH   2   3
ENDBRANCH   1   2
BRANCH   1   8
ATOM      8  C   UNL     1      12.803 -31.329  21.501  1.00  0.00     0.000 C 
BRANCH   8   9
ATOM      9  C   UNL     1      13.203 -31.041  22.959  1.00  0.00     0.006 C 
BRANCH   9  10
ATOM     10  C   UNL     1      13.598 -29.577  23.221  1.00  0.00     0.053 C 
BRANCH  10  11
ATOM     11  C   UNL     1      12.466 -28.766  23.775  1.00  0.00     0.041 C 
ATOM     12  O   UNL     1      12.665 -27.973  24.734  1.00  0.00    -0.550 OA
ATOM     13  O   UNL     1      11.198 -28.857  23.213  1.00  0.00    -0.550 OA
ENDBRANCH  10  11
ENDBRANCH   9  10
ENDBRANCH   8   9
ENDBRANCH   1   8
TORSDOF 8
ENDMDL
MODEL 8
REMARK VINA RESULT:    -4.250      2.001      6.491
REMARK INTER + INTRA:          -6.582
REMARK INTER:                  -6.016
REMARK INTRA:                  -0.566
REMARK UNBOUND:                -0.344
REMARK SMILES O=C([O-])CCCCCCCC(=O)[O-]
REMARK SMILES IDX 7 1 6 2 5 3 4 4 2 5 1 6 3 7 8 8 9 9 10 10 11 11 12 12 13 13
REMARK H PARENT
REMARK Flexibility Score: inf
ROOT
ATOM      1  C   UNL     1      14.379 -32.754  20.938  1.00  0.00     0.000 C 
ENDROOT
BRANCH   1   2
ATOM      2  C   UNL     1      14.952 -33.559  22.114  1.00  0.00     0.000 C 
BRANCH   2   3
ATOM      3  C   UNL     1      15.953 -34.635  21.663  1.00  0.00     0.006 C 
BRANCH   3   4
ATOM      4  C   UNL     1      15.718 -35.093  20.218  1.00  0.00     0.053 C 
BRANCH   4   5
ATOM      5  C   UNL     1      17.001 -35.075  19.449  1.00  0.00     0.041 C 
ATOM      6  O   UNL     1      17.359 -34.032  18.840  1.00  0.00    -0.550 OA
ATOM      7  O   UNL     1      17.777 -36.223  19.363  1.00  0.00    -0.550 OA
ENDBRANCH   4   5
ENDBRANCH   3   4
ENDBRANCH   2   3
ENDBRANCH   1   2
BRANCH   1   8
ATOM      8  C   UNL     1      13.407 -31.675  21.434  1.00  0.00     0.000 C 
BRANCH   8   9
ATOM      9  C   UNL     1      13.539 -31.386  22.940  1.00  0.00     0.006 C 
BRANCH   9  10
ATOM     10  C   UNL     1      14.106 -29.993  23.261  1.00  0.00     0.053 C 
BRANCH  10  11
ATOM     11  C   UNL     1      15.543 -29.849  22.859  1.00  0.00     0.041 C 
ATOM     12  O   UNL     1      16.443 -30.453  23.501  1.00  0.00    -0.550 OA
ATOM     13  O   UNL     1      15.887 -29.079  21.754  1.00  0.00    -0.550 OA
ENDBRANCH  10  11
ENDBRANCH   9  10
ENDBRANCH   8   9
ENDBRANCH   1   8
TORSDOF 8
ENDMDL
MODEL 9
REMARK VINA RESULT:    -4.242      2.339      2.984
REMARK INTER + INTRA:          -6.570
REMARK INTER:                  -5.865
REMARK INTRA:                  -0.705
REMARK UNBOUND:                -0.344
REMARK SMILES O=C([O-])CCCCCCCC(=O)[O-]
REMARK SMILES IDX 7 1 6 2 5 3 4 4 2 5 1 6 3 7 8 8 9 9 10 10 11 11 12 12 13 13
REMARK H PARENT
REMARK Flexibility Score: inf
ROOT
ATOM      1  C   UNL     1      13.674 -31.715  21.438  1.00  0.00     0.000 C 
ENDROOT
BRANCH   1   2
ATOM      2  C   UNL     1      14.686 -30.562  21.507  1.00  0.00     0.000 C 
BRANCH   2   3
ATOM      3  C   UNL     1      14.559 -29.738  22.798  1.00  0.00     0.006 C 
BRANCH   3   4
ATOM      4  C   UNL     1      13.361 -30.166  23.656  1.00  0.00     0.053 C 
BRANCH   4   5
ATOM      5  C   UNL     1      12.412 -29.024  23.833  1.00  0.00     0.041 C 
ATOM      6  O   UNL     1      11.350 -28.973  23.158  1.00  0.00    -0.550 OA
ATOM      7  O   UNL     1      12.722 -27.990  24.707  1.00  0.00    -0.550 OA
ENDBRANCH   4   5
ENDBRANCH   3   4
ENDBRANCH   2   3
ENDBRANCH   1   2
BRANCH   1   8
ATOM      8  C   UNL     1      14.246 -32.902  20.649  1.00  0.00     0.000 C 
BRANCH   8   9
ATOM      9  C   UNL     1      15.432 -33.583  21.355  1.00  0.00     0.006 C 
BRANCH   9  10
ATOM     10  C   UNL     1      15.140 -33.993  22.809  1.00  0.00     0.053 C 
BRANCH  10  11
ATOM     11  C   UNL     1      16.121 -33.408  23.780  1.00  0.00     0.041 C 
ATOM     12  O   UNL     1      16.185 -33.848  24.958  1.00  0.00    -0.550 OA
ATOM     13  O   UNL     1      16.989 -32.400  23.376  1.00  0.00    -0.550 OA
ENDBRANCH  10  11
ENDBRANCH   9  10
ENDBRANCH   8   9
ENDBRANCH   1   8
TORSDOF 8
ENDMDL
