MODEL 1
REMARK VINA RESULT:    -4.610      0.000      0.000
REMARK INTER + INTRA:          -5.255
REMARK INTER:                  -5.015
REMARK INTRA:                  -0.240
REMARK UNBOUND:                -0.240
REMARK SMILES O=C([O-])c1ccccc1O
REMARK SMILES IDX 4 1 9 2 5 3 8 4 6 5 7 6 2 7 1 8 3 9 10 10
REMARK H PARENT 10 11
REMARK Flexibility Score: inf
ROOT
ATOM      1  C   UNL     1       7.751  17.710  19.833  1.00  0.00     0.039 A 
ATOM      2  C   UNL     1       7.380  18.240  21.095  1.00  0.00     0.124 A 
ATOM      3  C   UNL     1       7.787  16.314  19.665  1.00  0.00     0.014 A 
ATOM      4  C   UNL     1       6.994  17.372  22.125  1.00  0.00     0.047 A 
ATOM      5  C   UNL     1       7.420  15.460  20.709  1.00  0.00     0.001 A 
ATOM      6  C   UNL     1       7.016  15.989  21.934  1.00  0.00     0.004 A 
ENDROOT
BRANCH   1   7
ATOM      7  C   UNL     1       8.069  18.572  18.673  1.00  0.00     0.075 C 
ATOM      8  O   UNL     1       9.076  18.324  17.958  1.00  0.00    -0.545 OA
ATOM      9  O   UNL     1       7.230  19.621  18.314  1.00  0.00    -0.545 OA
ENDBRANCH   1   7
BRANCH   2  10
ATOM     10  O   UNL     1       7.413  19.607  21.375  1.00  0.00    -0.507 OA
ATOM     11  H   UNL     1       6.902  20.032  22.138  1.00  0.00     0.293 HD
ENDBRANCH   2  10
TORSDOF 2
ENDMDL
MODEL 2
REMARK VINA RESULT:    -4.588      1.970      3.374
REMARK INTER + INTRA:          -5.231
REMARK INTER:                  -4.996
REMARK INTRA:                  -0.234
REMARK UNBOUND:                -0.240
REMARK SMILES O=C([O-])c1ccccc1O
REMARK SMILES IDX 4 1 9 2 5 3 8 4 6 5 7 6 2 7 1 8 3 9 10 10
REMARK H PARENT 10 11
REMARK Flexibility Score: inf
ROOT
ATOM      1  C   UNL     1       7.745  17.802  19.805  1.00  0.00     0.039 A 
ATOM      2  C   UNL     1       7.409  18.625  20.910  1.00  0.00     0.124 A 
ATOM      3  C   UNL     1       8.093  18.410  18.585  1.00  0.00     0.014 A 
ATOM      4  C   UNL     1       7.491  20.018  20.786  1.00  0.00     0.047 A 
ATOM      5  C   UNL     1       8.149  19.802  18.472  1.00  0.00     0.001 A 
ATOM      6  C   UNL     1       7.858  20.604  19.574  1.00  0.00     0.004 A 
ENDROOT
BRANCH   1   7
ATOM      7  C   UNL     1       7.780  16.326  19.897  1.00  0.00     0.075 C 
ATOM      8  O   UNL     1       6.990  15.723  20.672  1.00  0.00    -0.545 OA
ATOM      9  O   UNL     1       8.629  15.581  19.087  1.00  0.00    -0.545 OA
ENDBRANCH   1   7
BRANCH   2  10
ATOM     10  O   UNL     1       6.959  18.105  22.125  1.00  0.00    -0.507 OA
ATOM     11  H   UNL     1       6.730  17.130  22.263  1.00  0.00     0.293 HD
ENDBRANCH   2  10
TORSDOF 2
ENDMDL
MODEL 3
REMARK VINA RESULT:    -4.575      1.757      2.635
REMARK INTER + INTRA:          -5.217
REMARK INTER:                  -5.006
REMARK INTRA:                  -0.211
REMARK UNBOUND:                -0.240
REMARK SMILES O=C([O-])c1ccccc1O
REMARK SMILES IDX 4 1 9 2 5 3 8 4 6 5 7 6 2 7 1 8 3 9 10 10
REMARK H PARENT 10 11
REMARK Flexibility Score: inf
ROOT
ATOM      1  C   UNL     1       7.987  17.709  19.056  1.00  0.00     0.039 A 
ATOM      2  C   UNL     1       7.747  16.487  19.735  1.00  0.00     0.124 A 
ATOM      3  C   UNL     1       7.766  18.920  19.737  1.00  0.00     0.014 A 
ATOM      4  C   UNL     1       7.360  16.507  21.081  1.00  0.00     0.047 A 
ATOM      5  C   UNL     1       7.359  18.924  21.073  1.00  0.00     0.001 A 
ATOM      6  C   UNL     1       7.166  17.719  21.747  1.00  0.00     0.004 A 
ENDROOT
BRANCH   1   7
ATOM      7  C   UNL     1       8.496  17.758  17.668  1.00  0.00     0.075 C 
ATOM      8  O   UNL     1       8.988  18.825  17.212  1.00  0.00    -0.545 OA
ATOM      9  O   UNL     1       8.505  16.619  16.872  1.00  0.00    -0.545 OA
ENDBRANCH   1   7
BRANCH   2  10
ATOM     10  O   UNL     1       7.847  15.245  19.105  1.00  0.00    -0.507 OA
ATOM     11  H   UNL     1       7.331  15.000  18.271  1.00  0.00     0.293 HD
ENDBRANCH   2  10
TORSDOF 2
ENDMDL
MODEL 4
REMARK VINA RESULT:    -4.547      2.456      3.231
REMARK INTER + INTRA:          -5.186
REMARK INTER:                  -4.941
REMARK INTRA:                  -0.245
REMARK UNBOUND:                -0.240
REMARK SMILES O=C([O-])c1ccccc1O
REMARK SMILES IDX 4 1 9 2 5 3 8 4 6 5 7 6 2 7 1 8 3 9 10 10
REMARK H PARENT 10 11
REMARK Flexibility Score: inf
ROOT
ATOM      1  C   UNL     1       7.728  16.324  19.825  1.00  0.00     0.039 A 
ATOM      2  C   UNL     1       7.298  16.349  21.176  1.00  0.00     0.124 A 
ATOM      3  C   UNL     1       7.896  17.542  19.141  1.00  0.00     0.014 A 
ATOM      4  C   UNL     1       7.112  17.579  21.821  1.00  0.00     0.047 A 
ATOM      5  C   UNL     1       7.685  18.760  19.792  1.00  0.00     0.001 A 
ATOM      6  C   UNL     1       7.303  18.778  21.133  1.00  0.00     0.004 A 
ENDROOT
BRANCH   1   7
ATOM      7  C   UNL     1       8.043  15.063  19.117  1.00  0.00     0.075 C 
ATOM      8  O   UNL     1       8.536  14.090  19.747  1.00  0.00    -0.545 OA
ATOM      9  O   UNL     1       7.738  14.908  17.770  1.00  0.00    -0.545 OA
ENDBRANCH   1   7
BRANCH   2  10
ATOM     10  O   UNL     1       7.014  15.188  21.896  1.00  0.00    -0.507 OA
ATOM     11  H   UNL     1       6.246  15.111  22.550  1.00  0.00     0.293 HD
ENDBRANCH   2  10
TORSDOF 2
ENDMDL
MODEL 5
REMARK VINA RESULT:    -4.514      2.105      3.264
REMARK INTER + INTRA:          -5.149
REMARK INTER:                  -4.911
REMARK INTRA:                  -0.239
REMARK UNBOUND:                -0.240
REMARK SMILES O=C([O-])c1ccccc1O
REMARK SMILES IDX 4 1 9 2 5 3 8 4 6 5 7 6 2 7 1 8 3 9 10 10
REMARK H PARENT 10 11
REMARK Flexibility Score: inf
ROOT
ATOM      1  C   UNL     1       8.220  17.849  19.004  1.00  0.00     0.039 A 
ATOM      2  C   UNL     1       8.380  19.147  18.454  1.00  0.00     0.124 A 
ATOM      3  C   UNL     1       7.736  17.723  20.318  1.00  0.00     0.014 A 
ATOM      4  C   UNL     1       7.995  20.268  19.200  1.00  0.00     0.047 A 
ATOM      5  C   UNL     1       7.376  18.852  21.058  1.00  0.00     0.001 A 
ATOM      6  C   UNL     1       7.497  20.122  20.496  1.00  0.00     0.004 A 
ENDROOT
BRANCH   1   7
ATOM      7  C   UNL     1       8.509  16.620  18.233  1.00  0.00     0.075 C 
ATOM      8  O   UNL     1       8.715  15.532  18.833  1.00  0.00    -0.545 OA
ATOM      9  O   UNL     1       8.490  16.630  16.843  1.00  0.00    -0.545 OA
ENDBRANCH   1   7
BRANCH   2  10
ATOM     10  O   UNL     1       8.945  19.366  17.196  1.00  0.00    -0.507 OA
ATOM     11  H   UNL     1       9.250  18.621  16.585  1.00  0.00     0.293 HD
ENDBRANCH   2  10
TORSDOF 2
ENDMDL
MODEL 6
REMARK VINA RESULT:    -4.508      6.092      7.083
REMARK INTER + INTRA:          -5.144
REMARK INTER:                  -4.952
REMARK INTRA:                  -0.191
REMARK UNBOUND:                -0.240
REMARK SMILES O=C([O-])c1ccccc1O
REMARK SMILES IDX 4 1 9 2 5 3 8 4 6 5 7 6 2 7 1 8 3 9 10 10
REMARK H PARENT 10 11
REMARK Flexibility Score: inf
ROOT
ATOM      1  C   UNL     1       3.641  14.112  16.547  1.00  0.00     0.039 A 
ATOM      2  C   UNL     1       4.176  13.195  15.606  1.00  0.00     0.124 A 
ATOM      3  C   UNL     1       3.821  13.860  17.920  1.00  0.00     0.014 A 
ATOM      4  C   UNL     1       4.923  12.098  16.055  1.00  0.00     0.047 A 
ATOM      5  C   UNL     1       4.552  12.750  18.352  1.00  0.00     0.001 A 
ATOM      6  C   UNL     1       5.110  11.876  17.420  1.00  0.00     0.004 A 
ENDROOT
BRANCH   1   7
ATOM      7  C   UNL     1       2.931  15.344  16.139  1.00  0.00     0.075 C 
ATOM      8  O   UNL     1       3.541  16.242  15.500  1.00  0.00    -0.545 OA
ATOM      9  O   UNL     1       1.573  15.500  16.390  1.00  0.00    -0.545 OA
ENDBRANCH   1   7
BRANCH   2  10
ATOM     10  O   UNL     1       3.959  13.317  14.232  1.00  0.00    -0.507 OA
ATOM     11  H   UNL     1       3.218  13.876  13.832  1.00  0.00     0.293 HD
ENDBRANCH   2  10
TORSDOF 2
ENDMDL
MODEL 7
REMARK VINA RESULT:    -4.460      2.079      3.358
REMARK INTER + INTRA:          -5.091
REMARK INTER:                  -4.841
REMARK INTRA:                  -0.250
REMARK UNBOUND:                -0.240
REMARK SMILES O=C([O-])c1ccccc1O
REMARK SMILES IDX 4 1 9 2 5 3 8 4 6 5 7 6 2 7 1 8 3 9 10 10
REMARK H PARENT 10 11
REMARK Flexibility Score: inf
ROOT
ATOM      1  C   UNL     1       7.670  16.464  19.834  1.00  0.00     0.039 A 
ATOM      2  C   UNL     1       7.904  17.657  19.104  1.00  0.00     0.124 A 
ATOM      3  C   UNL     1       7.314  16.556  21.192  1.00  0.00     0.014 A 
ATOM      4  C   UNL     1       7.713  18.898  19.724  1.00  0.00     0.047 A 
ATOM      5  C   UNL     1       7.148  17.802  21.803  1.00  0.00     0.001 A 
ATOM      6  C   UNL     1       7.339  18.971  21.067  1.00  0.00     0.004 A 
ENDROOT
BRANCH   1   7
ATOM      7  C   UNL     1       7.753  15.124  19.212  1.00  0.00     0.075 C 
ATOM      8  O   UNL     1       7.338  14.947  18.036  1.00  0.00    -0.545 OA
ATOM      9  O   UNL     1       8.347  14.062  19.884  1.00  0.00    -0.545 OA
ENDBRANCH   1   7
BRANCH   2  10
ATOM     10  O   UNL     1       8.355  17.653  17.783  1.00  0.00    -0.507 OA
ATOM     11  H   UNL     1       7.920  17.114  17.047  1.00  0.00     0.293 HD
ENDBRANCH   2  10
TORSDOF 2
ENDMDL
MODEL 8
REMARK VINA RESULT:    -4.459      1.641      3.299
REMARK INTER + INTRA:          -5.090
REMARK INTER:                  -4.870
REMARK INTRA:                  -0.220
REMARK UNBOUND:                -0.240
REMARK SMILES O=C([O-])c1ccccc1O
REMARK SMILES IDX 4 1 9 2 5 3 8 4 6 5 7 6 2 7 1 8 3 9 10 10
REMARK H PARENT 10 11
REMARK Flexibility Score: inf
ROOT
ATOM      1  C   UNL     1       8.054  16.990  19.020  1.00  0.00     0.039 A 
ATOM      2  C   UNL     1       8.597  16.798  17.723  1.00  0.00     0.124 A 
ATOM      3  C   UNL     1       7.763  15.862  19.809  1.00  0.00     0.014 A 
ATOM      4  C   UNL     1       8.892  15.502  17.280  1.00  0.00     0.047 A 
ATOM      5  C   UNL     1       8.044  14.574  19.344  1.00  0.00     0.001 A 
ATOM      6  C   UNL     1       8.616  14.396  18.085  1.00  0.00     0.004 A 
ENDROOT
BRANCH   1   7
ATOM      7  C   UNL     1       7.816  18.334  19.588  1.00  0.00     0.075 C 
ATOM      8  O   UNL     1       7.639  19.321  18.825  1.00  0.00    -0.545 OA
ATOM      9  O   UNL     1       7.713  18.519  20.962  1.00  0.00    -0.545 OA
ENDBRANCH   1   7
BRANCH   2  10
ATOM     10  O   UNL     1       8.823  17.855  16.839  1.00  0.00    -0.507 OA
ATOM     11  H   UNL     1       8.961  17.730  15.845  1.00  0.00     0.293 HD
ENDBRANCH   2  10
TORSDOF 2
ENDMDL
MODEL 9
REMARK VINA RESULT:    -4.455      2.827      4.454
REMARK INTER + INTRA:          -5.085
REMARK INTER:                  -4.861
REMARK INTRA:                  -0.225
REMARK UNBOUND:                -0.240
REMARK SMILES O=C([O-])c1ccccc1O
REMARK SMILES IDX 4 1 9 2 5 3 8 4 6 5 7 6 2 7 1 8 3 9 10 10
REMARK H PARENT 10 11
REMARK Flexibility Score: inf
ROOT
ATOM      1  C   UNL     1       8.150  16.044  19.000  1.00  0.00     0.039 A 
ATOM      2  C   UNL     1       8.766  16.391  17.771  1.00  0.00     0.124 A 
ATOM      3  C   UNL     1       7.741  17.071  19.870  1.00  0.00     0.014 A 
ATOM      4  C   UNL     1       8.895  17.740  17.417  1.00  0.00     0.047 A 
ATOM      5  C   UNL     1       7.896  18.413  19.512  1.00  0.00     0.001 A 
ATOM      6  C   UNL     1       8.464  18.747  18.283  1.00  0.00     0.004 A 
ENDROOT
BRANCH   1   7
ATOM      7  C   UNL     1       7.889  14.640  19.388  1.00  0.00     0.075 C 
ATOM      8  O   UNL     1       7.543  14.365  20.568  1.00  0.00    -0.545 OA
ATOM      9  O   UNL     1       7.953  13.618  18.449  1.00  0.00    -0.545 OA
ENDBRANCH   1   7
BRANCH   2  10
ATOM     10  O   UNL     1       9.289  15.436  16.896  1.00  0.00    -0.507 OA
ATOM     11  H   UNL     1       9.103  14.446  16.977  1.00  0.00     0.293 HD
ENDBRANCH   2  10
TORSDOF 2
ENDMDL
