MODEL 1
REMARK VINA RESULT:    -4.561      0.000      0.000
REMARK INTER + INTRA:          -5.825
REMARK INTER:                  -5.628
REMARK INTRA:                  -0.198
REMARK UNBOUND:                -0.198
REMARK SMILES CCCCC=CC(C)=O
REMARK SMILES IDX 4 1 3 2 2 3 1 4 5 5 6 6 7 7 9 8 8 9
REMARK H PARENT
REMARK Flexibility Score: inf
ROOT
ATOM      1  C   UNL     1     -25.791  19.991 -33.474  1.00  0.00     0.027 C 
ENDROOT
BRANCH   1   2
ATOM      2  C   UNL     1     -26.905  20.665 -34.291  1.00  0.00     0.004 C 
BRANCH   2   3
ATOM      3  C   UNL     1     -28.155  20.942 -33.444  1.00  0.00    -0.003 C 
ATOM      4  C   UNL     1     -29.016  19.689 -33.308  1.00  0.00     0.004 C 
ENDBRANCH   2   3
ENDBRANCH   1   2
BRANCH   1   5
ATOM      5  C   UNL     1     -24.479  19.936 -34.214  1.00  0.00    -0.023 C 
ATOM      6  C   UNL     1     -23.295  20.368 -33.752  1.00  0.00     0.042 C 
BRANCH   6   7
ATOM      7  C   UNL     1     -23.021  20.890 -32.397  1.00  0.00     0.152 C 
ATOM      8  O   UNL     1     -22.960  22.137 -32.234  1.00  0.00    -0.295 OA
ATOM      9  C   UNL     1     -22.748  19.997 -31.226  1.00  0.00     0.093 C 
ENDBRANCH   6   7
ENDBRANCH   1   5
TORSDOF 4
ENDMDL
MODEL 2
REMARK VINA RESULT:    -4.408     11.349     13.726
REMARK INTER + INTRA:          -5.636
REMARK INTER:                  -5.352
REMARK INTRA:                  -0.284
REMARK UNBOUND:                -0.198
REMARK SMILES CCCCC=CC(C)=O
REMARK SMILES IDX 4 1 3 2 2 3 1 4 5 5 6 6 7 7 9 8 8 9
REMARK H PARENT
REMARK Flexibility Score: inf
ROOT
ATOM      1  C   UNL     1     -13.736  14.793 -31.060  1.00  0.00     0.027 C 
ENDROOT
BRANCH   1   2
ATOM      2  C   UNL     1     -12.366  14.657 -30.376  1.00  0.00     0.004 C 
BRANCH   2   3
ATOM      3  C   UNL     1     -11.311  14.049 -31.312  1.00  0.00    -0.003 C 
ATOM      4  C   UNL     1     -10.266  15.087 -31.710  1.00  0.00     0.004 C 
ENDBRANCH   2   3
ENDBRANCH   1   2
BRANCH   1   5
ATOM      5  C   UNL     1     -13.919  13.819 -32.196  1.00  0.00    -0.023 C 
ATOM      6  C   UNL     1     -15.083  13.285 -32.597  1.00  0.00     0.042 C 
BRANCH   6   7
ATOM      7  C   UNL     1     -16.425  13.619 -32.075  1.00  0.00     0.152 C 
ATOM      8  O   UNL     1     -17.109  14.482 -32.684  1.00  0.00    -0.295 OA
ATOM      9  C   UNL     1     -16.975  13.023 -30.815  1.00  0.00     0.093 C 
ENDBRANCH   6   7
ENDBRANCH   1   5
TORSDOF 4
ENDMDL
MODEL 3
REMARK VINA RESULT:    -4.230     11.472     13.775
REMARK INTER + INTRA:          -5.417
REMARK INTER:                  -5.157
REMARK INTRA:                  -0.259
REMARK UNBOUND:                -0.198
REMARK SMILES CCCCC=CC(C)=O
REMARK SMILES IDX 4 1 3 2 2 3 1 4 5 5 6 6 7 7 9 8 8 9
REMARK H PARENT
REMARK Flexibility Score: inf
ROOT
ATOM      1  C   UNL     1     -13.134  14.768 -31.813  1.00  0.00     0.027 C 
ENDROOT
BRANCH   1   2
ATOM      2  C   UNL     1     -11.898  14.183 -31.110  1.00  0.00     0.004 C 
BRANCH   2   3
ATOM      3  C   UNL     1     -10.600  14.870 -31.559  1.00  0.00    -0.003 C 
ATOM      4  C   UNL     1     -10.627  15.175 -33.053  1.00  0.00     0.004 C 
ENDBRANCH   2   3
ENDBRANCH   1   2
BRANCH   1   5
ATOM      5  C   UNL     1     -14.122  15.371 -30.847  1.00  0.00    -0.023 C 
ATOM      6  C   UNL     1     -15.423  15.055 -30.749  1.00  0.00     0.042 C 
BRANCH   6   7
ATOM      7  C   UNL     1     -16.123  13.988 -31.496  1.00  0.00     0.152 C 
ATOM      8  O   UNL     1     -16.711  14.292 -32.567  1.00  0.00    -0.295 OA
ATOM      9  C   UNL     1     -16.217  12.579 -30.996  1.00  0.00     0.093 C 
ENDBRANCH   6   7
ENDBRANCH   1   5
TORSDOF 4
ENDMDL
MODEL 4
REMARK VINA RESULT:    -4.205      1.841      4.543
REMARK INTER + INTRA:          -5.386
REMARK INTER:                  -5.115
REMARK INTRA:                  -0.271
REMARK UNBOUND:                -0.198
REMARK SMILES CCCCC=CC(C)=O
REMARK SMILES IDX 4 1 3 2 2 3 1 4 5 5 6 6 7 7 9 8 8 9
REMARK H PARENT
REMARK Flexibility Score: inf
ROOT
ATOM      1  C   UNL     1     -25.299  19.255 -32.834  1.00  0.00     0.027 C 
ENDROOT
BRANCH   1   2
ATOM      2  C   UNL     1     -23.813  19.232 -32.441  1.00  0.00     0.004 C 
BRANCH   2   3
ATOM      3  C   UNL     1     -23.047  20.436 -33.007  1.00  0.00    -0.003 C 
ATOM      4  C   UNL     1     -23.000  21.581 -32.000  1.00  0.00     0.004 C 
ENDBRANCH   2   3
ENDBRANCH   1   2
BRANCH   1   5
ATOM      5  C   UNL     1     -25.549  20.004 -34.119  1.00  0.00    -0.023 C 
ATOM      6  C   UNL     1     -26.642  20.726 -34.411  1.00  0.00     0.042 C 
BRANCH   6   7
ATOM      7  C   UNL     1     -27.770  21.012 -33.500  1.00  0.00     0.152 C 
ATOM      8  O   UNL     1     -27.813  22.135 -32.931  1.00  0.00    -0.295 OA
ATOM      9  C   UNL     1     -28.826  20.000 -33.176  1.00  0.00     0.093 C 
ENDBRANCH   6   7
ENDBRANCH   1   5
TORSDOF 4
ENDMDL
MODEL 5
REMARK VINA RESULT:    -4.196      8.342      9.304
REMARK INTER + INTRA:          -5.375
REMARK INTER:                  -4.890
REMARK INTRA:                  -0.486
REMARK UNBOUND:                -0.198
REMARK SMILES CCCCC=CC(C)=O
REMARK SMILES IDX 4 1 3 2 2 3 1 4 5 5 6 6 7 7 9 8 8 9
REMARK H PARENT
REMARK Flexibility Score: inf
ROOT
ATOM      1  C   UNL     1     -29.339  12.167 -30.444  1.00  0.00     0.027 C 
ENDROOT
BRANCH   1   2
ATOM      2  C   UNL     1     -29.710  11.844 -28.988  1.00  0.00     0.004 C 
BRANCH   2   3
ATOM      3  C   UNL     1     -28.574  12.183 -28.013  1.00  0.00    -0.003 C 
ATOM      4  C   UNL     1     -27.663  10.980 -27.790  1.00  0.00     0.004 C 
ENDBRANCH   2   3
ENDBRANCH   1   2
BRANCH   1   5
ATOM      5  C   UNL     1     -28.995  13.621 -30.648  1.00  0.00    -0.023 C 
ATOM      6  C   UNL     1     -27.794  14.105 -31.001  1.00  0.00     0.042 C 
BRANCH   6   7
ATOM      7  C   UNL     1     -26.600  13.310 -31.357  1.00  0.00     0.152 C 
ATOM      8  O   UNL     1     -26.401  13.033 -32.569  1.00  0.00    -0.295 OA
ATOM      9  C   UNL     1     -25.655  12.765 -30.330  1.00  0.00     0.093 C 
ENDBRANCH   6   7
ENDBRANCH   1   5
TORSDOF 4
ENDMDL
MODEL 6
REMARK VINA RESULT:    -4.104      8.309      9.071
REMARK INTER + INTRA:          -5.262
REMARK INTER:                  -4.861
REMARK INTRA:                  -0.401
REMARK UNBOUND:                -0.198
REMARK SMILES CCCCC=CC(C)=O
REMARK SMILES IDX 4 1 3 2 2 3 1 4 5 5 6 6 7 7 9 8 8 9
REMARK H PARENT
REMARK Flexibility Score: inf
ROOT
ATOM      1  C   UNL     1     -28.185  12.499 -28.514  1.00  0.00     0.027 C 
ENDROOT
BRANCH   1   2
ATOM      2  C   UNL     1     -29.538  11.804 -28.738  1.00  0.00     0.004 C 
BRANCH   2   3
ATOM      3  C   UNL     1     -30.123  12.112 -30.124  1.00  0.00    -0.003 C 
ATOM      4  C   UNL     1     -29.898  13.573 -30.503  1.00  0.00     0.004 C 
ENDBRANCH   2   3
ENDBRANCH   1   2
BRANCH   1   5
ATOM      5  C   UNL     1     -27.020  11.678 -29.005  1.00  0.00    -0.023 C 
ATOM      6  C   UNL     1     -26.211  11.991 -30.029  1.00  0.00     0.042 C 
BRANCH   6   7
ATOM      7  C   UNL     1     -26.236  13.243 -30.813  1.00  0.00     0.152 C 
ATOM      8  O   UNL     1     -26.413  13.169 -32.058  1.00  0.00    -0.295 OA
ATOM      9  C   UNL     1     -25.993  14.588 -30.200  1.00  0.00     0.093 C 
ENDBRANCH   6   7
ENDBRANCH   1   5
TORSDOF 4
ENDMDL
MODEL 7
REMARK VINA RESULT:    -4.088      8.712      9.995
REMARK INTER + INTRA:          -5.242
REMARK INTER:                  -4.837
REMARK INTRA:                  -0.405
REMARK UNBOUND:                -0.198
REMARK SMILES CCCCC=CC(C)=O
REMARK SMILES IDX 4 1 3 2 2 3 1 4 5 5 6 6 7 7 9 8 8 9
REMARK H PARENT
REMARK Flexibility Score: inf
ROOT
ATOM      1  C   UNL     1     -28.205  12.388 -28.260  1.00  0.00     0.027 C 
ENDROOT
BRANCH   1   2
ATOM      2  C   UNL     1     -27.908  10.892 -28.070  1.00  0.00     0.004 C 
BRANCH   2   3
ATOM      3  C   UNL     1     -26.472  10.645 -27.586  1.00  0.00    -0.003 C 
ATOM      4  C   UNL     1     -25.460  11.352 -28.483  1.00  0.00     0.004 C 
ENDBRANCH   2   3
ENDBRANCH   1   2
BRANCH   1   5
ATOM      5  C   UNL     1     -29.302  12.641 -29.263  1.00  0.00    -0.023 C 
ATOM      6  C   UNL     1     -29.149  13.201 -30.473  1.00  0.00     0.042 C 
BRANCH   6   7
ATOM      7  C   UNL     1     -27.870  13.589 -31.103  1.00  0.00     0.152 C 
ATOM      8  O   UNL     1     -27.606  14.815 -31.223  1.00  0.00    -0.295 OA
ATOM      9  C   UNL     1     -26.908  12.588 -31.665  1.00  0.00     0.093 C 
ENDBRANCH   6   7
ENDBRANCH   1   5
TORSDOF 4
ENDMDL
MODEL 8
REMARK VINA RESULT:    -3.929     10.034     10.762
REMARK INTER + INTRA:          -5.046
REMARK INTER:                  -4.527
REMARK INTRA:                  -0.520
REMARK UNBOUND:                -0.198
REMARK SMILES CCCCC=CC(C)=O
REMARK SMILES IDX 4 1 3 2 2 3 1 4 5 5 6 6 7 7 9 8 8 9
REMARK H PARENT
REMARK Flexibility Score: inf
ROOT
ATOM      1  C   UNL     1     -29.796  11.154 -29.810  1.00  0.00     0.027 C 
ENDROOT
BRANCH   1   2
ATOM      2  C   UNL     1     -29.414  11.369 -31.283  1.00  0.00     0.004 C 
BRANCH   2   3
ATOM      3  C   UNL     1     -28.203  10.522 -31.696  1.00  0.00    -0.003 C 
ATOM      4  C   UNL     1     -27.156  11.370 -32.411  1.00  0.00     0.004 C 
ENDBRANCH   2   3
ENDBRANCH   1   2
BRANCH   1   5
ATOM      5  C   UNL     1     -29.392  12.308 -28.929  1.00  0.00    -0.023 C 
ATOM      6  C   UNL     1     -28.363  12.319 -28.066  1.00  0.00     0.042 C 
BRANCH   6   7
ATOM      7  C   UNL     1     -27.367  11.244 -27.879  1.00  0.00     0.152 C 
ATOM      8  O   UNL     1     -27.584  10.370 -26.999  1.00  0.00    -0.295 OA
ATOM      9  C   UNL     1     -26.080  11.190 -28.644  1.00  0.00     0.093 C 
ENDBRANCH   6   7
ENDBRANCH   1   5
TORSDOF 4
ENDMDL
