MODEL 1
REMARK VINA RESULT:    -5.430      0.000      0.000
REMARK INTER + INTRA:          -6.876
REMARK INTER:                  -6.541
REMARK INTRA:                  -0.335
REMARK UNBOUND:                -0.335
REMARK SMILES O=c1c(O)c(-c2ccc(O)c(O)c2)oc2cc(O)cc(O)c12
REMARK SMILES IDX 5 1 3 2 2 3 1 4 22 5 20 6 19 7 17 8 16 9 15 10 14 11 6 12
REMARK SMILES IDX 7 13 8 14 9 15 13 16 11 17 10 18 12 20 4 22 21 24 18 26
REMARK H PARENT 10 19 12 21 4 23 21 25 18 27
REMARK Flexibility Score: inf
ROOT
ATOM      1  C   UNL     1       5.973  -4.371  26.488  1.00  0.00     0.180 A 
ATOM      2  C   UNL     1       6.279  -4.508  25.123  1.00  0.00     0.208 A 
ATOM      3  C   UNL     1       7.403  -5.262  24.749  1.00  0.00     0.238 A 
ATOM      4  O   UNL     1       7.641  -5.427  23.524  1.00  0.00    -0.285 OA
ATOM      5  C   UNL     1       8.215  -5.857  25.746  1.00  0.00     0.111 A 
ATOM      6  C   UNL     1       9.400  -6.608  25.483  1.00  0.00     0.134 A 
ATOM      7  C   UNL     1      10.051  -7.260  26.537  1.00  0.00     0.093 A 
ATOM      8  C   UNL     1       9.599  -7.133  27.853  1.00  0.00     0.123 A 
ATOM      9  C   UNL     1       8.479  -6.352  28.126  1.00  0.00     0.094 A 
ATOM     10  C   UNL     1       7.785  -5.719  27.091  1.00  0.00     0.146 A 
ATOM     11  O   UNL     1       6.716  -4.993  27.394  1.00  0.00    -0.452 OA
ENDROOT
BRANCH   1  12
ATOM     12  C   UNL     1       4.820  -3.569  26.959  1.00  0.00     0.025 A 
ATOM     13  C   UNL     1       3.587  -4.201  27.188  1.00  0.00     0.016 A 
ATOM     14  C   UNL     1       2.493  -3.470  27.653  1.00  0.00     0.051 A 
ATOM     15  C   UNL     1       2.614  -2.100  27.910  1.00  0.00     0.157 A 
ATOM     16  C   UNL     1       4.947  -2.197  27.238  1.00  0.00     0.062 A 
ATOM     17  C   UNL     1       3.848  -1.460  27.706  1.00  0.00     0.158 A 
BRANCH  15  18
ATOM     18  O   UNL     1       1.503  -1.395  28.370  1.00  0.00    -0.504 OA
ATOM     19  H   UNL     1       0.947  -1.717  29.154  1.00  0.00     0.293 HD
ENDBRANCH  15  18
BRANCH  17  20
ATOM     20  O   UNL     1       3.980  -0.098  27.973  1.00  0.00    -0.504 OA
ATOM     21  H   UNL     1       3.573   0.323  28.801  1.00  0.00     0.293 HD
ENDBRANCH  17  20
ENDBRANCH   1  12
BRANCH   2  22
ATOM     22  O   UNL     1       5.452  -3.931  24.155  1.00  0.00    -0.502 OA
ATOM     23  H   UNL     1       5.818  -3.451  23.342  1.00  0.00     0.293 HD
ENDBRANCH   2  22
BRANCH   6  24
ATOM     24  O   UNL     1       9.987  -6.723  24.220  1.00  0.00    -0.507 OA
ATOM     25  H   UNL     1      10.943  -7.000  24.054  1.00  0.00     0.293 HD
ENDBRANCH   6  24
BRANCH   8  26
ATOM     26  O   UNL     1      10.262  -7.771  28.898  1.00  0.00    -0.508 OA
ATOM     27  H   UNL     1      10.940  -8.505  28.725  1.00  0.00     0.293 HD
ENDBRANCH   8  26
TORSDOF 6
ENDMDL
MODEL 2
REMARK VINA RESULT:    -5.359      2.749      8.056
REMARK INTER + INTRA:          -6.790
REMARK INTER:                  -6.657
REMARK INTRA:                  -0.132
REMARK UNBOUND:                -0.335
REMARK SMILES O=c1c(O)c(-c2ccc(O)c(O)c2)oc2cc(O)cc(O)c12
REMARK SMILES IDX 5 1 3 2 2 3 1 4 22 5 20 6 19 7 17 8 16 9 15 10 14 11 6 12
REMARK SMILES IDX 7 13 8 14 9 15 13 16 11 17 10 18 12 20 4 22 21 24 18 26
REMARK H PARENT 10 19 12 21 4 23 21 25 18 27
REMARK Flexibility Score: inf
ROOT
ATOM      1  C   UNL     1       9.523  -7.285  24.885  1.00  0.00     0.180 A 
ATOM      2  C   UNL     1       9.915  -7.445  26.225  1.00  0.00     0.208 A 
ATOM      3  C   UNL     1       9.274  -6.687  27.218  1.00  0.00     0.238 A 
ATOM      4  O   UNL     1       9.591  -6.874  28.422  1.00  0.00    -0.285 OA
ATOM      5  C   UNL     1       8.258  -5.768  26.856  1.00  0.00     0.111 A 
ATOM      6  C   UNL     1       7.569  -4.920  27.774  1.00  0.00     0.134 A 
ATOM      7  C   UNL     1       6.493  -4.146  27.324  1.00  0.00     0.093 A 
ATOM      8  C   UNL     1       6.124  -4.139  25.976  1.00  0.00     0.123 A 
ATOM      9  C   UNL     1       6.830  -4.917  25.062  1.00  0.00     0.094 A 
ATOM     10  C   UNL     1       7.885  -5.729  25.488  1.00  0.00     0.146 A 
ATOM     11  O   UNL     1       8.524  -6.464  24.586  1.00  0.00    -0.452 OA
ENDROOT
BRANCH   1  12
ATOM     12  C   UNL     1      10.171  -8.029  23.781  1.00  0.00     0.025 A 
ATOM     13  C   UNL     1       9.386  -8.822  22.929  1.00  0.00     0.016 A 
ATOM     14  C   UNL     1       9.973  -9.516  21.868  1.00  0.00     0.051 A 
ATOM     15  C   UNL     1      11.348  -9.419  21.633  1.00  0.00     0.157 A 
ATOM     16  C   UNL     1      11.550  -7.915  23.531  1.00  0.00     0.062 A 
ATOM     17  C   UNL     1      12.141  -8.611  22.465  1.00  0.00     0.158 A 
BRANCH  15  18
ATOM     18  O   UNL     1      11.906 -10.125  20.568  1.00  0.00    -0.504 OA
ATOM     19  H   UNL     1      12.735 -10.696  20.677  1.00  0.00     0.293 HD
ENDBRANCH  15  18
BRANCH  17  20
ATOM     20  O   UNL     1      13.510  -8.497  22.228  1.00  0.00    -0.504 OA
ATOM     21  H   UNL     1      14.140  -8.118  22.925  1.00  0.00     0.293 HD
ENDBRANCH  17  20
ENDBRANCH   1  12
BRANCH   2  22
ATOM     22  O   UNL     1      10.905  -8.373  26.563  1.00  0.00    -0.502 OA
ATOM     23  H   UNL     1      11.153  -8.579  27.523  1.00  0.00     0.293 HD
ENDBRANCH   2  22
BRANCH   6  24
ATOM     24  O   UNL     1       7.915  -4.783  29.122  1.00  0.00    -0.507 OA
ATOM     25  H   UNL     1       8.782  -4.390  29.455  1.00  0.00     0.293 HD
ENDBRANCH   6  24
BRANCH   8  26
ATOM     26  O   UNL     1       5.063  -3.353  25.533  1.00  0.00    -0.508 OA
ATOM     27  H   UNL     1       5.218  -2.453  25.093  1.00  0.00     0.293 HD
ENDBRANCH   8  26
TORSDOF 6
ENDMDL
MODEL 3
REMARK VINA RESULT:    -5.211      1.733      7.156
REMARK INTER + INTRA:          -6.612
REMARK INTER:                  -6.464
REMARK INTRA:                  -0.148
REMARK UNBOUND:                -0.335
REMARK SMILES O=c1c(O)c(-c2ccc(O)c(O)c2)oc2cc(O)cc(O)c12
REMARK SMILES IDX 5 1 3 2 2 3 1 4 22 5 20 6 19 7 17 8 16 9 15 10 14 11 6 12
REMARK SMILES IDX 7 13 8 14 9 15 13 16 11 17 10 18 12 20 4 22 21 24 18 26
REMARK H PARENT 10 19 12 21 4 23 21 25 18 27
REMARK Flexibility Score: inf
ROOT
ATOM      1  C   UNL     1       4.777  -3.944  26.302  1.00  0.00     0.180 A 
ATOM      2  C   UNL     1       3.527  -4.569  26.148  1.00  0.00     0.208 A 
ATOM      3  C   UNL     1       2.386  -3.952  26.685  1.00  0.00     0.238 A 
ATOM      4  O   UNL     1       1.263  -4.488  26.497  1.00  0.00    -0.285 OA
ATOM      5  C   UNL     1       2.511  -2.725  27.382  1.00  0.00     0.111 A 
ATOM      6  C   UNL     1       1.428  -2.032  28.002  1.00  0.00     0.134 A 
ATOM      7  C   UNL     1       1.645  -0.762  28.551  1.00  0.00     0.093 A 
ATOM      8  C   UNL     1       2.920  -0.190  28.562  1.00  0.00     0.123 A 
ATOM      9  C   UNL     1       3.994  -0.886  28.013  1.00  0.00     0.094 A 
ATOM     10  C   UNL     1       3.802  -2.139  27.425  1.00  0.00     0.146 A 
ATOM     11  O   UNL     1       4.852  -2.763  26.904  1.00  0.00    -0.452 OA
ENDROOT
BRANCH   1  12
ATOM     12  C   UNL     1       6.027  -4.547  25.787  1.00  0.00     0.025 A 
ATOM     13  C   UNL     1       6.205  -4.689  24.401  1.00  0.00     0.016 A 
ATOM     14  C   UNL     1       7.385  -5.235  23.892  1.00  0.00     0.051 A 
ATOM     15  C   UNL     1       8.410  -5.635  24.754  1.00  0.00     0.157 A 
ATOM     16  C   UNL     1       7.067  -4.930  26.652  1.00  0.00     0.062 A 
ATOM     17  C   UNL     1       8.254  -5.478  26.142  1.00  0.00     0.158 A 
BRANCH  15  18
ATOM     18  O   UNL     1       9.575  -6.180  24.217  1.00  0.00    -0.504 OA
ATOM     19  H   UNL     1      10.478  -5.731  24.321  1.00  0.00     0.293 HD
ENDBRANCH  15  18
BRANCH  17  20
ATOM     20  O   UNL     1       9.277  -5.861  27.008  1.00  0.00    -0.504 OA
ATOM     21  H   UNL     1      10.191  -5.424  26.976  1.00  0.00     0.293 HD
ENDBRANCH  17  20
ENDBRANCH   1  12
BRANCH   2  22
ATOM     22  O   UNL     1       3.423  -5.768  25.437  1.00  0.00    -0.502 OA
ATOM     23  H   UNL     1       2.842  -6.537  25.749  1.00  0.00     0.293 HD
ENDBRANCH   2  22
BRANCH   6  24
ATOM     24  O   UNL     1       0.136  -2.553  28.126  1.00  0.00    -0.507 OA
ATOM     25  H   UNL     1      -0.080  -3.530  28.254  1.00  0.00     0.293 HD
ENDBRANCH   6  24
BRANCH   8  26
ATOM     26  O   UNL     1       3.131   1.066  29.125  1.00  0.00    -0.508 OA
ATOM     27  H   UNL     1       2.373   1.592  29.544  1.00  0.00     0.293 HD
ENDBRANCH   8  26
TORSDOF 6
ENDMDL
MODEL 4
REMARK VINA RESULT:    -5.081      2.331      3.165
REMARK INTER + INTRA:          -6.455
REMARK INTER:                  -6.148
REMARK INTRA:                  -0.307
REMARK UNBOUND:                -0.335
REMARK SMILES O=c1c(O)c(-c2ccc(O)c(O)c2)oc2cc(O)cc(O)c12
REMARK SMILES IDX 5 1 3 2 2 3 1 4 22 5 20 6 19 7 17 8 16 9 15 10 14 11 6 12
REMARK SMILES IDX 7 13 8 14 9 15 13 16 11 17 10 18 12 20 4 22 21 24 18 26
REMARK H PARENT 10 19 12 21 4 23 21 25 18 27
REMARK Flexibility Score: inf
ROOT
ATOM      1  C   UNL     1       6.391  -5.602  25.122  1.00  0.00     0.180 A 
ATOM      2  C   UNL     1       5.582  -6.662  24.676  1.00  0.00     0.208 A 
ATOM      3  C   UNL     1       6.192  -7.791  24.107  1.00  0.00     0.238 A 
ATOM      4  O   UNL     1       5.467  -8.760  23.760  1.00  0.00    -0.285 OA
ATOM      5  C   UNL     1       7.602  -7.841  23.978  1.00  0.00     0.111 A 
ATOM      6  C   UNL     1       8.323  -8.918  23.380  1.00  0.00     0.134 A 
ATOM      7  C   UNL     1       9.723  -8.919  23.423  1.00  0.00     0.093 A 
ATOM      8  C   UNL     1      10.427  -7.850  23.984  1.00  0.00     0.123 A 
ATOM      9  C   UNL     1       9.732  -6.767  24.515  1.00  0.00     0.094 A 
ATOM     10  C   UNL     1       8.335  -6.753  24.520  1.00  0.00     0.146 A 
ATOM     11  O   UNL     1       7.712  -5.706  25.046  1.00  0.00    -0.452 OA
ENDROOT
BRANCH   1  12
ATOM     12  C   UNL     1       5.819  -4.368  25.708  1.00  0.00     0.025 A 
ATOM     13  C   UNL     1       5.334  -3.361  24.858  1.00  0.00     0.016 A 
ATOM     14  C   UNL     1       4.771  -2.198  25.388  1.00  0.00     0.051 A 
ATOM     15  C   UNL     1       4.670  -2.028  26.772  1.00  0.00     0.157 A 
ATOM     16  C   UNL     1       5.698  -4.205  27.099  1.00  0.00     0.062 A 
ATOM     17  C   UNL     1       5.132  -3.037  27.634  1.00  0.00     0.158 A 
BRANCH  15  18
ATOM     18  O   UNL     1       4.107  -0.855  27.273  1.00  0.00    -0.504 OA
ATOM     19  H   UNL     1       4.659  -0.151  27.747  1.00  0.00     0.293 HD
ENDBRANCH  15  18
BRANCH  17  20
ATOM     20  O   UNL     1       5.022  -2.881  29.015  1.00  0.00    -0.504 OA
ATOM     21  H   UNL     1       4.667  -3.623  29.607  1.00  0.00     0.293 HD
ENDBRANCH  17  20
ENDBRANCH   1  12
BRANCH   2  22
ATOM     22  O   UNL     1       4.194  -6.602  24.834  1.00  0.00    -0.502 OA
ATOM     23  H   UNL     1       3.582  -6.217  24.124  1.00  0.00     0.293 HD
ENDBRANCH   2  22
BRANCH   6  24
ATOM     24  O   UNL     1       7.718  -9.988  22.714  1.00  0.00    -0.507 OA
ATOM     25  H   UNL     1       6.726 -10.171  22.702  1.00  0.00     0.293 HD
ENDBRANCH   6  24
BRANCH   8  26
ATOM     26  O   UNL     1      11.820  -7.852  24.008  1.00  0.00    -0.508 OA
ATOM     27  H   UNL     1      12.351  -6.989  23.990  1.00  0.00     0.293 HD
ENDBRANCH   8  26
TORSDOF 6
ENDMDL
MODEL 5
REMARK VINA RESULT:    -5.055      0.996      1.637
REMARK INTER + INTRA:          -6.425
REMARK INTER:                  -6.118
REMARK INTRA:                  -0.307
REMARK UNBOUND:                -0.335
REMARK SMILES O=c1c(O)c(-c2ccc(O)c(O)c2)oc2cc(O)cc(O)c12
REMARK SMILES IDX 5 1 3 2 2 3 1 4 22 5 20 6 19 7 17 8 16 9 15 10 14 11 6 12
REMARK SMILES IDX 7 13 8 14 9 15 13 16 11 17 10 18 12 20 4 22 21 24 18 26
REMARK H PARENT 10 19 12 21 4 23 21 25 18 27
REMARK Flexibility Score: inf
ROOT
ATOM      1  C   UNL     1       5.415  -3.845  26.603  1.00  0.00     0.180 A 
ATOM      2  C   UNL     1       5.603  -3.993  25.218  1.00  0.00     0.208 A 
ATOM      3  C   UNL     1       6.700  -4.735  24.754  1.00  0.00     0.238 A 
ATOM      4  O   UNL     1       6.832  -4.911  23.515  1.00  0.00    -0.285 OA
ATOM      5  C   UNL     1       7.605  -5.308  25.681  1.00  0.00     0.111 A 
ATOM      6  C   UNL     1       8.773  -6.047  25.323  1.00  0.00     0.134 A 
ATOM      7  C   UNL     1       9.524  -6.678  26.322  1.00  0.00     0.093 A 
ATOM      8  C   UNL     1       9.187  -6.543  27.671  1.00  0.00     0.123 A 
ATOM      9  C   UNL     1       8.083  -5.774  28.034  1.00  0.00     0.094 A 
ATOM     10  C   UNL     1       7.293  -5.162  27.058  1.00  0.00     0.146 A 
ATOM     11  O   UNL     1       6.244  -4.448  27.447  1.00  0.00    -0.452 OA
ENDROOT
BRANCH   1  12
ATOM     12  C   UNL     1       4.297  -3.054  27.167  1.00  0.00     0.025 A 
ATOM     13  C   UNL     1       4.504  -1.705  27.499  1.00  0.00     0.016 A 
ATOM     14  C   UNL     1       3.459  -0.935  28.012  1.00  0.00     0.051 A 
ATOM     15  C   UNL     1       2.188  -1.492  28.187  1.00  0.00     0.157 A 
ATOM     16  C   UNL     1       3.014  -3.607  27.323  1.00  0.00     0.062 A 
ATOM     17  C   UNL     1       1.962  -2.833  27.837  1.00  0.00     0.158 A 
BRANCH  15  18
ATOM     18  O   UNL     1       1.165  -0.699  28.704  1.00  0.00    -0.504 OA
ATOM     19  H   UNL     1       0.205  -0.787  28.391  1.00  0.00     0.293 HD
ENDBRANCH  15  18
BRANCH  17  20
ATOM     20  O   UNL     1       0.694  -3.392  27.996  1.00  0.00    -0.504 OA
ATOM     21  H   UNL     1       0.323  -3.617  28.912  1.00  0.00     0.293 HD
ENDBRANCH  17  20
ENDBRANCH   1  12
BRANCH   2  22
ATOM     22  O   UNL     1       4.685  -3.437  24.321  1.00  0.00    -0.502 OA
ATOM     23  H   UNL     1       4.848  -2.554  23.853  1.00  0.00     0.293 HD
ENDBRANCH   2  22
BRANCH   6  24
ATOM     24  O   UNL     1       9.249  -6.167  24.014  1.00  0.00    -0.507 OA
ATOM     25  H   UNL     1       8.693  -6.023  23.185  1.00  0.00     0.293 HD
ENDBRANCH   6  24
BRANCH   8  26
ATOM     26  O   UNL     1       9.949  -7.161  28.660  1.00  0.00    -0.508 OA
ATOM     27  H   UNL     1      10.922  -6.919  28.807  1.00  0.00     0.293 HD
ENDBRANCH   8  26
TORSDOF 6
ENDMDL
MODEL 6
REMARK VINA RESULT:    -4.989      2.387      7.069
REMARK INTER + INTRA:          -6.344
REMARK INTER:                  -6.178
REMARK INTRA:                  -0.166
REMARK UNBOUND:                -0.335
REMARK SMILES O=c1c(O)c(-c2ccc(O)c(O)c2)oc2cc(O)cc(O)c12
REMARK SMILES IDX 5 1 3 2 2 3 1 4 22 5 20 6 19 7 17 8 16 9 15 10 14 11 6 12
REMARK SMILES IDX 7 13 8 14 9 15 13 16 11 17 10 18 12 20 4 22 21 24 18 26
REMARK H PARENT 10 19 12 21 4 23 21 25 18 27
REMARK Flexibility Score: inf
ROOT
ATOM      1  C   UNL     1       5.725  -5.013  25.700  1.00  0.00     0.180 A 
ATOM      2  C   UNL     1       5.428  -3.751  26.244  1.00  0.00     0.208 A 
ATOM      3  C   UNL     1       4.113  -3.267  26.162  1.00  0.00     0.238 A 
ATOM      4  O   UNL     1       3.841  -2.161  26.699  1.00  0.00    -0.285 OA
ATOM      5  C   UNL     1       3.114  -4.043  25.524  1.00  0.00     0.111 A 
ATOM      6  C   UNL     1       1.758  -3.633  25.349  1.00  0.00     0.134 A 
ATOM      7  C   UNL     1       0.827  -4.535  24.820  1.00  0.00     0.093 A 
ATOM      8  C   UNL     1       1.218  -5.809  24.398  1.00  0.00     0.123 A 
ATOM      9  C   UNL     1       2.551  -6.196  24.510  1.00  0.00     0.094 A 
ATOM     10  C   UNL     1       3.496  -5.331  25.068  1.00  0.00     0.146 A 
ATOM     11  O   UNL     1       4.754  -5.744  25.166  1.00  0.00    -0.452 OA
ENDROOT
BRANCH   1  12
ATOM     12  C   UNL     1       7.093  -5.578  25.724  1.00  0.00     0.025 A 
ATOM     13  C   UNL     1       7.798  -5.732  24.519  1.00  0.00     0.016 A 
ATOM     14  C   UNL     1       9.098  -6.243  24.520  1.00  0.00     0.051 A 
ATOM     15  C   UNL     1       9.719  -6.595  25.722  1.00  0.00     0.157 A 
ATOM     16  C   UNL     1       7.727  -5.913  26.934  1.00  0.00     0.062 A 
ATOM     17  C   UNL     1       9.033  -6.426  26.936  1.00  0.00     0.158 A 
BRANCH  15  18
ATOM     18  O   UNL     1      11.016  -7.106  25.691  1.00  0.00    -0.504 OA
ATOM     19  H   UNL     1      11.827  -6.509  25.586  1.00  0.00     0.293 HD
ENDBRANCH  15  18
BRANCH  17  20
ATOM     20  O   UNL     1       9.651  -6.762  28.140  1.00  0.00    -0.504 OA
ATOM     21  H   UNL     1       9.562  -6.177  28.964  1.00  0.00     0.293 HD
ENDBRANCH  17  20
ENDBRANCH   1  12
BRANCH   2  22
ATOM     22  O   UNL     1       6.423  -3.011  26.888  1.00  0.00    -0.502 OA
ATOM     23  H   UNL     1       7.010  -3.405  27.615  1.00  0.00     0.293 HD
ENDBRANCH   2  22
BRANCH   6  24
ATOM     24  O   UNL     1       1.284  -2.353  25.651  1.00  0.00    -0.507 OA
ATOM     25  H   UNL     1       1.489  -1.523  25.116  1.00  0.00     0.293 HD
ENDBRANCH   6  24
BRANCH   8  26
ATOM     26  O   UNL     1       0.288  -6.695  23.858  1.00  0.00    -0.508 OA
ATOM     27  H   UNL     1      -0.118  -6.542  22.942  1.00  0.00     0.293 HD
ENDBRANCH   8  26
TORSDOF 6
ENDMDL
MODEL 7
REMARK VINA RESULT:    -4.928      1.932      7.247
REMARK INTER + INTRA:          -6.270
REMARK INTER:                  -5.943
REMARK INTRA:                  -0.327
REMARK UNBOUND:                -0.335
REMARK SMILES O=c1c(O)c(-c2ccc(O)c(O)c2)oc2cc(O)cc(O)c12
REMARK SMILES IDX 5 1 3 2 2 3 1 4 22 5 20 6 19 7 17 8 16 9 15 10 14 11 6 12
REMARK SMILES IDX 7 13 8 14 9 15 13 16 11 17 10 18 12 20 4 22 21 24 18 26
REMARK H PARENT 10 19 12 21 4 23 21 25 18 27
REMARK Flexibility Score: inf
ROOT
ATOM      1  C   UNL     1       7.167  -5.866  26.167  1.00  0.00     0.180 A 
ATOM      2  C   UNL     1       7.434  -5.219  27.386  1.00  0.00     0.208 A 
ATOM      3  C   UNL     1       6.536  -4.245  27.851  1.00  0.00     0.238 A 
ATOM      4  O   UNL     1       6.751  -3.708  28.969  1.00  0.00    -0.285 OA
ATOM      5  C   UNL     1       5.390  -3.920  27.084  1.00  0.00     0.111 A 
ATOM      6  C   UNL     1       4.434  -2.921  27.439  1.00  0.00     0.134 A 
ATOM      7  C   UNL     1       3.272  -2.775  26.672  1.00  0.00     0.093 A 
ATOM      8  C   UNL     1       3.063  -3.546  25.526  1.00  0.00     0.123 A 
ATOM      9  C   UNL     1       4.019  -4.481  25.138  1.00  0.00     0.094 A 
ATOM     10  C   UNL     1       5.172  -4.676  25.903  1.00  0.00     0.146 A 
ATOM     11  O   UNL     1       6.052  -5.586  25.503  1.00  0.00    -0.452 OA
ENDROOT
BRANCH   1  12
ATOM     12  C   UNL     1       8.081  -6.884  25.599  1.00  0.00     0.025 A 
ATOM     13  C   UNL     1       7.797  -8.247  25.785  1.00  0.00     0.016 A 
ATOM     14  C   UNL     1       8.634  -9.224  25.242  1.00  0.00     0.051 A 
ATOM     15  C   UNL     1       9.757  -8.858  24.493  1.00  0.00     0.157 A 
ATOM     16  C   UNL     1       9.198  -6.518  24.829  1.00  0.00     0.062 A 
ATOM     17  C   UNL     1      10.039  -7.499  24.281  1.00  0.00     0.158 A 
BRANCH  15  18
ATOM     18  O   UNL     1      10.574  -9.856  23.965  1.00  0.00    -0.504 OA
ATOM     19  H   UNL     1      11.576  -9.866  24.113  1.00  0.00     0.293 HD
ENDBRANCH  15  18
BRANCH  17  20
ATOM     20  O   UNL     1      11.149  -7.126  23.523  1.00  0.00    -0.504 OA
ATOM     21  H   UNL     1      11.601  -6.227  23.650  1.00  0.00     0.293 HD
ENDBRANCH  17  20
ENDBRANCH   1  12
BRANCH   2  22
ATOM     22  O   UNL     1       8.559  -5.571  28.138  1.00  0.00    -0.502 OA
ATOM     23  H   UNL     1       8.717  -5.223  29.075  1.00  0.00     0.293 HD
ENDBRANCH   2  22
BRANCH   6  24
ATOM     24  O   UNL     1       4.590  -2.037  28.511  1.00  0.00    -0.507 OA
ATOM     25  H   UNL     1       5.189  -1.225  28.503  1.00  0.00     0.293 HD
ENDBRANCH   6  24
BRANCH   8  26
ATOM     26  O   UNL     1       1.911  -3.383  24.760  1.00  0.00    -0.508 OA
ATOM     27  H   UNL     1       1.003  -3.253  25.190  1.00  0.00     0.293 HD
ENDBRANCH   8  26
TORSDOF 6
ENDMDL
MODEL 8
REMARK VINA RESULT:    -4.889      1.530      6.910
REMARK INTER + INTRA:          -6.224
REMARK INTER:                  -5.917
REMARK INTRA:                  -0.307
REMARK UNBOUND:                -0.335
REMARK SMILES O=c1c(O)c(-c2ccc(O)c(O)c2)oc2cc(O)cc(O)c12
REMARK SMILES IDX 5 1 3 2 2 3 1 4 22 5 20 6 19 7 17 8 16 9 15 10 14 11 6 12
REMARK SMILES IDX 7 13 8 14 9 15 13 16 11 17 10 18 12 20 4 22 21 24 18 26
REMARK H PARENT 10 19 12 21 4 23 21 25 18 27
REMARK Flexibility Score: inf
ROOT
ATOM      1  C   UNL     1       5.976  -5.096  26.502  1.00  0.00     0.180 A 
ATOM      2  C   UNL     1       4.816  -5.748  26.049  1.00  0.00     0.208 A 
ATOM      3  C   UNL     1       3.572  -5.117  26.212  1.00  0.00     0.238 A 
ATOM      4  O   UNL     1       2.543  -5.681  25.756  1.00  0.00    -0.285 OA
ATOM      5  C   UNL     1       3.502  -3.849  26.840  1.00  0.00     0.111 A 
ATOM      6  C   UNL     1       2.292  -3.137  27.094  1.00  0.00     0.134 A 
ATOM      7  C   UNL     1       2.352  -1.834  27.603  1.00  0.00     0.093 A 
ATOM      8  C   UNL     1       3.576  -1.243  27.930  1.00  0.00     0.123 A 
ATOM      9  C   UNL     1       4.758  -1.954  27.741  1.00  0.00     0.094 A 
ATOM     10  C   UNL     1       4.733  -3.243  27.201  1.00  0.00     0.146 A 
ATOM     11  O   UNL     1       5.884  -3.881  27.028  1.00  0.00    -0.452 OA
ENDROOT
BRANCH   1  12
ATOM     12  C   UNL     1       7.319  -5.710  26.388  1.00  0.00     0.025 A 
ATOM     13  C   UNL     1       7.841  -6.434  27.473  1.00  0.00     0.016 A 
ATOM     14  C   UNL     1       9.096  -7.039  27.381  1.00  0.00     0.051 A 
ATOM     15  C   UNL     1       9.843  -6.944  26.202  1.00  0.00     0.157 A 
ATOM     16  C   UNL     1       8.061  -5.633  25.197  1.00  0.00     0.062 A 
ATOM     17  C   UNL     1       9.323  -6.241  25.103  1.00  0.00     0.158 A 
BRANCH  15  18
ATOM     18  O   UNL     1      11.094  -7.555  26.141  1.00  0.00    -0.504 OA
ATOM     19  H   UNL     1      11.257  -8.394  25.596  1.00  0.00     0.293 HD
ENDBRANCH  15  18
BRANCH  17  20
ATOM     20  O   UNL     1      10.056  -6.154  23.920  1.00  0.00    -0.504 OA
ATOM     21  H   UNL     1      11.065  -6.242  23.913  1.00  0.00     0.293 HD
ENDBRANCH  17  20
ENDBRANCH   1  12
BRANCH   2  22
ATOM     22  O   UNL     1       4.909  -6.989  25.412  1.00  0.00    -0.502 OA
ATOM     23  H   UNL     1       4.247  -7.290  24.707  1.00  0.00     0.293 HD
ENDBRANCH   2  22
BRANCH   6  24
ATOM     24  O   UNL     1       1.015  -3.669  26.891  1.00  0.00    -0.507 OA
ATOM     25  H   UNL     1       0.651  -3.962  25.997  1.00  0.00     0.293 HD
ENDBRANCH   6  24
BRANCH   8  26
ATOM     26  O   UNL     1       3.626   0.047  28.451  1.00  0.00    -0.508 OA
ATOM     27  H   UNL     1       3.178   0.281  29.330  1.00  0.00     0.293 HD
ENDBRANCH   8  26
TORSDOF 6
ENDMDL
MODEL 9
REMARK VINA RESULT:    -4.861      1.617      3.233
REMARK INTER + INTRA:          -6.190
REMARK INTER:                  -5.898
REMARK INTRA:                  -0.293
REMARK UNBOUND:                -0.335
REMARK SMILES O=c1c(O)c(-c2ccc(O)c(O)c2)oc2cc(O)cc(O)c12
REMARK SMILES IDX 5 1 3 2 2 3 1 4 22 5 20 6 19 7 17 8 16 9 15 10 14 11 6 12
REMARK SMILES IDX 7 13 8 14 9 15 13 16 11 17 10 18 12 20 4 22 21 24 18 26
REMARK H PARENT 10 19 12 21 4 23 21 25 18 27
REMARK Flexibility Score: inf
ROOT
ATOM      1  C   UNL     1       7.068  -5.615  26.693  1.00  0.00     0.180 A 
ATOM      2  C   UNL     1       7.599  -6.000  27.936  1.00  0.00     0.208 A 
ATOM      3  C   UNL     1       8.765  -6.781  27.967  1.00  0.00     0.238 A 
ATOM      4  O   UNL     1       9.266  -7.076  29.083  1.00  0.00    -0.285 OA
ATOM      5  C   UNL     1       9.378  -7.180  26.754  1.00  0.00     0.111 A 
ATOM      6  C   UNL     1      10.539  -8.005  26.666  1.00  0.00     0.134 A 
ATOM      7  C   UNL     1      11.134  -8.229  25.418  1.00  0.00     0.093 A 
ATOM      8  C   UNL     1      10.571  -7.712  24.249  1.00  0.00     0.123 A 
ATOM      9  C   UNL     1       9.404  -6.956  24.319  1.00  0.00     0.094 A 
ATOM     10  C   UNL     1       8.807  -6.685  25.553  1.00  0.00     0.146 A 
ATOM     11  O   UNL     1       7.701  -5.951  25.576  1.00  0.00    -0.452 OA
ENDROOT
BRANCH   1  12
ATOM     12  C   UNL     1       5.827  -4.815  26.580  1.00  0.00     0.025 A 
ATOM     13  C   UNL     1       4.608  -5.465  26.328  1.00  0.00     0.016 A 
ATOM     14  C   UNL     1       3.422  -4.733  26.238  1.00  0.00     0.051 A 
ATOM     15  C   UNL     1       3.431  -3.345  26.413  1.00  0.00     0.157 A 
ATOM     16  C   UNL     1       5.832  -3.423  26.777  1.00  0.00     0.062 A 
ATOM     17  C   UNL     1       4.641  -2.686  26.688  1.00  0.00     0.158 A 
BRANCH  15  18
ATOM     18  O   UNL     1       2.232  -2.641  26.316  1.00  0.00    -0.504 OA
ATOM     19  H   UNL     1       1.867  -2.090  27.084  1.00  0.00     0.293 HD
ENDBRANCH  15  18
BRANCH  17  20
ATOM     20  O   UNL     1       4.656  -1.305  26.878  1.00  0.00    -0.504 OA
ATOM     21  H   UNL     1       4.406  -0.664  26.134  1.00  0.00     0.293 HD
ENDBRANCH  17  20
ENDBRANCH   1  12
BRANCH   2  22
ATOM     22  O   UNL     1       6.991  -5.577  29.122  1.00  0.00    -0.502 OA
ATOM     23  H   UNL     1       7.204  -4.687  29.555  1.00  0.00     0.293 HD
ENDBRANCH   2  22
BRANCH   6  24
ATOM     24  O   UNL     1      11.128  -8.644  27.762  1.00  0.00    -0.507 OA
ATOM     25  H   UNL     1      10.754  -9.462  28.218  1.00  0.00     0.293 HD
ENDBRANCH   6  24
BRANCH   8  26
ATOM     26  O   UNL     1      11.160  -7.953  23.010  1.00  0.00    -0.508 OA
ATOM     27  H   UNL     1      11.743  -8.766  22.850  1.00  0.00     0.293 HD
ENDBRANCH   8  26
TORSDOF 6
ENDMDL
