MODEL 1
REMARK VINA RESULT:    -3.534      0.000      0.000
REMARK INTER + INTRA:          -4.005
REMARK INTER:                  -3.948
REMARK INTRA:                  -0.058
REMARK UNBOUND:                -0.058
REMARK SMILES CCCC(=O)[O-]
REMARK SMILES IDX 3 1 4 2 5 3 6 4 2 5 1 6
REMARK H PARENT
REMARK Flexibility Score: inf
ROOT
ATOM      1  C   UNL     1      20.558   7.225   8.904  1.00  0.00     0.052 C 
ENDROOT
BRANCH   1   2
ATOM      2  C   UNL     1      20.307   8.218   9.996  1.00  0.00     0.041 C 
ATOM      3  O   UNL     1      21.123   9.156  10.201  1.00  0.00    -0.550 OA
ATOM      4  O   UNL     1      19.156   8.127  10.769  1.00  0.00    -0.550 OA
ENDBRANCH   1   2
BRANCH   1   5
ATOM      5  C   UNL     1      19.355   7.104   7.960  1.00  0.00     0.003 C 
ATOM      6  C   UNL     1      19.303   8.237   6.935  1.00  0.00     0.004 C 
ENDBRANCH   1   5
TORSDOF 2
ENDMDL
MODEL 2
REMARK VINA RESULT:    -3.518      1.519      2.095
REMARK INTER + INTRA:          -3.987
REMARK INTER:                  -3.980
REMARK INTRA:                  -0.007
REMARK UNBOUND:                -0.058
REMARK SMILES CCCC(=O)[O-]
REMARK SMILES IDX 3 1 4 2 5 3 6 4 2 5 1 6
REMARK H PARENT
REMARK Flexibility Score: inf
ROOT
ATOM      1  C   UNL     1      19.761   6.565   9.091  1.00  0.00     0.052 C 
ENDROOT
BRANCH   1   2
ATOM      2  C   UNL     1      19.380   6.570  10.540  1.00  0.00     0.041 C 
ATOM      3  O   UNL     1      18.691   5.630  11.018  1.00  0.00    -0.550 OA
ATOM      4  O   UNL     1      19.813   7.595  11.370  1.00  0.00    -0.550 OA
ENDBRANCH   1   2
BRANCH   1   5
ATOM      5  C   UNL     1      19.733   7.978   8.494  1.00  0.00     0.003 C 
ATOM      6  C   UNL     1      19.301   7.982   7.028  1.00  0.00     0.004 C 
ENDBRANCH   1   5
TORSDOF 2
ENDMDL
MODEL 3
REMARK VINA RESULT:    -3.258      1.519      1.993
REMARK INTER + INTRA:          -3.697
REMARK INTER:                  -3.657
REMARK INTRA:                  -0.039
REMARK UNBOUND:                -0.058
REMARK SMILES CCCC(=O)[O-]
REMARK SMILES IDX 3 1 4 2 5 3 6 4 2 5 1 6
REMARK H PARENT
REMARK Flexibility Score: inf
ROOT
ATOM      1  C   UNL     1      19.771   8.219   9.526  1.00  0.00     0.052 C 
ENDROOT
BRANCH   1   2
ATOM      2  C   UNL     1      20.806   8.712  10.490  1.00  0.00     0.041 C 
ATOM      3  O   UNL     1      21.777   9.402  10.081  1.00  0.00    -0.550 OA
ATOM      4  O   UNL     1      20.681   8.436  11.846  1.00  0.00    -0.550 OA
ENDBRANCH   1   2
BRANCH   1   5
ATOM      5  C   UNL     1      20.056   6.780   9.075  1.00  0.00     0.003 C 
ATOM      6  C   UNL     1      19.328   5.746   9.932  1.00  0.00     0.004 C 
ENDBRANCH   1   5
TORSDOF 2
ENDMDL
MODEL 4
REMARK VINA RESULT:    -3.244      2.316      2.969
REMARK INTER + INTRA:          -3.681
REMARK INTER:                  -3.663
REMARK INTRA:                  -0.018
REMARK UNBOUND:                -0.058
REMARK SMILES CCCC(=O)[O-]
REMARK SMILES IDX 3 1 4 2 5 3 6 4 2 5 1 6
REMARK H PARENT
REMARK Flexibility Score: inf
ROOT
ATOM      1  C   UNL     1      19.261   6.520   8.697  1.00  0.00     0.052 C 
ENDROOT
BRANCH   1   2
ATOM      2  C   UNL     1      19.799   7.809   8.155  1.00  0.00     0.041 C 
ATOM      3  O   UNL     1      20.654   8.464   8.808  1.00  0.00    -0.550 OA
ATOM      4  O   UNL     1      19.381   8.270   6.914  1.00  0.00    -0.550 OA
ENDBRANCH   1   2
BRANCH   1   5
ATOM      5  C   UNL     1      19.764   6.250  10.121  1.00  0.00     0.003 C 
ATOM      6  C   UNL     1      18.678   5.664  11.021  1.00  0.00     0.004 C 
ENDBRANCH   1   5
TORSDOF 2
ENDMDL
MODEL 5
REMARK VINA RESULT:    -3.020      2.159      3.378
REMARK INTER + INTRA:          -3.431
REMARK INTER:                  -3.410
REMARK INTRA:                  -0.021
REMARK UNBOUND:                -0.058
REMARK SMILES CCCC(=O)[O-]
REMARK SMILES IDX 3 1 4 2 5 3 6 4 2 5 1 6
REMARK H PARENT
REMARK Flexibility Score: inf
ROOT
ATOM      1  C   UNL     1      19.399   6.636  10.392  1.00  0.00     0.052 C 
ENDROOT
BRANCH   1   2
ATOM      2  C   UNL     1      19.851   6.745   8.968  1.00  0.00     0.041 C 
ATOM      3  O   UNL     1      19.006   6.827   8.038  1.00  0.00    -0.550 OA
ATOM      4  O   UNL     1      21.207   6.788   8.670  1.00  0.00    -0.550 OA
ENDBRANCH   1   2
BRANCH   1   5
ATOM      5  C   UNL     1      19.430   7.996  11.102  1.00  0.00     0.003 C 
ATOM      6  C   UNL     1      20.780   8.278  11.760  1.00  0.00     0.004 C 
ENDBRANCH   1   5
TORSDOF 2
ENDMDL
MODEL 6
REMARK VINA RESULT:    -2.983      2.635      3.701
REMARK INTER + INTRA:          -3.389
REMARK INTER:                  -3.317
REMARK INTRA:                  -0.072
REMARK UNBOUND:                -0.058
REMARK SMILES CCCC(=O)[O-]
REMARK SMILES IDX 3 1 4 2 5 3 6 4 2 5 1 6
REMARK H PARENT
REMARK Flexibility Score: inf
ROOT
ATOM      1  C   UNL     1      19.392   7.689  11.073  1.00  0.00     0.052 C 
ENDROOT
BRANCH   1   2
ATOM      2  C   UNL     1      19.555   6.440  10.262  1.00  0.00     0.041 C 
ATOM      3  O   UNL     1      19.159   5.333  10.715  1.00  0.00    -0.550 OA
ATOM      4  O   UNL     1      20.114   6.502   8.993  1.00  0.00    -0.550 OA
ENDBRANCH   1   2
BRANCH   1   5
ATOM      5  C   UNL     1      20.728   8.419  11.263  1.00  0.00     0.003 C 
ATOM      6  C   UNL     1      21.758   7.565  12.000  1.00  0.00     0.004 C 
ENDBRANCH   1   5
TORSDOF 2
ENDMDL
MODEL 7
REMARK VINA RESULT:    -2.846      2.208      3.203
REMARK INTER + INTRA:          -3.236
REMARK INTER:                  -3.228
REMARK INTRA:                  -0.008
REMARK UNBOUND:                -0.058
REMARK SMILES CCCC(=O)[O-]
REMARK SMILES IDX 3 1 4 2 5 3 6 4 2 5 1 6
REMARK H PARENT
REMARK Flexibility Score: inf
ROOT
ATOM      1  C   UNL     1      20.241   8.378   9.464  1.00  0.00     0.052 C 
ENDROOT
BRANCH   1   2
ATOM      2  C   UNL     1      19.818   7.188   8.659  1.00  0.00     0.041 C 
ATOM      3  O   UNL     1      19.490   6.117   9.235  1.00  0.00    -0.550 OA
ATOM      4  O   UNL     1      19.756   7.271   7.274  1.00  0.00    -0.550 OA
ENDBRANCH   1   2
BRANCH   1   5
ATOM      5  C   UNL     1      21.709   8.276   9.898  1.00  0.00     0.003 C 
ATOM      6  C   UNL     1      22.443   9.612   9.790  1.00  0.00     0.004 C 
ENDBRANCH   1   5
TORSDOF 2
ENDMDL
MODEL 8
REMARK VINA RESULT:    -2.842      9.210      9.817
REMARK INTER + INTRA:          -3.232
REMARK INTER:                  -3.188
REMARK INTRA:                  -0.044
REMARK UNBOUND:                -0.058
REMARK SMILES CCCC(=O)[O-]
REMARK SMILES IDX 3 1 4 2 5 3 6 4 2 5 1 6
REMARK H PARENT
REMARK Flexibility Score: inf
ROOT
ATOM      1  C   UNL     1      18.617   1.379   2.738  1.00  0.00     0.052 C 
ENDROOT
BRANCH   1   2
ATOM      2  C   UNL     1      19.456   1.285   1.502  1.00  0.00     0.041 C 
ATOM      3  O   UNL     1      18.912   1.246   0.366  1.00  0.00    -0.550 OA
ATOM      4  O   UNL     1      20.842   1.271   1.601  1.00  0.00    -0.550 OA
ENDBRANCH   1   2
BRANCH   1   5
ATOM      5  C   UNL     1      18.590   2.808   3.297  1.00  0.00     0.003 C 
ATOM      6  C   UNL     1      17.486   3.658   2.668  1.00  0.00     0.004 C 
ENDBRANCH   1   5
TORSDOF 2
ENDMDL
MODEL 9
REMARK VINA RESULT:    -2.840      2.375      3.895
REMARK INTER + INTRA:          -3.229
REMARK INTER:                  -3.191
REMARK INTRA:                  -0.038
REMARK UNBOUND:                -0.058
REMARK SMILES CCCC(=O)[O-]
REMARK SMILES IDX 3 1 4 2 5 3 6 4 2 5 1 6
REMARK H PARENT
REMARK Flexibility Score: inf
ROOT
ATOM      1  C   UNL     1      20.777   8.268  11.743  1.00  0.00     0.052 C 
ENDROOT
BRANCH   1   2
ATOM      2  C   UNL     1      20.881   8.790  10.342  1.00  0.00     0.041 C 
ATOM      3  O   UNL     1      21.902   9.433   9.978  1.00  0.00    -0.550 OA
ATOM      4  O   UNL     1      19.865   8.540   9.430  1.00  0.00    -0.550 OA
ENDBRANCH   1   2
BRANCH   1   5
ATOM      5  C   UNL     1      22.073   7.576  12.186  1.00  0.00     0.003 C 
ATOM      6  C   UNL     1      22.814   8.365  13.264  1.00  0.00     0.004 C 
ENDBRANCH   1   5
TORSDOF 2
ENDMDL
