MODEL 1
REMARK VINA RESULT:    -6.558      0.000      0.000
REMARK INTER + INTRA:          -8.318
REMARK INTER:                  -7.708
REMARK INTRA:                  -0.611
REMARK UNBOUND:                -0.611
REMARK SMILES C=C(C)[C@H]1CC[C@]2(CO)CC[C@]3(C)[C@H](CC[C@H]4[C@@]5(C)CC[C@H](O)C(C)(C)[C@H]5CC[C@]43C)[C@H]12
REMARK SMILES IDX 4 1 5 2 6 3 7 4 32 5 14 6 15 7 16 8 17 9 18 10 20 11 21 12
REMARK SMILES IDX 22 13 24 14 27 15 28 16 29 17 30 18 12 19 11 20 10 21 13 22
REMARK SMILES IDX 31 23 25 24 26 25 19 26 2 27 3 28 1 29 8 30 9 31 23 33
REMARK H PARENT 9 32 23 34
REMARK Flexibility Score: inf
ROOT
ATOM      1  C   UNL     1     -12.125 -19.830  13.956  1.00  0.00     0.018 C 
ATOM      2  C   UNL     1     -13.267 -20.670  13.387  1.00  0.00     0.009 C 
ATOM      3  C   UNL     1     -14.190 -19.687  12.685  1.00  0.00     0.010 C 
ATOM      4  C   UNL     1     -13.984 -18.300  13.366  1.00  0.00    -0.003 C 
ATOM      5  C   UNL     1     -12.791 -18.491  14.369  1.00  0.00     0.008 C 
ATOM      6  C   UNL     1     -11.872 -17.222  14.635  1.00  0.00    -0.000 C 
ATOM      7  C   UNL     1     -10.504 -17.589  15.246  1.00  0.00     0.005 C 
ATOM      8  C   UNL     1      -9.498 -16.431  15.342  1.00  0.00     0.005 C 
ATOM      9  C   UNL     1     -10.109 -15.001  15.323  1.00  0.00     0.002 C 
ATOM     10  C   UNL     1      -8.979 -13.861  15.540  1.00  0.00    -0.026 C 
ATOM     11  C   UNL     1      -7.620 -14.225  14.841  1.00  0.00     0.010 C 
ATOM     12  C   UNL     1      -6.542 -13.127  14.891  1.00  0.00     0.033 C 
ATOM     13  C   UNL     1      -7.046 -11.768  14.361  1.00  0.00     0.120 C 
ATOM     14  C   UNL     1      -8.341 -11.282  15.079  1.00  0.00    -0.006 C 
ATOM     15  C   UNL     1      -9.445 -12.433  15.010  1.00  0.00     0.003 C 
ATOM     16  C   UNL     1     -10.094 -12.498  13.581  1.00  0.00     0.005 C 
ATOM     17  C   UNL     1     -10.529 -13.873  13.076  1.00  0.00     0.008 C 
ATOM     18  C   UNL     1     -11.171 -14.768  14.156  1.00  0.00    -0.024 C 
ATOM     19  C   UNL     1     -11.711 -16.158  13.495  1.00  0.00    -0.024 C 
ATOM     20  C   UNL     1     -13.100 -15.955  12.802  1.00  0.00     0.008 C 
ATOM     21  C   UNL     1     -13.684 -17.255  12.254  1.00  0.00     0.010 C 
ATOM     22  C   UNL     1     -10.730 -16.693  12.392  1.00  0.00     0.012 C 
ATOM     23  C   UNL     1     -12.377 -13.969  14.772  1.00  0.00     0.012 C 
ATOM     24  C   UNL     1      -8.855  -9.983  14.377  1.00  0.00     0.014 C 
ATOM     25  C   UNL     1      -8.036 -10.849  16.546  1.00  0.00     0.014 C 
ATOM     26  C   UNL     1      -8.743 -13.811  17.092  1.00  0.00     0.012 C 
ENDROOT
BRANCH   1  27
ATOM     27  C   UNL     1     -11.392 -20.590  15.068  1.00  0.00    -0.077 C 
ATOM     28  C   UNL     1     -11.970 -20.606  16.462  1.00  0.00     0.039 C 
ATOM     29  C   UNL     1     -10.226 -21.226  14.857  1.00  0.00     0.008 C 
ENDBRANCH   1  27
BRANCH   4  30
ATOM     30  C   UNL     1     -15.278 -17.890  14.132  1.00  0.00     0.163 C 
BRANCH  30  31
ATOM     31  O   UNL     1     -15.283 -18.423  15.431  1.00  0.00    -0.396 OA
ATOM     32  H   UNL     1     -16.212 -18.320  15.771  1.00  0.00     0.210 HD
ENDBRANCH  30  31
ENDBRANCH   4  30
BRANCH  13  33
ATOM     33  O   UNL     1      -6.042 -10.781  14.408  1.00  0.00    -0.393 OA
ATOM     34  H   UNL     1      -5.533 -10.875  15.256  1.00  0.00     0.210 HD
ENDBRANCH  13  33
TORSDOF 4
ENDMDL
MODEL 2
REMARK VINA RESULT:    -6.487      3.064      4.169
REMARK INTER + INTRA:          -8.236
REMARK INTER:                  -7.728
REMARK INTRA:                  -0.507
REMARK UNBOUND:                -0.611
REMARK SMILES C=C(C)[C@H]1CC[C@]2(CO)CC[C@]3(C)[C@H](CC[C@H]4[C@@]5(C)CC[C@H](O)C(C)(C)[C@H]5CC[C@]43C)[C@H]12
REMARK SMILES IDX 4 1 5 2 6 3 7 4 32 5 14 6 15 7 16 8 17 9 18 10 20 11 21 12
REMARK SMILES IDX 22 13 24 14 27 15 28 16 29 17 30 18 12 19 11 20 10 21 13 22
REMARK SMILES IDX 31 23 25 24 26 25 19 26 2 27 3 28 1 29 8 30 9 31 23 33
REMARK H PARENT 9 32 23 34
REMARK Flexibility Score: inf
ROOT
ATOM      1  C   UNL     1     -12.937 -21.014  13.371  1.00  0.00     0.018 C 
ATOM      2  C   UNL     1     -13.573 -22.386  13.160  1.00  0.00     0.009 C 
ATOM      3  C   UNL     1     -14.825 -22.136  12.335  1.00  0.00     0.010 C 
ATOM      4  C   UNL     1     -15.272 -20.669  12.615  1.00  0.00    -0.003 C 
ATOM      5  C   UNL     1     -14.137 -20.040  13.499  1.00  0.00     0.008 C 
ATOM      6  C   UNL     1     -13.886 -18.479  13.333  1.00  0.00    -0.000 C 
ATOM      7  C   UNL     1     -12.510 -18.033  13.868  1.00  0.00     0.005 C 
ATOM      8  C   UNL     1     -12.127 -16.577  13.557  1.00  0.00     0.005 C 
ATOM      9  C   UNL     1     -13.312 -15.620  13.241  1.00  0.00     0.002 C 
ATOM     10  C   UNL     1     -12.814 -14.093  13.038  1.00  0.00    -0.026 C 
ATOM     11  C   UNL     1     -11.422 -14.008  12.313  1.00  0.00     0.010 C 
ATOM     12  C   UNL     1     -10.948 -12.585  11.967  1.00  0.00     0.033 C 
ATOM     13  C   UNL     1     -11.996 -11.783  11.166  1.00  0.00     0.120 C 
ATOM     14  C   UNL     1     -13.385 -11.729  11.871  1.00  0.00    -0.006 C 
ATOM     15  C   UNL     1     -13.858 -13.215  12.217  1.00  0.00     0.003 C 
ATOM     16  C   UNL     1     -14.383 -13.945  10.929  1.00  0.00     0.005 C 
ATOM     17  C   UNL     1     -14.150 -15.453  10.840  1.00  0.00     0.008 C 
ATOM     18  C   UNL     1     -14.345 -16.202  12.174  1.00  0.00    -0.024 C 
ATOM     19  C   UNL     1     -14.196 -17.810  11.951  1.00  0.00    -0.024 C 
ATOM     20  C   UNL     1     -15.517 -18.429  11.382  1.00  0.00     0.008 C 
ATOM     21  C   UNL     1     -15.450 -19.949  11.248  1.00  0.00     0.010 C 
ATOM     22  C   UNL     1     -13.060 -18.147  10.921  1.00  0.00     0.012 C 
ATOM     23  C   UNL     1     -15.792 -15.869  12.693  1.00  0.00     0.012 C 
ATOM     24  C   UNL     1     -14.412 -11.031  10.922  1.00  0.00     0.014 C 
ATOM     25  C   UNL     1     -13.331 -10.822  13.138  1.00  0.00     0.014 C 
ATOM     26  C   UNL     1     -12.652 -13.520  14.492  1.00  0.00     0.012 C 
ENDROOT
BRANCH   1  27
ATOM     27  C   UNL     1     -11.962 -21.042  14.555  1.00  0.00    -0.077 C 
ATOM     28  C   UNL     1     -10.486 -21.215  14.298  1.00  0.00     0.039 C 
ATOM     29  C   UNL     1     -12.378 -20.946  15.830  1.00  0.00     0.008 C 
ENDBRANCH   1  27
BRANCH   4  30
ATOM     30  C   UNL     1     -16.627 -20.667  13.386  1.00  0.00     0.163 C 
BRANCH  30  31
ATOM     31  O   UNL     1     -17.427 -21.753  12.997  1.00  0.00    -0.396 OA
ATOM     32  H   UNL     1     -17.332 -22.439  13.711  1.00  0.00     0.210 HD
ENDBRANCH  30  31
ENDBRANCH   4  30
BRANCH  13  33
ATOM     33  O   UNL     1     -11.539 -10.489  10.852  1.00  0.00    -0.393 OA
ATOM     34  H   UNL     1     -10.545 -10.479  10.877  1.00  0.00     0.210 HD
ENDBRANCH  13  33
TORSDOF 4
ENDMDL
MODEL 3
REMARK VINA RESULT:    -6.461     12.256     14.169
REMARK INTER + INTRA:          -8.204
REMARK INTER:                  -7.704
REMARK INTRA:                  -0.501
REMARK UNBOUND:                -0.611
REMARK SMILES C=C(C)[C@H]1CC[C@]2(CO)CC[C@]3(C)[C@H](CC[C@H]4[C@@]5(C)CC[C@H](O)C(C)(C)[C@H]5CC[C@]43C)[C@H]12
REMARK SMILES IDX 4 1 5 2 6 3 7 4 32 5 14 6 15 7 16 8 17 9 18 10 20 11 21 12
REMARK SMILES IDX 22 13 24 14 27 15 28 16 29 17 30 18 12 19 11 20 10 21 13 22
REMARK SMILES IDX 31 23 25 24 26 25 19 26 2 27 3 28 1 29 8 30 9 31 23 33
REMARK H PARENT 9 32 23 34
REMARK Flexibility Score: inf
ROOT
ATOM      1  C   UNL     1     -18.341 -12.504   0.808  1.00  0.00     0.018 C 
ATOM      2  C   UNL     1     -19.302 -12.770  -0.349  1.00  0.00     0.009 C 
ATOM      3  C   UNL     1     -20.109 -11.492  -0.513  1.00  0.00     0.010 C 
ATOM      4  C   UNL     1     -20.112 -10.772   0.869  1.00  0.00    -0.003 C 
ATOM      5  C   UNL     1     -19.139 -11.600   1.782  1.00  0.00     0.008 C 
ATOM      6  C   UNL     1     -18.355 -10.793   2.905  1.00  0.00    -0.000 C 
ATOM      7  C   UNL     1     -17.124 -11.553   3.440  1.00  0.00     0.005 C 
ATOM      8  C   UNL     1     -16.214 -10.745   4.380  1.00  0.00     0.005 C 
ATOM      9  C   UNL     1     -16.877  -9.521   5.076  1.00  0.00     0.002 C 
ATOM     10  C   UNL     1     -15.870  -8.809   6.125  1.00  0.00    -0.026 C 
ATOM     11  C   UNL     1     -14.381  -8.811   5.622  1.00  0.00     0.010 C 
ATOM     12  C   UNL     1     -13.389  -8.032   6.505  1.00  0.00     0.033 C 
ATOM     13  C   UNL     1     -13.840  -6.581   6.775  1.00  0.00     0.120 C 
ATOM     14  C   UNL     1     -15.275  -6.495   7.376  1.00  0.00    -0.006 C 
ATOM     15  C   UNL     1     -16.286  -7.305   6.442  1.00  0.00     0.003 C 
ATOM     16  C   UNL     1     -16.627  -6.483   5.148  1.00  0.00     0.005 C 
ATOM     17  C   UNL     1     -16.885  -7.277   3.867  1.00  0.00     0.008 C 
ATOM     18  C   UNL     1     -17.689  -8.576   4.082  1.00  0.00    -0.024 C 
ATOM     19  C   UNL     1     -18.017  -9.284   2.650  1.00  0.00    -0.024 C 
ATOM     20  C   UNL     1     -19.245  -8.609   1.950  1.00  0.00     0.008 C 
ATOM     21  C   UNL     1     -19.643  -9.305   0.650  1.00  0.00     0.010 C 
ATOM     22  C   UNL     1     -16.808  -9.163   1.655  1.00  0.00     0.012 C 
ATOM     23  C   UNL     1     -19.032  -8.184   4.800  1.00  0.00     0.012 C 
ATOM     24  C   UNL     1     -15.697  -4.993   7.474  1.00  0.00     0.014 C 
ATOM     25  C   UNL     1     -15.294  -7.011   8.848  1.00  0.00     0.014 C 
ATOM     26  C   UNL     1     -15.955  -9.680   7.429  1.00  0.00     0.012 C 
ENDROOT
BRANCH   1  27
ATOM     27  C   UNL     1     -17.813 -13.822   1.391  1.00  0.00    -0.077 C 
ATOM     28  C   UNL     1     -16.398 -14.251   1.095  1.00  0.00     0.039 C 
ATOM     29  C   UNL     1     -18.579 -14.634   2.140  1.00  0.00     0.008 C 
ENDBRANCH   1  27
BRANCH   4  30
ATOM     30  C   UNL     1     -21.553 -10.776   1.464  1.00  0.00     0.163 C 
BRANCH  30  31
ATOM     31  O   UNL     1     -21.545 -11.229   2.793  1.00  0.00    -0.396 OA
ATOM     32  H   UNL     1     -22.385 -10.892   3.207  1.00  0.00     0.210 HD
ENDBRANCH  30  31
ENDBRANCH   4  30
BRANCH  13  33
ATOM     33  O   UNL     1     -12.914  -5.885   7.577  1.00  0.00    -0.393 OA
ATOM     34  H   UNL     1     -12.027  -5.890   7.129  1.00  0.00     0.210 HD
ENDBRANCH  13  33
TORSDOF 4
ENDMDL
MODEL 4
REMARK VINA RESULT:    -6.395      2.939      8.251
REMARK INTER + INTRA:          -8.127
REMARK INTER:                  -7.572
REMARK INTRA:                  -0.555
REMARK UNBOUND:                -0.611
REMARK SMILES C=C(C)[C@H]1CC[C@]2(CO)CC[C@]3(C)[C@H](CC[C@H]4[C@@]5(C)CC[C@H](O)C(C)(C)[C@H]5CC[C@]43C)[C@H]12
REMARK SMILES IDX 4 1 5 2 6 3 7 4 32 5 14 6 15 7 16 8 17 9 18 10 20 11 21 12
REMARK SMILES IDX 22 13 24 14 27 15 28 16 29 17 30 18 12 19 11 20 10 21 13 22
REMARK SMILES IDX 31 23 25 24 26 25 19 26 2 27 3 28 1 29 8 30 9 31 23 33
REMARK H PARENT 9 32 23 34
REMARK Flexibility Score: inf
ROOT
ATOM      1  C   UNL     1      -7.091 -19.261  14.861  1.00  0.00     0.018 C 
ATOM      2  C   UNL     1      -6.022 -18.580  15.713  1.00  0.00     0.009 C 
ATOM      3  C   UNL     1      -6.771 -17.604  16.607  1.00  0.00     0.010 C 
ATOM      4  C   UNL     1      -8.093 -17.231  15.871  1.00  0.00    -0.003 C 
ATOM      5  C   UNL     1      -8.151 -18.158  14.604  1.00  0.00     0.008 C 
ATOM      6  C   UNL     1      -9.596 -18.579  14.093  1.00  0.00    -0.000 C 
ATOM      7  C   UNL     1      -9.568 -19.810  13.164  1.00  0.00     0.005 C 
ATOM      8  C   UNL     1     -10.946 -20.385  12.798  1.00  0.00     0.005 C 
ATOM      9  C   UNL     1     -12.147 -19.407  12.944  1.00  0.00     0.002 C 
ATOM     10  C   UNL     1     -13.530 -20.073  12.429  1.00  0.00    -0.026 C 
ATOM     11  C   UNL     1     -13.621 -21.604  12.771  1.00  0.00     0.010 C 
ATOM     12  C   UNL     1     -14.965 -22.273  12.431  1.00  0.00     0.033 C 
ATOM     13  C   UNL     1     -16.174 -21.535  13.046  1.00  0.00     0.120 C 
ATOM     14  C   UNL     1     -16.216 -20.024  12.668  1.00  0.00    -0.006 C 
ATOM     15  C   UNL     1     -14.815 -19.350  13.033  1.00  0.00     0.003 C 
ATOM     16  C   UNL     1     -14.702 -19.104  14.580  1.00  0.00     0.005 C 
ATOM     17  C   UNL     1     -13.311 -19.219  15.204  1.00  0.00     0.008 C 
ATOM     18  C   UNL     1     -12.180 -18.629  14.335  1.00  0.00    -0.024 C 
ATOM     19  C   UNL     1     -10.760 -18.688  15.136  1.00  0.00    -0.024 C 
ATOM     20  C   UNL     1     -10.632 -17.503  16.152  1.00  0.00     0.008 C 
ATOM     21  C   UNL     1      -9.276 -17.468  16.853  1.00  0.00     0.010 C 
ATOM     22  C   UNL     1     -10.619 -20.012  15.966  1.00  0.00     0.012 C 
ATOM     23  C   UNL     1     -12.556 -17.133  14.028  1.00  0.00     0.012 C 
ATOM     24  C   UNL     1     -17.379 -19.335  13.453  1.00  0.00     0.014 C 
ATOM     25  C   UNL     1     -16.583 -19.836  11.164  1.00  0.00     0.014 C 
ATOM     26  C   UNL     1     -13.504 -19.912  10.867  1.00  0.00     0.012 C 
ENDROOT
BRANCH   1  27
ATOM     27  C   UNL     1      -6.467 -19.900  13.614  1.00  0.00    -0.077 C 
ATOM     28  C   UNL     1      -6.308 -21.398  13.547  1.00  0.00     0.039 C 
ATOM     29  C   UNL     1      -6.024 -19.167  12.576  1.00  0.00     0.008 C 
ENDBRANCH   1  27
BRANCH   4  30
ATOM     30  C   UNL     1      -8.059 -15.732  15.447  1.00  0.00     0.163 C 
BRANCH  30  31
ATOM     31  O   UNL     1      -8.072 -14.892  16.572  1.00  0.00    -0.396 OA
ATOM     32  H   UNL     1      -8.668 -15.329  17.238  1.00  0.00     0.210 HD
ENDBRANCH  30  31
ENDBRANCH   4  30
BRANCH  13  33
ATOM     33  O   UNL     1     -17.391 -22.169  12.731  1.00  0.00    -0.393 OA
ATOM     34  H   UNL     1     -18.133 -21.702  13.201  1.00  0.00     0.210 HD
ENDBRANCH  13  33
TORSDOF 4
ENDMDL
MODEL 5
REMARK VINA RESULT:    -6.342     11.802     14.007
REMARK INTER + INTRA:          -8.065
REMARK INTER:                  -7.601
REMARK INTRA:                  -0.464
REMARK UNBOUND:                -0.611
REMARK SMILES C=C(C)[C@H]1CC[C@]2(CO)CC[C@]3(C)[C@H](CC[C@H]4[C@@]5(C)CC[C@H](O)C(C)(C)[C@H]5CC[C@]43C)[C@H]12
REMARK SMILES IDX 4 1 5 2 6 3 7 4 32 5 14 6 15 7 16 8 17 9 18 10 20 11 21 12
REMARK SMILES IDX 22 13 24 14 27 15 28 16 29 17 30 18 12 19 11 20 10 21 13 22
REMARK SMILES IDX 31 23 25 24 26 25 19 26 2 27 3 28 1 29 8 30 9 31 23 33
REMARK H PARENT 9 32 23 34
REMARK Flexibility Score: inf
ROOT
ATOM      1  C   UNL     1     -18.390  -9.018   0.940  1.00  0.00     0.018 C 
ATOM      2  C   UNL     1     -19.578  -9.700   0.265  1.00  0.00     0.009 C 
ATOM      3  C   UNL     1     -20.364 -10.359   1.387  1.00  0.00     0.010 C 
ATOM      4  C   UNL     1     -19.362 -10.635   2.548  1.00  0.00    -0.003 C 
ATOM      5  C   UNL     1     -18.013  -9.958   2.115  1.00  0.00     0.008 C 
ATOM      6  C   UNL     1     -17.086  -9.402   3.281  1.00  0.00    -0.000 C 
ATOM      7  C   UNL     1     -16.042  -8.383   2.783  1.00  0.00     0.005 C 
ATOM      8  C   UNL     1     -15.251  -7.663   3.888  1.00  0.00     0.005 C 
ATOM      9  C   UNL     1     -15.204  -8.385   5.265  1.00  0.00     0.002 C 
ATOM     10  C   UNL     1     -14.258  -7.603   6.322  1.00  0.00    -0.026 C 
ATOM     11  C   UNL     1     -14.355  -6.042   6.171  1.00  0.00     0.010 C 
ATOM     12  C   UNL     1     -13.586  -5.232   7.230  1.00  0.00     0.033 C 
ATOM     13  C   UNL     1     -13.953  -5.634   8.675  1.00  0.00     0.120 C 
ATOM     14  C   UNL     1     -13.784  -7.160   8.939  1.00  0.00    -0.006 C 
ATOM     15  C   UNL     1     -14.592  -7.980   7.832  1.00  0.00     0.003 C 
ATOM     16  C   UNL     1     -16.133  -7.956   8.138  1.00  0.00     0.005 C 
ATOM     17  C   UNL     1     -17.080  -7.963   6.938  1.00  0.00     0.008 C 
ATOM     18  C   UNL     1     -16.629  -8.880   5.783  1.00  0.00    -0.024 C 
ATOM     19  C   UNL     1     -17.760  -8.914   4.609  1.00  0.00    -0.024 C 
ATOM     20  C   UNL     1     -18.924  -9.898   4.969  1.00  0.00     0.008 C 
ATOM     21  C   UNL     1     -19.956 -10.030   3.852  1.00  0.00     0.010 C 
ATOM     22  C   UNL     1     -18.413  -7.502   4.395  1.00  0.00     0.012 C 
ATOM     23  C   UNL     1     -16.436 -10.323   6.377  1.00  0.00     0.012 C 
ATOM     24  C   UNL     1     -14.318  -7.492  10.370  1.00  0.00     0.014 C 
ATOM     25  C   UNL     1     -12.275  -7.555   8.975  1.00  0.00     0.014 C 
ATOM     26  C   UNL     1     -12.794  -8.047   5.965  1.00  0.00     0.012 C 
ENDROOT
BRANCH   1  27
ATOM     27  C   UNL     1     -17.278  -8.729  -0.076  1.00  0.00    -0.077 C 
ATOM     28  C   UNL     1     -16.420  -9.863  -0.580  1.00  0.00     0.039 C 
ATOM     29  C   UNL     1     -17.014  -7.488  -0.520  1.00  0.00     0.008 C 
ENDBRANCH   1  27
BRANCH   4  30
ATOM     30  C   UNL     1     -19.167 -12.171   2.726  1.00  0.00     0.163 C 
BRANCH  30  31
ATOM     31  O   UNL     1     -20.107 -12.694   3.628  1.00  0.00    -0.396 OA
ATOM     32  H   UNL     1     -20.341 -11.952   4.248  1.00  0.00     0.210 HD
ENDBRANCH  30  31
ENDBRANCH   4  30
BRANCH  13  33
ATOM     33  O   UNL     1     -13.246  -4.875   9.627  1.00  0.00    -0.393 OA
ATOM     34  H   UNL     1     -13.888  -4.503  10.289  1.00  0.00     0.210 HD
ENDBRANCH  13  33
TORSDOF 4
ENDMDL
MODEL 6
REMARK VINA RESULT:    -6.202     10.686     13.215
REMARK INTER + INTRA:          -7.900
REMARK INTER:                  -7.399
REMARK INTRA:                  -0.501
REMARK UNBOUND:                -0.611
REMARK SMILES C=C(C)[C@H]1CC[C@]2(CO)CC[C@]3(C)[C@H](CC[C@H]4[C@@]5(C)CC[C@H](O)C(C)(C)[C@H]5CC[C@]43C)[C@H]12
REMARK SMILES IDX 4 1 5 2 6 3 7 4 32 5 14 6 15 7 16 8 17 9 18 10 20 11 21 12
REMARK SMILES IDX 22 13 24 14 27 15 28 16 29 17 30 18 12 19 11 20 10 21 13 22
REMARK SMILES IDX 31 23 25 24 26 25 19 26 2 27 3 28 1 29 8 30 9 31 23 33
REMARK H PARENT 9 32 23 34
REMARK Flexibility Score: inf
ROOT
ATOM      1  C   UNL     1     -17.562  -8.655   3.494  1.00  0.00     0.018 C 
ATOM      2  C   UNL     1     -17.636  -8.824   1.978  1.00  0.00     0.009 C 
ATOM      3  C   UNL     1     -16.259  -8.446   1.456  1.00  0.00     0.010 C 
ATOM      4  C   UNL     1     -15.627  -7.472   2.496  1.00  0.00    -0.003 C 
ATOM      5  C   UNL     1     -16.623  -7.440   3.709  1.00  0.00     0.008 C 
ATOM      6  C   UNL     1     -15.989  -7.198   5.147  1.00  0.00    -0.000 C 
ATOM      7  C   UNL     1     -16.929  -7.621   6.295  1.00  0.00     0.005 C 
ATOM      8  C   UNL     1     -16.299  -7.598   7.698  1.00  0.00     0.005 C 
ATOM      9  C   UNL     1     -15.045  -6.692   7.861  1.00  0.00     0.002 C 
ATOM     10  C   UNL     1     -14.529  -6.653   9.395  1.00  0.00    -0.026 C 
ATOM     11  C   UNL     1     -14.689  -8.039  10.117  1.00  0.00     0.010 C 
ATOM     12  C   UNL     1     -14.095  -8.113  11.536  1.00  0.00     0.033 C 
ATOM     13  C   UNL     1     -12.617  -7.671  11.590  1.00  0.00     0.120 C 
ATOM     14  C   UNL     1     -12.386  -6.254  10.985  1.00  0.00    -0.006 C 
ATOM     15  C   UNL     1     -13.006  -6.203   9.513  1.00  0.00     0.003 C 
ATOM     16  C   UNL     1     -12.073  -6.944   8.491  1.00  0.00     0.005 C 
ATOM     17  C   UNL     1     -12.750  -7.663   7.324  1.00  0.00     0.008 C 
ATOM     18  C   UNL     1     -13.948  -6.898   6.723  1.00  0.00    -0.024 C 
ATOM     19  C   UNL     1     -14.523  -7.682   5.414  1.00  0.00    -0.024 C 
ATOM     20  C   UNL     1     -13.659  -7.377   4.144  1.00  0.00     0.008 C 
ATOM     21  C   UNL     1     -14.220  -8.017   2.876  1.00  0.00     0.010 C 
ATOM     22  C   UNL     1     -14.496  -9.239   5.614  1.00  0.00     0.012 C 
ATOM     23  C   UNL     1     -13.433  -5.472   6.305  1.00  0.00     0.012 C 
ATOM     24  C   UNL     1     -10.852  -5.959  10.947  1.00  0.00     0.014 C 
ATOM     25  C   UNL     1     -12.983  -5.150  11.910  1.00  0.00     0.014 C 
ATOM     26  C   UNL     1     -15.458  -5.609  10.112  1.00  0.00     0.012 C 
ENDROOT
BRANCH   1  27
ATOM     27  C   UNL     1     -18.967  -8.536   4.098  1.00  0.00    -0.077 C 
ATOM     28  C   UNL     1     -19.625  -9.755   4.695  1.00  0.00     0.039 C 
ATOM     29  C   UNL     1     -19.658  -7.382   4.089  1.00  0.00     0.008 C 
ENDBRANCH   1  27
BRANCH   4  30
ATOM     30  C   UNL     1     -15.484  -6.051   1.871  1.00  0.00     0.163 C 
BRANCH  30  31
ATOM     31  O   UNL     1     -16.160  -5.973   0.643  1.00  0.00    -0.396 OA
ATOM     32  H   UNL     1     -16.019  -6.848   0.192  1.00  0.00     0.210 HD
ENDBRANCH  30  31
ENDBRANCH   4  30
BRANCH  13  33
ATOM     33  O   UNL     1     -12.092  -7.755  12.894  1.00  0.00    -0.393 OA
ATOM     34  H   UNL     1     -11.143  -7.458  12.882  1.00  0.00     0.210 HD
ENDBRANCH  13  33
TORSDOF 4
ENDMDL
MODEL 7
REMARK VINA RESULT:    -6.190     13.436     16.136
REMARK INTER + INTRA:          -7.887
REMARK INTER:                  -7.253
REMARK INTRA:                  -0.633
REMARK UNBOUND:                -0.611
REMARK SMILES C=C(C)[C@H]1CC[C@]2(CO)CC[C@]3(C)[C@H](CC[C@H]4[C@@]5(C)CC[C@H](O)C(C)(C)[C@H]5CC[C@]43C)[C@H]12
REMARK SMILES IDX 4 1 5 2 6 3 7 4 32 5 14 6 15 7 16 8 17 9 18 10 20 11 21 12
REMARK SMILES IDX 22 13 24 14 27 15 28 16 29 17 30 18 12 19 11 20 10 21 13 22
REMARK SMILES IDX 31 23 25 24 26 25 19 26 2 27 3 28 1 29 8 30 9 31 23 33
REMARK H PARENT 9 32 23 34
REMARK Flexibility Score: inf
ROOT
ATOM      1  C   UNL     1     -16.540 -18.908  -0.351  1.00  0.00     0.018 C 
ATOM      2  C   UNL     1     -15.917 -20.185   0.209  1.00  0.00     0.009 C 
ATOM      3  C   UNL     1     -15.575 -19.874   1.657  1.00  0.00     0.010 C 
ATOM      4  C   UNL     1     -15.374 -18.332   1.759  1.00  0.00    -0.003 C 
ATOM      5  C   UNL     1     -15.778 -17.757   0.355  1.00  0.00     0.008 C 
ATOM      6  C   UNL     1     -16.398 -16.293   0.334  1.00  0.00    -0.000 C 
ATOM      7  C   UNL     1     -17.165 -15.986  -0.969  1.00  0.00     0.005 C 
ATOM      8  C   UNL     1     -17.954 -14.665  -0.968  1.00  0.00     0.005 C 
ATOM      9  C   UNL     1     -17.483 -13.598   0.062  1.00  0.00     0.002 C 
ATOM     10  C   UNL     1     -18.303 -12.211  -0.094  1.00  0.00    -0.026 C 
ATOM     11  C   UNL     1     -19.813 -12.445  -0.463  1.00  0.00     0.010 C 
ATOM     12  C   UNL     1     -20.684 -11.177  -0.496  1.00  0.00     0.033 C 
ATOM     13  C   UNL     1     -20.594 -10.353   0.807  1.00  0.00     0.120 C 
ATOM     14  C   UNL     1     -19.128  -9.987   1.190  1.00  0.00    -0.006 C 
ATOM     15  C   UNL     1     -18.244 -11.317   1.223  1.00  0.00     0.003 C 
ATOM     16  C   UNL     1     -18.528 -12.142   2.528  1.00  0.00     0.005 C 
ATOM     17  C   UNL     1     -18.440 -13.665   2.424  1.00  0.00     0.008 C 
ATOM     18  C   UNL     1     -17.283 -14.169   1.537  1.00  0.00    -0.024 C 
ATOM     19  C   UNL     1     -17.197 -15.797   1.587  1.00  0.00    -0.024 C 
ATOM     20  C   UNL     1     -16.457 -16.288   2.877  1.00  0.00     0.008 C 
ATOM     21  C   UNL     1     -16.272 -17.803   2.915  1.00  0.00     0.010 C 
ATOM     22  C   UNL     1     -18.625 -16.450   1.611  1.00  0.00     0.012 C 
ATOM     23  C   UNL     1     -15.953 -13.550   2.103  1.00  0.00     0.012 C 
ATOM     24  C   UNL     1     -19.126  -9.290   2.589  1.00  0.00     0.014 C 
ATOM     25  C   UNL     1     -18.546  -8.921   0.212  1.00  0.00     0.014 C 
ATOM     26  C   UNL     1     -17.611 -11.460  -1.288  1.00  0.00     0.012 C 
ENDROOT
BRANCH   1  27
ATOM     27  C   UNL     1     -16.494 -18.907  -1.884  1.00  0.00    -0.077 C 
ATOM     28  C   UNL     1     -17.756 -19.180  -2.665  1.00  0.00     0.039 C 
ATOM     29  C   UNL     1     -15.356 -18.699  -2.569  1.00  0.00     0.008 C 
ENDBRANCH   1  27
BRANCH   4  30
ATOM     30  C   UNL     1     -13.881 -18.011   2.070  1.00  0.00     0.163 C 
BRANCH  30  31
ATOM     31  O   UNL     1     -13.170 -17.742   0.890  1.00  0.00    -0.396 OA
ATOM     32  H   UNL     1     -12.522 -17.021   1.114  1.00  0.00     0.210 HD
ENDBRANCH  30  31
ENDBRANCH   4  30
BRANCH  13  33
ATOM     33  O   UNL     1     -21.405  -9.203   0.759  1.00  0.00    -0.393 OA
ATOM     34  H   UNL     1     -20.910  -8.474   0.298  1.00  0.00     0.210 HD
ENDBRANCH  13  33
TORSDOF 4
ENDMDL
MODEL 8
REMARK VINA RESULT:    -6.181      3.991      6.113
REMARK INTER + INTRA:          -7.875
REMARK INTER:                  -7.473
REMARK INTRA:                  -0.403
REMARK UNBOUND:                -0.611
REMARK SMILES C=C(C)[C@H]1CC[C@]2(CO)CC[C@]3(C)[C@H](CC[C@H]4[C@@]5(C)CC[C@H](O)C(C)(C)[C@H]5CC[C@]43C)[C@H]12
REMARK SMILES IDX 4 1 5 2 6 3 7 4 32 5 14 6 15 7 16 8 17 9 18 10 20 11 21 12
REMARK SMILES IDX 22 13 24 14 27 15 28 16 29 17 30 18 12 19 11 20 10 21 13 22
REMARK SMILES IDX 31 23 25 24 26 25 19 26 2 27 3 28 1 29 8 30 9 31 23 33
REMARK H PARENT 9 32 23 34
REMARK Flexibility Score: inf
ROOT
ATOM      1  C   UNL     1     -15.574 -19.477  13.233  1.00  0.00     0.018 C 
ATOM      2  C   UNL     1     -16.831 -20.294  12.943  1.00  0.00     0.009 C 
ATOM      3  C   UNL     1     -16.347 -21.710  12.672  1.00  0.00     0.010 C 
ATOM      4  C   UNL     1     -14.878 -21.600  12.161  1.00  0.00    -0.003 C 
ATOM      5  C   UNL     1     -14.487 -20.087  12.310  1.00  0.00     0.008 C 
ATOM      6  C   UNL     1     -12.958 -19.770  12.605  1.00  0.00    -0.000 C 
ATOM      7  C   UNL     1     -12.737 -18.353  13.173  1.00  0.00     0.005 C 
ATOM      8  C   UNL     1     -11.310 -18.060  13.663  1.00  0.00     0.005 C 
ATOM      9  C   UNL     1     -10.192 -18.965  13.070  1.00  0.00     0.002 C 
ATOM     10  C   UNL     1      -8.721 -18.503  13.563  1.00  0.00    -0.026 C 
ATOM     11  C   UNL     1      -8.719 -17.995  15.050  1.00  0.00     0.010 C 
ATOM     12  C   UNL     1      -7.331 -17.665  15.629  1.00  0.00     0.033 C 
ATOM     13  C   UNL     1      -6.328 -18.830  15.481  1.00  0.00     0.120 C 
ATOM     14  C   UNL     1      -6.192 -19.328  14.011  1.00  0.00    -0.006 C 
ATOM     15  C   UNL     1      -7.642 -19.667  13.433  1.00  0.00     0.003 C 
ATOM     16  C   UNL     1      -8.158 -21.039  13.997  1.00  0.00     0.005 C 
ATOM     17  C   UNL     1      -9.664 -21.177  14.222  1.00  0.00     0.008 C 
ATOM     18  C   UNL     1     -10.528 -20.523  13.124  1.00  0.00    -0.024 C 
ATOM     19  C   UNL     1     -12.108 -20.829  13.388  1.00  0.00    -0.024 C 
ATOM     20  C   UNL     1     -12.502 -22.258  12.883  1.00  0.00     0.008 C 
ATOM     21  C   UNL     1     -13.995 -22.546  13.025  1.00  0.00     0.010 C 
ATOM     22  C   UNL     1     -12.459 -20.778  14.917  1.00  0.00     0.012 C 
ATOM     23  C   UNL     1     -10.088 -21.145  11.748  1.00  0.00     0.012 C 
ATOM     24  C   UNL     1      -5.278 -20.595  13.985  1.00  0.00     0.014 C 
ATOM     25  C   UNL     1      -5.443 -18.277  13.135  1.00  0.00     0.014 C 
ATOM     26  C   UNL     1      -8.335 -17.302  12.627  1.00  0.00     0.012 C 
ENDROOT
BRANCH   1  27
ATOM     27  C   UNL     1     -15.847 -17.978  13.054  1.00  0.00    -0.077 C 
ATOM     28  C   UNL     1     -16.245 -17.452  11.698  1.00  0.00     0.039 C 
ATOM     29  C   UNL     1     -15.715 -17.098  14.063  1.00  0.00     0.008 C 
ENDBRANCH   1  27
BRANCH   4  30
ATOM     30  C   UNL     1     -14.804 -22.038  10.667  1.00  0.00     0.163 C 
BRANCH  30  31
ATOM     31  O   UNL     1     -16.034 -21.834  10.023  1.00  0.00    -0.396 OA
ATOM     32  H   UNL     1     -15.831 -21.756   9.052  1.00  0.00     0.210 HD
ENDBRANCH  30  31
ENDBRANCH   4  30
BRANCH  13  33
ATOM     33  O   UNL     1      -5.069 -18.511  16.025  1.00  0.00    -0.393 OA
ATOM     34  H   UNL     1      -4.970 -17.522  16.059  1.00  0.00     0.210 HD
ENDBRANCH  13  33
TORSDOF 4
ENDMDL
MODEL 9
REMARK VINA RESULT:    -6.062     13.165     16.555
REMARK INTER + INTRA:          -7.736
REMARK INTER:                  -7.114
REMARK INTRA:                  -0.622
REMARK UNBOUND:                -0.611
REMARK SMILES C=C(C)[C@H]1CC[C@]2(CO)CC[C@]3(C)[C@H](CC[C@H]4[C@@]5(C)CC[C@H](O)C(C)(C)[C@H]5CC[C@]43C)[C@H]12
REMARK SMILES IDX 4 1 5 2 6 3 7 4 32 5 14 6 15 7 16 8 17 9 18 10 20 11 21 12
REMARK SMILES IDX 22 13 24 14 27 15 28 16 29 17 30 18 12 19 11 20 10 21 13 22
REMARK SMILES IDX 31 23 25 24 26 25 19 26 2 27 3 28 1 29 8 30 9 31 23 33
REMARK H PARENT 9 32 23 34
REMARK Flexibility Score: inf
ROOT
ATOM      1  C   UNL     1     -16.592  -9.648   5.861  1.00  0.00     0.018 C 
ATOM      2  C   UNL     1     -16.697  -8.380   6.704  1.00  0.00     0.009 C 
ATOM      3  C   UNL     1     -17.581  -7.431   5.909  1.00  0.00     0.010 C 
ATOM      4  C   UNL     1     -17.448  -7.831   4.409  1.00  0.00    -0.003 C 
ATOM      5  C   UNL     1     -16.589  -9.146   4.393  1.00  0.00     0.008 C 
ATOM      6  C   UNL     1     -16.887 -10.179   3.223  1.00  0.00    -0.000 C 
ATOM      7  C   UNL     1     -16.352 -11.594   3.522  1.00  0.00     0.005 C 
ATOM      8  C   UNL     1     -16.781 -12.681   2.522  1.00  0.00     0.005 C 
ATOM      9  C   UNL     1     -17.218 -12.173   1.118  1.00  0.00     0.002 C 
ATOM     10  C   UNL     1     -17.542 -13.398   0.110  1.00  0.00    -0.026 C 
ATOM     11  C   UNL     1     -18.228 -14.609   0.839  1.00  0.00     0.010 C 
ATOM     12  C   UNL     1     -18.686 -15.754  -0.081  1.00  0.00     0.033 C 
ATOM     13  C   UNL     1     -19.588 -15.271  -1.236  1.00  0.00     0.120 C 
ATOM     14  C   UNL     1     -18.934 -14.135  -2.079  1.00  0.00    -0.006 C 
ATOM     15  C   UNL     1     -18.472 -12.956  -1.105  1.00  0.00     0.003 C 
ATOM     16  C   UNL     1     -19.704 -12.098  -0.646  1.00  0.00     0.005 C 
ATOM     17  C   UNL     1     -19.650 -11.498   0.759  1.00  0.00     0.008 C 
ATOM     18  C   UNL     1     -18.260 -10.966   1.165  1.00  0.00    -0.024 C 
ATOM     19  C   UNL     1     -18.333 -10.239   2.623  1.00  0.00    -0.024 C 
ATOM     20  C   UNL     1     -18.885  -8.779   2.502  1.00  0.00     0.008 C 
ATOM     21  C   UNL     1     -18.879  -8.031   3.834  1.00  0.00     0.010 C 
ATOM     22  C   UNL     1     -19.292 -11.005   3.602  1.00  0.00     0.012 C 
ATOM     23  C   UNL     1     -17.819  -9.924   0.073  1.00  0.00     0.012 C 
ATOM     24  C   UNL     1     -19.974 -13.611  -3.122  1.00  0.00     0.014 C 
ATOM     25  C   UNL     1     -17.753 -14.686  -2.935  1.00  0.00     0.014 C 
ATOM     26  C   UNL     1     -16.141 -13.868  -0.424  1.00  0.00     0.012 C 
ENDROOT
BRANCH   1  27
ATOM     27  C   UNL     1     -15.380 -10.486   6.288  1.00  0.00    -0.077 C 
ATOM     28  C   UNL     1     -13.994 -10.049   5.883  1.00  0.00     0.039 C 
ATOM     29  C   UNL     1     -15.506 -11.625   6.992  1.00  0.00     0.008 C 
ENDBRANCH   1  27
BRANCH   4  30
ATOM     30  C   UNL     1     -16.723  -6.698   3.621  1.00  0.00     0.163 C 
BRANCH  30  31
ATOM     31  O   UNL     1     -15.343  -6.946   3.541  1.00  0.00    -0.396 OA
ATOM     32  H   UNL     1     -15.241  -7.934   3.483  1.00  0.00     0.210 HD
ENDBRANCH  30  31
ENDBRANCH   4  30
BRANCH  13  33
ATOM     33  O   UNL     1     -20.003 -16.335  -2.060  1.00  0.00    -0.393 OA
ATOM     34  H   UNL     1     -19.219 -16.682  -2.563  1.00  0.00     0.210 HD
ENDBRANCH  13  33
TORSDOF 4
ENDMDL
