MODEL 1
REMARK VINA RESULT:    -4.170      0.000      0.000
REMARK INTER + INTRA:          -4.894
REMARK INTER:                  -5.024
REMARK INTRA:                   0.129
REMARK UNBOUND:                 0.129
REMARK SMILES CC[C@@H](C)[C@H]([NH3+])C(=O)[O-]
REMARK SMILES IDX 3 1 4 2 5 3 6 4 7 8 8 9 9 10 2 11 1 12
REMARK H PARENT 6 5 6 6 6 7
REMARK Flexibility Score: inf
ROOT
ATOM      1  C   UNL     1      53.066  38.512  -4.980  1.00  0.00     0.050 C 
ATOM      2  C   UNL     1      52.732  37.544  -3.829  1.00  0.00     0.014 C 
ENDROOT
BRANCH   1   3
ATOM      3  C   UNL     1      54.603  38.673  -5.212  1.00  0.00     0.230 C 
BRANCH   3   4
ATOM      4  N   UNL     1      55.125  39.966  -4.740  1.00  0.00    -0.350 N 
ATOM      5  H   UNL     1      54.868  40.728  -5.407  1.00  0.00     0.345 HD
ATOM      6  H   UNL     1      56.163  39.939  -4.621  1.00  0.00     0.345 HD
ATOM      7  H   UNL     1      54.691  40.202  -3.817  1.00  0.00     0.345 HD
ENDBRANCH   3   4
BRANCH   3   8
ATOM      8  C   UNL     1      54.960  38.441  -6.660  1.00  0.00     0.099 C 
ATOM      9  O   UNL     1      55.069  39.407  -7.463  1.00  0.00    -0.544 OA
ATOM     10  O   UNL     1      55.125  37.144  -7.128  1.00  0.00    -0.544 OA
ENDBRANCH   3   8
ENDBRANCH   1   3
BRANCH   1  11
ATOM     11  C   UNL     1      52.284  38.088  -6.249  1.00  0.00     0.006 C 
ATOM     12  C   UNL     1      51.675  36.690  -6.150  1.00  0.00     0.004 C 
ENDBRANCH   1  11
TORSDOF 4
ENDMDL
MODEL 2
REMARK VINA RESULT:    -4.162      2.114      2.747
REMARK INTER + INTRA:          -4.884
REMARK INTER:                  -4.758
REMARK INTRA:                  -0.126
REMARK UNBOUND:                 0.129
REMARK SMILES CC[C@@H](C)[C@H]([NH3+])C(=O)[O-]
REMARK SMILES IDX 3 1 4 2 5 3 6 4 7 8 8 9 9 10 2 11 1 12
REMARK H PARENT 6 5 6 6 6 7
REMARK Flexibility Score: inf
ROOT
ATOM      1  C   UNL     1      52.493  36.259  -6.157  1.00  0.00     0.050 C 
ATOM      2  C   UNL     1      51.429  37.363  -6.306  1.00  0.00     0.014 C 
ENDROOT
BRANCH   1   3
ATOM      3  C   UNL     1      53.616  36.631  -5.136  1.00  0.00     0.230 C 
BRANCH   3   4
ATOM      4  N   UNL     1      53.093  36.975  -3.804  1.00  0.00    -0.350 N 
ATOM      5  H   UNL     1      53.783  37.559  -3.281  1.00  0.00     0.345 HD
ATOM      6  H   UNL     1      52.867  36.118  -3.249  1.00  0.00     0.345 HD
ATOM      7  H   UNL     1      52.220  37.542  -3.907  1.00  0.00     0.345 HD
ENDBRANCH   3   4
BRANCH   3   8
ATOM      8  C   UNL     1      54.494  37.734  -5.674  1.00  0.00     0.099 C 
ATOM      9  O   UNL     1      55.125  37.591  -6.757  1.00  0.00    -0.544 OA
ATOM     10  O   UNL     1      54.648  38.907  -4.947  1.00  0.00    -0.544 OA
ENDBRANCH   3   8
ENDBRANCH   1   3
BRANCH   1  11
ATOM     11  C   UNL     1      51.792  34.911  -5.851  1.00  0.00     0.006 C 
ATOM     12  C   UNL     1      52.767  33.760  -5.602  1.00  0.00     0.004 C 
ENDBRANCH   1  11
TORSDOF 4
ENDMDL
MODEL 3
REMARK VINA RESULT:    -4.044      2.528      3.137
REMARK INTER + INTRA:          -4.742
REMARK INTER:                  -4.682
REMARK INTRA:                  -0.060
REMARK UNBOUND:                 0.129
REMARK SMILES CC[C@@H](C)[C@H]([NH3+])C(=O)[O-]
REMARK SMILES IDX 3 1 4 2 5 3 6 4 7 8 8 9 9 10 2 11 1 12
REMARK H PARENT 6 5 6 6 6 7
REMARK Flexibility Score: inf
ROOT
ATOM      1  C   UNL     1      52.984  36.476  -5.800  1.00  0.00     0.050 C 
ATOM      2  C   UNL     1      53.984  36.400  -6.969  1.00  0.00     0.014 C 
ENDROOT
BRANCH   1   3
ATOM      3  C   UNL     1      52.580  37.942  -5.440  1.00  0.00     0.230 C 
BRANCH   3   4
ATOM      4  N   UNL     1      52.553  38.836  -6.610  1.00  0.00    -0.350 N 
ATOM      5  H   UNL     1      51.575  38.954  -6.955  1.00  0.00     0.345 HD
ATOM      6  H   UNL     1      53.157  38.473  -7.382  1.00  0.00     0.345 HD
ATOM      7  H   UNL     1      52.902  39.783  -6.333  1.00  0.00     0.345 HD
ENDBRANCH   3   4
BRANCH   3   8
ATOM      8  C   UNL     1      53.468  38.498  -4.354  1.00  0.00     0.099 C 
ATOM      9  O   UNL     1      53.140  38.408  -3.139  1.00  0.00    -0.544 OA
ATOM     10  O   UNL     1      54.640  39.161  -4.695  1.00  0.00    -0.544 OA
ENDBRANCH   3   8
ENDBRANCH   1   3
BRANCH   1  11
ATOM     11  C   UNL     1      51.778  35.551  -6.098  1.00  0.00     0.006 C 
ATOM     12  C   UNL     1      51.995  34.104  -5.655  1.00  0.00     0.004 C 
ENDBRANCH   1  11
TORSDOF 4
ENDMDL
MODEL 4
REMARK VINA RESULT:    -4.036      2.615      3.688
REMARK INTER + INTRA:          -4.732
REMARK INTER:                  -4.730
REMARK INTRA:                  -0.003
REMARK UNBOUND:                 0.129
REMARK SMILES CC[C@@H](C)[C@H]([NH3+])C(=O)[O-]
REMARK SMILES IDX 3 1 4 2 5 3 6 4 7 8 8 9 9 10 2 11 1 12
REMARK H PARENT 6 5 6 6 6 7
REMARK Flexibility Score: inf
ROOT
ATOM      1  C   UNL     1      51.685  37.420  -5.943  1.00  0.00     0.050 C 
ATOM      2  C   UNL     1      50.759  36.849  -7.035  1.00  0.00     0.014 C 
ENDROOT
BRANCH   1   3
ATOM      3  C   UNL     1      52.289  36.314  -5.020  1.00  0.00     0.230 C 
BRANCH   3   4
ATOM      4  N   UNL     1      53.545  36.727  -4.372  1.00  0.00    -0.350 N 
ATOM      5  H   UNL     1      53.480  37.717  -4.049  1.00  0.00     0.345 HD
ATOM      6  H   UNL     1      54.360  36.621  -5.018  1.00  0.00     0.345 HD
ATOM      7  H   UNL     1      53.714  36.134  -3.526  1.00  0.00     0.345 HD
ENDBRANCH   3   4
BRANCH   3   8
ATOM      8  C   UNL     1      52.468  35.018  -5.772  1.00  0.00     0.099 C 
ATOM      9  O   UNL     1      51.763  34.008  -5.501  1.00  0.00    -0.544 OA
ATOM     10  O   UNL     1      53.454  34.918  -6.745  1.00  0.00    -0.544 OA
ENDBRANCH   3   8
ENDBRANCH   1   3
BRANCH   1  11
ATOM     11  C   UNL     1      52.749  38.334  -6.602  1.00  0.00     0.006 C 
ATOM     12  C   UNL     1      52.272  38.988  -7.899  1.00  0.00     0.004 C 
ENDBRANCH   1  11
TORSDOF 4
ENDMDL
MODEL 5
REMARK VINA RESULT:    -4.029      3.148      3.890
REMARK INTER + INTRA:          -4.724
REMARK INTER:                  -4.619
REMARK INTRA:                  -0.105
REMARK UNBOUND:                 0.129
REMARK SMILES CC[C@@H](C)[C@H]([NH3+])C(=O)[O-]
REMARK SMILES IDX 3 1 4 2 5 3 6 4 7 8 8 9 9 10 2 11 1 12
REMARK H PARENT 6 5 6 6 6 7
REMARK Flexibility Score: inf
ROOT
ATOM      1  C   UNL     1      52.393  37.324  -5.317  1.00  0.00     0.050 C 
ATOM      2  C   UNL     1      52.360  38.369  -6.449  1.00  0.00     0.014 C 
ENDROOT
BRANCH   1   3
ATOM      3  C   UNL     1      53.259  36.073  -5.669  1.00  0.00     0.230 C 
BRANCH   3   4
ATOM      4  N   UNL     1      54.045  36.244  -6.902  1.00  0.00    -0.350 N 
ATOM      5  H   UNL     1      54.354  35.317  -7.269  1.00  0.00     0.345 HD
ATOM      6  H   UNL     1      54.879  36.853  -6.742  1.00  0.00     0.345 HD
ATOM      7  H   UNL     1      53.448  36.688  -7.638  1.00  0.00     0.345 HD
ENDBRANCH   3   4
BRANCH   3   8
ATOM      8  C   UNL     1      52.409  34.827  -5.738  1.00  0.00     0.099 C 
ATOM      9  O   UNL     1      51.192  34.890  -6.062  1.00  0.00    -0.544 OA
ATOM     10  O   UNL     1      52.960  33.599  -5.395  1.00  0.00    -0.544 OA
ENDBRANCH   3   8
ENDBRANCH   1   3
BRANCH   1  11
ATOM     11  C   UNL     1      52.806  38.017  -3.994  1.00  0.00     0.006 C 
ATOM     12  C   UNL     1      54.274  38.442  -3.961  1.00  0.00     0.004 C 
ENDBRANCH   1  11
TORSDOF 4
ENDMDL
MODEL 6
REMARK VINA RESULT:    -3.987      2.133      2.851
REMARK INTER + INTRA:          -4.673
REMARK INTER:                  -4.730
REMARK INTRA:                   0.057
REMARK UNBOUND:                 0.129
REMARK SMILES CC[C@@H](C)[C@H]([NH3+])C(=O)[O-]
REMARK SMILES IDX 3 1 4 2 5 3 6 4 7 8 8 9 9 10 2 11 1 12
REMARK H PARENT 6 5 6 6 6 7
REMARK Flexibility Score: inf
ROOT
ATOM      1  C   UNL     1      52.070  35.515  -5.769  1.00  0.00     0.050 C 
ATOM      2  C   UNL     1      52.104  33.986  -5.586  1.00  0.00     0.014 C 
ENDROOT
BRANCH   1   3
ATOM      3  C   UNL     1      53.358  36.220  -5.234  1.00  0.00     0.230 C 
BRANCH   3   4
ATOM      4  N   UNL     1      53.167  36.845  -3.914  1.00  0.00    -0.350 N 
ATOM      5  H   UNL     1      52.957  37.862  -4.020  1.00  0.00     0.345 HD
ATOM      6  H   UNL     1      54.008  36.721  -3.307  1.00  0.00     0.345 HD
ATOM      7  H   UNL     1      52.345  36.406  -3.436  1.00  0.00     0.345 HD
ENDBRANCH   3   4
BRANCH   3   8
ATOM      8  C   UNL     1      53.885  37.220  -6.234  1.00  0.00     0.099 C 
ATOM      9  O   UNL     1      54.810  36.911  -7.034  1.00  0.00    -0.544 OA
ATOM     10  O   UNL     1      53.378  38.513  -6.246  1.00  0.00    -0.544 OA
ENDBRANCH   3   8
ENDBRANCH   1   3
BRANCH   1  11
ATOM     11  C   UNL     1      51.747  35.845  -7.249  1.00  0.00     0.006 C 
ATOM     12  C   UNL     1      50.412  36.567  -7.434  1.00  0.00     0.004 C 
ENDBRANCH   1  11
TORSDOF 4
ENDMDL
MODEL 7
REMARK VINA RESULT:    -3.877      2.859      3.440
REMARK INTER + INTRA:          -4.541
REMARK INTER:                  -4.481
REMARK INTRA:                  -0.061
REMARK UNBOUND:                 0.129
REMARK SMILES CC[C@@H](C)[C@H]([NH3+])C(=O)[O-]
REMARK SMILES IDX 3 1 4 2 5 3 6 4 7 8 8 9 9 10 2 11 1 12
REMARK H PARENT 6 5 6 6 6 7
REMARK Flexibility Score: inf
ROOT
ATOM      1  C   UNL     1      52.556  35.170  -6.564  1.00  0.00     0.050 C 
ATOM      2  C   UNL     1      51.786  34.317  -5.538  1.00  0.00     0.014 C 
ENDROOT
BRANCH   1   3
ATOM      3  C   UNL     1      53.462  36.254  -5.897  1.00  0.00     0.230 C 
BRANCH   3   4
ATOM      4  N   UNL     1      53.384  36.244  -4.427  1.00  0.00    -0.350 N 
ATOM      5  H   UNL     1      53.789  35.360  -4.046  1.00  0.00     0.345 HD
ATOM      6  H   UNL     1      52.399  36.350  -4.095  1.00  0.00     0.345 HD
ATOM      7  H   UNL     1      53.950  37.037  -4.042  1.00  0.00     0.345 HD
ENDBRANCH   3   4
BRANCH   3   8
ATOM      8  C   UNL     1      53.158  37.627  -6.446  1.00  0.00     0.099 C 
ATOM      9  O   UNL     1      52.509  38.468  -5.766  1.00  0.00    -0.544 OA
ATOM     10  O   UNL     1      53.556  37.955  -7.735  1.00  0.00    -0.544 OA
ENDBRANCH   3   8
ENDBRANCH   1   3
BRANCH   1  11
ATOM     11  C   UNL     1      53.316  34.234  -7.538  1.00  0.00     0.006 C 
ATOM     12  C   UNL     1      52.824  32.787  -7.502  1.00  0.00     0.004 C 
ENDBRANCH   1  11
TORSDOF 4
ENDMDL
MODEL 8
REMARK VINA RESULT:    -3.649      2.653      3.254
REMARK INTER + INTRA:          -4.266
REMARK INTER:                  -4.231
REMARK INTRA:                  -0.035
REMARK UNBOUND:                 0.129
REMARK SMILES CC[C@@H](C)[C@H]([NH3+])C(=O)[O-]
REMARK SMILES IDX 3 1 4 2 5 3 6 4 7 8 8 9 9 10 2 11 1 12
REMARK H PARENT 6 5 6 6 6 7
REMARK Flexibility Score: inf
ROOT
ATOM      1  C   UNL     1      53.118  36.710  -6.931  1.00  0.00     0.050 C 
ATOM      2  C   UNL     1      52.883  38.114  -7.520  1.00  0.00     0.014 C 
ENDROOT
BRANCH   1   3
ATOM      3  C   UNL     1      53.672  36.747  -5.471  1.00  0.00     0.230 C 
BRANCH   3   4
ATOM      4  N   UNL     1      53.331  35.544  -4.694  1.00  0.00    -0.350 N 
ATOM      5  H   UNL     1      52.595  35.764  -3.987  1.00  0.00     0.345 HD
ATOM      6  H   UNL     1      54.171  35.149  -4.214  1.00  0.00     0.345 HD
ATOM      7  H   UNL     1      52.941  34.814  -5.334  1.00  0.00     0.345 HD
ENDBRANCH   3   4
BRANCH   3   8
ATOM      8  C   UNL     1      53.227  37.999  -4.754  1.00  0.00     0.099 C 
ATOM      9  O   UNL     1      52.032  38.140  -4.377  1.00  0.00    -0.544 OA
ATOM     10  O   UNL     1      54.133  39.031  -4.547  1.00  0.00    -0.544 OA
ENDBRANCH   3   8
ENDBRANCH   1   3
BRANCH   1  11
ATOM     11  C   UNL     1      51.826  35.868  -7.088  1.00  0.00     0.006 C 
ATOM     12  C   UNL     1      50.575  36.712  -7.331  1.00  0.00     0.004 C 
ENDBRANCH   1  11
TORSDOF 4
ENDMDL
MODEL 9
REMARK VINA RESULT:    -3.622      2.894      3.913
REMARK INTER + INTRA:          -4.234
REMARK INTER:                  -4.169
REMARK INTRA:                  -0.065
REMARK UNBOUND:                 0.129
REMARK SMILES CC[C@@H](C)[C@H]([NH3+])C(=O)[O-]
REMARK SMILES IDX 3 1 4 2 5 3 6 4 7 8 8 9 9 10 2 11 1 12
REMARK H PARENT 6 5 6 6 6 7
REMARK Flexibility Score: inf
ROOT
ATOM      1  C   UNL     1      52.236  38.028  -6.140  1.00  0.00     0.050 C 
ATOM      2  C   UNL     1      53.673  38.501  -6.433  1.00  0.00     0.014 C 
ENDROOT
BRANCH   1   3
ATOM      3  C   UNL     1      51.809  36.806  -7.014  1.00  0.00     0.230 C 
BRANCH   3   4
ATOM      4  N   UNL     1      50.363  36.772  -7.291  1.00  0.00    -0.350 N 
ATOM      5  H   UNL     1      50.163  37.178  -8.232  1.00  0.00     0.345 HD
ATOM      6  H   UNL     1      49.822  37.291  -6.563  1.00  0.00     0.345 HD
ATOM      7  H   UNL     1      50.033  35.779  -7.304  1.00  0.00     0.345 HD
ENDBRANCH   3   4
BRANCH   3   8
ATOM      8  C   UNL     1      52.272  35.509  -6.396  1.00  0.00     0.099 C 
ATOM      9  O   UNL     1      53.477  35.147  -6.477  1.00  0.00    -0.544 OA
ATOM     10  O   UNL     1      51.352  34.678  -5.770  1.00  0.00    -0.544 OA
ENDBRANCH   3   8
ENDBRANCH   1   3
BRANCH   1  11
ATOM     11  C   UNL     1      52.076  37.794  -4.617  1.00  0.00     0.006 C 
ATOM     12  C   UNL     1      53.286  38.246  -3.800  1.00  0.00     0.004 C 
ENDBRANCH   1  11
TORSDOF 4
ENDMDL
