MODEL 1
REMARK VINA RESULT:    -3.558      0.000      0.000
REMARK INTER + INTRA:          -4.119
REMARK INTER:                  -3.870
REMARK INTRA:                  -0.249
REMARK UNBOUND:                -0.249
REMARK SMILES O=C([O-])c1ccccc1O
REMARK SMILES IDX 4 1 9 2 5 3 8 4 6 5 7 6 2 7 1 8 3 9 10 10
REMARK H PARENT 10 11
REMARK Flexibility Score: inf
ROOT
ATOM      1  C   UNL     1      26.251  39.467   0.162  1.00  0.00     0.039 A 
ATOM      2  C   UNL     1      26.452  39.387  -1.237  1.00  0.00     0.124 A 
ATOM      3  C   UNL     1      27.340  39.208   1.020  1.00  0.00     0.014 A 
ATOM      4  C   UNL     1      27.719  39.056  -1.743  1.00  0.00     0.047 A 
ATOM      5  C   UNL     1      28.594  38.879   0.501  1.00  0.00     0.001 A 
ATOM      6  C   UNL     1      28.784  38.804  -0.879  1.00  0.00     0.004 A 
ENDROOT
BRANCH   1   7
ATOM      7  C   UNL     1      24.928  39.814   0.742  1.00  0.00     0.075 C 
ATOM      8  O   UNL     1      23.878  39.276   0.300  1.00  0.00    -0.545 OA
ATOM      9  O   UNL     1      24.817  40.733   1.779  1.00  0.00    -0.545 OA
ENDBRANCH   1   7
BRANCH   2  10
ATOM     10  O   UNL     1      25.405  39.636  -2.124  1.00  0.00    -0.507 OA
ATOM     11  H   UNL     1      25.526  39.553  -3.127  1.00  0.00     0.293 HD
ENDBRANCH   2  10
TORSDOF 2
ENDMDL
MODEL 2
REMARK VINA RESULT:    -3.468      1.481      2.384
REMARK INTER + INTRA:          -4.021
REMARK INTER:                  -3.766
REMARK INTRA:                  -0.255
REMARK UNBOUND:                -0.249
REMARK SMILES O=C([O-])c1ccccc1O
REMARK SMILES IDX 4 1 9 2 5 3 8 4 6 5 7 6 2 7 1 8 3 9 10 10
REMARK H PARENT 10 11
REMARK Flexibility Score: inf
ROOT
ATOM      1  C   UNL     1      26.203  39.948   1.458  1.00  0.00     0.039 A 
ATOM      2  C   UNL     1      25.179  39.889   0.484  1.00  0.00     0.124 A 
ATOM      3  C   UNL     1      27.505  39.538   1.100  1.00  0.00     0.014 A 
ATOM      4  C   UNL     1      25.469  39.429  -0.810  1.00  0.00     0.047 A 
ATOM      5  C   UNL     1      27.778  39.082  -0.191  1.00  0.00     0.001 A 
ATOM      6  C   UNL     1      26.762  39.028  -1.145  1.00  0.00     0.004 A 
ENDROOT
BRANCH   1   7
ATOM      7  C   UNL     1      25.942  40.428   2.839  1.00  0.00     0.075 C 
ATOM      8  O   UNL     1      26.352  39.768   3.831  1.00  0.00    -0.545 OA
ATOM      9  O   UNL     1      25.244  41.608   3.070  1.00  0.00    -0.545 OA
ENDBRANCH   1   7
BRANCH   2  10
ATOM     10  O   UNL     1      23.877  40.285   0.792  1.00  0.00    -0.507 OA
ATOM     11  H   UNL     1      23.522  41.197   0.529  1.00  0.00     0.293 HD
ENDBRANCH   2  10
TORSDOF 2
ENDMDL
MODEL 3
REMARK VINA RESULT:    -3.436     15.768     16.985
REMARK INTER + INTRA:          -3.986
REMARK INTER:                  -3.733
REMARK INTRA:                  -0.253
REMARK UNBOUND:                -0.249
REMARK SMILES O=C([O-])c1ccccc1O
REMARK SMILES IDX 4 1 9 2 5 3 8 4 6 5 7 6 2 7 1 8 3 9 10 10
REMARK H PARENT 10 11
REMARK Flexibility Score: inf
ROOT
ATOM      1  C   UNL     1      41.639  32.898   0.984  1.00  0.00     0.039 A 
ATOM      2  C   UNL     1      42.545  32.607  -0.064  1.00  0.00     0.124 A 
ATOM      3  C   UNL     1      40.319  33.272   0.656  1.00  0.00     0.014 A 
ATOM      4  C   UNL     1      42.121  32.695  -1.400  1.00  0.00     0.047 A 
ATOM      5  C   UNL     1      39.913  33.355  -0.678  1.00  0.00     0.001 A 
ATOM      6  C   UNL     1      40.812  33.067  -1.704  1.00  0.00     0.004 A 
ENDROOT
BRANCH   1   7
ATOM      7  C   UNL     1      42.044  32.818   2.411  1.00  0.00     0.075 C 
ATOM      8  O   UNL     1      41.804  33.775   3.195  1.00  0.00    -0.545 OA
ATOM      9  O   UNL     1      42.692  31.695   2.912  1.00  0.00    -0.545 OA
ENDBRANCH   1   7
BRANCH   2  10
ATOM     10  O   UNL     1      43.859  32.232   0.212  1.00  0.00    -0.507 OA
ATOM     11  H   UNL     1      44.090  31.300   0.537  1.00  0.00     0.293 HD
ENDBRANCH   2  10
TORSDOF 2
ENDMDL
MODEL 4
REMARK VINA RESULT:    -3.367      1.940      2.672
REMARK INTER + INTRA:          -3.911
REMARK INTER:                  -3.658
REMARK INTRA:                  -0.253
REMARK UNBOUND:                -0.249
REMARK SMILES O=C([O-])c1ccccc1O
REMARK SMILES IDX 4 1 9 2 5 3 8 4 6 5 7 6 2 7 1 8 3 9 10 10
REMARK H PARENT 10 11
REMARK Flexibility Score: inf
ROOT
ATOM      1  C   UNL     1      25.853  39.807   1.030  1.00  0.00     0.039 A 
ATOM      2  C   UNL     1      27.239  39.532   0.948  1.00  0.00     0.124 A 
ATOM      3  C   UNL     1      25.083  39.765  -0.151  1.00  0.00     0.014 A 
ATOM      4  C   UNL     1      27.820  39.224  -0.292  1.00  0.00     0.047 A 
ATOM      5  C   UNL     1      25.675  39.457  -1.377  1.00  0.00     0.001 A 
ATOM      6  C   UNL     1      27.041  39.187  -1.449  1.00  0.00     0.004 A 
ENDROOT
BRANCH   1   7
ATOM      7  C   UNL     1      25.197  40.137   2.321  1.00  0.00     0.075 C 
ATOM      8  O   UNL     1      24.339  41.058   2.381  1.00  0.00    -0.545 OA
ATOM      9  O   UNL     1      25.510  39.444   3.484  1.00  0.00    -0.545 OA
ENDBRANCH   1   7
BRANCH   2  10
ATOM     10  O   UNL     1      28.041  39.560   2.089  1.00  0.00    -0.507 OA
ATOM     11  H   UNL     1      29.035  39.369   2.046  1.00  0.00     0.293 HD
ENDBRANCH   2  10
TORSDOF 2
ENDMDL
MODEL 5
REMARK VINA RESULT:    -3.349      4.853      6.621
REMARK INTER + INTRA:          -3.892
REMARK INTER:                  -3.647
REMARK INTRA:                  -0.244
REMARK UNBOUND:                -0.249
REMARK SMILES O=C([O-])c1ccccc1O
REMARK SMILES IDX 4 1 9 2 5 3 8 4 6 5 7 6 2 7 1 8 3 9 10 10
REMARK H PARENT 10 11
REMARK Flexibility Score: inf
ROOT
ATOM      1  C   UNL     1      24.886  42.169   4.351  1.00  0.00     0.039 A 
ATOM      2  C   UNL     1      25.640  43.356   4.507  1.00  0.00     0.124 A 
ATOM      3  C   UNL     1      24.003  41.785   5.381  1.00  0.00     0.014 A 
ATOM      4  C   UNL     1      25.500  44.125   5.673  1.00  0.00     0.047 A 
ATOM      5  C   UNL     1      23.875  42.561   6.535  1.00  0.00     0.001 A 
ATOM      6  C   UNL     1      24.621  43.730   6.681  1.00  0.00     0.004 A 
ENDROOT
BRANCH   1   7
ATOM      7  C   UNL     1      25.003  41.324   3.134  1.00  0.00     0.075 C 
ATOM      8  O   UNL     1      23.979  41.039   2.458  1.00  0.00    -0.545 OA
ATOM      9  O   UNL     1      26.233  40.832   2.716  1.00  0.00    -0.545 OA
ENDBRANCH   1   7
BRANCH   2  10
ATOM     10  O   UNL     1      26.525  43.776   3.514  1.00  0.00    -0.507 OA
ATOM     11  H   UNL     1      27.208  43.146   3.109  1.00  0.00     0.293 HD
ENDBRANCH   2  10
TORSDOF 2
ENDMDL
MODEL 6
REMARK VINA RESULT:    -3.343     15.567     16.851
REMARK INTER + INTRA:          -3.885
REMARK INTER:                  -3.634
REMARK INTRA:                  -0.251
REMARK UNBOUND:                -0.249
REMARK SMILES O=C([O-])c1ccccc1O
REMARK SMILES IDX 4 1 9 2 5 3 8 4 6 5 7 6 2 7 1 8 3 9 10 10
REMARK H PARENT 10 11
REMARK Flexibility Score: inf
ROOT
ATOM      1  C   UNL     1      41.940  32.838   0.779  1.00  0.00     0.039 A 
ATOM      2  C   UNL     1      40.569  33.179   0.700  1.00  0.00     0.124 A 
ATOM      3  C   UNL     1      42.646  32.584  -0.416  1.00  0.00     0.014 A 
ATOM      4  C   UNL     1      39.939  33.259  -0.552  1.00  0.00     0.047 A 
ATOM      5  C   UNL     1      42.005  32.667  -1.653  1.00  0.00     0.001 A 
ATOM      6  C   UNL     1      40.654  33.005  -1.722  1.00  0.00     0.004 A 
ENDROOT
BRANCH   1   7
ATOM      7  C   UNL     1      42.648  32.741   2.081  1.00  0.00     0.075 C 
ATOM      8  O   UNL     1      42.593  33.691   2.907  1.00  0.00    -0.545 OA
ATOM      9  O   UNL     1      43.382  31.610   2.419  1.00  0.00    -0.545 OA
ENDBRANCH   1   7
BRANCH   2  10
ATOM     10  O   UNL     1      39.831  33.440   1.854  1.00  0.00    -0.507 OA
ATOM     11  H   UNL     1      39.701  32.737   2.573  1.00  0.00     0.293 HD
ENDBRANCH   2  10
TORSDOF 2
ENDMDL
MODEL 7
REMARK VINA RESULT:    -3.331     14.606     15.964
REMARK INTER + INTRA:          -3.872
REMARK INTER:                  -3.644
REMARK INTRA:                  -0.227
REMARK UNBOUND:                -0.249
REMARK SMILES O=C([O-])c1ccccc1O
REMARK SMILES IDX 4 1 9 2 5 3 8 4 6 5 7 6 2 7 1 8 3 9 10 10
REMARK H PARENT 10 11
REMARK Flexibility Score: inf
ROOT
ATOM      1  C   UNL     1      40.587  33.215  -0.304  1.00  0.00     0.039 A 
ATOM      2  C   UNL     1      41.870  32.831  -0.761  1.00  0.00     0.124 A 
ATOM      3  C   UNL     1      40.338  33.232   1.084  1.00  0.00     0.014 A 
ATOM      4  C   UNL     1      42.864  32.475   0.164  1.00  0.00     0.047 A 
ATOM      5  C   UNL     1      41.338  32.875   1.991  1.00  0.00     0.001 A 
ATOM      6  C   UNL     1      42.599  32.498   1.533  1.00  0.00     0.004 A 
ENDROOT
BRANCH   1   7
ATOM      7  C   UNL     1      39.505  33.599  -1.247  1.00  0.00     0.075 C 
ATOM      8  O   UNL     1      39.042  32.757  -2.062  1.00  0.00    -0.545 OA
ATOM      9  O   UNL     1      38.981  34.886  -1.253  1.00  0.00    -0.545 OA
ENDBRANCH   1   7
BRANCH   2  10
ATOM     10  O   UNL     1      42.163  32.801  -2.124  1.00  0.00    -0.507 OA
ATOM     11  H   UNL     1      42.770  32.093  -2.523  1.00  0.00     0.293 HD
ENDBRANCH   2  10
TORSDOF 2
ENDMDL
MODEL 8
REMARK VINA RESULT:    -3.304      6.018      7.334
REMARK INTER + INTRA:          -3.843
REMARK INTER:                  -3.595
REMARK INTRA:                  -0.248
REMARK UNBOUND:                -0.249
REMARK SMILES O=C([O-])c1ccccc1O
REMARK SMILES IDX 4 1 9 2 5 3 8 4 6 5 7 6 2 7 1 8 3 9 10 10
REMARK H PARENT 10 11
REMARK Flexibility Score: inf
ROOT
ATOM      1  C   UNL     1      25.703  43.733   4.933  1.00  0.00     0.039 A 
ATOM      2  C   UNL     1      24.486  43.261   5.480  1.00  0.00     0.124 A 
ATOM      3  C   UNL     1      26.277  43.035   3.851  1.00  0.00     0.014 A 
ATOM      4  C   UNL     1      23.875  42.117   4.943  1.00  0.00     0.047 A 
ATOM      5  C   UNL     1      25.657  41.898   3.328  1.00  0.00     0.001 A 
ATOM      6  C   UNL     1      24.458  41.440   3.872  1.00  0.00     0.004 A 
ENDROOT
BRANCH   1   7
ATOM      7  C   UNL     1      26.384  44.939   5.470  1.00  0.00     0.075 C 
ATOM      8  O   UNL     1      25.768  46.035   5.552  1.00  0.00    -0.545 OA
ATOM      9  O   UNL     1      27.708  44.889   5.891  1.00  0.00    -0.545 OA
ENDBRANCH   1   7
BRANCH   2  10
ATOM     10  O   UNL     1      23.881  43.919   6.551  1.00  0.00    -0.507 OA
ATOM     11  H   UNL     1      23.127  43.496   7.079  1.00  0.00     0.293 HD
ENDBRANCH   2  10
TORSDOF 2
ENDMDL
MODEL 9
REMARK VINA RESULT:    -2.991      1.870      3.491
REMARK INTER + INTRA:          -3.502
REMARK INTER:                  -3.251
REMARK INTRA:                  -0.251
REMARK UNBOUND:                -0.249
REMARK SMILES O=C([O-])c1ccccc1O
REMARK SMILES IDX 4 1 9 2 5 3 8 4 6 5 7 6 2 7 1 8 3 9 10 10
REMARK H PARENT 10 11
REMARK Flexibility Score: inf
ROOT
ATOM      1  C   UNL     1      27.270  39.259  -0.244  1.00  0.00     0.039 A 
ATOM      2  C   UNL     1      25.999  39.619  -0.751  1.00  0.00     0.124 A 
ATOM      3  C   UNL     1      27.475  39.278   1.151  1.00  0.00     0.014 A 
ATOM      4  C   UNL     1      24.972  39.986   0.133  1.00  0.00     0.047 A 
ATOM      5  C   UNL     1      26.443  39.646   2.017  1.00  0.00     0.001 A 
ATOM      6  C   UNL     1      25.194  39.998   1.510  1.00  0.00     0.004 A 
ENDROOT
BRANCH   1   7
ATOM      7  C   UNL     1      28.386  38.865  -1.142  1.00  0.00     0.075 C 
ATOM      8  O   UNL     1      28.698  39.589  -2.125  1.00  0.00    -0.545 OA
ATOM      9  O   UNL     1      29.106  37.697  -0.923  1.00  0.00    -0.545 OA
ENDBRANCH   1   7
BRANCH   2  10
ATOM     10  O   UNL     1      25.750  39.613  -2.123  1.00  0.00    -0.507 OA
ATOM     11  H   UNL     1      25.047  40.214  -2.539  1.00  0.00     0.293 HD
ENDBRANCH   2  10
TORSDOF 2
ENDMDL
