MODEL 1
REMARK VINA RESULT:    -2.841      0.000      0.000
REMARK INTER + INTRA:          -3.356
REMARK INTER:                  -3.339
REMARK INTRA:                  -0.017
REMARK UNBOUND:                -0.017
REMARK SMILES CCCCC(=O)[O-]
REMARK SMILES IDX 4 1 5 2 6 3 7 4 3 5 2 6 1 7
REMARK H PARENT
REMARK Flexibility Score: inf
ROOT
ATOM      1  C   UNL     1     106.486  97.074  91.248  1.00  0.00     0.053 C 
ENDROOT
BRANCH   1   2
ATOM      2  C   UNL     1     107.229  97.479  92.483  1.00  0.00     0.041 C 
ATOM      3  O   UNL     1     106.694  98.252  93.321  1.00  0.00    -0.550 OA
ATOM      4  O   UNL     1     108.526  97.027  92.694  1.00  0.00    -0.550 OA
ENDBRANCH   1   2
BRANCH   1   5
ATOM      5  C   UNL     1     105.682  95.780  91.457  1.00  0.00     0.006 C 
BRANCH   5   6
ATOM      6  C   UNL     1     105.530  94.922  90.189  1.00  0.00    -0.003 C 
ATOM      7  C   UNL     1     104.207  94.158  90.143  1.00  0.00     0.004 C 
ENDBRANCH   5   6
ENDBRANCH   1   5
TORSDOF 3
ENDMDL
MODEL 2
REMARK VINA RESULT:    -2.823      2.834      3.483
REMARK INTER + INTRA:          -3.335
REMARK INTER:                  -3.208
REMARK INTRA:                  -0.128
REMARK UNBOUND:                -0.017
REMARK SMILES CCCCC(=O)[O-]
REMARK SMILES IDX 4 1 5 2 6 3 7 4 3 5 2 6 1 7
REMARK H PARENT
REMARK Flexibility Score: inf
ROOT
ATOM      1  C   UNL     1     108.163  97.866  92.801  1.00  0.00     0.053 C 
ENDROOT
BRANCH   1   2
ATOM      2  C   UNL     1     108.764  98.958  91.971  1.00  0.00     0.041 C 
ATOM      3  O   UNL     1     109.023 100.078  92.487  1.00  0.00    -0.550 OA
ATOM      4  O   UNL     1     109.008  98.750  90.619  1.00  0.00    -0.550 OA
ENDBRANCH   1   2
BRANCH   1   5
ATOM      5  C   UNL     1     106.823  97.377  92.227  1.00  0.00     0.006 C 
BRANCH   5   6
ATOM      6  C   UNL     1     105.712  98.441  92.229  1.00  0.00    -0.003 C 
ATOM      7  C   UNL     1     105.358  98.928  93.633  1.00  0.00     0.004 C 
ENDBRANCH   5   6
ENDBRANCH   1   5
TORSDOF 3
ENDMDL
MODEL 3
REMARK VINA RESULT:    -2.814      3.023      4.257
REMARK INTER + INTRA:          -3.324
REMARK INTER:                  -3.247
REMARK INTRA:                  -0.077
REMARK UNBOUND:                -0.017
REMARK SMILES CCCCC(=O)[O-]
REMARK SMILES IDX 4 1 5 2 6 3 7 4 3 5 2 6 1 7
REMARK H PARENT
REMARK Flexibility Score: inf
ROOT
ATOM      1  C   UNL     1     107.621  99.016  92.310  1.00  0.00     0.053 C 
ENDROOT
BRANCH   1   2
ATOM      2  C   UNL     1     107.850  97.543  92.453  1.00  0.00     0.041 C 
ATOM      3  O   UNL     1     106.902  96.734  92.273  1.00  0.00    -0.550 OA
ATOM      4  O   UNL     1     109.103  97.066  92.817  1.00  0.00    -0.550 OA
ENDBRANCH   1   2
BRANCH   1   5
ATOM      5  C   UNL     1     108.926  99.776  92.014  1.00  0.00     0.006 C 
BRANCH   5   6
ATOM      6  C   UNL     1     109.125 100.130  90.531  1.00  0.00    -0.003 C 
ATOM      7  C   UNL     1     107.811 100.188  89.752  1.00  0.00     0.004 C 
ENDBRANCH   5   6
ENDBRANCH   1   5
TORSDOF 3
ENDMDL
MODEL 4
REMARK VINA RESULT:    -2.808     16.191     16.785
REMARK INTER + INTRA:          -3.318
REMARK INTER:                  -3.272
REMARK INTRA:                  -0.046
REMARK UNBOUND:                -0.017
REMARK SMILES CCCCC(=O)[O-]
REMARK SMILES IDX 4 1 5 2 6 3 7 4 3 5 2 6 1 7
REMARK H PARENT
REMARK Flexibility Score: inf
ROOT
ATOM      1  C   UNL     1      90.395  98.976  92.256  1.00  0.00     0.053 C 
ENDROOT
BRANCH   1   2
ATOM      2  C   UNL     1      90.158 100.454  92.248  1.00  0.00     0.041 C 
ATOM      3  O   UNL     1      91.113 101.248  92.037  1.00  0.00    -0.550 OA
ATOM      4  O   UNL     1      88.889 100.956  92.507  1.00  0.00    -0.550 OA
ENDBRANCH   1   2
BRANCH   1   5
ATOM      5  C   UNL     1      89.460  98.238  91.283  1.00  0.00     0.006 C 
BRANCH   5   6
ATOM      6  C   UNL     1      90.026  98.081  89.862  1.00  0.00    -0.003 C 
ATOM      7  C   UNL     1      89.234  97.088  89.012  1.00  0.00     0.004 C 
ENDBRANCH   5   6
ENDBRANCH   1   5
TORSDOF 3
ENDMDL
MODEL 5
REMARK VINA RESULT:    -2.804     15.158     15.981
REMARK INTER + INTRA:          -3.313
REMARK INTER:                  -3.296
REMARK INTRA:                  -0.018
REMARK UNBOUND:                -0.017
REMARK SMILES CCCCC(=O)[O-]
REMARK SMILES IDX 4 1 5 2 6 3 7 4 3 5 2 6 1 7
REMARK H PARENT
REMARK Flexibility Score: inf
ROOT
ATOM      1  C   UNL     1      91.667 100.886  91.206  1.00  0.00     0.053 C 
ENDROOT
BRANCH   1   2
ATOM      2  C   UNL     1      90.832 100.470  92.378  1.00  0.00     0.041 C 
ATOM      3  O   UNL     1      91.317  99.722  93.268  1.00  0.00    -0.550 OA
ATOM      4  O   UNL     1      89.509 100.883  92.470  1.00  0.00    -0.550 OA
ENDBRANCH   1   2
BRANCH   1   5
ATOM      5  C   UNL     1      92.280 102.283  91.402  1.00  0.00     0.006 C 
BRANCH   5   6
ATOM      6  C   UNL     1      92.519 103.054  90.092  1.00  0.00    -0.003 C 
ATOM      7  C   UNL     1      93.797 103.891  90.120  1.00  0.00     0.004 C 
ENDBRANCH   5   6
ENDBRANCH   1   5
TORSDOF 3
ENDMDL
MODEL 6
REMARK VINA RESULT:    -2.795     15.604     16.625
REMARK INTER + INTRA:          -3.303
REMARK INTER:                  -3.178
REMARK INTRA:                  -0.125
REMARK UNBOUND:                -0.017
REMARK SMILES CCCCC(=O)[O-]
REMARK SMILES IDX 4 1 5 2 6 3 7 4 3 5 2 6 1 7
REMARK H PARENT
REMARK Flexibility Score: inf
ROOT
ATOM      1  C   UNL     1      89.768 100.208  92.510  1.00  0.00     0.053 C 
ENDROOT
BRANCH   1   2
ATOM      2  C   UNL     1      89.180  99.039  91.780  1.00  0.00     0.041 C 
ATOM      3  O   UNL     1      88.906  99.130  90.554  1.00  0.00    -0.550 OA
ATOM      4  O   UNL     1      88.904  97.861  92.462  1.00  0.00    -0.550 OA
ENDBRANCH   1   2
BRANCH   1   5
ATOM      5  C   UNL     1      91.199 100.519  92.041  1.00  0.00     0.006 C 
BRANCH   5   6
ATOM      6  C   UNL     1      92.171  99.332  92.155  1.00  0.00    -0.003 C 
ATOM      7  C   UNL     1      92.625  99.071  93.590  1.00  0.00     0.004 C 
ENDBRANCH   5   6
ENDBRANCH   1   5
TORSDOF 3
ENDMDL
MODEL 7
REMARK VINA RESULT:    -2.765      1.516      2.351
REMARK INTER + INTRA:          -3.267
REMARK INTER:                  -3.170
REMARK INTRA:                  -0.098
REMARK UNBOUND:                -0.017
REMARK SMILES CCCCC(=O)[O-]
REMARK SMILES IDX 4 1 5 2 6 3 7 4 3 5 2 6 1 7
REMARK H PARENT
REMARK Flexibility Score: inf
ROOT
ATOM      1  C   UNL     1     105.812  95.203  90.563  1.00  0.00     0.053 C 
ENDROOT
BRANCH   1   2
ATOM      2  C   UNL     1     105.814  96.245  91.638  1.00  0.00     0.041 C 
ATOM      3  O   UNL     1     106.901  96.731  92.049  1.00  0.00    -0.550 OA
ATOM      4  O   UNL     1     104.616  96.656  92.211  1.00  0.00    -0.550 OA
ENDBRANCH   1   2
BRANCH   1   5
ATOM      5  C   UNL     1     105.017  95.654  89.326  1.00  0.00     0.006 C 
BRANCH   5   6
ATOM      6  C   UNL     1     103.623  95.014  89.206  1.00  0.00    -0.003 C 
ATOM      7  C   UNL     1     103.537  93.645  89.880  1.00  0.00     0.004 C 
ENDBRANCH   5   6
ENDBRANCH   1   5
TORSDOF 3
ENDMDL
MODEL 8
REMARK VINA RESULT:    -2.739     14.306     15.032
REMARK INTER + INTRA:          -3.236
REMARK INTER:                  -3.153
REMARK INTRA:                  -0.083
REMARK UNBOUND:                -0.017
REMARK SMILES CCCCC(=O)[O-]
REMARK SMILES IDX 4 1 5 2 6 3 7 4 3 5 2 6 1 7
REMARK H PARENT
REMARK Flexibility Score: inf
ROOT
ATOM      1  C   UNL     1      92.218 102.808  90.518  1.00  0.00     0.053 C 
ENDROOT
BRANCH   1   2
ATOM      2  C   UNL     1      92.189 101.777  91.603  1.00  0.00     0.041 C 
ATOM      3  O   UNL     1      91.095 101.271  91.968  1.00  0.00    -0.550 OA
ATOM      4  O   UNL     1      93.367 101.399  92.235  1.00  0.00    -0.550 OA
ENDBRANCH   1   2
BRANCH   1   5
ATOM      5  C   UNL     1      93.097 102.373  89.333  1.00  0.00     0.006 C 
BRANCH   5   6
ATOM      6  C   UNL     1      94.492 103.022  89.313  1.00  0.00    -0.003 C 
ATOM      7  C   UNL     1      94.479 104.474  89.791  1.00  0.00     0.004 C 
ENDBRANCH   5   6
ENDBRANCH   1   5
TORSDOF 3
ENDMDL
MODEL 9
REMARK VINA RESULT:    -2.733      3.838      4.491
REMARK INTER + INTRA:          -3.229
REMARK INTER:                  -3.122
REMARK INTRA:                  -0.107
REMARK UNBOUND:                -0.017
REMARK SMILES CCCCC(=O)[O-]
REMARK SMILES IDX 4 1 5 2 6 3 7 4 3 5 2 6 1 7
REMARK H PARENT
REMARK Flexibility Score: inf
ROOT
ATOM      1  C   UNL     1     108.532  99.007  90.857  1.00  0.00     0.053 C 
ENDROOT
BRANCH   1   2
ATOM      2  C   UNL     1     107.925 100.053  89.974  1.00  0.00     0.041 C 
ATOM      3  O   UNL     1     108.658 100.898  89.396  1.00  0.00    -0.550 OA
ATOM      4  O   UNL     1     106.546 100.115  89.816  1.00  0.00    -0.550 OA
ENDBRANCH   1   2
BRANCH   1   5
ATOM      5  C   UNL     1     108.123  99.187  92.328  1.00  0.00     0.006 C 
BRANCH   5   6
ATOM      6  C   UNL     1     107.049  98.196  92.809  1.00  0.00    -0.003 C 
ATOM      7  C   UNL     1     105.718  98.873  93.135  1.00  0.00     0.004 C 
ENDBRANCH   5   6
ENDBRANCH   1   5
TORSDOF 3
ENDMDL
