MODEL 1
REMARK VINA RESULT:    -5.428      0.000      0.000
REMARK INTER + INTRA:         -12.259
REMARK INTER:                  -9.871
REMARK INTRA:                  -2.388
REMARK UNBOUND:                -2.388
REMARK SMILES CCCCCC=CCC=CCCCCCCCC(=O)[O-]
REMARK SMILES IDX 11 1 12 2 13 3 14 4 15 5 16 6 17 7 18 8 19 9 20 10 10 11
REMARK SMILES IDX 9 12 8 13 7 14 6 15 5 16 4 17 3 18 2 19 1 20
REMARK H PARENT
REMARK Flexibility Score: inf
ROOT
ATOM      1  C   UNL     1      20.911  23.497  10.636  1.00  0.00     0.027 C 
ENDROOT
BRANCH   1   2
ATOM      2  C   UNL     1      21.962  23.130   9.579  1.00  0.00     0.004 C 
BRANCH   2   3
ATOM      3  C   UNL     1      21.355  22.913   8.180  1.00  0.00     0.000 C 
BRANCH   3   4
ATOM      4  C   UNL     1      21.776  21.605   7.486  1.00  0.00     0.000 C 
BRANCH   4   5
ATOM      5  C   UNL     1      21.629  21.662   5.958  1.00  0.00     0.000 C 
BRANCH   5   6
ATOM      6  C   UNL     1      21.482  20.253   5.368  1.00  0.00     0.006 C 
BRANCH   6   7
ATOM      7  C   UNL     1      22.758  19.785   4.655  1.00  0.00     0.053 C 
BRANCH   7   8
ATOM      8  C   UNL     1      23.497  18.758   5.459  1.00  0.00     0.041 C 
ATOM      9  O   UNL     1      24.096  19.091   6.516  1.00  0.00    -0.550 OA
ATOM     10  O   UNL     1      23.549  17.441   5.023  1.00  0.00    -0.550 OA
ENDBRANCH   7   8
ENDBRANCH   6   7
ENDBRANCH   5   6
ENDBRANCH   4   5
ENDBRANCH   3   4
ENDBRANCH   2   3
ENDBRANCH   1   2
BRANCH   1  11
ATOM     11  C   UNL     1      19.557  22.961  10.262  1.00  0.00    -0.031 C 
ATOM     12  C   UNL     1      18.907  22.086  11.044  1.00  0.00    -0.027 C 
BRANCH  12  13
ATOM     13  C   UNL     1      17.559  21.546  10.664  1.00  0.00     0.054 C 
BRANCH  13  14
ATOM     14  C   UNL     1      17.713  20.358   9.746  1.00  0.00    -0.027 C 
ATOM     15  C   UNL     1      17.457  20.361   8.425  1.00  0.00    -0.031 C 
BRANCH  15  16
ATOM     16  C   UNL     1      16.919  21.540   7.651  1.00  0.00     0.027 C 
BRANCH  16  17
ATOM     17  C   UNL     1      18.006  22.219   6.802  1.00  0.00     0.004 C 
BRANCH  17  18
ATOM     18  C   UNL     1      17.716  23.712   6.582  1.00  0.00     0.000 C 
BRANCH  18  19
ATOM     19  C   UNL     1      17.110  24.343   7.841  1.00  0.00    -0.003 C 
ATOM     20  C   UNL     1      17.937  25.535   8.314  1.00  0.00     0.004 C 
ENDBRANCH  18  19
ENDBRANCH  17  18
ENDBRANCH  16  17
ENDBRANCH  15  16
ENDBRANCH  13  14
ENDBRANCH  12  13
ENDBRANCH   1  11
TORSDOF 14
ENDMDL
MODEL 2
REMARK VINA RESULT:    -5.415      1.490      2.205
REMARK INTER + INTRA:         -12.235
REMARK INTER:                  -9.403
REMARK INTRA:                  -2.831
REMARK UNBOUND:                -2.388
REMARK SMILES CCCCCC=CCC=CCCCCCCCC(=O)[O-]
REMARK SMILES IDX 11 1 12 2 13 3 14 4 15 5 16 6 17 7 18 8 19 9 20 10 10 11
REMARK SMILES IDX 9 12 8 13 7 14 6 15 5 16 4 17 3 18 2 19 1 20
REMARK H PARENT
REMARK Flexibility Score: inf
ROOT
ATOM      1  C   UNL     1      19.415  22.407  11.139  1.00  0.00     0.027 C 
ENDROOT
BRANCH   1   2
ATOM      2  C   UNL     1      20.432  23.349  10.478  1.00  0.00     0.004 C 
BRANCH   2   3
ATOM      3  C   UNL     1      21.348  22.631   9.471  1.00  0.00     0.000 C 
BRANCH   3   4
ATOM      4  C   UNL     1      21.332  23.217   8.047  1.00  0.00     0.000 C 
BRANCH   4   5
ATOM      5  C   UNL     1      21.226  22.141   6.957  1.00  0.00     0.000 C 
BRANCH   5   6
ATOM      6  C   UNL     1      21.957  20.858   7.378  1.00  0.00     0.006 C 
BRANCH   6   7
ATOM      7  C   UNL     1      22.266  19.946   6.182  1.00  0.00     0.053 C 
BRANCH   7   8
ATOM      8  C   UNL     1      21.021  19.332   5.617  1.00  0.00     0.041 C 
ATOM      9  O   UNL     1      20.550  19.745   4.525  1.00  0.00    -0.550 OA
ATOM     10  O   UNL     1      20.365  18.326   6.314  1.00  0.00    -0.550 OA
ENDBRANCH   7   8
ENDBRANCH   6   7
ENDBRANCH   5   6
ENDBRANCH   4   5
ENDBRANCH   3   4
ENDBRANCH   2   3
ENDBRANCH   1   2
BRANCH   1  11
ATOM     11  C   UNL     1      18.310  22.049  10.184  1.00  0.00    -0.031 C 
ATOM     12  C   UNL     1      18.275  20.858   9.567  1.00  0.00    -0.027 C 
BRANCH  12  13
ATOM     13  C   UNL     1      17.176  20.505   8.607  1.00  0.00     0.054 C 
BRANCH  13  14
ATOM     14  C   UNL     1      17.707  20.474   7.195  1.00  0.00    -0.027 C 
ATOM     15  C   UNL     1      17.625  21.489   6.314  1.00  0.00    -0.031 C 
BRANCH  15  16
ATOM     16  C   UNL     1      16.939  22.807   6.574  1.00  0.00     0.027 C 
BRANCH  16  17
ATOM     17  C   UNL     1      17.940  23.929   6.889  1.00  0.00     0.004 C 
BRANCH  17  18
ATOM     18  C   UNL     1      17.448  24.839   8.025  1.00  0.00     0.000 C 
BRANCH  18  19
ATOM     19  C   UNL     1      18.576  25.746   8.529  1.00  0.00    -0.003 C 
ATOM     20  C   UNL     1      18.096  27.186   8.689  1.00  0.00     0.004 C 
ENDBRANCH  18  19
ENDBRANCH  17  18
ENDBRANCH  16  17
ENDBRANCH  15  16
ENDBRANCH  13  14
ENDBRANCH  12  13
ENDBRANCH   1  11
TORSDOF 14
ENDMDL
MODEL 3
REMARK VINA RESULT:    -5.413      3.366      6.055
REMARK INTER + INTRA:         -12.232
REMARK INTER:                  -9.662
REMARK INTRA:                  -2.570
REMARK UNBOUND:                -2.388
REMARK SMILES CCCCCC=CCC=CCCCCCCCC(=O)[O-]
REMARK SMILES IDX 11 1 12 2 13 3 14 4 15 5 16 6 17 7 18 8 19 9 20 10 10 11
REMARK SMILES IDX 9 12 8 13 7 14 6 15 5 16 4 17 3 18 2 19 1 20
REMARK H PARENT
REMARK Flexibility Score: inf
ROOT
ATOM      1  C   UNL     1      21.307  23.486   8.388  1.00  0.00     0.027 C 
ENDROOT
BRANCH   1   2
ATOM      2  C   UNL     1      21.457  22.919   9.807  1.00  0.00     0.004 C 
BRANCH   2   3
ATOM      3  C   UNL     1      20.161  23.021  10.633  1.00  0.00     0.000 C 
BRANCH   3   4
ATOM      4  C   UNL     1      19.002  22.141  10.132  1.00  0.00     0.000 C 
BRANCH   4   5
ATOM      5  C   UNL     1      17.651  22.872  10.129  1.00  0.00     0.000 C 
BRANCH   5   6
ATOM      6  C   UNL     1      17.816  24.331  10.576  1.00  0.00     0.006 C 
BRANCH   6   7
ATOM      7  C   UNL     1      17.109  25.312   9.630  1.00  0.00     0.053 C 
BRANCH   7   8
ATOM      8  C   UNL     1      18.059  26.329   9.075  1.00  0.00     0.041 C 
ATOM      9  O   UNL     1      19.260  26.022   8.857  1.00  0.00    -0.550 OA
ATOM     10  O   UNL     1      17.624  27.624   8.828  1.00  0.00    -0.550 OA
ENDBRANCH   7   8
ENDBRANCH   6   7
ENDBRANCH   5   6
ENDBRANCH   4   5
ENDBRANCH   3   4
ENDBRANCH   2   3
ENDBRANCH   1   2
BRANCH   1  11
ATOM     11  C   UNL     1      21.552  22.424   7.352  1.00  0.00    -0.031 C 
ATOM     12  C   UNL     1      21.803  21.152   7.697  1.00  0.00    -0.027 C 
BRANCH  12  13
ATOM     13  C   UNL     1      22.056  20.094   6.662  1.00  0.00     0.054 C 
BRANCH  13  14
ATOM     14  C   UNL     1      22.416  20.731   5.343  1.00  0.00    -0.027 C 
ATOM     15  C   UNL     1      21.561  20.939   4.324  1.00  0.00    -0.031 C 
BRANCH  15  16
ATOM     16  C   UNL     1      20.112  20.519   4.311  1.00  0.00     0.027 C 
BRANCH  16  17
ATOM     17  C   UNL     1      19.186  21.614   4.866  1.00  0.00     0.004 C 
BRANCH  17  18
ATOM     18  C   UNL     1      18.324  21.104   6.030  1.00  0.00     0.000 C 
BRANCH  18  19
ATOM     19  C   UNL     1      17.383  22.203   6.537  1.00  0.00    -0.003 C 
ATOM     20  C   UNL     1      18.063  23.568   6.509  1.00  0.00     0.004 C 
ENDBRANCH  18  19
ENDBRANCH  17  18
ENDBRANCH  16  17
ENDBRANCH  15  16
ENDBRANCH  13  14
ENDBRANCH  12  13
ENDBRANCH   1  11
TORSDOF 14
ENDMDL
MODEL 4
REMARK VINA RESULT:    -5.300      3.348      5.866
REMARK INTER + INTRA:         -12.026
REMARK INTER:                  -9.455
REMARK INTRA:                  -2.571
REMARK UNBOUND:                -2.388
REMARK SMILES CCCCCC=CCC=CCCCCCCCC(=O)[O-]
REMARK SMILES IDX 11 1 12 2 13 3 14 4 15 5 16 6 17 7 18 8 19 9 20 10 10 11
REMARK SMILES IDX 9 12 8 13 7 14 6 15 5 16 4 17 3 18 2 19 1 20
REMARK H PARENT
REMARK Flexibility Score: inf
ROOT
ATOM      1  C   UNL     1      21.711  23.152   9.881  1.00  0.00     0.027 C 
ENDROOT
BRANCH   1   2
ATOM      2  C   UNL     1      20.531  23.217  10.862  1.00  0.00     0.004 C 
BRANCH   2   3
ATOM      3  C   UNL     1      19.340  22.344  10.426  1.00  0.00     0.000 C 
BRANCH   3   4
ATOM      4  C   UNL     1      17.996  22.703  11.085  1.00  0.00     0.000 C 
BRANCH   4   5
ATOM      5  C   UNL     1      17.137  23.642  10.225  1.00  0.00     0.000 C 
BRANCH   5   6
ATOM      6  C   UNL     1      17.510  23.521   8.741  1.00  0.00     0.006 C 
BRANCH   6   7
ATOM      7  C   UNL     1      17.292  24.836   7.978  1.00  0.00     0.053 C 
BRANCH   7   8
ATOM      8  C   UNL     1      18.054  25.968   8.597  1.00  0.00     0.041 C 
ATOM      9  O   UNL     1      19.293  25.865   8.797  1.00  0.00    -0.550 OA
ATOM     10  O   UNL     1      17.389  27.124   8.982  1.00  0.00    -0.550 OA
ENDBRANCH   7   8
ENDBRANCH   6   7
ENDBRANCH   5   6
ENDBRANCH   4   5
ENDBRANCH   3   4
ENDBRANCH   2   3
ENDBRANCH   1   2
BRANCH   1  11
ATOM     11  C   UNL     1      21.228  23.037   8.462  1.00  0.00    -0.031 C 
ATOM     12  C   UNL     1      21.664  22.063   7.648  1.00  0.00    -0.027 C 
BRANCH  12  13
ATOM     13  C   UNL     1      21.187  21.955   6.229  1.00  0.00     0.054 C 
BRANCH  13  14
ATOM     14  C   UNL     1      19.831  22.601   6.084  1.00  0.00    -0.027 C 
ATOM     15  C   UNL     1      18.749  22.016   5.535  1.00  0.00    -0.031 C 
BRANCH  15  16
ATOM     16  C   UNL     1      18.728  20.637   4.925  1.00  0.00     0.027 C 
BRANCH  16  17
ATOM     17  C   UNL     1      17.877  19.653   5.744  1.00  0.00     0.004 C 
BRANCH  17  18
ATOM     18  C   UNL     1      18.216  19.706   7.241  1.00  0.00     0.000 C 
BRANCH  18  19
ATOM     19  C   UNL     1      17.015  20.194   8.059  1.00  0.00    -0.003 C 
ATOM     20  C   UNL     1      16.945  19.491   9.411  1.00  0.00     0.004 C 
ENDBRANCH  18  19
ENDBRANCH  17  18
ENDBRANCH  16  17
ENDBRANCH  15  16
ENDBRANCH  13  14
ENDBRANCH  12  13
ENDBRANCH   1  11
TORSDOF 14
ENDMDL
MODEL 5
REMARK VINA RESULT:    -5.218      1.346      2.526
REMARK INTER + INTRA:         -11.876
REMARK INTER:                  -9.218
REMARK INTRA:                  -2.659
REMARK UNBOUND:                -2.388
REMARK SMILES CCCCCC=CCC=CCCCCCCCC(=O)[O-]
REMARK SMILES IDX 11 1 12 2 13 3 14 4 15 5 16 6 17 7 18 8 19 9 20 10 10 11
REMARK SMILES IDX 9 12 8 13 7 14 6 15 5 16 4 17 3 18 2 19 1 20
REMARK H PARENT
REMARK Flexibility Score: inf
ROOT
ATOM      1  C   UNL     1      21.234  21.383   8.363  1.00  0.00     0.027 C 
ENDROOT
BRANCH   1   2
ATOM      2  C   UNL     1      21.468  22.377   7.216  1.00  0.00     0.004 C 
BRANCH   2   3
ATOM      3  C   UNL     1      21.578  21.692   5.842  1.00  0.00     0.000 C 
BRANCH   3   4
ATOM      4  C   UNL     1      20.296  20.987   5.364  1.00  0.00     0.000 C 
BRANCH   4   5
ATOM      5  C   UNL     1      20.564  19.609   4.740  1.00  0.00     0.000 C 
BRANCH   5   6
ATOM      6  C   UNL     1      21.426  18.744   5.671  1.00  0.00     0.006 C 
BRANCH   6   7
ATOM      7  C   UNL     1      22.703  18.244   4.983  1.00  0.00     0.053 C 
BRANCH   7   8
ATOM      8  C   UNL     1      23.926  18.547   5.794  1.00  0.00     0.041 C 
ATOM      9  O   UNL     1      25.050  18.106   5.436  1.00  0.00    -0.550 OA
ATOM     10  O   UNL     1      23.817  19.289   6.963  1.00  0.00    -0.550 OA
ENDBRANCH   7   8
ENDBRANCH   6   7
ENDBRANCH   5   6
ENDBRANCH   4   5
ENDBRANCH   3   4
ENDBRANCH   2   3
ENDBRANCH   1   2
BRANCH   1  11
ATOM     11  C   UNL     1      19.931  21.660   9.061  1.00  0.00    -0.031 C 
ATOM     12  C   UNL     1      18.839  20.915   8.829  1.00  0.00    -0.027 C 
BRANCH  12  13
ATOM     13  C   UNL     1      17.536  21.198   9.520  1.00  0.00     0.054 C 
BRANCH  13  14
ATOM     14  C   UNL     1      17.789  21.748  10.903  1.00  0.00    -0.027 C 
ATOM     15  C   UNL     1      17.627  23.034  11.267  1.00  0.00    -0.031 C 
BRANCH  15  16
ATOM     16  C   UNL     1      17.217  24.150  10.339  1.00  0.00     0.027 C 
BRANCH  16  17
ATOM     17  C   UNL     1      18.403  25.048   9.952  1.00  0.00     0.004 C 
BRANCH  17  18
ATOM     18  C   UNL     1      18.715  24.976   8.450  1.00  0.00     0.000 C 
BRANCH  18  19
ATOM     19  C   UNL     1      17.489  24.506   7.658  1.00  0.00    -0.003 C 
ATOM     20  C   UNL     1      17.896  23.602   6.498  1.00  0.00     0.004 C 
ENDBRANCH  18  19
ENDBRANCH  17  18
ENDBRANCH  16  17
ENDBRANCH  15  16
ENDBRANCH  13  14
ENDBRANCH  12  13
ENDBRANCH   1  11
TORSDOF 14
ENDMDL
MODEL 6
REMARK VINA RESULT:    -5.209      2.291      5.514
REMARK INTER + INTRA:         -11.861
REMARK INTER:                  -9.120
REMARK INTRA:                  -2.741
REMARK UNBOUND:                -2.388
REMARK SMILES CCCCCC=CCC=CCCCCCCCC(=O)[O-]
REMARK SMILES IDX 11 1 12 2 13 3 14 4 15 5 16 6 17 7 18 8 19 9 20 10 10 11
REMARK SMILES IDX 9 12 8 13 7 14 6 15 5 16 4 17 3 18 2 19 1 20
REMARK H PARENT
REMARK Flexibility Score: inf
ROOT
ATOM      1  C   UNL     1      18.337  21.158  10.698  1.00  0.00     0.027 C 
ENDROOT
BRANCH   1   2
ATOM      2  C   UNL     1      17.896  22.415  11.462  1.00  0.00     0.004 C 
BRANCH   2   3
ATOM      3  C   UNL     1      16.876  23.264  10.681  1.00  0.00     0.000 C 
BRANCH   3   4
ATOM      4  C   UNL     1      17.285  24.732  10.462  1.00  0.00     0.000 C 
BRANCH   4   5
ATOM      5  C   UNL     1      17.978  24.966   9.111  1.00  0.00     0.000 C 
BRANCH   5   6
ATOM      6  C   UNL     1      19.491  25.150   9.296  1.00  0.00     0.006 C 
BRANCH   6   7
ATOM      7  C   UNL     1      20.294  23.980   8.710  1.00  0.00     0.053 C 
BRANCH   7   8
ATOM      8  C   UNL     1      21.174  23.341   9.741  1.00  0.00     0.041 C 
ATOM      9  O   UNL     1      21.095  23.692  10.948  1.00  0.00    -0.550 OA
ATOM     10  O   UNL     1      22.102  22.380   9.363  1.00  0.00    -0.550 OA
ENDBRANCH   7   8
ENDBRANCH   6   7
ENDBRANCH   5   6
ENDBRANCH   4   5
ENDBRANCH   3   4
ENDBRANCH   2   3
ENDBRANCH   1   2
BRANCH   1  11
ATOM     11  C   UNL     1      18.010  21.272   9.235  1.00  0.00    -0.031 C 
ATOM     12  C   UNL     1      18.432  20.359   8.347  1.00  0.00    -0.027 C 
BRANCH  12  13
ATOM     13  C   UNL     1      18.112  20.479   6.885  1.00  0.00     0.054 C 
BRANCH  13  14
ATOM     14  C   UNL     1      18.170  21.925   6.457  1.00  0.00    -0.027 C 
ATOM     15  C   UNL     1      19.101  22.454   5.641  1.00  0.00    -0.031 C 
BRANCH  15  16
ATOM     16  C   UNL     1      20.273  21.701   5.062  1.00  0.00     0.027 C 
BRANCH  16  17
ATOM     17  C   UNL     1      21.494  21.724   5.994  1.00  0.00     0.004 C 
BRANCH  17  18
ATOM     18  C   UNL     1      21.816  20.332   6.558  1.00  0.00     0.000 C 
BRANCH  18  19
ATOM     19  C   UNL     1      21.887  19.289   5.435  1.00  0.00    -0.003 C 
ATOM     20  C   UNL     1      23.180  19.426   4.637  1.00  0.00     0.004 C 
ENDBRANCH  18  19
ENDBRANCH  17  18
ENDBRANCH  16  17
ENDBRANCH  15  16
ENDBRANCH  13  14
ENDBRANCH  12  13
ENDBRANCH   1  11
TORSDOF 14
ENDMDL
MODEL 7
REMARK VINA RESULT:    -5.182      2.235      3.342
REMARK INTER + INTRA:         -11.812
REMARK INTER:                  -8.895
REMARK INTRA:                  -2.917
REMARK UNBOUND:                -2.388
REMARK SMILES CCCCCC=CCC=CCCCCCCCC(=O)[O-]
REMARK SMILES IDX 11 1 12 2 13 3 14 4 15 5 16 6 17 7 18 8 19 9 20 10 10 11
REMARK SMILES IDX 9 12 8 13 7 14 6 15 5 16 4 17 3 18 2 19 1 20
REMARK H PARENT
REMARK Flexibility Score: inf
ROOT
ATOM      1  C   UNL     1      21.132  21.590   8.326  1.00  0.00     0.027 C 
ENDROOT
BRANCH   1   2
ATOM      2  C   UNL     1      21.245  22.200   6.921  1.00  0.00     0.004 C 
BRANCH   2   3
ATOM      3  C   UNL     1      22.042  21.316   5.945  1.00  0.00     0.000 C 
BRANCH   3   4
ATOM      4  C   UNL     1      21.327  21.004   4.619  1.00  0.00     0.000 C 
BRANCH   4   5
ATOM      5  C   UNL     1      19.917  21.609   4.541  1.00  0.00     0.000 C 
BRANCH   5   6
ATOM      6  C   UNL     1      18.863  20.515   4.315  1.00  0.00     0.006 C 
BRANCH   6   7
ATOM      7  C   UNL     1      18.246  20.023   5.631  1.00  0.00     0.053 C 
BRANCH   7   8
ATOM      8  C   UNL     1      18.718  18.644   5.983  1.00  0.00     0.041 C 
ATOM      9  O   UNL     1      18.012  17.641   5.699  1.00  0.00    -0.550 OA
ATOM     10  O   UNL     1      19.922  18.472   6.652  1.00  0.00    -0.550 OA
ENDBRANCH   7   8
ENDBRANCH   6   7
ENDBRANCH   5   6
ENDBRANCH   4   5
ENDBRANCH   3   4
ENDBRANCH   2   3
ENDBRANCH   1   2
BRANCH   1  11
ATOM     11  C   UNL     1      19.799  21.903   8.946  1.00  0.00    -0.031 C 
ATOM     12  C   UNL     1      18.818  20.989   9.003  1.00  0.00    -0.027 C 
BRANCH  12  13
ATOM     13  C   UNL     1      17.484  21.306   9.615  1.00  0.00     0.054 C 
BRANCH  13  14
ATOM     14  C   UNL     1      17.670  21.889  10.994  1.00  0.00    -0.027 C 
ATOM     15  C   UNL     1      17.426  23.169  11.333  1.00  0.00    -0.031 C 
BRANCH  15  16
ATOM     16  C   UNL     1      16.979  24.247  10.377  1.00  0.00     0.027 C 
BRANCH  16  17
ATOM     17  C   UNL     1      18.155  25.096   9.869  1.00  0.00     0.004 C 
BRANCH  17  18
ATOM     18  C   UNL     1      18.067  25.357   8.358  1.00  0.00     0.000 C 
BRANCH  18  19
ATOM     19  C   UNL     1      17.066  24.404   7.694  1.00  0.00    -0.003 C 
ATOM     20  C   UNL     1      17.693  23.687   6.503  1.00  0.00     0.004 C 
ENDBRANCH  18  19
ENDBRANCH  17  18
ENDBRANCH  16  17
ENDBRANCH  15  16
ENDBRANCH  13  14
ENDBRANCH  12  13
ENDBRANCH   1  11
TORSDOF 14
ENDMDL
MODEL 8
REMARK VINA RESULT:    -5.182      1.648      4.202
REMARK INTER + INTRA:         -11.811
REMARK INTER:                  -9.426
REMARK INTRA:                  -2.384
REMARK UNBOUND:                -2.388
REMARK SMILES CCCCCC=CCC=CCCCCCCCC(=O)[O-]
REMARK SMILES IDX 11 1 12 2 13 3 14 4 15 5 16 6 17 7 18 8 19 9 20 10 10 11
REMARK SMILES IDX 9 12 8 13 7 14 6 15 5 16 4 17 3 18 2 19 1 20
REMARK H PARENT
REMARK Flexibility Score: inf
ROOT
ATOM      1  C   UNL     1      18.434  21.313   5.833  1.00  0.00     0.027 C 
ENDROOT
BRANCH   1   2
ATOM      2  C   UNL     1      19.543  21.981   5.007  1.00  0.00     0.004 C 
BRANCH   2   3
ATOM      3  C   UNL     1      20.388  20.971   4.209  1.00  0.00     0.000 C 
BRANCH   3   4
ATOM      4  C   UNL     1      21.911  21.166   4.322  1.00  0.00     0.000 C 
BRANCH   4   5
ATOM      5  C   UNL     1      22.680  19.840   4.425  1.00  0.00     0.000 C 
BRANCH   5   6
ATOM      6  C   UNL     1      21.726  18.673   4.716  1.00  0.00     0.006 C 
BRANCH   6   7
ATOM      7  C   UNL     1      21.958  18.067   6.107  1.00  0.00     0.053 C 
BRANCH   7   8
ATOM      8  C   UNL     1      22.119  16.579   6.043  1.00  0.00     0.041 C 
ATOM      9  O   UNL     1      22.913  16.062   5.213  1.00  0.00    -0.550 OA
ATOM     10  O   UNL     1      21.370  15.762   6.880  1.00  0.00    -0.550 OA
ENDBRANCH   7   8
ENDBRANCH   6   7
ENDBRANCH   5   6
ENDBRANCH   4   5
ENDBRANCH   3   4
ENDBRANCH   2   3
ENDBRANCH   1   2
BRANCH   1  11
ATOM     11  C   UNL     1      17.777  22.302   6.755  1.00  0.00    -0.031 C 
ATOM     12  C   UNL     1      18.099  23.604   6.732  1.00  0.00    -0.027 C 
BRANCH  12  13
ATOM     13  C   UNL     1      17.448  24.589   7.660  1.00  0.00     0.054 C 
BRANCH  13  14
ATOM     14  C   UNL     1      18.497  25.352   8.430  1.00  0.00    -0.027 C 
ATOM     15  C   UNL     1      19.129  24.904   9.531  1.00  0.00    -0.031 C 
BRANCH  15  16
ATOM     16  C   UNL     1      18.853  23.585  10.210  1.00  0.00     0.027 C 
BRANCH  16  17
ATOM     17  C   UNL     1      19.969  22.559   9.958  1.00  0.00     0.004 C 
BRANCH  17  18
ATOM     18  C   UNL     1      21.231  23.211   9.373  1.00  0.00     0.000 C 
BRANCH  18  19
ATOM     19  C   UNL     1      21.527  22.671   7.968  1.00  0.00    -0.003 C 
ATOM     20  C   UNL     1      22.133  21.273   8.031  1.00  0.00     0.004 C 
ENDBRANCH  18  19
ENDBRANCH  17  18
ENDBRANCH  16  17
ENDBRANCH  15  16
ENDBRANCH  13  14
ENDBRANCH  12  13
ENDBRANCH   1  11
TORSDOF 14
ENDMDL
MODEL 9
REMARK VINA RESULT:    -5.149      2.049      4.014
REMARK INTER + INTRA:         -11.751
REMARK INTER:                  -9.754
REMARK INTRA:                  -1.997
REMARK UNBOUND:                -2.388
REMARK SMILES CCCCCC=CCC=CCCCCCCCC(=O)[O-]
REMARK SMILES IDX 11 1 12 2 13 3 14 4 15 5 16 6 17 7 18 8 19 9 20 10 10 11
REMARK SMILES IDX 9 12 8 13 7 14 6 15 5 16 4 17 3 18 2 19 1 20
REMARK H PARENT
REMARK Flexibility Score: inf
ROOT
ATOM      1  C   UNL     1      19.767  22.006   5.271  1.00  0.00     0.027 C 
ENDROOT
BRANCH   1   2
ATOM      2  C   UNL     1      20.349  21.213   4.091  1.00  0.00     0.004 C 
BRANCH   2   3
ATOM      3  C   UNL     1      21.888  21.178   4.094  1.00  0.00     0.000 C 
BRANCH   3   4
ATOM      4  C   UNL     1      22.505  19.770   4.008  1.00  0.00     0.000 C 
BRANCH   4   5
ATOM      5  C   UNL     1      23.266  19.369   5.280  1.00  0.00     0.000 C 
BRANCH   5   6
ATOM      6  C   UNL     1      22.398  18.480   6.182  1.00  0.00     0.006 C 
BRANCH   6   7
ATOM      7  C   UNL     1      21.703  17.359   5.396  1.00  0.00     0.053 C 
BRANCH   7   8
ATOM      8  C   UNL     1      21.123  16.321   6.308  1.00  0.00     0.041 C 
ATOM      9  O   UNL     1      21.749  15.250   6.527  1.00  0.00    -0.550 OA
ATOM     10  O   UNL     1      19.879  16.523   6.889  1.00  0.00    -0.550 OA
ENDBRANCH   7   8
ENDBRANCH   6   7
ENDBRANCH   5   6
ENDBRANCH   4   5
ENDBRANCH   3   4
ENDBRANCH   2   3
ENDBRANCH   1   2
BRANCH   1  11
ATOM     11  C   UNL     1      20.398  21.584   6.569  1.00  0.00    -0.031 C 
ATOM     12  C   UNL     1      21.153  22.427   7.289  1.00  0.00    -0.027 C 
BRANCH  12  13
ATOM     13  C   UNL     1      21.789  22.001   8.581  1.00  0.00     0.054 C 
BRANCH  13  14
ATOM     14  C   UNL     1      21.713  23.119   9.592  1.00  0.00    -0.027 C 
ATOM     15  C   UNL     1      20.701  23.311  10.459  1.00  0.00    -0.031 C 
BRANCH  15  16
ATOM     16  C   UNL     1      19.448  22.474  10.526  1.00  0.00     0.027 C 
BRANCH  16  17
ATOM     17  C   UNL     1      18.329  23.032   9.634  1.00  0.00     0.004 C 
BRANCH  17  18
ATOM     18  C   UNL     1      18.109  24.535   9.858  1.00  0.00     0.000 C 
BRANCH  18  19
ATOM     19  C   UNL     1      18.337  25.322   8.561  1.00  0.00    -0.003 C 
ATOM     20  C   UNL     1      19.085  26.624   8.830  1.00  0.00     0.004 C 
ENDBRANCH  18  19
ENDBRANCH  17  18
ENDBRANCH  16  17
ENDBRANCH  15  16
ENDBRANCH  13  14
ENDBRANCH  12  13
ENDBRANCH   1  11
TORSDOF 14
ENDMDL
