MODEL 1
REMARK VINA RESULT:    -4.166      0.000      0.000
REMARK INTER + INTRA:          -5.538
REMARK INTER:                  -5.383
REMARK INTRA:                  -0.155
REMARK UNBOUND:                -0.155
REMARK SMILES CCCCCCC(=O)[O-]
REMARK SMILES IDX 5 1 6 2 7 3 8 4 9 5 4 6 3 7 2 8 1 9
REMARK H PARENT
REMARK Flexibility Score: inf
ROOT
ATOM      1  C   UNL     1    -118.853 -36.159 -56.168  1.00  0.00     0.006 C 
ENDROOT
BRANCH   1   2
ATOM      2  C   UNL     1    -120.209 -36.855 -56.307  1.00  0.00     0.053 C 
BRANCH   2   3
ATOM      3  C   UNL     1    -121.188 -35.962 -57.003  1.00  0.00     0.041 C 
ATOM      4  O   UNL     1    -122.357 -36.366 -57.239  1.00  0.00    -0.550 OA
ATOM      5  O   UNL     1    -120.825 -34.666 -57.346  1.00  0.00    -0.550 OA
ENDBRANCH   2   3
ENDBRANCH   1   2
BRANCH   1   6
ATOM      6  C   UNL     1    -117.702 -37.167 -56.274  1.00  0.00     0.000 C 
BRANCH   6   7
ATOM      7  C   UNL     1    -116.350 -36.449 -56.385  1.00  0.00    -0.000 C 
BRANCH   7   8
ATOM      8  C   UNL     1    -116.434 -35.155 -57.209  1.00  0.00    -0.003 C 
ATOM      9  C   UNL     1    -115.211 -34.941 -58.101  1.00  0.00     0.004 C 
ENDBRANCH   7   8
ENDBRANCH   6   7
ENDBRANCH   1   6
TORSDOF 5
ENDMDL
MODEL 2
REMARK VINA RESULT:    -4.132      3.177      4.936
REMARK INTER + INTRA:          -5.495
REMARK INTER:                  -5.291
REMARK INTRA:                  -0.204
REMARK UNBOUND:                -0.155
REMARK SMILES CCCCCCC(=O)[O-]
REMARK SMILES IDX 5 1 6 2 7 3 8 4 9 5 4 6 3 7 2 8 1 9
REMARK H PARENT
REMARK Flexibility Score: inf
ROOT
ATOM      1  C   UNL     1    -117.610 -36.743 -56.341  1.00  0.00     0.006 C 
ENDROOT
BRANCH   1   2
ATOM      2  C   UNL     1    -117.036 -35.389 -56.765  1.00  0.00     0.053 C 
BRANCH   2   3
ATOM      3  C   UNL     1    -115.626 -35.542 -57.240  1.00  0.00     0.041 C 
ATOM      4  O   UNL     1    -114.740 -35.984 -56.462  1.00  0.00    -0.550 OA
ATOM      5  O   UNL     1    -115.300 -35.244 -58.557  1.00  0.00    -0.550 OA
ENDBRANCH   2   3
ENDBRANCH   1   2
BRANCH   1   6
ATOM      6  C   UNL     1    -119.123 -36.652 -56.105  1.00  0.00     0.000 C 
BRANCH   6   7
ATOM      7  C   UNL     1    -119.668 -35.289 -56.555  1.00  0.00    -0.000 C 
BRANCH   7   8
ATOM      8  C   UNL     1    -121.137 -35.359 -57.000  1.00  0.00    -0.003 C 
ATOM      9  C   UNL     1    -121.648 -36.794 -57.129  1.00  0.00     0.004 C 
ENDBRANCH   7   8
ENDBRANCH   6   7
ENDBRANCH   1   6
TORSDOF 5
ENDMDL
MODEL 3
REMARK VINA RESULT:    -4.053      1.134      1.526
REMARK INTER + INTRA:          -5.392
REMARK INTER:                  -5.177
REMARK INTRA:                  -0.215
REMARK UNBOUND:                -0.155
REMARK SMILES CCCCCCC(=O)[O-]
REMARK SMILES IDX 5 1 6 2 7 3 8 4 9 5 4 6 3 7 2 8 1 9
REMARK H PARENT
REMARK Flexibility Score: inf
ROOT
ATOM      1  C   UNL     1    -119.317 -35.491 -56.449  1.00  0.00     0.006 C 
ENDROOT
BRANCH   1   2
ATOM      2  C   UNL     1    -120.711 -35.560 -55.819  1.00  0.00     0.053 C 
BRANCH   2   3
ATOM      3  C   UNL     1    -121.437 -36.782 -56.284  1.00  0.00     0.041 C 
ATOM      4  O   UNL     1    -121.727 -36.922 -57.502  1.00  0.00    -0.550 OA
ATOM      5  O   UNL     1    -121.748 -37.791 -55.382  1.00  0.00    -0.550 OA
ENDBRANCH   2   3
ENDBRANCH   1   2
BRANCH   1   6
ATOM      6  C   UNL     1    -118.489 -36.731 -56.090  1.00  0.00     0.000 C 
BRANCH   6   7
ATOM      7  C   UNL     1    -117.019 -36.545 -56.493  1.00  0.00    -0.000 C 
BRANCH   7   8
ATOM      8  C   UNL     1    -116.733 -35.144 -57.056  1.00  0.00    -0.003 C 
ATOM      9  C   UNL     1    -115.443 -35.087 -57.875  1.00  0.00     0.004 C 
ENDBRANCH   7   8
ENDBRANCH   6   7
ENDBRANCH   1   6
TORSDOF 5
ENDMDL
MODEL 4
REMARK VINA RESULT:    -3.962      2.537      4.641
REMARK INTER + INTRA:          -5.274
REMARK INTER:                  -5.096
REMARK INTRA:                  -0.178
REMARK UNBOUND:                -0.155
REMARK SMILES CCCCCCC(=O)[O-]
REMARK SMILES IDX 5 1 6 2 7 3 8 4 9 5 4 6 3 7 2 8 1 9
REMARK H PARENT
REMARK Flexibility Score: inf
ROOT
ATOM      1  C   UNL     1    -118.821 -36.265 -55.961  1.00  0.00     0.006 C 
ENDROOT
BRANCH   1   2
ATOM      2  C   UNL     1    -117.502 -36.959 -56.312  1.00  0.00     0.053 C 
BRANCH   2   3
ATOM      3  C   UNL     1    -116.454 -35.950 -56.658  1.00  0.00     0.041 C 
ATOM      4  O   UNL     1    -115.239 -36.197 -56.439  1.00  0.00    -0.550 OA
ATOM      5  O   UNL     1    -116.814 -34.755 -57.269  1.00  0.00    -0.550 OA
ENDBRANCH   2   3
ENDBRANCH   1   2
BRANCH   1   6
ATOM      6  C   UNL     1    -120.021 -37.068 -56.477  1.00  0.00     0.000 C 
BRANCH   6   7
ATOM      7  C   UNL     1    -121.245 -36.162 -56.675  1.00  0.00    -0.000 C 
BRANCH   7   8
ATOM      8  C   UNL     1    -120.864 -34.754 -57.160  1.00  0.00    -0.003 C 
ATOM      9  C   UNL     1    -122.014 -34.046 -57.878  1.00  0.00     0.004 C 
ENDBRANCH   7   8
ENDBRANCH   6   7
ENDBRANCH   1   6
TORSDOF 5
ENDMDL
MODEL 5
REMARK VINA RESULT:    -3.691     12.007     12.772
REMARK INTER + INTRA:          -4.925
REMARK INTER:                  -4.759
REMARK INTRA:                  -0.166
REMARK UNBOUND:                -0.155
REMARK SMILES CCCCCCC(=O)[O-]
REMARK SMILES IDX 5 1 6 2 7 3 8 4 9 5 4 6 3 7 2 8 1 9
REMARK H PARENT
REMARK Flexibility Score: inf
ROOT
ATOM      1  C   UNL     1    -113.763 -41.218 -65.406  1.00  0.00     0.006 C 
ENDROOT
BRANCH   1   2
ATOM      2  C   UNL     1    -114.568 -41.926 -66.499  1.00  0.00     0.053 C 
BRANCH   2   3
ATOM      3  C   UNL     1    -113.847 -41.858 -67.808  1.00  0.00     0.041 C 
ATOM      4  O   UNL     1    -113.820 -42.861 -68.569  1.00  0.00    -0.550 OA
ATOM      5  O   UNL     1    -113.247 -40.672 -68.211  1.00  0.00    -0.550 OA
ENDBRANCH   2   3
ENDBRANCH   1   2
BRANCH   1   6
ATOM      6  C   UNL     1    -113.068 -42.231 -64.489  1.00  0.00     0.000 C 
BRANCH   6   7
ATOM      7  C   UNL     1    -111.675 -42.592 -65.025  1.00  0.00    -0.000 C 
BRANCH   7   8
ATOM      8  C   UNL     1    -110.867 -43.452 -64.040  1.00  0.00    -0.003 C 
ATOM      9  C   UNL     1    -111.678 -43.857 -62.808  1.00  0.00     0.004 C 
ENDBRANCH   7   8
ENDBRANCH   6   7
ENDBRANCH   1   6
TORSDOF 5
ENDMDL
MODEL 6
REMARK VINA RESULT:    -3.549     12.600     13.520
REMARK INTER + INTRA:          -4.741
REMARK INTER:                  -4.319
REMARK INTRA:                  -0.422
REMARK UNBOUND:                -0.155
REMARK SMILES CCCCCCC(=O)[O-]
REMARK SMILES IDX 5 1 6 2 7 3 8 4 9 5 4 6 3 7 2 8 1 9
REMARK H PARENT
REMARK Flexibility Score: inf
ROOT
ATOM      1  C   UNL     1    -113.749 -41.305 -66.433  1.00  0.00     0.006 C 
ENDROOT
BRANCH   1   2
ATOM      2  C   UNL     1    -113.876 -42.785 -66.804  1.00  0.00     0.053 C 
BRANCH   2   3
ATOM      3  C   UNL     1    -113.257 -43.045 -68.141  1.00  0.00     0.041 C 
ATOM      4  O   UNL     1    -113.958 -42.987 -69.185  1.00  0.00    -0.550 OA
ATOM      5  O   UNL     1    -111.896 -43.303 -68.239  1.00  0.00    -0.550 OA
ENDBRANCH   2   3
ENDBRANCH   1   2
BRANCH   1   6
ATOM      6  C   UNL     1    -112.724 -41.103 -65.310  1.00  0.00     0.000 C 
BRANCH   6   7
ATOM      7  C   UNL     1    -111.375 -40.636 -65.875  1.00  0.00    -0.000 C 
BRANCH   7   8
ATOM      8  C   UNL     1    -110.239 -41.632 -65.592  1.00  0.00    -0.003 C 
ATOM      9  C   UNL     1    -110.728 -42.904 -64.896  1.00  0.00     0.004 C 
ENDBRANCH   7   8
ENDBRANCH   6   7
ENDBRANCH   1   6
TORSDOF 5
ENDMDL
MODEL 7
REMARK VINA RESULT:    -3.532     11.907     12.842
REMARK INTER + INTRA:          -4.719
REMARK INTER:                  -4.303
REMARK INTRA:                  -0.416
REMARK UNBOUND:                -0.155
REMARK SMILES CCCCCCC(=O)[O-]
REMARK SMILES IDX 5 1 6 2 7 3 8 4 9 5 4 6 3 7 2 8 1 9
REMARK H PARENT
REMARK Flexibility Score: inf
ROOT
ATOM      1  C   UNL     1    -113.547 -41.430 -65.146  1.00  0.00     0.006 C 
ENDROOT
BRANCH   1   2
ATOM      2  C   UNL     1    -114.513 -42.059 -66.154  1.00  0.00     0.053 C 
BRANCH   2   3
ATOM      3  C   UNL     1    -114.013 -41.863 -67.550  1.00  0.00     0.041 C 
ATOM      4  O   UNL     1    -113.715 -40.711 -67.961  1.00  0.00    -0.550 OA
ATOM      5  O   UNL     1    -113.829 -42.960 -68.383  1.00  0.00    -0.550 OA
ENDBRANCH   2   3
ENDBRANCH   1   2
BRANCH   1   6
ATOM      6  C   UNL     1    -112.644 -42.493 -64.510  1.00  0.00     0.000 C 
BRANCH   6   7
ATOM      7  C   UNL     1    -111.274 -42.536 -65.201  1.00  0.00    -0.000 C 
BRANCH   7   8
ATOM      8  C   UNL     1    -110.810 -41.151 -65.678  1.00  0.00    -0.003 C 
ATOM      9  C   UNL     1    -110.324 -41.157 -67.128  1.00  0.00     0.004 C 
ENDBRANCH   7   8
ENDBRANCH   6   7
ENDBRANCH   1   6
TORSDOF 5
ENDMDL
MODEL 8
REMARK VINA RESULT:    -3.517     14.774     16.284
REMARK INTER + INTRA:          -4.699
REMARK INTER:                  -4.271
REMARK INTRA:                  -0.428
REMARK UNBOUND:                -0.155
REMARK SMILES CCCCCCC(=O)[O-]
REMARK SMILES IDX 5 1 6 2 7 3 8 4 9 5 4 6 3 7 2 8 1 9
REMARK H PARENT
REMARK Flexibility Score: inf
ROOT
ATOM      1  C   UNL     1    -105.516 -28.890 -59.053  1.00  0.00     0.006 C 
ENDROOT
BRANCH   1   2
ATOM      2  C   UNL     1    -106.844 -28.252 -59.469  1.00  0.00     0.053 C 
BRANCH   2   3
ATOM      3  C   UNL     1    -107.020 -26.925 -58.800  1.00  0.00     0.041 C 
ATOM      4  O   UNL     1    -107.031 -26.846 -57.543  1.00  0.00    -0.550 OA
ATOM      5  O   UNL     1    -107.122 -25.770 -59.563  1.00  0.00    -0.550 OA
ENDBRANCH   2   3
ENDBRANCH   1   2
BRANCH   1   6
ATOM      6  C   UNL     1    -104.331 -28.185 -59.726  1.00  0.00     0.000 C 
BRANCH   6   7
ATOM      7  C   UNL     1    -103.369 -27.607 -58.678  1.00  0.00    -0.000 C 
BRANCH   7   8
ATOM      8  C   UNL     1    -103.263 -26.076 -58.755  1.00  0.00    -0.003 C 
ATOM      9  C   UNL     1    -103.871 -25.379 -57.536  1.00  0.00     0.004 C 
ENDBRANCH   7   8
ENDBRANCH   6   7
ENDBRANCH   1   6
TORSDOF 5
ENDMDL
MODEL 9
REMARK VINA RESULT:    -3.509      2.069      2.791
REMARK INTER + INTRA:          -4.689
REMARK INTER:                  -4.412
REMARK INTRA:                  -0.277
REMARK UNBOUND:                -0.155
REMARK SMILES CCCCCCC(=O)[O-]
REMARK SMILES IDX 5 1 6 2 7 3 8 4 9 5 4 6 3 7 2 8 1 9
REMARK H PARENT
REMARK Flexibility Score: inf
ROOT
ATOM      1  C   UNL     1    -120.698 -34.948 -56.759  1.00  0.00     0.006 C 
ENDROOT
BRANCH   1   2
ATOM      2  C   UNL     1    -120.745 -34.361 -55.345  1.00  0.00     0.053 C 
BRANCH   2   3
ATOM      3  C   UNL     1    -122.161 -34.237 -54.876  1.00  0.00     0.041 C 
ATOM      4  O   UNL     1    -122.871 -35.265 -54.729  1.00  0.00    -0.550 OA
ATOM      5  O   UNL     1    -122.679 -32.989 -54.554  1.00  0.00    -0.550 OA
ENDBRANCH   2   3
ENDBRANCH   1   2
BRANCH   1   6
ATOM      6  C   UNL     1    -120.184 -36.393 -56.738  1.00  0.00     0.000 C 
BRANCH   6   7
ATOM      7  C   UNL     1    -119.097 -36.574 -55.669  1.00  0.00    -0.000 C 
BRANCH   7   8
ATOM      8  C   UNL     1    -117.766 -37.068 -56.258  1.00  0.00    -0.003 C 
ATOM      9  C   UNL     1    -116.803 -35.925 -56.582  1.00  0.00     0.004 C 
ENDBRANCH   7   8
ENDBRANCH   6   7
ENDBRANCH   1   6
TORSDOF 5
ENDMDL
