MODEL 1
REMARK VINA RESULT:    -4.270      0.000      0.000
REMARK INTER + INTRA:          -6.127
REMARK INTER:                  -6.267
REMARK INTRA:                   0.140
REMARK UNBOUND:                 0.140
REMARK SMILES O=C([O-])CCCCCCCC(=O)[O-]
REMARK SMILES IDX 7 1 6 2 5 3 4 4 2 5 1 6 3 7 8 8 9 9 10 10 11 11 12 12 13 13
REMARK H PARENT
REMARK Flexibility Score: inf
ROOT
ATOM      1  C   UNL     1      11.909   0.493  64.925  1.00  0.00     0.000 C 
ENDROOT
BRANCH   1   2
ATOM      2  C   UNL     1      12.852   1.086  65.984  1.00  0.00     0.000 C 
BRANCH   2   3
ATOM      3  C   UNL     1      12.170   1.256  67.353  1.00  0.00     0.006 C 
BRANCH   3   4
ATOM      4  C   UNL     1      11.543   2.647  67.520  1.00  0.00     0.053 C 
BRANCH   4   5
ATOM      5  C   UNL     1      10.127   2.683  67.031  1.00  0.00     0.041 C 
ATOM      6  O   UNL     1       9.180   2.403  67.813  1.00  0.00    -0.550 OA
ATOM      7  O   UNL     1       9.855   2.993  65.705  1.00  0.00    -0.550 OA
ENDBRANCH   4   5
ENDBRANCH   3   4
ENDBRANCH   2   3
ENDBRANCH   1   2
BRANCH   1   8
ATOM      8  C   UNL     1      11.807  -1.036  65.011  1.00  0.00     0.000 C 
BRANCH   8   9
ATOM      9  C   UNL     1      11.205  -1.619  63.727  1.00  0.00     0.006 C 
BRANCH   9  10
ATOM     10  C   UNL     1      10.209  -2.739  64.044  1.00  0.00     0.053 C 
BRANCH  10  11
ATOM     11  C   UNL     1      10.640  -3.495  65.261  1.00  0.00     0.041 C 
ATOM     12  O   UNL     1       9.831  -3.690  66.205  1.00  0.00    -0.550 OA
ATOM     13  O   UNL     1      11.950  -3.942  65.374  1.00  0.00    -0.550 OA
ENDBRANCH  10  11
ENDBRANCH   9  10
ENDBRANCH   8   9
ENDBRANCH   1   8
TORSDOF 8
ENDMDL
MODEL 2
REMARK VINA RESULT:    -3.957     17.838     19.624
REMARK INTER + INTRA:          -5.667
REMARK INTER:                  -4.975
REMARK INTRA:                  -0.692
REMARK UNBOUND:                 0.140
REMARK SMILES O=C([O-])CCCCCCCC(=O)[O-]
REMARK SMILES IDX 7 1 6 2 5 3 4 4 2 5 1 6 3 7 8 8 9 9 10 10 11 11 12 12 13 13
REMARK H PARENT
REMARK Flexibility Score: inf
ROOT
ATOM      1  C   UNL     1      -3.281 -12.811  67.276  1.00  0.00     0.000 C 
ENDROOT
BRANCH   1   2
ATOM      2  C   UNL     1      -3.568 -11.455  67.938  1.00  0.00     0.000 C 
BRANCH   2   3
ATOM      3  C   UNL     1      -4.627 -10.638  67.177  1.00  0.00     0.006 C 
BRANCH   3   4
ATOM      4  C   UNL     1      -3.994  -9.628  66.210  1.00  0.00     0.053 C 
BRANCH   4   5
ATOM      5  C   UNL     1      -4.007 -10.124  64.796  1.00  0.00     0.041 C 
ATOM      6  O   UNL     1      -5.090 -10.479  64.260  1.00  0.00    -0.550 OA
ATOM      7  O   UNL     1      -2.821 -10.225  64.081  1.00  0.00    -0.550 OA
ENDBRANCH   4   5
ENDBRANCH   3   4
ENDBRANCH   2   3
ENDBRANCH   1   2
BRANCH   1   8
ATOM      8  C   UNL     1      -4.561 -13.567  66.891  1.00  0.00     0.000 C 
BRANCH   8   9
ATOM      9  C   UNL     1      -4.347 -14.399  65.621  1.00  0.00     0.006 C 
BRANCH   9  10
ATOM     10  C   UNL     1      -5.429 -14.103  64.579  1.00  0.00     0.053 C 
BRANCH  10  11
ATOM     11  C   UNL     1      -4.808 -13.735  63.268  1.00  0.00     0.041 C 
ATOM     12  O   UNL     1      -3.606 -13.367  63.218  1.00  0.00    -0.550 OA
ATOM     13  O   UNL     1      -5.573 -13.750  62.109  1.00  0.00    -0.550 OA
ENDBRANCH  10  11
ENDBRANCH   9  10
ENDBRANCH   8   9
ENDBRANCH   1   8
TORSDOF 8
ENDMDL
MODEL 3
REMARK VINA RESULT:    -3.877     17.787     19.736
REMARK INTER + INTRA:          -5.550
REMARK INTER:                  -4.846
REMARK INTRA:                  -0.704
REMARK UNBOUND:                 0.140
REMARK SMILES O=C([O-])CCCCCCCC(=O)[O-]
REMARK SMILES IDX 7 1 6 2 5 3 4 4 2 5 1 6 3 7 8 8 9 9 10 10 11 11 12 12 13 13
REMARK H PARENT
REMARK Flexibility Score: inf
ROOT
ATOM      1  C   UNL     1      -3.268 -10.282  64.372  1.00  0.00     0.000 C 
ENDROOT
BRANCH   1   2
ATOM      2  C   UNL     1      -3.543 -11.122  65.628  1.00  0.00     0.000 C 
BRANCH   2   3
ATOM      3  C   UNL     1      -4.636 -12.182  65.404  1.00  0.00     0.006 C 
BRANCH   3   4
ATOM      4  C   UNL     1      -4.955 -12.378  63.915  1.00  0.00     0.053 C 
BRANCH   4   5
ATOM      5  C   UNL     1      -4.628 -13.765  63.452  1.00  0.00     0.041 C 
ATOM      6  O   UNL     1      -4.901 -14.120  62.275  1.00  0.00    -0.550 OA
ATOM      7  O   UNL     1      -4.051 -14.675  64.328  1.00  0.00    -0.550 OA
ENDBRANCH   4   5
ENDBRANCH   3   4
ENDBRANCH   2   3
ENDBRANCH   1   2
BRANCH   1   8
ATOM      8  C   UNL     1      -3.374  -8.772  64.633  1.00  0.00     0.000 C 
BRANCH   8   9
ATOM      9  C   UNL     1      -3.943  -8.495  66.030  1.00  0.00     0.006 C 
BRANCH   9  10
ATOM     10  C   UNL     1      -5.115  -7.513  65.962  1.00  0.00     0.053 C 
BRANCH  10  11
ATOM     11  C   UNL     1      -6.229  -8.081  65.140  1.00  0.00     0.041 C 
ATOM     12  O   UNL     1      -6.703  -7.425  64.176  1.00  0.00    -0.550 OA
ATOM     13  O   UNL     1      -6.779  -9.312  65.471  1.00  0.00    -0.550 OA
ENDBRANCH  10  11
ENDBRANCH   9  10
ENDBRANCH   8   9
ENDBRANCH   1   8
TORSDOF 8
ENDMDL
MODEL 4
REMARK VINA RESULT:    -3.863     17.140     19.985
REMARK INTER + INTRA:          -5.530
REMARK INTER:                  -5.000
REMARK INTRA:                  -0.530
REMARK UNBOUND:                 0.140
REMARK SMILES O=C([O-])CCCCCCCC(=O)[O-]
REMARK SMILES IDX 7 1 6 2 5 3 4 4 2 5 1 6 3 7 8 8 9 9 10 10 11 11 12 12 13 13
REMARK H PARENT
REMARK Flexibility Score: inf
ROOT
ATOM      1  C   UNL     1      -5.361 -12.602  67.460  1.00  0.00     0.000 C 
ENDROOT
BRANCH   1   2
ATOM      2  C   UNL     1      -4.270 -13.510  66.871  1.00  0.00     0.000 C 
BRANCH   2   3
ATOM      3  C   UNL     1      -4.828 -14.520  65.853  1.00  0.00     0.006 C 
BRANCH   3   4
ATOM      4  C   UNL     1      -4.056 -14.492  64.526  1.00  0.00     0.053 C 
BRANCH   4   5
ATOM      5  C   UNL     1      -4.783 -13.709  63.475  1.00  0.00     0.041 C 
ATOM      6  O   UNL     1      -5.271 -12.581  63.749  1.00  0.00    -0.550 OA
ATOM      7  O   UNL     1      -4.949 -14.239  62.202  1.00  0.00    -0.550 OA
ENDBRANCH   4   5
ENDBRANCH   3   4
ENDBRANCH   2   3
ENDBRANCH   1   2
BRANCH   1   8
ATOM      8  C   UNL     1      -4.922 -11.134  67.556  1.00  0.00     0.000 C 
BRANCH   8   9
ATOM      9  C   UNL     1      -3.849 -10.812  66.509  1.00  0.00     0.006 C 
BRANCH   9  10
ATOM     10  C   UNL     1      -4.009  -9.386  65.976  1.00  0.00     0.053 C 
BRANCH  10  11
ATOM     11  C   UNL     1      -3.331  -9.242  64.650  1.00  0.00     0.041 C 
ATOM     12  O   UNL     1      -2.918 -10.260  64.036  1.00  0.00    -0.550 OA
ATOM     13  O   UNL     1      -3.110  -7.979  64.115  1.00  0.00    -0.550 OA
ENDBRANCH  10  11
ENDBRANCH   9  10
ENDBRANCH   8   9
ENDBRANCH   1   8
TORSDOF 8
ENDMDL
MODEL 5
REMARK VINA RESULT:    -3.779     16.350     19.213
REMARK INTER + INTRA:          -5.406
REMARK INTER:                  -4.998
REMARK INTRA:                  -0.408
REMARK UNBOUND:                 0.140
REMARK SMILES O=C([O-])CCCCCCCC(=O)[O-]
REMARK SMILES IDX 7 1 6 2 5 3 4 4 2 5 1 6 3 7 8 8 9 9 10 10 11 11 12 12 13 13
REMARK H PARENT
REMARK Flexibility Score: inf
ROOT
ATOM      1  C   UNL     1      -3.343 -10.835  64.364  1.00  0.00     0.000 C 
ENDROOT
BRANCH   1   2
ATOM      2  C   UNL     1      -4.836 -11.195  64.379  1.00  0.00     0.000 C 
BRANCH   2   3
ATOM      3  C   UNL     1      -5.160 -12.336  65.360  1.00  0.00     0.006 C 
BRANCH   3   4
ATOM      4  C   UNL     1      -5.778 -13.549  64.652  1.00  0.00     0.053 C 
BRANCH   4   5
ATOM      5  C   UNL     1      -4.820 -14.182  63.688  1.00  0.00     0.041 C 
ATOM      6  O   UNL     1      -3.773 -14.739  64.111  1.00  0.00    -0.550 OA
ATOM      7  O   UNL     1      -5.068 -14.127  62.323  1.00  0.00    -0.550 OA
ENDBRANCH   4   5
ENDBRANCH   3   4
ENDBRANCH   2   3
ENDBRANCH   1   2
BRANCH   1   8
ATOM      8  C   UNL     1      -3.098  -9.326  64.218  1.00  0.00     0.000 C 
BRANCH   8   9
ATOM      9  C   UNL     1      -4.030  -8.527  65.137  1.00  0.00     0.006 C 
BRANCH   9  10
ATOM     10  C   UNL     1      -3.350  -7.248  65.634  1.00  0.00     0.053 C 
BRANCH  10  11
ATOM     11  C   UNL     1      -3.249  -6.244  64.529  1.00  0.00     0.041 C 
ATOM     12  O   UNL     1      -4.254  -5.982  63.818  1.00  0.00    -0.550 OA
ATOM     13  O   UNL     1      -2.032  -5.636  64.252  1.00  0.00    -0.550 OA
ENDBRANCH  10  11
ENDBRANCH   9  10
ENDBRANCH   8   9
ENDBRANCH   1   8
TORSDOF 8
ENDMDL
MODEL 6
REMARK VINA RESULT:    -3.773     14.991     17.080
REMARK INTER + INTRA:          -5.398
REMARK INTER:                  -5.115
REMARK INTRA:                  -0.283
REMARK UNBOUND:                 0.140
REMARK SMILES O=C([O-])CCCCCCCC(=O)[O-]
REMARK SMILES IDX 7 1 6 2 5 3 4 4 2 5 1 6 3 7 8 8 9 9 10 10 11 11 12 12 13 13
REMARK H PARENT
REMARK Flexibility Score: inf
ROOT
ATOM      1  C   UNL     1      -3.193  -1.876  58.654  1.00  0.00     0.000 C 
ENDROOT
BRANCH   1   2
ATOM      2  C   UNL     1      -3.508  -2.480  57.276  1.00  0.00     0.000 C 
BRANCH   2   3
ATOM      3  C   UNL     1      -4.913  -3.105  57.211  1.00  0.00     0.006 C 
BRANCH   3   4
ATOM      4  C   UNL     1      -5.113  -3.951  55.946  1.00  0.00     0.053 C 
BRANCH   4   5
ATOM      5  C   UNL     1      -5.673  -5.305  56.262  1.00  0.00     0.041 C 
ATOM      6  O   UNL     1      -5.088  -6.343  55.854  1.00  0.00    -0.550 OA
ATOM      7  O   UNL     1      -6.857  -5.419  56.978  1.00  0.00    -0.550 OA
ENDBRANCH   4   5
ENDBRANCH   3   4
ENDBRANCH   2   3
ENDBRANCH   1   2
BRANCH   1   8
ATOM      8  C   UNL     1      -1.698  -1.588  58.847  1.00  0.00     0.000 C 
BRANCH   8   9
ATOM      9  C   UNL     1      -0.993  -1.415  57.496  1.00  0.00     0.006 C 
BRANCH   9  10
ATOM     10  C   UNL     1       0.459  -1.895  57.567  1.00  0.00     0.053 C 
BRANCH  10  11
ATOM     11  C   UNL     1       1.391  -0.732  57.702  1.00  0.00     0.041 C 
ATOM     12  O   UNL     1       0.996   0.431  57.426  1.00  0.00    -0.550 OA
ATOM     13  O   UNL     1       2.710  -0.938  58.084  1.00  0.00    -0.550 OA
ENDBRANCH  10  11
ENDBRANCH   9  10
ENDBRANCH   8   9
ENDBRANCH   1   8
TORSDOF 8
ENDMDL
MODEL 7
REMARK VINA RESULT:    -3.757     15.932     17.874
REMARK INTER + INTRA:          -5.374
REMARK INTER:                  -4.989
REMARK INTRA:                  -0.386
REMARK UNBOUND:                 0.140
REMARK SMILES O=C([O-])CCCCCCCC(=O)[O-]
REMARK SMILES IDX 7 1 6 2 5 3 4 4 2 5 1 6 3 7 8 8 9 9 10 10 11 11 12 12 13 13
REMARK H PARENT
REMARK Flexibility Score: inf
ROOT
ATOM      1  C   UNL     1      -3.254 -10.319  64.349  1.00  0.00     0.000 C 
ENDROOT
BRANCH   1   2
ATOM      2  C   UNL     1      -3.263  -8.783  64.398  1.00  0.00     0.000 C 
BRANCH   2   3
ATOM      3  C   UNL     1      -3.783  -8.237  65.739  1.00  0.00     0.006 C 
BRANCH   3   4
ATOM      4  C   UNL     1      -4.010  -6.720  65.698  1.00  0.00     0.053 C 
BRANCH   4   5
ATOM      5  C   UNL     1      -2.798  -5.987  65.209  1.00  0.00     0.041 C 
ATOM      6  O   UNL     1      -1.776  -5.895  65.940  1.00  0.00    -0.550 OA
ATOM      7  O   UNL     1      -2.807  -5.379  63.961  1.00  0.00    -0.550 OA
ENDBRANCH   4   5
ENDBRANCH   3   4
ENDBRANCH   2   3
ENDBRANCH   1   2
BRANCH   1   8
ATOM      8  C   UNL     1      -3.826 -10.957  65.624  1.00  0.00     0.000 C 
BRANCH   8   9
ATOM      9  C   UNL     1      -4.285 -12.396  65.360  1.00  0.00     0.006 C 
BRANCH   9  10
ATOM     10  C   UNL     1      -4.912 -12.527  63.969  1.00  0.00     0.053 C 
BRANCH  10  11
ATOM     11  C   UNL     1      -4.653 -13.888  63.403  1.00  0.00     0.041 C 
ATOM     12  O   UNL     1      -5.002 -14.161  62.225  1.00  0.00    -0.550 OA
ATOM     13  O   UNL     1      -4.072 -14.871  64.194  1.00  0.00    -0.550 OA
ENDBRANCH  10  11
ENDBRANCH   9  10
ENDBRANCH   8   9
ENDBRANCH   1   8
TORSDOF 8
ENDMDL
MODEL 8
REMARK VINA RESULT:    -3.695     13.198     14.830
REMARK INTER + INTRA:          -5.283
REMARK INTER:                  -4.991
REMARK INTRA:                  -0.291
REMARK UNBOUND:                 0.140
REMARK SMILES O=C([O-])CCCCCCCC(=O)[O-]
REMARK SMILES IDX 7 1 6 2 5 3 4 4 2 5 1 6 3 7 8 8 9 9 10 10 11 11 12 12 13 13
REMARK H PARENT
REMARK Flexibility Score: inf
ROOT
ATOM      1  C   UNL     1      -3.084  -2.039  58.702  1.00  0.00     0.000 C 
ENDROOT
BRANCH   1   2
ATOM      2  C   UNL     1      -2.021  -1.690  57.648  1.00  0.00     0.000 C 
BRANCH   2   3
ATOM      3  C   UNL     1      -0.588  -1.777  58.202  1.00  0.00     0.006 C 
BRANCH   3   4
ATOM      4  C   UNL     1       0.450  -1.238  57.208  1.00  0.00     0.053 C 
BRANCH   4   5
ATOM      5  C   UNL     1       1.364  -0.235  57.844  1.00  0.00     0.041 C 
ATOM      6  O   UNL     1       0.887   0.758  58.455  1.00  0.00    -0.550 OA
ATOM      7  O   UNL     1       2.741  -0.379  57.736  1.00  0.00    -0.550 OA
ENDBRANCH   4   5
ENDBRANCH   3   4
ENDBRANCH   2   3
ENDBRANCH   1   2
BRANCH   1   8
ATOM      8  C   UNL     1      -2.474  -2.378  60.070  1.00  0.00     0.000 C 
BRANCH   8   9
ATOM      9  C   UNL     1      -3.567  -2.721  61.089  1.00  0.00     0.006 C 
BRANCH   9  10
ATOM     10  C   UNL     1      -3.024  -3.630  62.195  1.00  0.00     0.053 C 
BRANCH  10  11
ATOM     11  C   UNL     1      -3.769  -4.927  62.221  1.00  0.00     0.041 C 
ATOM     12  O   UNL     1      -4.795  -5.083  61.508  1.00  0.00    -0.550 OA
ATOM     13  O   UNL     1      -3.359  -5.947  63.070  1.00  0.00    -0.550 OA
ENDBRANCH  10  11
ENDBRANCH   9  10
ENDBRANCH   8   9
ENDBRANCH   1   8
TORSDOF 8
ENDMDL
MODEL 9
REMARK VINA RESULT:    -3.681     14.422     16.136
REMARK INTER + INTRA:          -5.263
REMARK INTER:                  -4.681
REMARK INTRA:                  -0.582
REMARK UNBOUND:                 0.140
REMARK SMILES O=C([O-])CCCCCCCC(=O)[O-]
REMARK SMILES IDX 7 1 6 2 5 3 4 4 2 5 1 6 3 7 8 8 9 9 10 10 11 11 12 12 13 13
REMARK H PARENT
REMARK Flexibility Score: inf
ROOT
ATOM      1  C   UNL     1       5.567 -15.406  62.957  1.00  0.00     0.000 C 
ENDROOT
BRANCH   1   2
ATOM      2  C   UNL     1       5.415 -15.622  64.470  1.00  0.00     0.000 C 
BRANCH   2   3
ATOM      3  C   UNL     1       6.667 -15.196  65.257  1.00  0.00     0.006 C 
BRANCH   3   4
ATOM      4  C   UNL     1       7.720 -14.536  64.357  1.00  0.00     0.053 C 
BRANCH   4   5
ATOM      5  C   UNL     1       9.070 -14.506  65.006  1.00  0.00     0.041 C 
ATOM      6  O   UNL     1       9.601 -13.406  65.314  1.00  0.00    -0.550 OA
ATOM      7  O   UNL     1       9.756 -15.690  65.243  1.00  0.00    -0.550 OA
ENDBRANCH   4   5
ENDBRANCH   3   4
ENDBRANCH   2   3
ENDBRANCH   1   2
BRANCH   1   8
ATOM      8  C   UNL     1       5.583 -16.723  62.168  1.00  0.00     0.000 C 
BRANCH   8   9
ATOM      9  C   UNL     1       6.236 -16.531  60.793  1.00  0.00     0.006 C 
BRANCH   9  10
ATOM     10  C   UNL     1       6.696 -15.084  60.599  1.00  0.00     0.053 C 
BRANCH  10  11
ATOM     11  C   UNL     1       8.147 -15.039  60.237  1.00  0.00     0.041 C 
ATOM     12  O   UNL     1       9.026 -15.100  61.136  1.00  0.00    -0.550 OA
ATOM     13  O   UNL     1       8.528 -14.880  58.911  1.00  0.00    -0.550 OA
ENDBRANCH  10  11
ENDBRANCH   9  10
ENDBRANCH   8   9
ENDBRANCH   1   8
TORSDOF 8
ENDMDL
