MODEL 1
REMARK VINA RESULT:    -3.754      0.000      0.000
REMARK INTER + INTRA:          -4.475
REMARK INTER:                  -4.413
REMARK INTRA:                  -0.062
REMARK UNBOUND:                -0.062
REMARK SMILES O=C([O-])CCC(=O)[O-]
REMARK SMILES IDX 4 1 2 2 1 3 3 4 5 5 6 6 7 7 8 8
REMARK H PARENT
REMARK Flexibility Score: inf
ROOT
ATOM      1  C   UNL     1     -38.586  19.220 -28.675  1.00  0.00     0.059 C 
ENDROOT
BRANCH   1   2
ATOM      2  C   UNL     1     -39.846  20.026 -28.650  1.00  0.00     0.042 C 
ATOM      3  O   UNL     1     -39.894  21.146 -29.223  1.00  0.00    -0.550 OA
ATOM      4  O   UNL     1     -40.983  19.519 -28.035  1.00  0.00    -0.550 OA
ENDBRANCH   1   2
BRANCH   1   5
ATOM      5  C   UNL     1     -38.155  18.946 -30.117  1.00  0.00     0.059 C 
BRANCH   5   6
ATOM      6  C   UNL     1     -38.308  17.493 -30.441  1.00  0.00     0.042 C 
ATOM      7  O   UNL     1     -39.200  17.115 -31.245  1.00  0.00    -0.550 OA
ATOM      8  O   UNL     1     -37.433  16.562 -29.894  1.00  0.00    -0.550 OA
ENDBRANCH   5   6
ENDBRANCH   1   5
TORSDOF 3
ENDMDL
MODEL 2
REMARK VINA RESULT:    -3.733      0.066      3.846
REMARK INTER + INTRA:          -4.450
REMARK INTER:                  -4.378
REMARK INTRA:                  -0.072
REMARK UNBOUND:                -0.062
REMARK SMILES O=C([O-])CCC(=O)[O-]
REMARK SMILES IDX 4 1 2 2 1 3 3 4 5 5 6 6 7 7 8 8
REMARK H PARENT
REMARK Flexibility Score: inf
ROOT
ATOM      1  C   UNL     1     -38.101  18.967 -30.041  1.00  0.00     0.059 C 
ENDROOT
BRANCH   1   2
ATOM      2  C   UNL     1     -38.303  17.527 -30.390  1.00  0.00     0.042 C 
ATOM      3  O   UNL     1     -39.209  17.190 -31.197  1.00  0.00    -0.550 OA
ATOM      4  O   UNL     1     -37.458  16.558 -29.863  1.00  0.00    -0.550 OA
ENDBRANCH   1   2
BRANCH   1   5
ATOM      5  C   UNL     1     -38.562  19.240 -28.609  1.00  0.00     0.059 C 
BRANCH   5   6
ATOM      6  C   UNL     1     -39.846  20.009 -28.610  1.00  0.00     0.042 C 
ATOM      7  O   UNL     1     -39.914  21.125 -29.188  1.00  0.00    -0.550 OA
ATOM      8  O   UNL     1     -40.979  19.470 -28.014  1.00  0.00    -0.550 OA
ENDBRANCH   5   6
ENDBRANCH   1   5
TORSDOF 3
ENDMDL
MODEL 3
REMARK VINA RESULT:    -3.727      0.134      3.886
REMARK INTER + INTRA:          -4.443
REMARK INTER:                  -4.372
REMARK INTRA:                  -0.072
REMARK UNBOUND:                -0.062
REMARK SMILES O=C([O-])CCC(=O)[O-]
REMARK SMILES IDX 4 1 2 2 1 3 3 4 5 5 6 6 7 7 8 8
REMARK H PARENT
REMARK Flexibility Score: inf
ROOT
ATOM      1  C   UNL     1     -38.060  18.990 -29.959  1.00  0.00     0.059 C 
ENDROOT
BRANCH   1   2
ATOM      2  C   UNL     1     -38.222  17.548 -30.325  1.00  0.00     0.042 C 
ATOM      3  O   UNL     1     -37.487  16.673 -29.798  1.00  0.00    -0.550 OA
ATOM      4  O   UNL     1     -39.219  17.165 -31.214  1.00  0.00    -0.550 OA
ENDBRANCH   1   2
BRANCH   1   5
ATOM      5  C   UNL     1     -38.576  19.243 -28.542  1.00  0.00     0.059 C 
BRANCH   5   6
ATOM      6  C   UNL     1     -39.870  19.993 -28.583  1.00  0.00     0.042 C 
ATOM      7  O   UNL     1     -40.908  19.492 -28.076  1.00  0.00    -0.550 OA
ATOM      8  O   UNL     1     -39.919  21.266 -29.137  1.00  0.00    -0.550 OA
ENDBRANCH   5   6
ENDBRANCH   1   5
TORSDOF 3
ENDMDL
MODEL 4
REMARK VINA RESULT:    -3.695      0.187      1.630
REMARK INTER + INTRA:          -4.405
REMARK INTER:                  -4.329
REMARK INTRA:                  -0.076
REMARK UNBOUND:                -0.062
REMARK SMILES O=C([O-])CCC(=O)[O-]
REMARK SMILES IDX 4 1 2 2 1 3 3 4 5 5 6 6 7 7 8 8
REMARK H PARENT
REMARK Flexibility Score: inf
ROOT
ATOM      1  C   UNL     1     -38.498  19.140 -28.542  1.00  0.00     0.059 C 
ENDROOT
BRANCH   1   2
ATOM      2  C   UNL     1     -39.753  19.949 -28.635  1.00  0.00     0.042 C 
ATOM      3  O   UNL     1     -40.830  19.506 -28.156  1.00  0.00    -0.550 OA
ATOM      4  O   UNL     1     -39.725  21.214 -29.208  1.00  0.00    -0.550 OA
ENDBRANCH   1   2
BRANCH   1   5
ATOM      5  C   UNL     1     -37.956  18.833 -29.938  1.00  0.00     0.059 C 
BRANCH   5   6
ATOM      6  C   UNL     1     -38.206  17.401 -30.294  1.00  0.00     0.042 C 
ATOM      7  O   UNL     1     -37.517  16.488 -29.767  1.00  0.00    -0.550 OA
ATOM      8  O   UNL     1     -39.233  17.071 -31.170  1.00  0.00    -0.550 OA
ENDBRANCH   5   6
ENDBRANCH   1   5
TORSDOF 3
ENDMDL
MODEL 5
REMARK VINA RESULT:    -3.525      1.484      2.074
REMARK INTER + INTRA:          -4.205
REMARK INTER:                  -4.117
REMARK INTRA:                  -0.088
REMARK UNBOUND:                -0.062
REMARK SMILES O=C([O-])CCC(=O)[O-]
REMARK SMILES IDX 4 1 2 2 1 3 3 4 5 5 6 6 7 7 8 8
REMARK H PARENT
REMARK Flexibility Score: inf
ROOT
ATOM      1  C   UNL     1     -39.719  19.955 -28.767  1.00  0.00     0.059 C 
ENDROOT
BRANCH   1   2
ATOM      2  C   UNL     1     -39.594  21.414 -29.071  1.00  0.00     0.042 C 
ATOM      3  O   UNL     1     -40.546  22.033 -29.616  1.00  0.00    -0.550 OA
ATOM      4  O   UNL     1     -38.443  22.104 -28.710  1.00  0.00    -0.550 OA
ENDBRANCH   1   2
BRANCH   1   5
ATOM      5  C   UNL     1     -38.429  19.220 -29.130  1.00  0.00     0.059 C 
BRANCH   5   6
ATOM      6  C   UNL     1     -38.424  18.857 -30.582  1.00  0.00     0.042 C 
ATOM      7  O   UNL     1     -37.970  19.664 -31.435  1.00  0.00    -0.550 OA
ATOM      8  O   UNL     1     -38.877  17.608 -30.988  1.00  0.00    -0.550 OA
ENDBRANCH   5   6
ENDBRANCH   1   5
TORSDOF 3
ENDMDL
MODEL 6
REMARK VINA RESULT:    -3.469      2.182      3.591
REMARK INTER + INTRA:          -4.140
REMARK INTER:                  -4.045
REMARK INTRA:                  -0.095
REMARK UNBOUND:                -0.062
REMARK SMILES O=C([O-])CCC(=O)[O-]
REMARK SMILES IDX 4 1 2 2 1 3 3 4 5 5 6 6 7 7 8 8
REMARK H PARENT
REMARK Flexibility Score: inf
ROOT
ATOM      1  C   UNL     1     -37.290  17.407 -29.915  1.00  0.00     0.059 C 
ENDROOT
BRANCH   1   2
ATOM      2  C   UNL     1     -38.367  17.826 -30.866  1.00  0.00     0.042 C 
ATOM      3  O   UNL     1     -39.239  16.999 -31.241  1.00  0.00    -0.550 OA
ATOM      4  O   UNL     1     -38.437  19.144 -31.300  1.00  0.00    -0.550 OA
ENDBRANCH   1   2
BRANCH   1   5
ATOM      5  C   UNL     1     -36.665  18.630 -29.244  1.00  0.00     0.059 C 
BRANCH   5   6
ATOM      6  C   UNL     1     -37.124  18.739 -27.823  1.00  0.00     0.042 C 
ATOM      7  O   UNL     1     -38.346  18.893 -27.563  1.00  0.00    -0.550 OA
ATOM      8  O   UNL     1     -36.208  18.621 -26.785  1.00  0.00    -0.550 OA
ENDBRANCH   5   6
ENDBRANCH   1   5
TORSDOF 3
ENDMDL
MODEL 7
REMARK VINA RESULT:    -3.395      2.281      3.532
REMARK INTER + INTRA:          -4.053
REMARK INTER:                  -3.976
REMARK INTRA:                  -0.077
REMARK UNBOUND:                -0.062
REMARK SMILES O=C([O-])CCC(=O)[O-]
REMARK SMILES IDX 4 1 2 2 1 3 3 4 5 5 6 6 7 7 8 8
REMARK H PARENT
REMARK Flexibility Score: inf
ROOT
ATOM      1  C   UNL     1     -38.016  21.214 -29.555  1.00  0.00     0.059 C 
ENDROOT
BRANCH   1   2
ATOM      2  C   UNL     1     -37.706  20.720 -30.932  1.00  0.00     0.042 C 
ATOM      3  O   UNL     1     -36.772  21.241 -31.598  1.00  0.00    -0.550 OA
ATOM      4  O   UNL     1     -38.416  19.651 -31.464  1.00  0.00    -0.550 OA
ENDBRANCH   1   2
BRANCH   1   5
ATOM      5  C   UNL     1     -39.507  21.060 -29.254  1.00  0.00     0.059 C 
BRANCH   5   6
ATOM      6  C   UNL     1     -39.739  19.894 -28.344  1.00  0.00     0.042 C 
ATOM      7  O   UNL     1     -40.912  19.536 -28.062  1.00  0.00    -0.550 OA
ATOM      8  O   UNL     1     -38.659  19.174 -27.848  1.00  0.00    -0.550 OA
ENDBRANCH   5   6
ENDBRANCH   1   5
TORSDOF 3
ENDMDL
MODEL 8
REMARK VINA RESULT:    -3.376      1.457      3.995
REMARK INTER + INTRA:          -4.031
REMARK INTER:                  -3.892
REMARK INTRA:                  -0.139
REMARK UNBOUND:                -0.062
REMARK SMILES O=C([O-])CCC(=O)[O-]
REMARK SMILES IDX 4 1 2 2 1 3 3 4 5 5 6 6 7 7 8 8
REMARK H PARENT
REMARK Flexibility Score: inf
ROOT
ATOM      1  C   UNL     1     -38.461  17.453 -30.539  1.00  0.00     0.059 C 
ENDROOT
BRANCH   1   2
ATOM      2  C   UNL     1     -37.248  16.798 -29.957  1.00  0.00     0.042 C 
ATOM      3  O   UNL     1     -37.344  15.685 -29.377  1.00  0.00    -0.550 OA
ATOM      4  O   UNL     1     -36.001  17.394 -30.099  1.00  0.00    -0.550 OA
ENDBRANCH   1   2
BRANCH   1   5
ATOM      5  C   UNL     1     -38.300  18.973 -30.538  1.00  0.00     0.059 C 
BRANCH   5   6
ATOM      6  C   UNL     1     -38.642  19.534 -29.194  1.00  0.00     0.042 C 
ATOM      7  O   UNL     1     -39.845  19.640 -28.839  1.00  0.00    -0.550 OA
ATOM      8  O   UNL     1     -37.629  19.895 -28.313  1.00  0.00    -0.550 OA
ENDBRANCH   5   6
ENDBRANCH   1   5
TORSDOF 3
ENDMDL
MODEL 9
REMARK VINA RESULT:    -3.338     15.994     16.874
REMARK INTER + INTRA:          -3.986
REMARK INTER:                  -3.870
REMARK INTRA:                  -0.117
REMARK UNBOUND:                -0.062
REMARK SMILES O=C([O-])CCC(=O)[O-]
REMARK SMILES IDX 4 1 2 2 1 3 3 4 5 5 6 6 7 7 8 8
REMARK H PARENT
REMARK Flexibility Score: inf
ROOT
ATOM      1  C   UNL     1     -51.864  23.888 -37.906  1.00  0.00     0.059 C 
ENDROOT
BRANCH   1   2
ATOM      2  C   UNL     1     -51.854  23.578 -39.369  1.00  0.00     0.042 C 
ATOM      3  O   UNL     1     -52.742  24.053 -40.125  1.00  0.00    -0.550 OA
ATOM      4  O   UNL     1     -50.834  22.803 -39.909  1.00  0.00    -0.550 OA
ENDBRANCH   1   2
BRANCH   1   5
ATOM      5  C   UNL     1     -53.250  23.631 -37.314  1.00  0.00     0.059 C 
BRANCH   5   6
ATOM      6  C   UNL     1     -53.377  22.205 -36.879  1.00  0.00     0.042 C 
ATOM      7  O   UNL     1     -53.037  21.866 -35.714  1.00  0.00    -0.550 OA
ATOM      8  O   UNL     1     -53.915  21.259 -37.743  1.00  0.00    -0.550 OA
ENDBRANCH   5   6
ENDBRANCH   1   5
TORSDOF 3
ENDMDL
