MODEL 1
REMARK VINA RESULT:    -2.230      0.000      0.000
REMARK INTER + INTRA:          -2.230
REMARK INTER:                  -2.230
REMARK INTRA:                   0.000
REMARK UNBOUND:                 0.000
REMARK SMILES CC(=O)[O-]
REMARK SMILES IDX 1 1 2 2 3 3 4 4
REMARK H PARENT
REMARK Flexibility Score: inf
ROOT
ATOM      1  C   UNL     1      50.599   2.855  20.189  1.00  0.00     0.063 C 
ATOM      2  C   UNL     1      51.736   3.065  19.248  1.00  0.00     0.038 C 
ATOM      3  O   UNL     1      52.584   2.152  19.067  1.00  0.00    -0.550 OA
ATOM      4  O   UNL     1      51.894   4.287  18.607  1.00  0.00    -0.550 OA
ENDROOT
TORSDOF 0
ENDMDL
MODEL 2
REMARK VINA RESULT:    -2.218      0.129      1.625
REMARK INTER + INTRA:          -2.218
REMARK INTER:                  -2.218
REMARK INTRA:                   0.000
REMARK UNBOUND:                 0.000
REMARK SMILES CC(=O)[O-]
REMARK SMILES IDX 1 1 2 2 3 3 4 4
REMARK H PARENT
REMARK Flexibility Score: inf
ROOT
ATOM      1  C   UNL     1      50.596   2.892  20.209  1.00  0.00     0.063 C 
ATOM      2  C   UNL     1      51.741   3.041  19.265  1.00  0.00     0.038 C 
ATOM      3  O   UNL     1      51.915   4.125  18.648  1.00  0.00    -0.550 OA
ATOM      4  O   UNL     1      52.588   1.968  19.022  1.00  0.00    -0.550 OA
ENDROOT
TORSDOF 0
ENDMDL
MODEL 3
REMARK VINA RESULT:    -2.213      4.486      5.191
REMARK INTER + INTRA:          -2.213
REMARK INTER:                  -2.213
REMARK INTRA:                   0.000
REMARK UNBOUND:                 0.000
REMARK SMILES CC(=O)[O-]
REMARK SMILES IDX 1 1 2 2 3 3 4 4
REMARK H PARENT
REMARK Flexibility Score: inf
ROOT
ATOM      1  C   UNL     1      49.954   7.532  20.611  1.00  0.00     0.063 C 
ATOM      2  C   UNL     1      50.785   7.969  19.453  1.00  0.00     0.038 C 
ATOM      3  O   UNL     1      50.680   9.142  19.006  1.00  0.00    -0.550 OA
ATOM      4  O   UNL     1      51.640   7.069  18.830  1.00  0.00    -0.550 OA
ENDROOT
TORSDOF 0
ENDMDL
MODEL 4
REMARK VINA RESULT:    -2.175      5.866      6.442
REMARK INTER + INTRA:          -2.175
REMARK INTER:                  -2.175
REMARK INTRA:                   0.000
REMARK UNBOUND:                 0.000
REMARK SMILES CC(=O)[O-]
REMARK SMILES IDX 1 1 2 2 3 3 4 4
REMARK H PARENT
REMARK Flexibility Score: inf
ROOT
ATOM      1  C   UNL     1      50.788   8.226  19.119  1.00  0.00     0.063 C 
ATOM      2  C   UNL     1      49.900   9.029  18.230  1.00  0.00     0.038 C 
ATOM      3  O   UNL     1      49.404   8.509  17.196  1.00  0.00    -0.550 OA
ATOM      4  O   UNL     1      49.658  10.367  18.511  1.00  0.00    -0.550 OA
ENDROOT
TORSDOF 0
ENDMDL
MODEL 5
REMARK VINA RESULT:    -2.150      1.769      2.306
REMARK INTER + INTRA:          -2.150
REMARK INTER:                  -2.150
REMARK INTRA:                   0.000
REMARK UNBOUND:                 0.000
REMARK SMILES CC(=O)[O-]
REMARK SMILES IDX 1 1 2 2 3 3 4 4
REMARK H PARENT
REMARK Flexibility Score: inf
ROOT
ATOM      1  C   UNL     1      51.868   3.305  19.125  1.00  0.00     0.063 C 
ATOM      2  C   UNL     1      53.054   2.530  19.590  1.00  0.00     0.038 C 
ATOM      3  O   UNL     1      54.126   3.125  19.875  1.00  0.00    -0.550 OA
ATOM      4  O   UNL     1      52.997   1.144  19.660  1.00  0.00    -0.550 OA
ENDROOT
TORSDOF 0
ENDMDL
MODEL 6
REMARK VINA RESULT:    -2.143      5.601      6.168
REMARK INTER + INTRA:          -2.143
REMARK INTER:                  -2.143
REMARK INTRA:                   0.000
REMARK UNBOUND:                 0.000
REMARK SMILES CC(=O)[O-]
REMARK SMILES IDX 1 1 2 2 3 3 4 4
REMARK H PARENT
REMARK Flexibility Score: inf
ROOT
ATOM      1  C   UNL     1      54.121  -3.428  18.730  1.00  0.00     0.063 C 
ATOM      2  C   UNL     1      54.708  -2.150  19.226  1.00  0.00     0.038 C 
ATOM      3  O   UNL     1      55.900  -2.116  19.630  1.00  0.00    -0.550 OA
ATOM      4  O   UNL     1      53.926  -1.004  19.292  1.00  0.00    -0.550 OA
ENDROOT
TORSDOF 0
ENDMDL
MODEL 7
REMARK VINA RESULT:    -2.137      6.680      6.976
REMARK INTER + INTRA:          -2.137
REMARK INTER:                  -2.137
REMARK INTRA:                   0.000
REMARK UNBOUND:                 0.000
REMARK SMILES CC(=O)[O-]
REMARK SMILES IDX 1 1 2 2 3 3 4 4
REMARK H PARENT
REMARK Flexibility Score: inf
ROOT
ATOM      1  C   UNL     1      54.158  -1.897  19.503  1.00  0.00     0.063 C 
ATOM      2  C   UNL     1      54.652  -3.081  18.742  1.00  0.00     0.038 C 
ATOM      3  O   UNL     1      55.884  -3.225  18.526  1.00  0.00    -0.550 OA
ATOM      4  O   UNL     1      53.750  -4.001  18.223  1.00  0.00    -0.550 OA
ENDROOT
TORSDOF 0
ENDMDL
MODEL 8
REMARK VINA RESULT:    -2.135      4.750      5.251
REMARK INTER + INTRA:          -2.135
REMARK INTER:                  -2.135
REMARK INTRA:                   0.000
REMARK UNBOUND:                 0.000
REMARK SMILES CC(=O)[O-]
REMARK SMILES IDX 1 1 2 2 3 3 4 4
REMARK H PARENT
REMARK Flexibility Score: inf
ROOT
ATOM      1  C   UNL     1      50.292   9.141  18.739  1.00  0.00     0.063 C 
ATOM      2  C   UNL     1      50.713   7.905  19.459  1.00  0.00     0.038 C 
ATOM      3  O   UNL     1      51.600   7.158  18.968  1.00  0.00    -0.550 OA
ATOM      4  O   UNL     1      50.091   7.545  20.648  1.00  0.00    -0.550 OA
ENDROOT
TORSDOF 0
ENDMDL
MODEL 9
REMARK VINA RESULT:    -2.133     10.658     11.055
REMARK INTER + INTRA:          -2.133
REMARK INTER:                  -2.133
REMARK INTRA:                   0.000
REMARK UNBOUND:                 0.000
REMARK SMILES CC(=O)[O-]
REMARK SMILES IDX 1 1 2 2 3 3 4 4
REMARK H PARENT
REMARK Flexibility Score: inf
ROOT
ATOM      1  C   UNL     1      49.609  15.035  18.760  1.00  0.00     0.063 C 
ATOM      2  C   UNL     1      49.268  13.659  18.296  1.00  0.00     0.038 C 
ATOM      3  O   UNL     1      48.386  12.991  18.896  1.00  0.00    -0.550 OA
ATOM      4  O   UNL     1      49.960  13.091  17.234  1.00  0.00    -0.550 OA
ENDROOT
TORSDOF 0
ENDMDL
