MODEL 1
REMARK VINA RESULT:     1.452      0.000      0.000
REMARK INTER + INTRA:           3.645
REMARK INTER:                   2.555
REMARK INTRA:                   1.090
REMARK UNBOUND:                 1.090
REMARK SMILES CCCCCCCCCCCCCCC(=O)[O-]
REMARK SMILES IDX 9 1 10 2 11 3 12 4 13 5 14 6 15 7 16 8 17 9 8 10 7 11 6 12
REMARK SMILES IDX 5 13 4 14 3 15 2 16 1 17
REMARK H PARENT
REMARK Flexibility Score: inf
ROOT
ATOM      1  C   UNL     1      -2.586  -8.225  -4.875  1.00  0.00     0.000 C 
ENDROOT
BRANCH   1   2
ATOM      2  C   UNL     1      -2.423  -6.794  -5.410  1.00  0.00     0.000 C 
BRANCH   2   3
ATOM      3  C   UNL     1      -0.943  -6.468  -5.663  1.00  0.00     0.000 C 
BRANCH   3   4
ATOM      4  C   UNL     1      -0.101  -7.721  -5.947  1.00  0.00     0.000 C 
BRANCH   4   5
ATOM      5  C   UNL     1       0.978  -7.966  -4.877  1.00  0.00     0.006 C 
BRANCH   5   6
ATOM      6  C   UNL     1       2.383  -7.612  -5.380  1.00  0.00     0.053 C 
BRANCH   6   7
ATOM      7  C   UNL     1       2.727  -6.180  -5.105  1.00  0.00     0.041 C 
ATOM      8  O   UNL     1       3.930  -5.814  -5.060  1.00  0.00    -0.550 OA
ATOM      9  O   UNL     1       1.715  -5.244  -4.928  1.00  0.00    -0.550 OA
ENDBRANCH   6   7
ENDBRANCH   5   6
ENDBRANCH   4   5
ENDBRANCH   3   4
ENDBRANCH   2   3
ENDBRANCH   1   2
BRANCH   1  10
ATOM     10  C   UNL     1      -3.806  -8.951  -5.469  1.00  0.00     0.000 C 
BRANCH  10  11
ATOM     11  C   UNL     1      -3.987 -10.412  -5.010  1.00  0.00    -0.000 C 
BRANCH  11  12
ATOM     12  C   UNL     1      -5.394 -10.993  -5.228  1.00  0.00    -0.000 C 
BRANCH  12  13
ATOM     13  C   UNL     1      -5.374 -12.332  -5.987  1.00  0.00    -0.000 C 
BRANCH  13  14
ATOM     14  C   UNL     1      -4.654 -12.229  -7.340  1.00  0.00    -0.000 C 
BRANCH  14  15
ATOM     15  C   UNL     1      -4.203 -10.793  -7.662  1.00  0.00    -0.000 C 
BRANCH  15  16
ATOM     16  C   UNL     1      -4.708 -10.310  -9.030  1.00  0.00    -0.003 C 
ATOM     17  C   UNL     1      -4.633  -8.790  -9.182  1.00  0.00     0.004 C 
ENDBRANCH  15  16
ENDBRANCH  14  15
ENDBRANCH  13  14
ENDBRANCH  12  13
ENDBRANCH  11  12
ENDBRANCH  10  11
ENDBRANCH   1  10
TORSDOF 13
ENDMDL
MODEL 2
REMARK VINA RESULT:     1.888     17.183     19.008
REMARK INTER + INTRA:           4.414
REMARK INTER:                   4.530
REMARK INTRA:                  -0.117
REMARK UNBOUND:                 1.090
REMARK SMILES CCCCCCCCCCCCCCC(=O)[O-]
REMARK SMILES IDX 9 1 10 2 11 3 12 4 13 5 14 6 15 7 16 8 17 9 8 10 7 11 6 12
REMARK SMILES IDX 5 13 4 14 3 15 2 16 1 17
REMARK H PARENT
REMARK Flexibility Score: inf
ROOT
ATOM      1  C   UNL     1       7.637  -8.940 -21.311  1.00  0.00     0.000 C 
ENDROOT
BRANCH   1   2
ATOM      2  C   UNL     1       8.934  -9.428 -21.973  1.00  0.00     0.000 C 
BRANCH   2   3
ATOM      3  C   UNL     1       9.033 -10.960 -21.921  1.00  0.00     0.000 C 
BRANCH   3   4
ATOM      4  C   UNL     1       9.035 -11.505 -20.484  1.00  0.00     0.000 C 
BRANCH   4   5
ATOM      5  C   UNL     1       9.125 -10.390 -19.427  1.00  0.00     0.006 C 
BRANCH   5   6
ATOM      6  C   UNL     1       9.125 -10.946 -17.998  1.00  0.00     0.053 C 
BRANCH   6   7
ATOM      7  C   UNL     1       8.819  -9.882 -16.987  1.00  0.00     0.041 C 
ATOM      8  O   UNL     1       8.271  -8.807 -17.344  1.00  0.00    -0.550 OA
ATOM      9  O   UNL     1       9.117 -10.093 -15.646  1.00  0.00    -0.550 OA
ENDBRANCH   6   7
ENDBRANCH   5   6
ENDBRANCH   4   5
ENDBRANCH   3   4
ENDBRANCH   2   3
ENDBRANCH   1   2
BRANCH   1  10
ATOM     10  C   UNL     1       7.408  -7.428 -21.483  1.00  0.00     0.000 C 
BRANCH  10  11
ATOM     11  C   UNL     1       8.664  -6.612 -21.852  1.00  0.00    -0.000 C 
BRANCH  11  12
ATOM     12  C   UNL     1       8.844  -6.338 -23.354  1.00  0.00    -0.000 C 
BRANCH  12  13
ATOM     13  C   UNL     1       8.341  -4.944 -23.769  1.00  0.00    -0.000 C 
BRANCH  13  14
ATOM     14  C   UNL     1       7.552  -4.972 -25.087  1.00  0.00    -0.000 C 
BRANCH  14  15
ATOM     15  C   UNL     1       6.469  -6.065 -25.104  1.00  0.00    -0.000 C 
BRANCH  15  16
ATOM     16  C   UNL     1       5.283  -5.733 -24.186  1.00  0.00    -0.003 C 
ATOM     17  C   UNL     1       4.091  -5.153 -24.949  1.00  0.00     0.004 C 
ENDBRANCH  15  16
ENDBRANCH  14  15
ENDBRANCH  13  14
ENDBRANCH  12  13
ENDBRANCH  11  12
ENDBRANCH  10  11
ENDBRANCH   1  10
TORSDOF 13
ENDMDL
MODEL 3
REMARK VINA RESULT:     2.089     17.054     18.980
REMARK INTER + INTRA:           4.766
REMARK INTER:                   5.245
REMARK INTRA:                  -0.479
REMARK UNBOUND:                 1.090
REMARK SMILES CCCCCCCCCCCCCCC(=O)[O-]
REMARK SMILES IDX 9 1 10 2 11 3 12 4 13 5 14 6 15 7 16 8 17 9 8 10 7 11 6 12
REMARK SMILES IDX 5 13 4 14 3 15 2 16 1 17
REMARK H PARENT
REMARK Flexibility Score: inf
ROOT
ATOM      1  C   UNL     1       7.372  -7.684 -21.260  1.00  0.00     0.000 C 
ENDROOT
BRANCH   1   2
ATOM      2  C   UNL     1       8.670  -6.944 -21.614  1.00  0.00     0.000 C 
BRANCH   2   3
ATOM      3  C   UNL     1       8.489  -6.096 -22.882  1.00  0.00     0.000 C 
BRANCH   3   4
ATOM      4  C   UNL     1       8.334  -6.951 -24.150  1.00  0.00     0.000 C 
BRANCH   4   5
ATOM      5  C   UNL     1       7.147  -6.508 -25.022  1.00  0.00     0.006 C 
BRANCH   5   6
ATOM      6  C   UNL     1       6.235  -5.510 -24.297  1.00  0.00     0.053 C 
BRANCH   6   7
ATOM      7  C   UNL     1       4.804  -5.952 -24.313  1.00  0.00     0.041 C 
ATOM      8  O   UNL     1       4.488  -7.065 -24.807  1.00  0.00    -0.550 OA
ATOM      9  O   UNL     1       3.821  -5.143 -23.754  1.00  0.00    -0.550 OA
ENDBRANCH   6   7
ENDBRANCH   5   6
ENDBRANCH   4   5
ENDBRANCH   3   4
ENDBRANCH   2   3
ENDBRANCH   1   2
BRANCH   1  10
ATOM     10  C   UNL     1       7.197  -8.996 -22.046  1.00  0.00     0.000 C 
BRANCH  10  11
ATOM     11  C   UNL     1       7.457 -10.284 -21.239  1.00  0.00    -0.000 C 
BRANCH  11  12
ATOM     12  C   UNL     1       8.890 -10.436 -20.700  1.00  0.00    -0.000 C 
BRANCH  12  13
ATOM     13  C   UNL     1       9.072  -9.806 -19.308  1.00  0.00    -0.000 C 
BRANCH  13  14
ATOM     14  C   UNL     1       9.048 -10.851 -18.182  1.00  0.00    -0.000 C 
BRANCH  14  15
ATOM     15  C   UNL     1       8.239 -10.383 -16.960  1.00  0.00    -0.000 C 
BRANCH  15  16
ATOM     16  C   UNL     1       9.124  -9.757 -15.871  1.00  0.00    -0.003 C 
ATOM     17  C   UNL     1       9.123 -10.566 -14.574  1.00  0.00     0.004 C 
ENDBRANCH  15  16
ENDBRANCH  14  15
ENDBRANCH  13  14
ENDBRANCH  12  13
ENDBRANCH  11  12
ENDBRANCH  10  11
ENDBRANCH   1  10
TORSDOF 13
ENDMDL
MODEL 4
REMARK VINA RESULT:     2.284      1.503      2.133
REMARK INTER + INTRA:           5.111
REMARK INTER:                   3.194
REMARK INTRA:                   1.917
REMARK UNBOUND:                 1.090
REMARK SMILES CCCCCCCCCCCCCCC(=O)[O-]
REMARK SMILES IDX 9 1 10 2 11 3 12 4 13 5 14 6 15 7 16 8 17 9 8 10 7 11 6 12
REMARK SMILES IDX 5 13 4 14 3 15 2 16 1 17
REMARK H PARENT
REMARK Flexibility Score: inf
ROOT
ATOM      1  C   UNL     1      -2.995  -8.507  -4.937  1.00  0.00     0.000 C 
ENDROOT
BRANCH   1   2
ATOM      2  C   UNL     1      -2.962  -7.182  -5.713  1.00  0.00     0.000 C 
BRANCH   2   3
ATOM      3  C   UNL     1      -1.734  -6.347  -5.321  1.00  0.00     0.000 C 
BRANCH   3   4
ATOM      4  C   UNL     1      -0.535  -7.215  -4.907  1.00  0.00     0.000 C 
BRANCH   4   5
ATOM      5  C   UNL     1       0.512  -7.352  -6.027  1.00  0.00     0.006 C 
BRANCH   5   6
ATOM      6  C   UNL     1       1.923  -7.590  -5.474  1.00  0.00     0.053 C 
BRANCH   6   7
ATOM      7  C   UNL     1       2.586  -6.307  -5.072  1.00  0.00     0.041 C 
ATOM      8  O   UNL     1       3.828  -6.270  -4.875  1.00  0.00    -0.550 OA
ATOM      9  O   UNL     1       1.833  -5.147  -4.942  1.00  0.00    -0.550 OA
ENDBRANCH   6   7
ENDBRANCH   5   6
ENDBRANCH   4   5
ENDBRANCH   3   4
ENDBRANCH   2   3
ENDBRANCH   1   2
BRANCH   1  10
ATOM     10  C   UNL     1      -3.218  -9.729  -5.846  1.00  0.00     0.000 C 
BRANCH  10  11
ATOM     11  C   UNL     1      -4.243 -10.756  -5.325  1.00  0.00    -0.000 C 
BRANCH  11  12
ATOM     12  C   UNL     1      -5.698 -10.260  -5.282  1.00  0.00    -0.000 C 
BRANCH  12  13
ATOM     13  C   UNL     1      -6.716 -11.410  -5.189  1.00  0.00    -0.000 C 
BRANCH  13  14
ATOM     14  C   UNL     1      -6.799 -12.228  -6.488  1.00  0.00    -0.000 C 
BRANCH  14  15
ATOM     15  C   UNL     1      -5.427 -12.759  -6.940  1.00  0.00    -0.000 C 
BRANCH  15  16
ATOM     16  C   UNL     1      -4.537 -13.173  -5.758  1.00  0.00    -0.003 C 
ATOM     17  C   UNL     1      -3.242 -13.852  -6.206  1.00  0.00     0.004 C 
ENDBRANCH  15  16
ENDBRANCH  14  15
ENDBRANCH  13  14
ENDBRANCH  12  13
ENDBRANCH  11  12
ENDBRANCH  10  11
ENDBRANCH   1  10
TORSDOF 13
ENDMDL
MODEL 5
REMARK VINA RESULT:     4.381      3.584      7.406
REMARK INTER + INTRA:           8.800
REMARK INTER:                   7.674
REMARK INTRA:                   1.126
REMARK UNBOUND:                 1.090
REMARK SMILES CCCCCCCCCCCCCCC(=O)[O-]
REMARK SMILES IDX 9 1 10 2 11 3 12 4 13 5 14 6 15 7 16 8 17 9 8 10 7 11 6 12
REMARK SMILES IDX 5 13 4 14 3 15 2 16 1 17
REMARK H PARENT
REMARK Flexibility Score: inf
ROOT
ATOM      1  C   UNL     1      -4.425 -10.383  -4.897  1.00  0.00     0.000 C 
ENDROOT
BRANCH   1   2
ATOM      2  C   UNL     1      -5.328 -11.057  -5.941  1.00  0.00     0.000 C 
BRANCH   2   3
ATOM      3  C   UNL     1      -4.769 -10.859  -7.359  1.00  0.00     0.000 C 
BRANCH   3   4
ATOM      4  C   UNL     1      -4.796 -12.150  -8.192  1.00  0.00     0.000 C 
BRANCH   4   5
ATOM      5  C   UNL     1      -5.467 -13.320  -7.451  1.00  0.00     0.006 C 
BRANCH   5   6
ATOM      6  C   UNL     1      -4.864 -13.547  -6.059  1.00  0.00     0.053 C 
BRANCH   6   7
ATOM      7  C   UNL     1      -3.401 -13.863  -6.132  1.00  0.00     0.041 C 
ATOM      8  O   UNL     1      -2.569 -13.164  -5.497  1.00  0.00    -0.550 OA
ATOM      9  O   UNL     1      -2.961 -14.947  -6.882  1.00  0.00    -0.550 OA
ENDBRANCH   6   7
ENDBRANCH   5   6
ENDBRANCH   4   5
ENDBRANCH   3   4
ENDBRANCH   2   3
ENDBRANCH   1   2
BRANCH   1  10
ATOM     10  C   UNL     1      -4.214  -8.883  -5.166  1.00  0.00     0.000 C 
BRANCH  10  11
ATOM     11  C   UNL     1      -3.036  -8.543  -6.101  1.00  0.00    -0.000 C 
BRANCH  11  12
ATOM     12  C   UNL     1      -2.242  -7.283  -5.716  1.00  0.00    -0.000 C 
BRANCH  12  13
ATOM     13  C   UNL     1      -0.989  -7.601  -4.881  1.00  0.00    -0.000 C 
BRANCH  13  14
ATOM     14  C   UNL     1       0.314  -7.302  -5.639  1.00  0.00    -0.000 C 
BRANCH  14  15
ATOM     15  C   UNL     1       1.561  -7.804  -4.889  1.00  0.00    -0.000 C 
BRANCH  15  16
ATOM     16  C   UNL     1       2.696  -6.770  -4.875  1.00  0.00    -0.003 C 
ATOM     17  C   UNL     1       2.184  -5.332  -4.971  1.00  0.00     0.004 C 
ENDBRANCH  15  16
ENDBRANCH  14  15
ENDBRANCH  13  14
ENDBRANCH  12  13
ENDBRANCH  11  12
ENDBRANCH  10  11
ENDBRANCH   1  10
TORSDOF 13
ENDMDL
