MODEL 1
REMARK VINA RESULT:    -7.970      0.000      0.000
REMARK INTER + INTRA:         -10.137
REMARK INTER:                  -9.834
REMARK INTRA:                  -0.303
REMARK UNBOUND:                -0.303
REMARK SMILES O=c1c(O)c(-c2cc(O)c(O)c(O)c2)oc2cc(O)cc(O)c12
REMARK SMILES IDX 5 1 3 2 2 3 1 4 23 5 21 6 20 7 18 8 17 9 16 10 15 11 6 12
REMARK SMILES IDX 7 13 8 14 14 15 10 16 12 17 9 18 11 20 13 22 4 24 22 26
REMARK SMILES IDX 19 28
REMARK H PARENT 9 19 11 21 13 23 4 25 22 27 19 29
REMARK Flexibility Score: inf
ROOT
ATOM      1  C   UNL     1      15.876  22.995  41.386  1.00  0.00     0.180 A 
ATOM      2  C   UNL     1      15.275  24.097  40.754  1.00  0.00     0.208 A 
ATOM      3  C   UNL     1      14.209  24.751  41.392  1.00  0.00     0.238 A 
ATOM      4  O   UNL     1      13.627  25.689  40.788  1.00  0.00    -0.285 OA
ATOM      5  C   UNL     1      13.793  24.330  42.679  1.00  0.00     0.111 A 
ATOM      6  C   UNL     1      12.754  24.947  43.440  1.00  0.00     0.134 A 
ATOM      7  C   UNL     1      12.358  24.378  44.657  1.00  0.00     0.093 A 
ATOM      8  C   UNL     1      13.007  23.252  45.171  1.00  0.00     0.123 A 
ATOM      9  C   UNL     1      14.057  22.676  44.464  1.00  0.00     0.094 A 
ATOM     10  C   UNL     1      14.450  23.197  43.229  1.00  0.00     0.146 A 
ATOM     11  O   UNL     1      15.444  22.603  42.577  1.00  0.00    -0.452 OA
ENDROOT
BRANCH   1  12
ATOM     12  C   UNL     1      16.994  22.247  40.768  1.00  0.00     0.029 A 
ATOM     13  C   UNL     1      18.285  22.791  40.795  1.00  0.00     0.062 A 
ATOM     14  C   UNL     1      19.364  22.095  40.235  1.00  0.00     0.162 A 
ATOM     15  C   UNL     1      16.802  20.974  40.207  1.00  0.00     0.062 A 
ATOM     16  C   UNL     1      19.167  20.833  39.656  1.00  0.00     0.200 A 
ATOM     17  C   UNL     1      17.872  20.264  39.648  1.00  0.00     0.162 A 
BRANCH  14  18
ATOM     18  O   UNL     1      20.641  22.652  40.251  1.00  0.00    -0.504 OA
ATOM     19  H   UNL     1      21.322  22.401  40.958  1.00  0.00     0.293 HD
ENDBRANCH  14  18
BRANCH  16  20
ATOM     20  O   UNL     1      20.275  20.184  39.104  1.00  0.00    -0.502 OA
ATOM     21  H   UNL     1      21.195  20.181  39.520  1.00  0.00     0.293 HD
ENDBRANCH  16  20
BRANCH  17  22
ATOM     22  O   UNL     1      17.604  19.004  39.108  1.00  0.00    -0.504 OA
ATOM     23  H   UNL     1      18.264  18.471  38.561  1.00  0.00     0.293 HD
ENDBRANCH  17  22
ENDBRANCH   1  12
BRANCH   2  24
ATOM     24  O   UNL     1      15.749  24.544  39.517  1.00  0.00    -0.502 OA
ATOM     25  H   UNL     1      16.735  24.684  39.330  1.00  0.00     0.293 HD
ENDBRANCH   2  24
BRANCH   6  26
ATOM     26  O   UNL     1      12.101  26.123  43.062  1.00  0.00    -0.507 OA
ATOM     27  H   UNL     1      12.534  26.897  42.581  1.00  0.00     0.293 HD
ENDBRANCH   6  26
BRANCH   8  28
ATOM     28  O   UNL     1      12.616  22.704  46.391  1.00  0.00    -0.508 OA
ATOM     29  H   UNL     1      12.799  21.734  46.619  1.00  0.00     0.293 HD
ENDBRANCH   8  28
TORSDOF 7
ENDMDL
MODEL 2
REMARK VINA RESULT:    -7.579      1.405      1.849
REMARK INTER + INTRA:          -9.654
REMARK INTER:                  -9.928
REMARK INTRA:                   0.274
REMARK UNBOUND:                -0.303
REMARK SMILES O=c1c(O)c(-c2cc(O)c(O)c(O)c2)oc2cc(O)cc(O)c12
REMARK SMILES IDX 5 1 3 2 2 3 1 4 23 5 21 6 20 7 18 8 17 9 16 10 15 11 6 12
REMARK SMILES IDX 7 13 8 14 14 15 10 16 12 17 9 18 11 20 13 22 4 24 22 26
REMARK SMILES IDX 19 28
REMARK H PARENT 9 19 11 21 13 23 4 25 22 27 19 29
REMARK Flexibility Score: inf
ROOT
ATOM      1  C   UNL     1      17.184  22.762  40.631  1.00  0.00     0.180 A 
ATOM      2  C   UNL     1      16.780  23.786  39.758  1.00  0.00     0.208 A 
ATOM      3  C   UNL     1      15.628  24.528  40.066  1.00  0.00     0.238 A 
ATOM      4  O   UNL     1      15.230  25.394  39.244  1.00  0.00    -0.285 OA
ATOM      5  C   UNL     1      14.927  24.274  41.270  1.00  0.00     0.111 A 
ATOM      6  C   UNL     1      13.773  24.994  41.706  1.00  0.00     0.134 A 
ATOM      7  C   UNL     1      13.100  24.584  42.863  1.00  0.00     0.093 A 
ATOM      8  C   UNL     1      13.575  23.520  43.635  1.00  0.00     0.123 A 
ATOM      9  C   UNL     1      14.730  22.847  43.248  1.00  0.00     0.094 A 
ATOM     10  C   UNL     1      15.402  23.208  42.078  1.00  0.00     0.146 A 
ATOM     11  O   UNL     1      16.489  22.525  41.735  1.00  0.00    -0.452 OA
ENDROOT
BRANCH   1  12
ATOM     12  C   UNL     1      18.379  21.928  40.366  1.00  0.00     0.029 A 
ATOM     13  C   UNL     1      19.475  22.488  39.696  1.00  0.00     0.062 A 
ATOM     14  C   UNL     1      20.625  21.726  39.451  1.00  0.00     0.162 A 
ATOM     15  C   UNL     1      18.462  20.603  40.824  1.00  0.00     0.062 A 
ATOM     16  C   UNL     1      20.699  20.396  39.889  1.00  0.00     0.200 A 
ATOM     17  C   UNL     1      19.607  19.831  40.590  1.00  0.00     0.162 A 
BRANCH  14  18
ATOM     18  O   UNL     1      21.703  22.286  38.768  1.00  0.00    -0.504 OA
ATOM     19  H   UNL     1      22.165  23.124  39.102  1.00  0.00     0.293 HD
ENDBRANCH  14  18
BRANCH  16  20
ATOM     20  O   UNL     1      21.864  19.677  39.610  1.00  0.00    -0.502 OA
ATOM     21  H   UNL     1      22.389  19.759  38.752  1.00  0.00     0.293 HD
ENDBRANCH  16  20
BRANCH  17  22
ATOM     22  O   UNL     1      19.617  18.521  41.074  1.00  0.00    -0.504 OA
ATOM     23  H   UNL     1      19.181  17.741  40.604  1.00  0.00     0.293 HD
ENDBRANCH  17  22
ENDBRANCH   1  12
BRANCH   2  24
ATOM     24  O   UNL     1      17.529  24.073  38.614  1.00  0.00    -0.502 OA
ATOM     25  H   UNL     1      17.101  24.231  37.708  1.00  0.00     0.293 HD
ENDBRANCH   2  24
BRANCH   6  26
ATOM     26  O   UNL     1      13.266  26.125  41.060  1.00  0.00    -0.507 OA
ATOM     27  H   UNL     1      13.624  27.062  41.166  1.00  0.00     0.293 HD
ENDBRANCH   6  26
BRANCH   8  28
ATOM     28  O   UNL     1      12.907  23.131  44.795  1.00  0.00    -0.508 OA
ATOM     29  H   UNL     1      12.711  22.156  44.992  1.00  0.00     0.293 HD
ENDBRANCH   8  28
TORSDOF 7
ENDMDL
MODEL 3
REMARK VINA RESULT:    -6.669      1.281      6.907
REMARK INTER + INTRA:          -8.531
REMARK INTER:                  -8.972
REMARK INTRA:                   0.441
REMARK UNBOUND:                -0.303
REMARK SMILES O=c1c(O)c(-c2cc(O)c(O)c(O)c2)oc2cc(O)cc(O)c12
REMARK SMILES IDX 5 1 3 2 2 3 1 4 23 5 21 6 20 7 18 8 17 9 16 10 15 11 6 12
REMARK SMILES IDX 7 13 8 14 14 15 10 16 12 17 9 18 11 20 13 22 4 24 22 26
REMARK SMILES IDX 19 28
REMARK H PARENT 9 19 11 21 13 23 4 25 22 27 19 29
REMARK Flexibility Score: inf
ROOT
ATOM      1  C   UNL     1      14.706  23.795  42.022  1.00  0.00     0.180 A 
ATOM      2  C   UNL     1      14.796  24.743  40.989  1.00  0.00     0.208 A 
ATOM      3  C   UNL     1      15.835  24.634  40.051  1.00  0.00     0.238 A 
ATOM      4  O   UNL     1      15.952  25.528  39.173  1.00  0.00    -0.285 OA
ATOM      5  C   UNL     1      16.740  23.547  40.125  1.00  0.00     0.111 A 
ATOM      6  C   UNL     1      17.803  23.310  39.203  1.00  0.00     0.134 A 
ATOM      7  C   UNL     1      18.701  22.261  39.438  1.00  0.00     0.093 A 
ATOM      8  C   UNL     1      18.535  21.401  40.526  1.00  0.00     0.123 A 
ATOM      9  C   UNL     1      17.469  21.589  41.400  1.00  0.00     0.094 A 
ATOM     10  C   UNL     1      16.579  22.650  41.215  1.00  0.00     0.146 A 
ATOM     11  O   UNL     1      15.588  22.806  42.085  1.00  0.00    -0.452 OA
ENDROOT
BRANCH   1  12
ATOM     12  C   UNL     1      13.648  23.853  43.055  1.00  0.00     0.029 A 
ATOM     13  C   UNL     1      13.681  22.951  44.127  1.00  0.00     0.062 A 
ATOM     14  C   UNL     1      12.702  22.997  45.128  1.00  0.00     0.162 A 
ATOM     15  C   UNL     1      12.642  24.833  43.019  1.00  0.00     0.062 A 
ATOM     16  C   UNL     1      11.685  23.961  45.079  1.00  0.00     0.200 A 
ATOM     17  C   UNL     1      11.660  24.894  44.016  1.00  0.00     0.162 A 
BRANCH  14  18
ATOM     18  O   UNL     1      12.734  22.084  46.180  1.00  0.00    -0.504 OA
ATOM     19  H   UNL     1      11.890  21.798  46.662  1.00  0.00     0.293 HD
ENDBRANCH  14  18
BRANCH  16  20
ATOM     20  O   UNL     1      10.729  23.959  46.098  1.00  0.00    -0.502 OA
ATOM     21  H   UNL     1      10.919  23.689  47.052  1.00  0.00     0.293 HD
ENDBRANCH  16  20
BRANCH  17  22
ATOM     22  O   UNL     1      10.690  25.894  43.912  1.00  0.00    -0.504 OA
ATOM     23  H   UNL     1       9.697  25.727  43.972  1.00  0.00     0.293 HD
ENDBRANCH  17  22
ENDBRANCH   1  12
BRANCH   2  24
ATOM     24  O   UNL     1      13.848  25.766  40.889  1.00  0.00    -0.502 OA
ATOM     25  H   UNL     1      13.292  26.072  41.678  1.00  0.00     0.293 HD
ENDBRANCH   2  24
BRANCH   6  26
ATOM     26  O   UNL     1      18.008  24.053  38.037  1.00  0.00    -0.507 OA
ATOM     27  H   UNL     1      17.339  24.150  37.288  1.00  0.00     0.293 HD
ENDBRANCH   6  26
BRANCH   8  28
ATOM     28  O   UNL     1      19.423  20.349  40.741  1.00  0.00    -0.508 OA
ATOM     29  H   UNL     1      19.123  19.382  40.690  1.00  0.00     0.293 HD
ENDBRANCH   8  28
TORSDOF 7
ENDMDL
MODEL 4
REMARK VINA RESULT:    -6.529      1.289      6.861
REMARK INTER + INTRA:          -8.358
REMARK INTER:                  -8.869
REMARK INTRA:                   0.511
REMARK UNBOUND:                -0.303
REMARK SMILES O=c1c(O)c(-c2cc(O)c(O)c(O)c2)oc2cc(O)cc(O)c12
REMARK SMILES IDX 5 1 3 2 2 3 1 4 23 5 21 6 20 7 18 8 17 9 16 10 15 11 6 12
REMARK SMILES IDX 7 13 8 14 14 15 10 16 12 17 9 18 11 20 13 22 4 24 22 26
REMARK SMILES IDX 19 28
REMARK H PARENT 9 19 11 21 13 23 4 25 22 27 19 29
REMARK Flexibility Score: inf
ROOT
ATOM      1  C   UNL     1      14.703  23.731  42.099  1.00  0.00     0.180 A 
ATOM      2  C   UNL     1      14.750  24.681  41.066  1.00  0.00     0.208 A 
ATOM      3  C   UNL     1      15.769  24.593  40.104  1.00  0.00     0.238 A 
ATOM      4  O   UNL     1      15.849  25.489  39.224  1.00  0.00    -0.285 OA
ATOM      5  C   UNL     1      16.697  23.524  40.157  1.00  0.00     0.111 A 
ATOM      6  C   UNL     1      17.744  23.310  39.210  1.00  0.00     0.134 A 
ATOM      7  C   UNL     1      18.668  22.279  39.424  1.00  0.00     0.093 A 
ATOM      8  C   UNL     1      18.544  21.415  40.515  1.00  0.00     0.123 A 
ATOM      9  C   UNL     1      17.494  21.581  41.414  1.00  0.00     0.094 A 
ATOM     10  C   UNL     1      16.580  22.624  41.249  1.00  0.00     0.146 A 
ATOM     11  O   UNL     1      15.605  22.760  42.142  1.00  0.00    -0.452 OA
ENDROOT
BRANCH   1  12
ATOM     12  C   UNL     1      13.667  23.768  43.157  1.00  0.00     0.029 A 
ATOM     13  C   UNL     1      12.626  24.702  43.069  1.00  0.00     0.062 A 
ATOM     14  C   UNL     1      11.623  24.744  44.046  1.00  0.00     0.162 A 
ATOM     15  C   UNL     1      13.670  22.847  44.216  1.00  0.00     0.062 A 
ATOM     16  C   UNL     1      11.639  23.838  45.116  1.00  0.00     0.200 A 
ATOM     17  C   UNL     1      12.671  22.874  45.198  1.00  0.00     0.162 A 
BRANCH  14  18
ATOM     18  O   UNL     1      10.601  25.688  43.958  1.00  0.00    -0.504 OA
ATOM     19  H   UNL     1      10.671  26.492  43.346  1.00  0.00     0.293 HD
ENDBRANCH  14  18
BRANCH  16  20
ATOM     20  O   UNL     1      10.619  23.929  46.067  1.00  0.00    -0.502 OA
ATOM     21  H   UNL     1      10.131  24.783  46.295  1.00  0.00     0.293 HD
ENDBRANCH  16  20
BRANCH  17  22
ATOM     22  O   UNL     1      12.741  21.928  46.223  1.00  0.00    -0.504 OA
ATOM     23  H   UNL     1      13.275  21.073  46.168  1.00  0.00     0.293 HD
ENDBRANCH  17  22
ENDBRANCH   1  12
BRANCH   2  24
ATOM     24  O   UNL     1      13.780  25.684  40.987  1.00  0.00    -0.502 OA
ATOM     25  H   UNL     1      12.840  25.563  41.346  1.00  0.00     0.293 HD
ENDBRANCH   2  24
BRANCH   6  26
ATOM     26  O   UNL     1      17.908  24.057  38.041  1.00  0.00    -0.507 OA
ATOM     27  H   UNL     1      18.790  24.230  37.583  1.00  0.00     0.293 HD
ENDBRANCH   6  26
BRANCH   8  28
ATOM     28  O   UNL     1      19.458  20.381  40.709  1.00  0.00    -0.508 OA
ATOM     29  H   UNL     1      19.318  19.465  40.299  1.00  0.00     0.293 HD
ENDBRANCH   8  28
TORSDOF 7
ENDMDL
MODEL 5
REMARK VINA RESULT:    -6.155      1.533      7.481
REMARK INTER + INTRA:          -7.897
REMARK INTER:                  -7.770
REMARK INTRA:                  -0.127
REMARK UNBOUND:                -0.303
REMARK SMILES O=c1c(O)c(-c2cc(O)c(O)c(O)c2)oc2cc(O)cc(O)c12
REMARK SMILES IDX 5 1 3 2 2 3 1 4 23 5 21 6 20 7 18 8 17 9 16 10 15 11 6 12
REMARK SMILES IDX 7 13 8 14 14 15 10 16 12 17 9 18 11 20 13 22 4 24 22 26
REMARK SMILES IDX 19 28
REMARK H PARENT 9 19 11 21 13 23 4 25 22 27 19 29
REMARK Flexibility Score: inf
ROOT
ATOM      1  C   UNL     1      17.100  22.194  41.180  1.00  0.00     0.180 A 
ATOM      2  C   UNL     1      17.204  20.822  40.897  1.00  0.00     0.208 A 
ATOM      3  C   UNL     1      18.381  20.335  40.307  1.00  0.00     0.238 A 
ATOM      4  O   UNL     1      18.438  19.118  39.990  1.00  0.00    -0.285 OA
ATOM      5  C   UNL     1      19.461  21.216  40.057  1.00  0.00     0.111 A 
ATOM      6  C   UNL     1      20.718  20.824  39.504  1.00  0.00     0.134 A 
ATOM      7  C   UNL     1      21.674  21.802  39.202  1.00  0.00     0.093 A 
ATOM      8  C   UNL     1      21.445  23.149  39.493  1.00  0.00     0.123 A 
ATOM      9  C   UNL     1      20.244  23.534  40.083  1.00  0.00     0.094 A 
ATOM     10  C   UNL     1      19.255  22.588  40.360  1.00  0.00     0.146 A 
ATOM     11  O   UNL     1      18.116  23.002  40.905  1.00  0.00    -0.452 OA
ENDROOT
BRANCH   1  12
ATOM     12  C   UNL     1      15.886  22.784  41.788  1.00  0.00     0.029 A 
ATOM     13  C   UNL     1      15.471  22.351  43.055  1.00  0.00     0.062 A 
ATOM     14  C   UNL     1      14.336  22.907  43.661  1.00  0.00     0.162 A 
ATOM     15  C   UNL     1      15.173  23.812  41.150  1.00  0.00     0.062 A 
ATOM     16  C   UNL     1      13.612  23.917  43.013  1.00  0.00     0.200 A 
ATOM     17  C   UNL     1      14.040  24.380  41.746  1.00  0.00     0.162 A 
BRANCH  14  18
ATOM     18  O   UNL     1      13.921  22.458  44.913  1.00  0.00    -0.504 OA
ATOM     19  H   UNL     1      14.575  22.065  45.581  1.00  0.00     0.293 HD
ENDBRANCH  14  18
BRANCH  16  20
ATOM     20  O   UNL     1      12.483  24.432  43.657  1.00  0.00    -0.502 OA
ATOM     21  H   UNL     1      12.435  24.625  44.647  1.00  0.00     0.293 HD
ENDBRANCH  16  20
BRANCH  17  22
ATOM     22  O   UNL     1      13.380  25.396  41.051  1.00  0.00    -0.504 OA
ATOM     23  H   UNL     1      12.844  25.249  40.209  1.00  0.00     0.293 HD
ENDBRANCH  17  22
ENDBRANCH   1  12
BRANCH   2  24
ATOM     24  O   UNL     1      16.156  19.956  41.222  1.00  0.00    -0.502 OA
ATOM     25  H   UNL     1      15.947  19.688  42.176  1.00  0.00     0.293 HD
ENDBRANCH   2  24
BRANCH   6  26
ATOM     26  O   UNL     1      21.086  19.499  39.256  1.00  0.00    -0.507 OA
ATOM     27  H   UNL     1      20.534  18.833  38.737  1.00  0.00     0.293 HD
ENDBRANCH   6  26
BRANCH   8  28
ATOM     28  O   UNL     1      22.410  24.112  39.205  1.00  0.00    -0.508 OA
ATOM     29  H   UNL     1      22.969  24.067  38.361  1.00  0.00     0.293 HD
ENDBRANCH   8  28
TORSDOF 7
ENDMDL
MODEL 6
REMARK VINA RESULT:    -5.973      1.523      7.450
REMARK INTER + INTRA:          -7.672
REMARK INTER:                  -7.551
REMARK INTRA:                  -0.121
REMARK UNBOUND:                -0.303
REMARK SMILES O=c1c(O)c(-c2cc(O)c(O)c(O)c2)oc2cc(O)cc(O)c12
REMARK SMILES IDX 5 1 3 2 2 3 1 4 23 5 21 6 20 7 18 8 17 9 16 10 15 11 6 12
REMARK SMILES IDX 7 13 8 14 14 15 10 16 12 17 9 18 11 20 13 22 4 24 22 26
REMARK SMILES IDX 19 28
REMARK H PARENT 9 19 11 21 13 23 4 25 22 27 19 29
REMARK Flexibility Score: inf
ROOT
ATOM      1  C   UNL     1      17.121  22.193  41.193  1.00  0.00     0.180 A 
ATOM      2  C   UNL     1      17.208  20.819  40.914  1.00  0.00     0.208 A 
ATOM      3  C   UNL     1      18.371  20.318  40.306  1.00  0.00     0.238 A 
ATOM      4  O   UNL     1      18.412  19.100  39.992  1.00  0.00    -0.285 OA
ATOM      5  C   UNL     1      19.455  21.188  40.036  1.00  0.00     0.111 A 
ATOM      6  C   UNL     1      20.699  20.783  39.465  1.00  0.00     0.134 A 
ATOM      7  C   UNL     1      21.660  21.751  39.144  1.00  0.00     0.093 A 
ATOM      8  C   UNL     1      21.447  23.101  39.434  1.00  0.00     0.123 A 
ATOM      9  C   UNL     1      20.260  23.500  40.042  1.00  0.00     0.094 A 
ATOM     10  C   UNL     1      19.267  22.563  40.338  1.00  0.00     0.146 A 
ATOM     11  O   UNL     1      18.140  22.990  40.899  1.00  0.00    -0.452 OA
ENDROOT
BRANCH   1  12
ATOM     12  C   UNL     1      15.922  22.796  41.818  1.00  0.00     0.029 A 
ATOM     13  C   UNL     1      15.207  23.782  41.126  1.00  0.00     0.062 A 
ATOM     14  C   UNL     1      14.058  24.354  41.687  1.00  0.00     0.162 A 
ATOM     15  C   UNL     1      15.450  22.359  43.067  1.00  0.00     0.062 A 
ATOM     16  C   UNL     1      13.600  23.934  42.944  1.00  0.00     0.200 A 
ATOM     17  C   UNL     1      14.300  22.919  43.638  1.00  0.00     0.162 A 
BRANCH  14  18
ATOM     18  O   UNL     1      13.363  25.347  40.998  1.00  0.00    -0.504 OA
ATOM     19  H   UNL     1      13.750  25.792  40.175  1.00  0.00     0.293 HD
ENDBRANCH  14  18
BRANCH  16  20
ATOM     20  O   UNL     1      12.454  24.543  43.462  1.00  0.00    -0.502 OA
ATOM     21  H   UNL     1      12.449  25.443  43.919  1.00  0.00     0.293 HD
ENDBRANCH  16  20
BRANCH  17  22
ATOM     22  O   UNL     1      13.891  22.435  44.883  1.00  0.00    -0.504 OA
ATOM     23  H   UNL     1      12.990  22.017  45.059  1.00  0.00     0.293 HD
ENDBRANCH  17  22
ENDBRANCH   1  12
BRANCH   2  24
ATOM     24  O   UNL     1      16.157  19.963  41.257  1.00  0.00    -0.502 OA
ATOM     25  H   UNL     1      15.601  19.478  40.563  1.00  0.00     0.293 HD
ENDBRANCH   2  24
BRANCH   6  26
ATOM     26  O   UNL     1      21.051  19.453  39.216  1.00  0.00    -0.507 OA
ATOM     27  H   UNL     1      21.136  19.039  38.300  1.00  0.00     0.293 HD
ENDBRANCH   6  26
BRANCH   8  28
ATOM     28  O   UNL     1      22.416  24.055  39.127  1.00  0.00    -0.508 OA
ATOM     29  H   UNL     1      22.288  24.718  38.372  1.00  0.00     0.293 HD
ENDBRANCH   8  28
TORSDOF 7
ENDMDL
MODEL 7
REMARK VINA RESULT:    -5.847      1.548      6.973
REMARK INTER + INTRA:          -7.517
REMARK INTER:                  -7.958
REMARK INTRA:                   0.441
REMARK UNBOUND:                -0.303
REMARK SMILES O=c1c(O)c(-c2cc(O)c(O)c(O)c2)oc2cc(O)cc(O)c12
REMARK SMILES IDX 5 1 3 2 2 3 1 4 23 5 21 6 20 7 18 8 17 9 16 10 15 11 6 12
REMARK SMILES IDX 7 13 8 14 14 15 10 16 12 17 9 18 11 20 13 22 4 24 22 26
REMARK SMILES IDX 19 28
REMARK H PARENT 9 19 11 21 13 23 4 25 22 27 19 29
REMARK Flexibility Score: inf
ROOT
ATOM      1  C   UNL     1      16.379  23.281  40.950  1.00  0.00     0.180 A 
ATOM      2  C   UNL     1      16.800  24.150  39.930  1.00  0.00     0.208 A 
ATOM      3  C   UNL     1      17.930  23.811  39.169  1.00  0.00     0.238 A 
ATOM      4  O   UNL     1      18.344  24.629  38.306  1.00  0.00    -0.285 OA
ATOM      5  C   UNL     1      18.593  22.581  39.400  1.00  0.00     0.111 A 
ATOM      6  C   UNL     1      19.721  22.114  38.659  1.00  0.00     0.134 A 
ATOM      7  C   UNL     1      20.359  20.930  39.048  1.00  0.00     0.093 A 
ATOM      8  C   UNL     1      19.872  20.163  40.110  1.00  0.00     0.123 A 
ATOM      9  C   UNL     1      18.741  20.582  40.803  1.00  0.00     0.094 A 
ATOM     10  C   UNL     1      18.104  21.778  40.465  1.00  0.00     0.146 A 
ATOM     11  O   UNL     1      17.040  22.151  41.166  1.00  0.00    -0.452 OA
ENDROOT
BRANCH   1  12
ATOM     12  C   UNL     1      15.206  23.577  41.804  1.00  0.00     0.029 A 
ATOM     13  C   UNL     1      14.927  22.752  42.902  1.00  0.00     0.062 A 
ATOM     14  C   UNL     1      13.835  23.022  43.736  1.00  0.00     0.162 A 
ATOM     15  C   UNL     1      14.400  24.703  41.574  1.00  0.00     0.062 A 
ATOM     16  C   UNL     1      13.017  24.134  43.493  1.00  0.00     0.200 A 
ATOM     17  C   UNL     1      13.307  24.988  42.403  1.00  0.00     0.162 A 
BRANCH  14  18
ATOM     18  O   UNL     1      13.556  22.185  44.815  1.00  0.00    -0.504 OA
ATOM     19  H   UNL     1      14.078  22.243  45.682  1.00  0.00     0.293 HD
ENDBRANCH  14  18
BRANCH  16  20
ATOM     20  O   UNL     1      11.935  24.353  44.350  1.00  0.00    -0.502 OA
ATOM     21  H   UNL     1      11.452  25.235  44.438  1.00  0.00     0.293 HD
ENDBRANCH  16  20
BRANCH  17  22
ATOM     22  O   UNL     1      12.549  26.124  42.111  1.00  0.00    -0.504 OA
ATOM     23  H   UNL     1      12.145  26.730  42.811  1.00  0.00     0.293 HD
ENDBRANCH  17  22
ENDBRANCH   1  12
BRANCH   2  24
ATOM     24  O   UNL     1      16.087  25.323  39.666  1.00  0.00    -0.502 OA
ATOM     25  H   UNL     1      16.435  26.241  39.920  1.00  0.00     0.293 HD
ENDBRANCH   2  24
BRANCH   6  26
ATOM     26  O   UNL     1      20.235  22.755  37.529  1.00  0.00    -0.507 OA
ATOM     27  H   UNL     1      21.216  22.876  37.329  1.00  0.00     0.293 HD
ENDBRANCH   6  26
BRANCH   8  28
ATOM     28  O   UNL     1      20.505  18.977  40.478  1.00  0.00    -0.508 OA
ATOM     29  H   UNL     1      20.214  18.452  41.295  1.00  0.00     0.293 HD
ENDBRANCH   8  28
TORSDOF 7
ENDMDL
MODEL 8
REMARK VINA RESULT:    -5.721      1.273      6.879
REMARK INTER + INTRA:          -7.362
REMARK INTER:                  -7.794
REMARK INTRA:                   0.431
REMARK UNBOUND:                -0.303
REMARK SMILES O=c1c(O)c(-c2cc(O)c(O)c(O)c2)oc2cc(O)cc(O)c12
REMARK SMILES IDX 5 1 3 2 2 3 1 4 23 5 21 6 20 7 18 8 17 9 16 10 15 11 6 12
REMARK SMILES IDX 7 13 8 14 14 15 10 16 12 17 9 18 11 20 13 22 4 24 22 26
REMARK SMILES IDX 19 28
REMARK H PARENT 9 19 11 21 13 23 4 25 22 27 19 29
REMARK Flexibility Score: inf
ROOT
ATOM      1  C   UNL     1      15.502  23.249  41.752  1.00  0.00     0.180 A 
ATOM      2  C   UNL     1      15.816  24.131  40.705  1.00  0.00     0.208 A 
ATOM      3  C   UNL     1      16.879  23.815  39.843  1.00  0.00     0.238 A 
ATOM      4  O   UNL     1      17.202  24.644  38.953  1.00  0.00    -0.285 OA
ATOM      5  C   UNL     1      17.579  22.594  40.005  1.00  0.00     0.111 A 
ATOM      6  C   UNL     1      18.643  22.149  39.163  1.00  0.00     0.134 A 
ATOM      7  C   UNL     1      19.332  20.973  39.485  1.00  0.00     0.093 A 
ATOM      8  C   UNL     1      18.954  20.192  40.580  1.00  0.00     0.123 A 
ATOM      9  C   UNL     1      17.883  20.589  41.375  1.00  0.00     0.094 A 
ATOM     10  C   UNL     1      17.200  21.777  41.103  1.00  0.00     0.146 A 
ATOM     11  O   UNL     1      16.197  22.128  41.900  1.00  0.00    -0.452 OA
ENDROOT
BRANCH   1  12
ATOM     12  C   UNL     1      14.406  23.521  42.709  1.00  0.00     0.029 A 
ATOM     13  C   UNL     1      14.253  22.699  43.834  1.00  0.00     0.062 A 
ATOM     14  C   UNL     1      13.236  22.946  44.765  1.00  0.00     0.162 A 
ATOM     15  C   UNL     1      13.549  24.622  42.547  1.00  0.00     0.062 A 
ATOM     16  C   UNL     1      12.367  24.033  44.591  1.00  0.00     0.200 A 
ATOM     17  C   UNL     1      12.531  24.884  43.473  1.00  0.00     0.162 A 
BRANCH  14  18
ATOM     18  O   UNL     1      13.082  22.112  45.871  1.00  0.00    -0.504 OA
ATOM     19  H   UNL     1      13.466  21.175  45.887  1.00  0.00     0.293 HD
ENDBRANCH  14  18
BRANCH  16  20
ATOM     20  O   UNL     1      11.365  24.230  45.543  1.00  0.00    -0.502 OA
ATOM     21  H   UNL     1      10.507  23.699  45.582  1.00  0.00     0.293 HD
ENDBRANCH  16  20
BRANCH  17  22
ATOM     22  O   UNL     1      11.717  25.996  43.245  1.00  0.00    -0.504 OA
ATOM     23  H   UNL     1      10.749  26.055  43.523  1.00  0.00     0.293 HD
ENDBRANCH  17  22
ENDBRANCH   1  12
BRANCH   2  24
ATOM     24  O   UNL     1      15.065  25.293  40.515  1.00  0.00    -0.502 OA
ATOM     25  H   UNL     1      15.473  26.156  40.174  1.00  0.00     0.293 HD
ENDBRANCH   2  24
BRANCH   6  26
ATOM     26  O   UNL     1      19.044  22.805  37.996  1.00  0.00    -0.507 OA
ATOM     27  H   UNL     1      19.226  23.795  37.922  1.00  0.00     0.293 HD
ENDBRANCH   6  26
BRANCH   8  28
ATOM     28  O   UNL     1      19.635  19.015  40.881  1.00  0.00    -0.508 OA
ATOM     29  H   UNL     1      19.399  18.136  40.435  1.00  0.00     0.293 HD
ENDBRANCH   8  28
TORSDOF 7
ENDMDL
MODEL 9
REMARK VINA RESULT:    -5.421      1.516      6.885
REMARK INTER + INTRA:          -6.992
REMARK INTER:                  -7.503
REMARK INTRA:                   0.511
REMARK UNBOUND:                -0.303
REMARK SMILES O=c1c(O)c(-c2cc(O)c(O)c(O)c2)oc2cc(O)cc(O)c12
REMARK SMILES IDX 5 1 3 2 2 3 1 4 23 5 21 6 20 7 18 8 17 9 16 10 15 11 6 12
REMARK SMILES IDX 7 13 8 14 14 15 10 16 12 17 9 18 11 20 13 22 4 24 22 26
REMARK SMILES IDX 19 28
REMARK H PARENT 9 19 11 21 13 23 4 25 22 27 19 29
REMARK Flexibility Score: inf
ROOT
ATOM      1  C   UNL     1      16.347  23.269  41.056  1.00  0.00     0.180 A 
ATOM      2  C   UNL     1      16.746  24.127  40.017  1.00  0.00     0.208 A 
ATOM      3  C   UNL     1      17.860  23.779  39.237  1.00  0.00     0.238 A 
ATOM      4  O   UNL     1      18.256  24.587  38.356  1.00  0.00    -0.285 OA
ATOM      5  C   UNL     1      18.528  22.552  39.469  1.00  0.00     0.111 A 
ATOM      6  C   UNL     1      19.641  22.076  38.711  1.00  0.00     0.134 A 
ATOM      7  C   UNL     1      20.288  20.897  39.100  1.00  0.00     0.093 A 
ATOM      8  C   UNL     1      19.823  20.142  40.180  1.00  0.00     0.123 A 
ATOM      9  C   UNL     1      18.706  20.569  40.892  1.00  0.00     0.094 A 
ATOM     10  C   UNL     1      18.062  21.761  40.553  1.00  0.00     0.146 A 
ATOM     11  O   UNL     1      17.012  22.142  41.271  1.00  0.00    -0.452 OA
ENDROOT
BRANCH   1  12
ATOM     12  C   UNL     1      15.191  23.575  41.930  1.00  0.00     0.029 A 
ATOM     13  C   UNL     1      14.397  24.697  41.654  1.00  0.00     0.062 A 
ATOM     14  C   UNL     1      13.287  24.998  42.454  1.00  0.00     0.162 A 
ATOM     15  C   UNL     1      14.836  22.733  42.996  1.00  0.00     0.062 A 
ATOM     16  C   UNL     1      12.946  24.168  43.532  1.00  0.00     0.200 A 
ATOM     17  C   UNL     1      13.726  23.019  43.801  1.00  0.00     0.162 A 
BRANCH  14  18
ATOM     18  O   UNL     1      12.514  26.125  42.182  1.00  0.00    -0.504 OA
ATOM     19  H   UNL     1      12.481  26.536  41.257  1.00  0.00     0.293 HD
ENDBRANCH  14  18
BRANCH  16  20
ATOM     20  O   UNL     1      11.835  24.518  44.303  1.00  0.00    -0.502 OA
ATOM     21  H   UNL     1      11.525  25.467  44.452  1.00  0.00     0.293 HD
ENDBRANCH  16  20
BRANCH  17  22
ATOM     22  O   UNL     1      13.436  22.136  44.844  1.00  0.00    -0.504 OA
ATOM     23  H   UNL     1      14.131  21.594  45.336  1.00  0.00     0.293 HD
ENDBRANCH  17  22
ENDBRANCH   1  12
BRANCH   2  24
ATOM     24  O   UNL     1      16.027  25.296  39.754  1.00  0.00    -0.502 OA
ATOM     25  H   UNL     1      16.246  25.907  38.976  1.00  0.00     0.293 HD
ENDBRANCH   2  24
BRANCH   6  26
ATOM     26  O   UNL     1      20.131  22.704  37.562  1.00  0.00    -0.507 OA
ATOM     27  H   UNL     1      20.518  23.635  37.532  1.00  0.00     0.293 HD
ENDBRANCH   6  26
BRANCH   8  28
ATOM     28  O   UNL     1      20.463  18.961  40.549  1.00  0.00    -0.508 OA
ATOM     29  H   UNL     1      20.115  18.383  41.305  1.00  0.00     0.293 HD
ENDBRANCH   8  28
TORSDOF 7
ENDMDL
