MODEL 1
REMARK VINA RESULT:    -4.652      0.000      0.000
REMARK INTER + INTRA:          -4.652
REMARK INTER:                  -4.652
REMARK INTRA:                   0.000
REMARK UNBOUND:                 0.000
REMARK SMILES CC(C)=C1CC[C@H](C)CC1=O
REMARK SMILES IDX 8 1 7 2 6 3 5 4 4 5 2 6 1 7 3 8 10 9 11 10 9 11
REMARK H PARENT
REMARK Flexibility Score: inf
ROOT
ATOM      1  C   UNL     1     -33.751 -22.364  23.365  1.00  0.00     0.008 C 
ATOM      2  C   UNL     1     -33.204 -22.597  21.948  1.00  0.00    -0.006 C 
ATOM      3  C   UNL     1     -31.695 -22.311  21.850  1.00  0.00     0.008 C 
ATOM      4  C   UNL     1     -30.842 -23.306  22.654  1.00  0.00     0.039 C 
ATOM      5  C   UNL     1     -31.205 -24.758  22.377  1.00  0.00    -0.006 C 
ATOM      6  C   UNL     1     -30.272 -25.750  22.468  1.00  0.00    -0.070 C 
ATOM      7  C   UNL     1     -28.844 -25.448  22.865  1.00  0.00     0.039 C 
ATOM      8  C   UNL     1     -30.602 -27.189  22.144  1.00  0.00     0.039 C 
ATOM      9  C   UNL     1     -32.650 -25.042  22.124  1.00  0.00     0.159 C 
ATOM     10  O   UNL     1     -33.175 -26.130  22.480  1.00  0.00    -0.295 OA
ATOM     11  C   UNL     1     -33.510 -24.016  21.445  1.00  0.00     0.084 C 
ENDROOT
TORSDOF 0
ENDMDL
MODEL 2
REMARK VINA RESULT:    -4.368      3.741      5.291
REMARK INTER + INTRA:          -4.368
REMARK INTER:                  -4.368
REMARK INTRA:                   0.000
REMARK UNBOUND:                 0.000
REMARK SMILES CC(C)=C1CC[C@H](C)CC1=O
REMARK SMILES IDX 8 1 7 2 6 3 5 4 4 5 2 6 1 7 3 8 10 9 11 10 9 11
REMARK H PARENT
REMARK Flexibility Score: inf
ROOT
ATOM      1  C   UNL     1     -32.385 -16.893  20.698  1.00  0.00     0.008 C 
ATOM      2  C   UNL     1     -31.213 -17.883  20.596  1.00  0.00    -0.006 C 
ATOM      3  C   UNL     1     -30.850 -18.499  21.959  1.00  0.00     0.008 C 
ATOM      4  C   UNL     1     -31.951 -19.415  22.517  1.00  0.00     0.039 C 
ATOM      5  C   UNL     1     -32.448 -20.433  21.501  1.00  0.00    -0.006 C 
ATOM      6  C   UNL     1     -32.921 -21.652  21.895  1.00  0.00    -0.070 C 
ATOM      7  C   UNL     1     -32.987 -22.031  23.358  1.00  0.00     0.039 C 
ATOM      8  C   UNL     1     -33.367 -22.696  20.897  1.00  0.00     0.039 C 
ATOM      9  C   UNL     1     -32.500 -19.979  20.079  1.00  0.00     0.159 C 
ATOM     10  O   UNL     1     -33.385 -20.401  19.289  1.00  0.00    -0.295 OA
ATOM     11  C   UNL     1     -31.492 -18.990  19.569  1.00  0.00     0.084 C 
ENDROOT
TORSDOF 0
ENDMDL
MODEL 3
REMARK VINA RESULT:    -4.354      3.809      5.547
REMARK INTER + INTRA:          -4.354
REMARK INTER:                  -4.354
REMARK INTRA:                   0.000
REMARK UNBOUND:                 0.000
REMARK SMILES CC(C)=C1CC[C@H](C)CC1=O
REMARK SMILES IDX 8 1 7 2 6 3 5 4 4 5 2 6 1 7 3 8 10 9 11 10 9 11
REMARK H PARENT
REMARK Flexibility Score: inf
ROOT
ATOM      1  C   UNL     1     -30.619 -17.751  20.039  1.00  0.00     0.008 C 
ATOM      2  C   UNL     1     -32.098 -17.684  20.453  1.00  0.00    -0.006 C 
ATOM      3  C   UNL     1     -32.973 -18.660  19.647  1.00  0.00     0.008 C 
ATOM      4  C   UNL     1     -32.659 -20.135  19.945  1.00  0.00     0.039 C 
ATOM      5  C   UNL     1     -32.615 -20.444  21.435  1.00  0.00    -0.006 C 
ATOM      6  C   UNL     1     -32.952 -21.678  21.911  1.00  0.00    -0.070 C 
ATOM      7  C   UNL     1     -33.364 -22.793  20.976  1.00  0.00     0.039 C 
ATOM      8  C   UNL     1     -32.966 -21.986  23.391  1.00  0.00     0.039 C 
ATOM      9  C   UNL     1     -32.073 -19.368  22.318  1.00  0.00     0.159 C 
ATOM     10  O   UNL     1     -31.428 -19.643  23.365  1.00  0.00    -0.295 OA
ATOM     11  C   UNL     1     -32.279 -17.925  21.959  1.00  0.00     0.084 C 
ENDROOT
TORSDOF 0
ENDMDL
MODEL 4
REMARK VINA RESULT:    -4.151      3.336      5.530
REMARK INTER + INTRA:          -4.151
REMARK INTER:                  -4.151
REMARK INTRA:                   0.000
REMARK UNBOUND:                 0.000
REMARK SMILES CC(C)=C1CC[C@H](C)CC1=O
REMARK SMILES IDX 8 1 7 2 6 3 5 4 4 5 2 6 1 7 3 8 10 9 11 10 9 11
REMARK H PARENT
REMARK Flexibility Score: inf
ROOT
ATOM      1  C   UNL     1     -31.392 -23.380  22.085  1.00  0.00     0.008 C 
ATOM      2  C   UNL     1     -32.824 -22.825  22.148  1.00  0.00    -0.006 C 
ATOM      3  C   UNL     1     -33.069 -21.986  23.415  1.00  0.00     0.008 C 
ATOM      4  C   UNL     1     -32.255 -20.682  23.439  1.00  0.00     0.039 C 
ATOM      5  C   UNL     1     -32.373 -19.885  22.147  1.00  0.00    -0.006 C 
ATOM      6  C   UNL     1     -32.272 -18.523  22.146  1.00  0.00    -0.070 C 
ATOM      7  C   UNL     1     -32.022 -17.754  23.424  1.00  0.00     0.039 C 
ATOM      8  C   UNL     1     -32.442 -17.712  20.882  1.00  0.00     0.039 C 
ATOM      9  C   UNL     1     -32.481 -20.678  20.887  1.00  0.00     0.159 C 
ATOM     10  O   UNL     1     -31.990 -20.259  19.805  1.00  0.00    -0.295 OA
ATOM     11  C   UNL     1     -33.174 -22.010  20.894  1.00  0.00     0.084 C 
ENDROOT
TORSDOF 0
ENDMDL
MODEL 5
REMARK VINA RESULT:    -4.023      5.353      7.708
REMARK INTER + INTRA:          -4.023
REMARK INTER:                  -4.023
REMARK INTRA:                   0.000
REMARK UNBOUND:                 0.000
REMARK SMILES CC(C)=C1CC[C@H](C)CC1=O
REMARK SMILES IDX 8 1 7 2 6 3 5 4 4 5 2 6 1 7 3 8 10 9 11 10 9 11
REMARK H PARENT
REMARK Flexibility Score: inf
ROOT
ATOM      1  C   UNL     1     -32.625 -20.941  22.329  1.00  0.00     0.008 C 
ATOM      2  C   UNL     1     -31.499 -19.995  21.880  1.00  0.00    -0.006 C 
ATOM      3  C   UNL     1     -31.546 -19.707  20.370  1.00  0.00     0.008 C 
ATOM      4  C   UNL     1     -32.784 -18.896  19.951  1.00  0.00     0.039 C 
ATOM      5  C   UNL     1     -33.005 -17.662  20.814  1.00  0.00    -0.006 C 
ATOM      6  C   UNL     1     -33.601 -16.543  20.308  1.00  0.00    -0.070 C 
ATOM      7  C   UNL     1     -34.082 -16.492  18.875  1.00  0.00     0.039 C 
ATOM      8  C   UNL     1     -33.779 -15.291  21.134  1.00  0.00     0.039 C 
ATOM      9  C   UNL     1     -32.646 -17.791  22.258  1.00  0.00     0.159 C 
ATOM     10  O   UNL     1     -33.287 -17.174  23.150  1.00  0.00    -0.295 OA
ATOM     11  C   UNL     1     -31.510 -18.680  22.674  1.00  0.00     0.084 C 
ENDROOT
TORSDOF 0
ENDMDL
MODEL 6
REMARK VINA RESULT:    -3.984      8.072      9.725
REMARK INTER + INTRA:          -3.984
REMARK INTER:                  -3.984
REMARK INTRA:                   0.000
REMARK UNBOUND:                 0.000
REMARK SMILES CC(C)=C1CC[C@H](C)CC1=O
REMARK SMILES IDX 8 1 7 2 6 3 5 4 4 5 2 6 1 7 3 8 10 9 11 10 9 11
REMARK H PARENT
REMARK Flexibility Score: inf
ROOT
ATOM      1  C   UNL     1     -29.237 -16.588  28.656  1.00  0.00     0.008 C 
ATOM      2  C   UNL     1     -30.417 -17.573  28.651  1.00  0.00    -0.006 C 
ATOM      3  C   UNL     1     -31.746 -16.894  29.025  1.00  0.00     0.008 C 
ATOM      4  C   UNL     1     -32.219 -15.876  27.973  1.00  0.00     0.039 C 
ATOM      5  C   UNL     1     -32.197 -16.433  26.557  1.00  0.00    -0.006 C 
ATOM      6  C   UNL     1     -33.078 -15.994  25.611  1.00  0.00    -0.070 C 
ATOM      7  C   UNL     1     -34.099 -14.925  25.928  1.00  0.00     0.039 C 
ATOM      8  C   UNL     1     -33.107 -16.575  24.216  1.00  0.00     0.039 C 
ATOM      9  C   UNL     1     -31.091 -17.385  26.237  1.00  0.00     0.159 C 
ATOM     10  O   UNL     1     -30.586 -17.438  25.084  1.00  0.00    -0.295 OA
ATOM     11  C   UNL     1     -30.550 -18.295  27.301  1.00  0.00     0.084 C 
ENDROOT
TORSDOF 0
ENDMDL
MODEL 7
REMARK VINA RESULT:    -3.875     18.106     19.536
REMARK INTER + INTRA:          -3.875
REMARK INTER:                  -3.875
REMARK INTRA:                   0.000
REMARK UNBOUND:                 0.000
REMARK SMILES CC(C)=C1CC[C@H](C)CC1=O
REMARK SMILES IDX 8 1 7 2 6 3 5 4 4 5 2 6 1 7 3 8 10 9 11 10 9 11
REMARK H PARENT
REMARK Flexibility Score: inf
ROOT
ATOM      1  C   UNL     1     -18.638 -14.890  34.737  1.00  0.00     0.008 C 
ATOM      2  C   UNL     1     -17.835 -14.090  33.697  1.00  0.00    -0.006 C 
ATOM      3  C   UNL     1     -17.781 -14.798  32.332  1.00  0.00     0.008 C 
ATOM      4  C   UNL     1     -19.151 -14.873  31.639  1.00  0.00     0.039 C 
ATOM      5  C   UNL     1     -19.873 -13.534  31.603  1.00  0.00    -0.006 C 
ATOM      6  C   UNL     1     -20.733 -13.221  30.589  1.00  0.00    -0.070 C 
ATOM      7  C   UNL     1     -21.017 -14.201  29.473  1.00  0.00     0.039 C 
ATOM      8  C   UNL     1     -21.415 -11.875  30.508  1.00  0.00     0.039 C 
ATOM      9  C   UNL     1     -19.679 -12.645  32.787  1.00  0.00     0.159 C 
ATOM     10  O   UNL     1     -20.595 -11.878  33.188  1.00  0.00    -0.295 OA
ATOM     11  C   UNL     1     -18.377 -12.662  33.535  1.00  0.00     0.084 C 
ENDROOT
TORSDOF 0
ENDMDL
MODEL 8
REMARK VINA RESULT:    -3.839      5.013      6.678
REMARK INTER + INTRA:          -3.839
REMARK INTER:                  -3.839
REMARK INTRA:                   0.000
REMARK UNBOUND:                 0.000
REMARK SMILES CC(C)=C1CC[C@H](C)CC1=O
REMARK SMILES IDX 8 1 7 2 6 3 5 4 4 5 2 6 1 7 3 8 10 9 11 10 9 11
REMARK H PARENT
REMARK Flexibility Score: inf
ROOT
ATOM      1  C   UNL     1     -32.667 -16.494  24.101  1.00  0.00     0.008 C 
ATOM      2  C   UNL     1     -31.395 -16.762  23.281  1.00  0.00    -0.006 C 
ATOM      3  C   UNL     1     -30.852 -18.186  23.496  1.00  0.00     0.008 C 
ATOM      4  C   UNL     1     -31.785 -19.275  22.941  1.00  0.00     0.039 C 
ATOM      5  C   UNL     1     -32.232 -19.002  21.512  1.00  0.00    -0.006 C 
ATOM      6  C   UNL     1     -32.519 -20.025  20.654  1.00  0.00    -0.070 C 
ATOM      7  C   UNL     1     -32.422 -21.468  21.095  1.00  0.00     0.039 C 
ATOM      8  C   UNL     1     -32.911 -19.774  19.216  1.00  0.00     0.039 C 
ATOM      9  C   UNL     1     -32.451 -17.571  21.148  1.00  0.00     0.159 C 
ATOM     10  O   UNL     1     -33.337 -17.233  20.319  1.00  0.00    -0.295 OA
ATOM     11  C   UNL     1     -31.616 -16.497  21.784  1.00  0.00     0.084 C 
ENDROOT
TORSDOF 0
ENDMDL
MODEL 9
REMARK VINA RESULT:    -3.836      5.684      7.910
REMARK INTER + INTRA:          -3.836
REMARK INTER:                  -3.836
REMARK INTRA:                   0.000
REMARK UNBOUND:                 0.000
REMARK SMILES CC(C)=C1CC[C@H](C)CC1=O
REMARK SMILES IDX 8 1 7 2 6 3 5 4 4 5 2 6 1 7 3 8 10 9 11 10 9 11
REMARK H PARENT
REMARK Flexibility Score: inf
ROOT
ATOM      1  C   UNL     1     -30.390 -19.371  20.247  1.00  0.00     0.008 C 
ATOM      2  C   UNL     1     -31.887 -19.682  20.402  1.00  0.00    -0.006 C 
ATOM      3  C   UNL     1     -32.296 -19.864  21.875  1.00  0.00     0.008 C 
ATOM      4  C   UNL     1     -32.187 -18.567  22.693  1.00  0.00     0.039 C 
ATOM      5  C   UNL     1     -32.859 -17.381  22.016  1.00  0.00    -0.006 C 
ATOM      6  C   UNL     1     -33.404 -16.365  22.748  1.00  0.00    -0.070 C 
ATOM      7  C   UNL     1     -33.346 -16.370  24.259  1.00  0.00     0.039 C 
ATOM      8  C   UNL     1     -34.122 -15.207  22.095  1.00  0.00     0.039 C 
ATOM      9  C   UNL     1     -32.778 -17.336  20.526  1.00  0.00     0.159 C 
ATOM     10  O   UNL     1     -32.711 -16.241  19.906  1.00  0.00    -0.295 OA
ATOM     11  C   UNL     1     -32.763 -18.612  19.735  1.00  0.00     0.084 C 
ENDROOT
TORSDOF 0
ENDMDL
