MODEL 1
REMARK VINA RESULT:    -3.293      0.000      0.000
REMARK INTER + INTRA:          -3.987
REMARK INTER:                  -3.870
REMARK INTRA:                  -0.116
REMARK UNBOUND:                -0.116
REMARK SMILES O=C([O-])CCC(=O)[O-]
REMARK SMILES IDX 4 1 2 2 1 3 3 4 5 5 6 6 7 7 8 8
REMARK H PARENT
REMARK Flexibility Score: inf
ROOT
ATOM      1  C   UNL     1      30.382   7.060  48.282  1.00  0.00     0.059 C 
ENDROOT
BRANCH   1   2
ATOM      2  C   UNL     1      29.347   6.150  48.868  1.00  0.00     0.042 C 
ATOM      3  O   UNL     1      29.363   5.878  50.097  1.00  0.00    -0.550 OA
ATOM      4  O   UNL     1      28.388   5.568  48.048  1.00  0.00    -0.550 OA
ENDBRANCH   1   2
BRANCH   1   5
ATOM      5  C   UNL     1      31.430   6.282  47.480  1.00  0.00     0.059 C 
BRANCH   5   6
ATOM      6  C   UNL     1      32.649   5.992  48.303  1.00  0.00     0.042 C 
ATOM      7  O   UNL     1      32.870   6.641  49.359  1.00  0.00    -0.550 OA
ATOM      8  O   UNL     1      33.561   5.034  47.880  1.00  0.00    -0.550 OA
ENDBRANCH   5   6
ENDBRANCH   1   5
TORSDOF 3
ENDMDL
MODEL 2
REMARK VINA RESULT:    -3.289      0.036      3.686
REMARK INTER + INTRA:          -3.982
REMARK INTER:                  -3.869
REMARK INTRA:                  -0.114
REMARK UNBOUND:                -0.116
REMARK SMILES O=C([O-])CCC(=O)[O-]
REMARK SMILES IDX 4 1 2 2 1 3 3 4 5 5 6 6 7 7 8 8
REMARK H PARENT
REMARK Flexibility Score: inf
ROOT
ATOM      1  C   UNL     1      31.439   6.271  47.491  1.00  0.00     0.059 C 
ENDROOT
BRANCH   1   2
ATOM      2  C   UNL     1      32.674   5.993  48.292  1.00  0.00     0.042 C 
ATOM      3  O   UNL     1      32.900   6.631  49.353  1.00  0.00    -0.550 OA
ATOM      4  O   UNL     1      33.597   5.056  47.844  1.00  0.00    -0.550 OA
ENDBRANCH   1   2
BRANCH   1   5
ATOM      5  C   UNL     1      30.409   7.065  48.300  1.00  0.00     0.059 C 
BRANCH   5   6
ATOM      6  C   UNL     1      29.364   6.169  48.891  1.00  0.00     0.042 C 
ATOM      7  O   UNL     1      29.376   5.907  50.124  1.00  0.00    -0.550 OA
ATOM      8  O   UNL     1      28.401   5.589  48.074  1.00  0.00    -0.550 OA
ENDBRANCH   5   6
ENDBRANCH   1   5
TORSDOF 3
ENDMDL
MODEL 3
REMARK VINA RESULT:    -3.274      0.064      1.146
REMARK INTER + INTRA:          -3.964
REMARK INTER:                  -3.852
REMARK INTRA:                  -0.112
REMARK UNBOUND:                -0.116
REMARK SMILES O=C([O-])CCC(=O)[O-]
REMARK SMILES IDX 4 1 2 2 1 3 3 4 5 5 6 6 7 7 8 8
REMARK H PARENT
REMARK Flexibility Score: inf
ROOT
ATOM      1  C   UNL     1      30.423   7.058  48.279  1.00  0.00     0.059 C 
ENDROOT
BRANCH   1   2
ATOM      2  C   UNL     1      29.357   6.179  48.859  1.00  0.00     0.042 C 
ATOM      3  O   UNL     1      29.361   5.901  50.087  1.00  0.00    -0.550 OA
ATOM      4  O   UNL     1      28.381   5.633  48.034  1.00  0.00    -0.550 OA
ENDBRANCH   1   2
BRANCH   1   5
ATOM      5  C   UNL     1      31.438   6.251  47.463  1.00  0.00     0.059 C 
BRANCH   5   6
ATOM      6  C   UNL     1      32.686   5.982  48.248  1.00  0.00     0.042 C 
ATOM      7  O   UNL     1      33.510   5.115  47.853  1.00  0.00    -0.550 OA
ATOM      8  O   UNL     1      32.918   6.660  49.438  1.00  0.00    -0.550 OA
ENDBRANCH   5   6
ENDBRANCH   1   5
TORSDOF 3
ENDMDL
MODEL 4
REMARK VINA RESULT:    -3.228      0.195      1.157
REMARK INTER + INTRA:          -3.910
REMARK INTER:                  -3.807
REMARK INTRA:                  -0.103
REMARK UNBOUND:                -0.116
REMARK SMILES O=C([O-])CCC(=O)[O-]
REMARK SMILES IDX 4 1 2 2 1 3 3 4 5 5 6 6 7 7 8 8
REMARK H PARENT
REMARK Flexibility Score: inf
ROOT
ATOM      1  C   UNL     1      30.559   7.084  48.218  1.00  0.00     0.059 C 
ENDROOT
BRANCH   1   2
ATOM      2  C   UNL     1      29.441   6.220  48.715  1.00  0.00     0.042 C 
ATOM      3  O   UNL     1      28.549   5.817  47.922  1.00  0.00    -0.550 OA
ATOM      4  O   UNL     1      29.359   5.894  50.063  1.00  0.00    -0.550 OA
ENDBRANCH   1   2
BRANCH   1   5
ATOM      5  C   UNL     1      31.613   6.267  47.465  1.00  0.00     0.059 C 
BRANCH   5   6
ATOM      6  C   UNL     1      32.818   6.004  48.317  1.00  0.00     0.042 C 
ATOM      7  O   UNL     1      32.989   6.643  49.388  1.00  0.00    -0.550 OA
ATOM      8  O   UNL     1      33.772   5.081  47.906  1.00  0.00    -0.550 OA
ENDBRANCH   5   6
ENDBRANCH   1   5
TORSDOF 3
ENDMDL
MODEL 5
REMARK VINA RESULT:    -3.213      2.035      4.328
REMARK INTER + INTRA:          -3.893
REMARK INTER:                  -3.861
REMARK INTRA:                  -0.032
REMARK UNBOUND:                -0.116
REMARK SMILES O=C([O-])CCC(=O)[O-]
REMARK SMILES IDX 4 1 2 2 1 3 3 4 5 5 6 6 7 7 8 8
REMARK H PARENT
REMARK Flexibility Score: inf
ROOT
ATOM      1  C   UNL     1      32.964   7.022  47.197  1.00  0.00     0.059 C 
ENDROOT
BRANCH   1   2
ATOM      2  C   UNL     1      33.856   6.375  46.183  1.00  0.00     0.042 C 
ATOM      3  O   UNL     1      34.639   5.450  46.524  1.00  0.00    -0.550 OA
ATOM      4  O   UNL     1      33.852   6.821  44.867  1.00  0.00    -0.550 OA
ENDBRANCH   1   2
BRANCH   1   5
ATOM      5  C   UNL     1      31.806   6.103  47.599  1.00  0.00     0.059 C 
BRANCH   5   6
ATOM      6  C   UNL     1      30.601   6.888  48.021  1.00  0.00     0.042 C 
ATOM      7  O   UNL     1      30.732   8.051  48.485  1.00  0.00    -0.550 OA
ATOM      8  O   UNL     1      29.336   6.318  47.940  1.00  0.00    -0.550 OA
ENDBRANCH   5   6
ENDBRANCH   1   5
TORSDOF 3
ENDMDL
MODEL 6
REMARK VINA RESULT:    -3.029      2.131      2.825
REMARK INTER + INTRA:          -3.677
REMARK INTER:                  -3.522
REMARK INTRA:                  -0.155
REMARK UNBOUND:                -0.116
REMARK SMILES O=C([O-])CCC(=O)[O-]
REMARK SMILES IDX 4 1 2 2 1 3 3 4 5 5 6 6 7 7 8 8
REMARK H PARENT
REMARK Flexibility Score: inf
ROOT
ATOM      1  C   UNL     1      32.861   6.682  48.353  1.00  0.00     0.059 C 
ENDROOT
BRANCH   1   2
ATOM      2  C   UNL     1      31.596   5.937  48.062  1.00  0.00     0.042 C 
ATOM      3  O   UNL     1      31.571   4.679  48.121  1.00  0.00    -0.550 OA
ATOM      4  O   UNL     1      30.451   6.629  47.684  1.00  0.00    -0.550 OA
ENDBRANCH   1   2
BRANCH   1   5
ATOM      5  C   UNL     1      33.377   7.425  47.116  1.00  0.00     0.059 C 
BRANCH   5   6
ATOM      6  C   UNL     1      33.945   6.478  46.102  1.00  0.00     0.042 C 
ATOM      7  O   UNL     1      33.735   6.663  44.874  1.00  0.00    -0.550 OA
ATOM      8  O   UNL     1      34.671   5.369  46.518  1.00  0.00    -0.550 OA
ENDBRANCH   5   6
ENDBRANCH   1   5
TORSDOF 3
ENDMDL
MODEL 7
REMARK VINA RESULT:    -2.915      2.560      2.993
REMARK INTER + INTRA:          -3.542
REMARK INTER:                  -3.448
REMARK INTRA:                  -0.095
REMARK UNBOUND:                -0.116
REMARK SMILES O=C([O-])CCC(=O)[O-]
REMARK SMILES IDX 4 1 2 2 1 3 3 4 5 5 6 6 7 7 8 8
REMARK H PARENT
REMARK Flexibility Score: inf
ROOT
ATOM      1  C   UNL     1      30.192   8.028  48.958  1.00  0.00     0.059 C 
ENDROOT
BRANCH   1   2
ATOM      2  C   UNL     1      30.096   6.732  48.215  1.00  0.00     0.042 C 
ATOM      3  O   UNL     1      30.991   6.405  47.390  1.00  0.00    -0.550 OA
ATOM      4  O   UNL     1      28.998   5.902  48.401  1.00  0.00    -0.550 OA
ENDBRANCH   1   2
BRANCH   1   5
ATOM      5  C   UNL     1      31.643   8.374  49.307  1.00  0.00     0.059 C 
BRANCH   5   6
ATOM      6  C   UNL     1      32.138   9.542  48.510  1.00  0.00     0.042 C 
ATOM      7  O   UNL     1      31.627  10.682  48.671  1.00  0.00    -0.550 OA
ATOM      8  O   UNL     1      33.136   9.363  47.560  1.00  0.00    -0.550 OA
ENDBRANCH   5   6
ENDBRANCH   1   5
TORSDOF 3
ENDMDL
MODEL 8
REMARK VINA RESULT:    -2.852     16.685     17.651
REMARK INTER + INTRA:          -3.469
REMARK INTER:                  -3.327
REMARK INTRA:                  -0.142
REMARK UNBOUND:                -0.116
REMARK SMILES O=C([O-])CCC(=O)[O-]
REMARK SMILES IDX 4 1 2 2 1 3 3 4 5 5 6 6 7 7 8 8
REMARK H PARENT
REMARK Flexibility Score: inf
ROOT
ATOM      1  C   UNL     1      22.061  11.873  35.861  1.00  0.00     0.059 C 
ENDROOT
BRANCH   1   2
ATOM      2  C   UNL     1      20.927  12.817  35.607  1.00  0.00     0.042 C 
ATOM      3  O   UNL     1      21.052  13.751  34.773  1.00  0.00    -0.550 OA
ATOM      4  O   UNL     1      19.743  12.690  36.324  1.00  0.00    -0.550 OA
ENDBRANCH   1   2
BRANCH   1   5
ATOM      5  C   UNL     1      22.240  10.881  34.707  1.00  0.00     0.059 C 
BRANCH   5   6
ATOM      6  C   UNL     1      21.196   9.807  34.737  1.00  0.00     0.042 C 
ATOM      7  O   UNL     1      20.750   9.325  33.663  1.00  0.00    -0.550 OA
ATOM      8  O   UNL     1      20.686   9.367  35.953  1.00  0.00    -0.550 OA
ENDBRANCH   5   6
ENDBRANCH   1   5
TORSDOF 3
ENDMDL
MODEL 9
REMARK VINA RESULT:    -2.825     16.664     17.684
REMARK INTER + INTRA:          -3.437
REMARK INTER:                  -3.286
REMARK INTRA:                  -0.151
REMARK UNBOUND:                -0.116
REMARK SMILES O=C([O-])CCC(=O)[O-]
REMARK SMILES IDX 4 1 2 2 1 3 3 4 5 5 6 6 7 7 8 8
REMARK H PARENT
REMARK Flexibility Score: inf
ROOT
ATOM      1  C   UNL     1      22.278  10.775  34.822  1.00  0.00     0.059 C 
ENDROOT
BRANCH   1   2
ATOM      2  C   UNL     1      21.153   9.788  34.873  1.00  0.00     0.042 C 
ATOM      3  O   UNL     1      20.691   9.297  33.810  1.00  0.00    -0.550 OA
ATOM      4  O   UNL     1      20.587   9.441  36.093  1.00  0.00    -0.550 OA
ENDBRANCH   1   2
BRANCH   1   5
ATOM      5  C   UNL     1      22.099  11.890  35.858  1.00  0.00     0.059 C 
BRANCH   5   6
ATOM      6  C   UNL     1      20.996  12.828  35.473  1.00  0.00     0.042 C 
ATOM      7  O   UNL     1      21.129  13.590  34.479  1.00  0.00    -0.550 OA
ATOM      8  O   UNL     1      19.837  12.889  36.236  1.00  0.00    -0.550 OA
ENDBRANCH   5   6
ENDBRANCH   1   5
TORSDOF 3
ENDMDL
