MODEL 1
REMARK VINA RESULT:    -5.502      0.000      0.000
REMARK INTER + INTRA:          -8.352
REMARK INTER:                  -8.075
REMARK INTRA:                  -0.277
REMARK UNBOUND:                -0.277
REMARK SMILES CCCOC(=O)c1ccccc1C(=O)OCCC
REMARK SMILES IDX 7 1 8 2 9 3 10 4 11 5 12 6 5 7 6 8 4 9 3 10 2 11 1 12 13 13
REMARK SMILES IDX 14 14 15 15 16 16 17 17 18 18
REMARK H PARENT
REMARK Flexibility Score: inf
ROOT
ATOM      1  C   UNL     1      96.672  87.146  78.410  1.00  0.00     0.074 A 
ATOM      2  C   UNL     1      97.444  88.038  77.643  1.00  0.00     0.016 A 
ATOM      3  C   UNL     1      97.052  89.368  77.486  1.00  0.00     0.001 A 
ATOM      4  C   UNL     1      95.883  89.827  78.089  1.00  0.00     0.001 A 
ATOM      5  C   UNL     1      95.115  88.965  78.872  1.00  0.00     0.016 A 
ATOM      6  C   UNL     1      95.504  87.628  79.063  1.00  0.00     0.074 A 
ENDROOT
BRANCH   1   7
ATOM      7  C   UNL     1      97.084  85.723  78.440  1.00  0.00     0.339 C 
ATOM      8  O   UNL     1      97.041  85.069  79.518  1.00  0.00    -0.246 OA
BRANCH   7   9
ATOM      9  O   UNL     1      97.468  85.092  77.252  1.00  0.00    -0.462 OA
BRANCH   9  10
ATOM     10  C   UNL     1      98.648  84.302  77.147  1.00  0.00     0.233 C 
BRANCH  10  11
ATOM     11  C   UNL     1      98.524  83.362  75.951  1.00  0.00     0.038 C 
ATOM     12  C   UNL     1      98.822  81.920  76.346  1.00  0.00     0.007 C 
ENDBRANCH  10  11
ENDBRANCH   9  10
ENDBRANCH   7   9
ENDBRANCH   1   7
BRANCH   6  13
ATOM     13  C   UNL     1      94.705  86.800  79.993  1.00  0.00     0.339 C 
ATOM     14  O   UNL     1      93.753  86.096  79.559  1.00  0.00    -0.246 OA
BRANCH  13  15
ATOM     15  O   UNL     1      95.050  86.762  81.349  1.00  0.00    -0.462 OA
BRANCH  15  16
ATOM     16  C   UNL     1      94.466  87.614  82.335  1.00  0.00     0.233 C 
BRANCH  16  17
ATOM     17  C   UNL     1      95.458  88.687  82.798  1.00  0.00     0.038 C 
ATOM     18  C   UNL     1      96.044  88.365  84.171  1.00  0.00     0.007 C 
ENDBRANCH  16  17
ENDBRANCH  15  16
ENDBRANCH  13  15
ENDBRANCH   6  13
TORSDOF 8
ENDMDL
MODEL 2
REMARK VINA RESULT:    -5.455      8.747     11.053
REMARK INTER + INTRA:          -8.283
REMARK INTER:                  -7.506
REMARK INTRA:                  -0.777
REMARK UNBOUND:                -0.277
REMARK SMILES CCCOC(=O)c1ccccc1C(=O)OCCC
REMARK SMILES IDX 7 1 8 2 9 3 10 4 11 5 12 6 5 7 6 8 4 9 3 10 2 11 1 12 13 13
REMARK SMILES IDX 14 14 15 15 16 16 17 17 18 18
REMARK H PARENT
REMARK Flexibility Score: inf
ROOT
ATOM      1  C   UNL     1      95.301  95.836  78.209  1.00  0.00     0.074 A 
ATOM      2  C   UNL     1      95.503  94.447  78.308  1.00  0.00     0.016 A 
ATOM      3  C   UNL     1      94.423  93.564  78.282  1.00  0.00     0.001 A 
ATOM      4  C   UNL     1      93.124  94.054  78.159  1.00  0.00     0.001 A 
ATOM      5  C   UNL     1      92.903  95.426  78.037  1.00  0.00     0.016 A 
ATOM      6  C   UNL     1      93.979  96.331  78.037  1.00  0.00     0.074 A 
ENDROOT
BRANCH   1   7
ATOM      7  C   UNL     1      96.480  96.720  78.359  1.00  0.00     0.339 C 
ATOM      8  O   UNL     1      97.004  96.897  79.493  1.00  0.00    -0.246 OA
BRANCH   7   9
ATOM      9  O   UNL     1      97.045  97.312  77.225  1.00  0.00    -0.462 OA
BRANCH   9  10
ATOM     10  C   UNL     1      97.872  98.470  77.293  1.00  0.00     0.233 C 
BRANCH  10  11
ATOM     11  C   UNL     1      98.873  98.446  76.141  1.00  0.00     0.038 C 
ATOM     12  C   UNL     1     100.301  98.280  76.650  1.00  0.00     0.007 C 
ENDBRANCH  10  11
ENDBRANCH   9  10
ENDBRANCH   7   9
ENDBRANCH   1   7
BRANCH   6  13
ATOM     13  C   UNL     1      93.682  97.759  77.792  1.00  0.00     0.339 C 
ATOM     14  O   UNL     1      93.668  98.213  76.615  1.00  0.00    -0.246 OA
BRANCH  13  15
ATOM     15  O   UNL     1      93.360  98.589  78.873  1.00  0.00    -0.462 OA
BRANCH  15  16
ATOM     16  C   UNL     1      92.038  98.726  79.395  1.00  0.00     0.233 C 
BRANCH  16  17
ATOM     17  C   UNL     1      91.822  97.812  80.605  1.00  0.00     0.038 C 
ATOM     18  C   UNL     1      90.489  97.072  80.528  1.00  0.00     0.007 C 
ENDBRANCH  16  17
ENDBRANCH  15  16
ENDBRANCH  13  15
ENDBRANCH   6  13
TORSDOF 8
ENDMDL
MODEL 3
REMARK VINA RESULT:    -5.451      8.965     10.895
REMARK INTER + INTRA:          -8.278
REMARK INTER:                  -8.155
REMARK INTRA:                  -0.123
REMARK UNBOUND:                -0.277
REMARK SMILES CCCOC(=O)c1ccccc1C(=O)OCCC
REMARK SMILES IDX 7 1 8 2 9 3 10 4 11 5 12 6 5 7 6 8 4 9 3 10 2 11 1 12 13 13
REMARK SMILES IDX 14 14 15 15 16 16 17 17 18 18
REMARK H PARENT
REMARK Flexibility Score: inf
ROOT
ATOM      1  C   UNL     1      87.141  85.741  78.422  1.00  0.00     0.074 A 
ATOM      2  C   UNL     1      87.937  84.949  77.574  1.00  0.00     0.016 A 
ATOM      3  C   UNL     1      89.284  85.252  77.371  1.00  0.00     0.001 A 
ATOM      4  C   UNL     1      89.856  86.351  78.008  1.00  0.00     0.001 A 
ATOM      5  C   UNL     1      89.091  87.137  78.870  1.00  0.00     0.016 A 
ATOM      6  C   UNL     1      87.738  86.835  79.107  1.00  0.00     0.074 A 
ENDROOT
BRANCH   1   7
ATOM      7  C   UNL     1      85.694  85.432  78.502  1.00  0.00     0.339 C 
ATOM      8  O   UNL     1      85.062  85.616  79.578  1.00  0.00    -0.246 OA
BRANCH   7   9
ATOM      9  O   UNL     1      85.021  84.989  77.359  1.00  0.00    -0.462 OA
BRANCH   9  10
ATOM     10  C   UNL     1      83.955  84.045  77.411  1.00  0.00     0.233 C 
BRANCH  10  11
ATOM     11  C   UNL     1      83.287  83.959  76.042  1.00  0.00     0.038 C 
ATOM     12  C   UNL     1      81.813  83.588  76.167  1.00  0.00     0.007 C 
ENDBRANCH  10  11
ENDBRANCH   9  10
ENDBRANCH   7   9
ENDBRANCH   1   7
BRANCH   6  13
ATOM     13  C   UNL     1      87.016  87.641  80.115  1.00  0.00     0.339 C 
ATOM     14  O   UNL     1      87.146  87.387  81.344  1.00  0.00    -0.246 OA
BRANCH  13  15
ATOM     15  O   UNL     1      86.233  88.724  79.697  1.00  0.00    -0.462 OA
BRANCH  15  16
ATOM     16  C   UNL     1      85.106  89.209  80.427  1.00  0.00     0.233 C 
BRANCH  16  17
ATOM     17  C   UNL     1      84.847  90.690  80.130  1.00  0.00     0.038 C 
ATOM     18  C   UNL     1      85.836  91.245  79.108  1.00  0.00     0.007 C 
ENDBRANCH  16  17
ENDBRANCH  15  16
ENDBRANCH  13  15
ENDBRANCH   6  13
TORSDOF 8
ENDMDL
MODEL 4
REMARK VINA RESULT:    -5.387     11.961     14.536
REMARK INTER + INTRA:          -8.183
REMARK INTER:                  -7.753
REMARK INTRA:                  -0.430
REMARK UNBOUND:                -0.277
REMARK SMILES CCCOC(=O)c1ccccc1C(=O)OCCC
REMARK SMILES IDX 7 1 8 2 9 3 10 4 11 5 12 6 5 7 6 8 4 9 3 10 2 11 1 12 13 13
REMARK SMILES IDX 14 14 15 15 16 16 17 17 18 18
REMARK H PARENT
REMARK Flexibility Score: inf
ROOT
ATOM      1  C   UNL     1      87.025  94.864  78.918  1.00  0.00     0.074 A 
ATOM      2  C   UNL     1      87.367  93.513  78.721  1.00  0.00     0.016 A 
ATOM      3  C   UNL     1      86.506  92.651  78.040  1.00  0.00     0.001 A 
ATOM      4  C   UNL     1      85.290  93.123  77.548  1.00  0.00     0.001 A 
ATOM      5  C   UNL     1      84.943  94.464  77.712  1.00  0.00     0.016 A 
ATOM      6  C   UNL     1      85.806  95.355  78.374  1.00  0.00     0.074 A 
ENDROOT
BRANCH   1   7
ATOM      7  C   UNL     1      87.930  95.693  79.747  1.00  0.00     0.339 C 
ATOM      8  O   UNL     1      88.908  96.292  79.220  1.00  0.00    -0.246 OA
BRANCH   7   9
ATOM      9  O   UNL     1      87.660  95.855  81.110  1.00  0.00    -0.462 OA
BRANCH   9  10
ATOM     10  C   UNL     1      88.212  95.004  82.109  1.00  0.00     0.233 C 
BRANCH  10  11
ATOM     11  C   UNL     1      87.082  94.370  82.916  1.00  0.00     0.038 C 
ATOM     12  C   UNL     1      86.764  92.965  82.414  1.00  0.00     0.007 C 
ENDBRANCH  10  11
ENDBRANCH   9  10
ENDBRANCH   7   9
ENDBRANCH   1   7
BRANCH   6  13
ATOM     13  C   UNL     1      85.426  96.783  78.416  1.00  0.00     0.339 C 
ATOM     14  O   UNL     1      85.546  97.442  79.485  1.00  0.00    -0.246 OA
BRANCH  13  15
ATOM     15  O   UNL     1      84.985  97.413  77.245  1.00  0.00    -0.462 OA
BRANCH  15  16
ATOM     16  C   UNL     1      83.939  98.384  77.219  1.00  0.00     0.233 C 
BRANCH  16  17
ATOM     17  C   UNL     1      84.192  99.442  76.139  1.00  0.00     0.038 C 
ATOM     18  C   UNL     1      83.507 100.766  76.470  1.00  0.00     0.007 C 
ENDBRANCH  16  17
ENDBRANCH  15  16
ENDBRANCH  13  15
ENDBRANCH   6  13
TORSDOF 8
ENDMDL
MODEL 5
REMARK VINA RESULT:    -5.375      2.192      3.281
REMARK INTER + INTRA:          -8.165
REMARK INTER:                  -7.812
REMARK INTRA:                  -0.353
REMARK UNBOUND:                -0.277
REMARK SMILES CCCOC(=O)c1ccccc1C(=O)OCCC
REMARK SMILES IDX 7 1 8 2 9 3 10 4 11 5 12 6 5 7 6 8 4 9 3 10 2 11 1 12 13 13
REMARK SMILES IDX 14 14 15 15 16 16 17 17 18 18
REMARK H PARENT
REMARK Flexibility Score: inf
ROOT
ATOM      1  C   UNL     1      96.403  86.826  78.671  1.00  0.00     0.074 A 
ATOM      2  C   UNL     1      96.089  85.796  79.577  1.00  0.00     0.016 A 
ATOM      3  C   UNL     1      95.281  86.043  80.687  1.00  0.00     0.001 A 
ATOM      4  C   UNL     1      94.776  87.322  80.912  1.00  0.00     0.001 A 
ATOM      5  C   UNL     1      95.056  88.353  80.015  1.00  0.00     0.016 A 
ATOM      6  C   UNL     1      95.848  88.120  78.877  1.00  0.00     0.074 A 
ENDROOT
BRANCH   1   7
ATOM      7  C   UNL     1      97.358  86.522  77.580  1.00  0.00     0.339 C 
ATOM      8  O   UNL     1      98.155  87.409  77.165  1.00  0.00    -0.246 OA
BRANCH   7   9
ATOM      9  O   UNL     1      97.411  85.228  77.052  1.00  0.00    -0.462 OA
BRANCH   9  10
ATOM     10  C   UNL     1      98.566  84.402  77.154  1.00  0.00     0.233 C 
BRANCH  10  11
ATOM     11  C   UNL     1      98.557  83.377  76.023  1.00  0.00     0.038 C 
ATOM     12  C   UNL     1      98.625  81.953  76.565  1.00  0.00     0.007 C 
ENDBRANCH  10  11
ENDBRANCH   9  10
ENDBRANCH   7   9
ENDBRANCH   1   7
BRANCH   6  13
ATOM     13  C   UNL     1      96.014  89.227  77.911  1.00  0.00     0.339 C 
ATOM     14  O   UNL     1      95.368  89.228  76.827  1.00  0.00    -0.246 OA
BRANCH  13  15
ATOM     15  O   UNL     1      96.851  90.303  78.234  1.00  0.00    -0.462 OA
BRANCH  15  16
ATOM     16  C   UNL     1      98.065  90.162  78.972  1.00  0.00     0.233 C 
BRANCH  16  17
ATOM     17  C   UNL     1      98.183  91.238  80.057  1.00  0.00     0.038 C 
ATOM     18  C   UNL     1      97.127  91.065  81.146  1.00  0.00     0.007 C 
ENDBRANCH  16  17
ENDBRANCH  15  16
ENDBRANCH  13  15
ENDBRANCH   6  13
TORSDOF 8
ENDMDL
MODEL 6
REMARK VINA RESULT:    -5.324      6.097      8.086
REMARK INTER + INTRA:          -8.091
REMARK INTER:                  -6.814
REMARK INTRA:                  -1.276
REMARK UNBOUND:                -0.277
REMARK SMILES CCCOC(=O)c1ccccc1C(=O)OCCC
REMARK SMILES IDX 7 1 8 2 9 3 10 4 11 5 12 6 5 7 6 8 4 9 3 10 2 11 1 12 13 13
REMARK SMILES IDX 14 14 15 15 16 16 17 17 18 18
REMARK H PARENT
REMARK Flexibility Score: inf
ROOT
ATOM      1  C   UNL     1      88.069  86.526  78.638  1.00  0.00     0.074 A 
ATOM      2  C   UNL     1      86.823  85.946  78.332  1.00  0.00     0.016 A 
ATOM      3  C   UNL     1      85.731  86.110  79.183  1.00  0.00     0.001 A 
ATOM      4  C   UNL     1      85.864  86.853  80.355  1.00  0.00     0.001 A 
ATOM      5  C   UNL     1      87.083  87.456  80.666  1.00  0.00     0.016 A 
ATOM      6  C   UNL     1      88.190  87.323  79.810  1.00  0.00     0.074 A 
ENDROOT
BRANCH   1   7
ATOM      7  C   UNL     1      89.214  86.217  77.750  1.00  0.00     0.339 C 
ATOM      8  O   UNL     1      89.346  86.817  76.648  1.00  0.00    -0.246 OA
BRANCH   7   9
ATOM      9  O   UNL     1      90.179  85.296  78.168  1.00  0.00    -0.462 OA
BRANCH   9  10
ATOM     10  C   UNL     1      89.849  84.092  78.853  1.00  0.00     0.233 C 
BRANCH  10  11
ATOM     11  C   UNL     1      90.629  84.023  80.163  1.00  0.00     0.038 C 
ATOM     12  C   UNL     1      92.032  84.599  80.003  1.00  0.00     0.007 C 
ENDBRANCH  10  11
ENDBRANCH   9  10
ENDBRANCH   7   9
ENDBRANCH   1   7
BRANCH   6  13
ATOM     13  C   UNL     1      89.418  88.078  80.143  1.00  0.00     0.339 C 
ATOM     14  O   UNL     1      89.551  89.274  79.767  1.00  0.00    -0.246 OA
BRANCH  13  15
ATOM     15  O   UNL     1      90.406  87.471  80.929  1.00  0.00    -0.462 OA
BRANCH  15  16
ATOM     16  C   UNL     1      90.401  87.493  82.356  1.00  0.00     0.233 C 
BRANCH  16  17
ATOM     17  C   UNL     1      89.872  86.175  82.930  1.00  0.00     0.038 C 
ATOM     18  C   UNL     1      88.811  86.407  84.003  1.00  0.00     0.007 C 
ENDBRANCH  16  17
ENDBRANCH  15  16
ENDBRANCH  13  15
ENDBRANCH   6  13
TORSDOF 8
ENDMDL
MODEL 7
REMARK VINA RESULT:    -5.287      8.995     11.723
REMARK INTER + INTRA:          -8.037
REMARK INTER:                  -7.840
REMARK INTRA:                  -0.197
REMARK UNBOUND:                -0.277
REMARK SMILES CCCOC(=O)c1ccccc1C(=O)OCCC
REMARK SMILES IDX 7 1 8 2 9 3 10 4 11 5 12 6 5 7 6 8 4 9 3 10 2 11 1 12 13 13
REMARK SMILES IDX 14 14 15 15 16 16 17 17 18 18
REMARK H PARENT
REMARK Flexibility Score: inf
ROOT
ATOM      1  C   UNL     1      87.601  86.901  79.189  1.00  0.00     0.074 A 
ATOM      2  C   UNL     1      88.946  87.304  79.101  1.00  0.00     0.016 A 
ATOM      3  C   UNL     1      89.846  86.614  78.289  1.00  0.00     0.001 A 
ATOM      4  C   UNL     1      89.420  85.509  77.555  1.00  0.00     0.001 A 
ATOM      5  C   UNL     1      88.085  85.106  77.609  1.00  0.00     0.016 A 
ATOM      6  C   UNL     1      87.156  85.802  78.402  1.00  0.00     0.074 A 
ENDROOT
BRANCH   1   7
ATOM      7  C   UNL     1      86.728  87.606  80.156  1.00  0.00     0.339 C 
ATOM      8  O   UNL     1      86.790  87.335  81.387  1.00  0.00    -0.246 OA
BRANCH   7   9
ATOM      9  O   UNL     1      85.874  88.617  79.703  1.00  0.00    -0.462 OA
BRANCH   9  10
ATOM     10  C   UNL     1      86.311  89.956  79.494  1.00  0.00     0.233 C 
BRANCH  10  11
ATOM     11  C   UNL     1      85.615  90.878  80.493  1.00  0.00     0.038 C 
ATOM     12  C   UNL     1      84.209  91.240  80.026  1.00  0.00     0.007 C 
ENDBRANCH  10  11
ENDBRANCH   9  10
ENDBRANCH   7   9
ENDBRANCH   1   7
BRANCH   6  13
ATOM     13  C   UNL     1      85.738  85.390  78.329  1.00  0.00     0.339 C 
ATOM     14  O   UNL     1      85.024  85.380  79.369  1.00  0.00    -0.246 OA
BRANCH  13  15
ATOM     15  O   UNL     1      85.179  85.066  77.086  1.00  0.00    -0.462 OA
BRANCH  15  16
ATOM     16  C   UNL     1      84.300  83.960  76.882  1.00  0.00     0.233 C 
BRANCH  16  17
ATOM     17  C   UNL     1      82.897  84.432  76.485  1.00  0.00     0.038 C 
ATOM     18  C   UNL     1      81.895  83.280  76.462  1.00  0.00     0.007 C 
ENDBRANCH  16  17
ENDBRANCH  15  16
ENDBRANCH  13  15
ENDBRANCH   6  13
TORSDOF 8
ENDMDL
MODEL 8
REMARK VINA RESULT:    -5.270      7.492     10.093
REMARK INTER + INTRA:          -8.011
REMARK INTER:                  -7.443
REMARK INTRA:                  -0.568
REMARK UNBOUND:                -0.277
REMARK SMILES CCCOC(=O)c1ccccc1C(=O)OCCC
REMARK SMILES IDX 7 1 8 2 9 3 10 4 11 5 12 6 5 7 6 8 4 9 3 10 2 11 1 12 13 13
REMARK SMILES IDX 14 14 15 15 16 16 17 17 18 18
REMARK H PARENT
REMARK Flexibility Score: inf
ROOT
ATOM      1  C   UNL     1      88.775  86.567  79.497  1.00  0.00     0.074 A 
ATOM      2  C   UNL     1      89.801  85.871  78.831  1.00  0.00     0.016 A 
ATOM      3  C   UNL     1      89.509  85.014  77.769  1.00  0.00     0.001 A 
ATOM      4  C   UNL     1      88.190  84.837  77.356  1.00  0.00     0.001 A 
ATOM      5  C   UNL     1      87.160  85.534  77.988  1.00  0.00     0.016 A 
ATOM      6  C   UNL     1      87.434  86.420  79.044  1.00  0.00     0.074 A 
ENDROOT
BRANCH   1   7
ATOM      7  C   UNL     1      89.142  87.369  80.687  1.00  0.00     0.339 C 
ATOM      8  O   UNL     1      89.497  88.573  80.560  1.00  0.00    -0.246 OA
BRANCH   7   9
ATOM      9  O   UNL     1      89.036  86.799  81.960  1.00  0.00    -0.462 OA
BRANCH   9  10
ATOM     10  C   UNL     1      88.077  87.233  82.920  1.00  0.00     0.233 C 
BRANCH  10  11
ATOM     11  C   UNL     1      88.285  86.469  84.225  1.00  0.00     0.038 C 
ATOM     12  C   UNL     1      88.050  87.367  85.435  1.00  0.00     0.007 C 
ENDBRANCH  10  11
ENDBRANCH   9  10
ENDBRANCH   7   9
ENDBRANCH   1   7
BRANCH   6  13
ATOM     13  C   UNL     1      86.311  87.209  79.595  1.00  0.00     0.339 C 
ATOM     14  O   UNL     1      85.390  86.639  80.242  1.00  0.00    -0.246 OA
BRANCH  13  15
ATOM     15  O   UNL     1      86.307  88.601  79.441  1.00  0.00    -0.462 OA
BRANCH  15  16
ATOM     16  C   UNL     1      85.488  89.477  80.216  1.00  0.00     0.233 C 
BRANCH  16  17
ATOM     17  C   UNL     1      85.321  90.835  79.526  1.00  0.00     0.038 C 
ATOM     18  C   UNL     1      84.162  91.634  80.116  1.00  0.00     0.007 C 
ENDBRANCH  16  17
ENDBRANCH  15  16
ENDBRANCH  13  15
ENDBRANCH   6  13
TORSDOF 8
ENDMDL
MODEL 9
REMARK VINA RESULT:    -5.225      8.116      9.768
REMARK INTER + INTRA:          -7.946
REMARK INTER:                  -7.025
REMARK INTRA:                  -0.921
REMARK UNBOUND:                -0.277
REMARK SMILES CCCOC(=O)c1ccccc1C(=O)OCCC
REMARK SMILES IDX 7 1 8 2 9 3 10 4 11 5 12 6 5 7 6 8 4 9 3 10 2 11 1 12 13 13
REMARK SMILES IDX 14 14 15 15 16 16 17 17 18 18
REMARK H PARENT
REMARK Flexibility Score: inf
ROOT
ATOM      1  C   UNL     1      86.276  88.663  80.646  1.00  0.00     0.074 A 
ATOM      2  C   UNL     1      85.466  89.743  80.249  1.00  0.00     0.016 A 
ATOM      3  C   UNL     1      85.412  90.911  81.009  1.00  0.00     0.001 A 
ATOM      4  C   UNL     1      86.161  91.020  82.179  1.00  0.00     0.001 A 
ATOM      5  C   UNL     1      86.988  89.970  82.579  1.00  0.00     0.016 A 
ATOM      6  C   UNL     1      87.076  88.793  81.815  1.00  0.00     0.074 A 
ENDROOT
BRANCH   1   7
ATOM      7  C   UNL     1      86.198  87.412  79.857  1.00  0.00     0.339 C 
ATOM      8  O   UNL     1      85.391  86.499  80.186  1.00  0.00    -0.246 OA
BRANCH   7   9
ATOM      9  O   UNL     1      86.985  87.272  78.709  1.00  0.00    -0.462 OA
BRANCH   9  10
ATOM     10  C   UNL     1      88.154  86.461  78.672  1.00  0.00     0.233 C 
BRANCH  10  11
ATOM     11  C   UNL     1      87.889  85.229  77.811  1.00  0.00     0.038 C 
ATOM     12  C   UNL     1      89.157  84.403  77.618  1.00  0.00     0.007 C 
ENDBRANCH  10  11
ENDBRANCH   9  10
ENDBRANCH   7   9
ENDBRANCH   1   7
BRANCH   6  13
ATOM     13  C   UNL     1      88.054  87.766  82.237  1.00  0.00     0.339 C 
ATOM     14  O   UNL     1      89.239  87.802  81.808  1.00  0.00    -0.246 OA
BRANCH  13  15
ATOM     15  O   UNL     1      87.667  86.786  83.160  1.00  0.00    -0.462 OA
BRANCH  15  16
ATOM     16  C   UNL     1      88.424  86.461  84.326  1.00  0.00     0.233 C 
BRANCH  16  17
ATOM     17  C   UNL     1      88.668  87.700  85.193  1.00  0.00     0.038 C 
ATOM     18  C   UNL     1      87.444  88.057  86.032  1.00  0.00     0.007 C 
ENDBRANCH  16  17
ENDBRANCH  15  16
ENDBRANCH  13  15
ENDBRANCH   6  13
TORSDOF 8
ENDMDL
