MODEL 1
REMARK VINA RESULT:    -2.713      0.000      0.000
REMARK INTER + INTRA:          -5.768
REMARK INTER:                  -4.695
REMARK INTRA:                  -1.072
REMARK UNBOUND:                -1.072
REMARK SMILES CCCCCCCCCCCCCCO
REMARK SMILES IDX 8 1 7 2 6 3 5 4 4 5 3 6 2 7 1 8 9 9 10 10 11 11 12 12 13 13
REMARK SMILES IDX 14 14 15 15
REMARK H PARENT 15 16
REMARK Flexibility Score: inf
ROOT
ATOM      1  C   UNL     1     -31.132 -21.604  29.077  1.00  0.00     0.000 C 
ENDROOT
BRANCH   1   2
ATOM      2  C   UNL     1     -32.618 -21.242  29.252  1.00  0.00    -0.000 C 
BRANCH   2   3
ATOM      3  C   UNL     1     -32.819 -19.927  30.025  1.00  0.00    -0.000 C 
BRANCH   3   4
ATOM      4  C   UNL     1     -31.704 -18.902  29.749  1.00  0.00    -0.000 C 
BRANCH   4   5
ATOM      5  C   UNL     1     -32.255 -17.502  29.430  1.00  0.00    -0.000 C 
BRANCH   5   6
ATOM      6  C   UNL     1     -32.236 -17.188  27.924  1.00  0.00    -0.000 C 
BRANCH   6   7
ATOM      7  C   UNL     1     -33.561 -17.545  27.232  1.00  0.00    -0.003 C 
ATOM      8  C   UNL     1     -33.592 -18.985  26.718  1.00  0.00     0.004 C 
ENDBRANCH   6   7
ENDBRANCH   5   6
ENDBRANCH   4   5
ENDBRANCH   3   4
ENDBRANCH   2   3
ENDBRANCH   1   2
BRANCH   1   9
ATOM      9  C   UNL     1     -30.905 -22.644  27.968  1.00  0.00     0.000 C 
BRANCH   9  10
ATOM     10  C   UNL     1     -32.213 -23.304  27.498  1.00  0.00     0.000 C 
BRANCH  10  11
ATOM     11  C   UNL     1     -32.751 -22.687  26.195  1.00  0.00     0.000 C 
BRANCH  11  12
ATOM     12  C   UNL     1     -34.288 -22.726  26.114  1.00  0.00     0.002 C 
BRANCH  12  13
ATOM     13  C   UNL     1     -34.917 -23.547  27.252  1.00  0.00     0.028 C 
BRANCH  13  14
ATOM     14  C   UNL     1     -36.164 -22.881  27.847  1.00  0.00     0.156 C 
BRANCH  14  15
ATOM     15  O   UNL     1     -37.310 -23.305  27.160  1.00  0.00    -0.396 OA
ATOM     16  H   UNL     1     -38.080 -22.830  27.570  1.00  0.00     0.210 HD
ENDBRANCH  14  15
ENDBRANCH  13  14
ENDBRANCH  12  13
ENDBRANCH  11  12
ENDBRANCH  10  11
ENDBRANCH   9  10
ENDBRANCH   1   9
TORSDOF 13
ENDMDL
MODEL 2
REMARK VINA RESULT:    -2.499      1.502      5.078
REMARK INTER + INTRA:          -5.398
REMARK INTER:                  -4.563
REMARK INTRA:                  -0.836
REMARK UNBOUND:                -1.072
REMARK SMILES CCCCCCCCCCCCCCO
REMARK SMILES IDX 8 1 7 2 6 3 5 4 4 5 3 6 2 7 1 8 9 9 10 10 11 11 12 12 13 13
REMARK SMILES IDX 14 14 15 15
REMARK H PARENT 15 16
REMARK Flexibility Score: inf
ROOT
ATOM      1  C   UNL     1     -32.419 -20.819  29.338  1.00  0.00     0.000 C 
ENDROOT
BRANCH   1   2
ATOM      2  C   UNL     1     -31.041 -21.500  29.258  1.00  0.00    -0.000 C 
BRANCH   2   3
ATOM      3  C   UNL     1     -30.954 -22.528  28.117  1.00  0.00    -0.000 C 
BRANCH   3   4
ATOM      4  C   UNL     1     -32.327 -23.119  27.748  1.00  0.00    -0.000 C 
BRANCH   4   5
ATOM      5  C   UNL     1     -32.833 -22.629  26.381  1.00  0.00    -0.000 C 
BRANCH   5   6
ATOM      6  C   UNL     1     -34.356 -22.780  26.226  1.00  0.00    -0.000 C 
BRANCH   6   7
ATOM      7  C   UNL     1     -35.010 -23.431  27.455  1.00  0.00    -0.003 C 
ATOM      8  C   UNL     1     -36.522 -23.205  27.511  1.00  0.00     0.004 C 
ENDBRANCH   6   7
ENDBRANCH   5   6
ENDBRANCH   4   5
ENDBRANCH   3   4
ENDBRANCH   2   3
ENDBRANCH   1   2
BRANCH   1   9
ATOM      9  C   UNL     1     -32.363 -19.452  30.040  1.00  0.00     0.000 C 
BRANCH   9  10
ATOM     10  C   UNL     1     -31.110 -18.643  29.661  1.00  0.00     0.000 C 
BRANCH  10  11
ATOM     11  C   UNL     1     -31.281 -17.875  28.339  1.00  0.00     0.000 C 
BRANCH  11  12
ATOM     12  C   UNL     1     -32.589 -17.065  28.292  1.00  0.00     0.002 C 
BRANCH  12  13
ATOM     13  C   UNL     1     -33.457 -17.419  27.073  1.00  0.00     0.028 C 
BRANCH  13  14
ATOM     14  C   UNL     1     -33.504 -18.927  26.794  1.00  0.00     0.156 C 
BRANCH  14  15
ATOM     15  O   UNL     1     -34.084 -19.167  25.542  1.00  0.00    -0.396 OA
ATOM     16  H   UNL     1     -33.568 -18.635  24.881  1.00  0.00     0.210 HD
ENDBRANCH  14  15
ENDBRANCH  13  14
ENDBRANCH  12  13
ENDBRANCH  11  12
ENDBRANCH  10  11
ENDBRANCH   9  10
ENDBRANCH   1   9
TORSDOF 13
ENDMDL
MODEL 3
REMARK VINA RESULT:    -1.406      0.869      3.109
REMARK INTER + INTRA:          -3.506
REMARK INTER:                  -2.441
REMARK INTRA:                  -1.065
REMARK UNBOUND:                -1.072
REMARK SMILES CCCCCCCCCCCCCCO
REMARK SMILES IDX 8 1 7 2 6 3 5 4 4 5 3 6 2 7 1 8 9 9 10 10 11 11 12 12 13 13
REMARK SMILES IDX 14 14 15 15
REMARK H PARENT 15 16
REMARK Flexibility Score: inf
ROOT
ATOM      1  C   UNL     1     -33.488 -18.616  26.547  1.00  0.00     0.000 C 
ENDROOT
BRANCH   1   2
ATOM      2  C   UNL     1     -33.390 -17.713  27.790  1.00  0.00    -0.000 C 
BRANCH   2   3
ATOM      3  C   UNL     1     -31.935 -17.459  28.223  1.00  0.00    -0.000 C 
BRANCH   3   4
ATOM      4  C   UNL     1     -31.470 -18.423  29.329  1.00  0.00    -0.000 C 
BRANCH   4   5
ATOM      5  C   UNL     1     -32.593 -19.357  29.809  1.00  0.00    -0.000 C 
BRANCH   5   6
ATOM      6  C   UNL     1     -32.186 -20.840  29.772  1.00  0.00    -0.000 C 
BRANCH   6   7
ATOM      7  C   UNL     1     -30.704 -21.033  29.410  1.00  0.00    -0.003 C 
ATOM      8  C   UNL     1     -30.439 -22.351  28.680  1.00  0.00     0.004 C 
ENDBRANCH   6   7
ENDBRANCH   5   6
ENDBRANCH   4   5
ENDBRANCH   3   4
ENDBRANCH   2   3
ENDBRANCH   1   2
BRANCH   1   9
ATOM      9  C   UNL     1     -33.847 -20.069  26.900  1.00  0.00     0.000 C 
BRANCH   9  10
ATOM     10  C   UNL     1     -32.814 -21.079  26.369  1.00  0.00     0.000 C 
BRANCH  10  11
ATOM     11  C   UNL     1     -33.435 -22.451  26.059  1.00  0.00     0.000 C 
BRANCH  11  12
ATOM     12  C   UNL     1     -33.438 -23.387  27.281  1.00  0.00     0.002 C 
BRANCH  12  13
ATOM     13  C   UNL     1     -34.819 -23.477  27.951  1.00  0.00     0.028 C 
BRANCH  13  14
ATOM     14  C   UNL     1     -35.970 -23.166  26.986  1.00  0.00     0.156 C 
BRANCH  14  15
ATOM     15  O   UNL     1     -37.200 -23.317  27.640  1.00  0.00    -0.396 OA
ATOM     16  H   UNL     1     -37.009 -23.304  28.615  1.00  0.00     0.210 HD
ENDBRANCH  14  15
ENDBRANCH  13  14
ENDBRANCH  12  13
ENDBRANCH  11  12
ENDBRANCH  10  11
ENDBRANCH   9  10
ENDBRANCH   1   9
TORSDOF 13
ENDMDL
MODEL 4
REMARK VINA RESULT:    -1.184      1.647      5.151
REMARK INTER + INTRA:          -3.122
REMARK INTER:                  -2.699
REMARK INTRA:                  -0.422
REMARK UNBOUND:                -1.072
REMARK SMILES CCCCCCCCCCCCCCO
REMARK SMILES IDX 8 1 7 2 6 3 5 4 4 5 3 6 2 7 1 8 9 9 10 10 11 11 12 12 13 13
REMARK SMILES IDX 14 14 15 15
REMARK H PARENT 15 16
REMARK Flexibility Score: inf
ROOT
ATOM      1  C   UNL     1     -33.007 -20.581  29.674  1.00  0.00     0.000 C 
ENDROOT
BRANCH   1   2
ATOM      2  C   UNL     1     -33.770 -20.914  28.379  1.00  0.00    -0.000 C 
BRANCH   2   3
ATOM      3  C   UNL     1     -34.726 -22.108  28.547  1.00  0.00    -0.000 C 
BRANCH   3   4
ATOM      4  C   UNL     1     -34.474 -23.218  27.512  1.00  0.00    -0.000 C 
BRANCH   4   5
ATOM      5  C   UNL     1     -33.967 -22.669  26.168  1.00  0.00    -0.000 C 
BRANCH   5   6
ATOM      6  C   UNL     1     -32.456 -22.886  25.974  1.00  0.00    -0.000 C 
BRANCH   6   7
ATOM      7  C   UNL     1     -31.811 -23.622  27.159  1.00  0.00    -0.003 C 
ATOM      8  C   UNL     1     -30.709 -22.805  27.836  1.00  0.00     0.004 C 
ENDBRANCH   6   7
ENDBRANCH   5   6
ENDBRANCH   4   5
ENDBRANCH   3   4
ENDBRANCH   2   3
ENDBRANCH   1   2
BRANCH   1   9
ATOM      9  C   UNL     1     -31.512 -20.317  29.427  1.00  0.00     0.000 C 
BRANCH   9  10
ATOM     10  C   UNL     1     -31.113 -18.860  29.718  1.00  0.00     0.000 C 
BRANCH  10  11
ATOM     11  C   UNL     1     -32.294 -17.884  29.581  1.00  0.00     0.000 C 
BRANCH  11  12
ATOM     12  C   UNL     1     -32.266 -17.107  28.252  1.00  0.00     0.002 C 
BRANCH  12  13
ATOM     13  C   UNL     1     -33.411 -17.513  27.309  1.00  0.00     0.028 C 
BRANCH  13  14
ATOM     14  C   UNL     1     -33.011 -18.623  26.329  1.00  0.00     0.156 C 
BRANCH  14  15
ATOM     15  O   UNL     1     -34.134 -19.067  25.620  1.00  0.00    -0.396 OA
ATOM     16  H   UNL     1     -34.785 -18.317  25.617  1.00  0.00     0.210 HD
ENDBRANCH  14  15
ENDBRANCH  13  14
ENDBRANCH  12  13
ENDBRANCH  11  12
ENDBRANCH  10  11
ENDBRANCH   9  10
ENDBRANCH   1   9
TORSDOF 13
ENDMDL
MODEL 5
REMARK VINA RESULT:    -1.092      1.826      5.144
REMARK INTER + INTRA:          -2.963
REMARK INTER:                  -2.094
REMARK INTRA:                  -0.869
REMARK UNBOUND:                -1.072
REMARK SMILES CCCCCCCCCCCCCCO
REMARK SMILES IDX 8 1 7 2 6 3 5 4 4 5 3 6 2 7 1 8 9 9 10 10 11 11 12 12 13 13
REMARK SMILES IDX 14 14 15 15
REMARK H PARENT 15 16
REMARK Flexibility Score: inf
ROOT
ATOM      1  C   UNL     1     -32.365 -17.178  27.899  1.00  0.00     0.000 C 
ENDROOT
BRANCH   1   2
ATOM      2  C   UNL     1     -33.601 -17.832  27.257  1.00  0.00    -0.000 C 
BRANCH   2   3
ATOM      3  C   UNL     1     -33.234 -18.985  26.307  1.00  0.00    -0.000 C 
BRANCH   3   4
ATOM      4  C   UNL     1     -33.940 -20.302  26.674  1.00  0.00    -0.000 C 
BRANCH   4   5
ATOM      5  C   UNL     1     -33.098 -21.541  26.324  1.00  0.00    -0.000 C 
BRANCH   5   6
ATOM      6  C   UNL     1     -33.958 -22.796  26.097  1.00  0.00    -0.000 C 
BRANCH   6   7
ATOM      7  C   UNL     1     -34.467 -23.406  27.413  1.00  0.00    -0.003 C 
ATOM      8  C   UNL     1     -35.972 -23.216  27.612  1.00  0.00     0.004 C 
ENDBRANCH   6   7
ENDBRANCH   5   6
ENDBRANCH   4   5
ENDBRANCH   3   4
ENDBRANCH   2   3
ENDBRANCH   1   2
BRANCH   1   9
ATOM      9  C   UNL     1     -32.263 -17.461  29.407  1.00  0.00     0.000 C 
BRANCH   9  10
ATOM     10  C   UNL     1     -31.611 -18.821  29.711  1.00  0.00     0.000 C 
BRANCH  10  11
ATOM     11  C   UNL     1     -32.643 -19.954  29.844  1.00  0.00     0.000 C 
BRANCH  11  12
ATOM     12  C   UNL     1     -32.080 -21.319  29.407  1.00  0.00     0.002 C 
BRANCH  12  13
ATOM     13  C   UNL     1     -30.543 -21.344  29.392  1.00  0.00     0.028 C 
BRANCH  13  14
ATOM     14  C   UNL     1     -29.975 -22.508  28.569  1.00  0.00     0.156 C 
BRANCH  14  15
ATOM     15  O   UNL     1     -31.020 -23.279  28.041  1.00  0.00    -0.396 OA
ATOM     16  H   UNL     1     -31.859 -22.778  28.215  1.00  0.00     0.210 HD
ENDBRANCH  14  15
ENDBRANCH  13  14
ENDBRANCH  12  13
ENDBRANCH  11  12
ENDBRANCH  10  11
ENDBRANCH   9  10
ENDBRANCH   1   9
TORSDOF 13
ENDMDL
MODEL 6
REMARK VINA RESULT:    -0.570      2.388      5.202
REMARK INTER + INTRA:          -2.059
REMARK INTER:                  -1.176
REMARK INTRA:                  -0.883
REMARK UNBOUND:                -1.072
REMARK SMILES CCCCCCCCCCCCCCO
REMARK SMILES IDX 8 1 7 2 6 3 5 4 4 5 3 6 2 7 1 8 9 9 10 10 11 11 12 12 13 13
REMARK SMILES IDX 14 14 15 15
REMARK H PARENT 15 16
REMARK Flexibility Score: inf
ROOT
ATOM      1  C   UNL     1     -30.589 -21.637  29.506  1.00  0.00     0.000 C 
ENDROOT
BRANCH   1   2
ATOM      2  C   UNL     1     -30.494 -22.527  28.254  1.00  0.00    -0.000 C 
BRANCH   2   3
ATOM      3  C   UNL     1     -31.866 -23.052  27.795  1.00  0.00    -0.000 C 
BRANCH   3   4
ATOM      4  C   UNL     1     -32.264 -22.530  26.404  1.00  0.00    -0.000 C 
BRANCH   4   5
ATOM      5  C   UNL     1     -33.707 -22.905  26.023  1.00  0.00    -0.000 C 
BRANCH   5   6
ATOM      6  C   UNL     1     -34.494 -23.497  27.205  1.00  0.00    -0.000 C 
BRANCH   6   7
ATOM      7  C   UNL     1     -35.721 -22.649  27.579  1.00  0.00    -0.003 C 
ATOM      8  C   UNL     1     -37.022 -23.453  27.570  1.00  0.00     0.004 C 
ENDBRANCH   6   7
ENDBRANCH   5   6
ENDBRANCH   4   5
ENDBRANCH   3   4
ENDBRANCH   2   3
ENDBRANCH   1   2
BRANCH   1   9
ATOM      9  C   UNL     1     -31.507 -20.422  29.297  1.00  0.00     0.000 C 
BRANCH   9  10
ATOM     10  C   UNL     1     -32.996 -20.767  29.475  1.00  0.00     0.000 C 
BRANCH  10  11
ATOM     11  C   UNL     1     -33.906 -19.963  28.530  1.00  0.00     0.000 C 
BRANCH  11  12
ATOM     12  C   UNL     1     -33.129 -19.328  27.362  1.00  0.00     0.002 C 
BRANCH  12  13
ATOM     13  C   UNL     1     -33.266 -17.797  27.328  1.00  0.00     0.028 C 
BRANCH  13  14
ATOM     14  C   UNL     1     -32.351 -17.095  28.340  1.00  0.00     0.156 C 
BRANCH  14  15
ATOM     15  O   UNL     1     -31.008 -17.374  28.049  1.00  0.00    -0.396 OA
ATOM     16  H   UNL     1     -30.790 -18.230  28.503  1.00  0.00     0.210 HD
ENDBRANCH  14  15
ENDBRANCH  13  14
ENDBRANCH  12  13
ENDBRANCH  11  12
ENDBRANCH  10  11
ENDBRANCH   9  10
ENDBRANCH   1   9
TORSDOF 13
ENDMDL
MODEL 7
REMARK VINA RESULT:    -0.544      2.047      3.226
REMARK INTER + INTRA:          -2.014
REMARK INTER:                  -2.317
REMARK INTRA:                   0.303
REMARK UNBOUND:                -1.072
REMARK SMILES CCCCCCCCCCCCCCO
REMARK SMILES IDX 8 1 7 2 6 3 5 4 4 5 3 6 2 7 1 8 9 9 10 10 11 11 12 12 13 13
REMARK SMILES IDX 14 14 15 15
REMARK H PARENT 15 16
REMARK Flexibility Score: inf
ROOT
ATOM      1  C   UNL     1     -34.761 -21.895  28.583  1.00  0.00     0.000 C 
ENDROOT
BRANCH   1   2
ATOM      2  C   UNL     1     -33.682 -20.804  28.451  1.00  0.00    -0.000 C 
BRANCH   2   3
ATOM      3  C   UNL     1     -33.329 -20.157  29.801  1.00  0.00    -0.000 C 
BRANCH   3   4
ATOM      4  C   UNL     1     -32.043 -19.314  29.735  1.00  0.00    -0.000 C 
BRANCH   4   5
ATOM      5  C   UNL     1     -32.329 -17.808  29.611  1.00  0.00    -0.000 C 
BRANCH   5   6
ATOM      6  C   UNL     1     -32.169 -17.292  28.171  1.00  0.00    -0.000 C 
BRANCH   6   7
ATOM      7  C   UNL     1     -33.477 -17.373  27.368  1.00  0.00    -0.003 C 
ATOM      8  C   UNL     1     -33.530 -18.589  26.442  1.00  0.00     0.004 C 
ENDBRANCH   6   7
ENDBRANCH   5   6
ENDBRANCH   4   5
ENDBRANCH   3   4
ENDBRANCH   2   3
ENDBRANCH   1   2
BRANCH   1   9
ATOM      9  C   UNL     1     -34.526 -23.076  27.627  1.00  0.00     0.000 C 
BRANCH   9  10
ATOM     10  C   UNL     1     -33.851 -22.647  26.312  1.00  0.00     0.000 C 
BRANCH  10  11
ATOM     11  C   UNL     1     -32.343 -22.951  26.295  1.00  0.00     0.000 C 
BRANCH  11  12
ATOM     12  C   UNL     1     -31.810 -23.367  27.678  1.00  0.00     0.002 C 
BRANCH  12  13
ATOM     13  C   UNL     1     -30.382 -22.856  27.936  1.00  0.00     0.028 C 
BRANCH  13  14
ATOM     14  C   UNL     1     -30.323 -21.785  29.033  1.00  0.00     0.156 C 
BRANCH  14  15
ATOM     15  O   UNL     1     -30.715 -22.333  30.262  1.00  0.00    -0.396 OA
ATOM     16  H   UNL     1     -31.094 -23.230  30.066  1.00  0.00     0.210 HD
ENDBRANCH  14  15
ENDBRANCH  13  14
ENDBRANCH  12  13
ENDBRANCH  11  12
ENDBRANCH  10  11
ENDBRANCH   9  10
ENDBRANCH   1   9
TORSDOF 13
ENDMDL
MODEL 8
REMARK VINA RESULT:    -0.515      2.412      5.627
REMARK INTER + INTRA:          -1.964
REMARK INTER:                  -1.682
REMARK INTRA:                  -0.282
REMARK UNBOUND:                -1.072
REMARK SMILES CCCCCCCCCCCCCCO
REMARK SMILES IDX 8 1 7 2 6 3 5 4 4 5 3 6 2 7 1 8 9 9 10 10 11 11 12 12 13 13
REMARK SMILES IDX 14 14 15 15
REMARK H PARENT 15 16
REMARK Flexibility Score: inf
ROOT
ATOM      1  C   UNL     1     -34.033 -21.248  29.024  1.00  0.00     0.000 C 
ENDROOT
BRANCH   1   2
ATOM      2  C   UNL     1     -35.032 -21.832  28.010  1.00  0.00    -0.000 C 
BRANCH   2   3
ATOM      3  C   UNL     1     -34.539 -23.149  27.385  1.00  0.00    -0.000 C 
BRANCH   3   4
ATOM      4  C   UNL     1     -33.817 -22.933  26.043  1.00  0.00    -0.000 C 
BRANCH   4   5
ATOM      5  C   UNL     1     -32.287 -22.881  26.198  1.00  0.00    -0.000 C 
BRANCH   5   6
ATOM      6  C   UNL     1     -31.820 -23.323  27.595  1.00  0.00    -0.000 C 
BRANCH   6   7
ATOM      7  C   UNL     1     -30.471 -22.698  27.989  1.00  0.00    -0.003 C 
ATOM      8  C   UNL     1     -30.521 -21.981  29.339  1.00  0.00     0.004 C 
ENDBRANCH   6   7
ENDBRANCH   5   6
ENDBRANCH   4   5
ENDBRANCH   3   4
ENDBRANCH   2   3
ENDBRANCH   1   2
BRANCH   1   9
ATOM      9  C   UNL     1     -33.103 -20.196  28.398  1.00  0.00     0.000 C 
BRANCH   9  10
ATOM     10  C   UNL     1     -33.748 -19.474  27.201  1.00  0.00     0.000 C 
BRANCH  10  11
ATOM     11  C   UNL     1     -33.534 -17.952  27.244  1.00  0.00     0.000 C 
BRANCH  11  12
ATOM     12  C   UNL     1     -32.236 -17.558  27.971  1.00  0.00     0.002 C 
BRANCH  12  13
ATOM     13  C   UNL     1     -32.431 -17.416  29.490  1.00  0.00     0.028 C 
BRANCH  13  14
ATOM     14  C   UNL     1     -31.294 -18.054  30.299  1.00  0.00     0.156 C 
BRANCH  14  15
ATOM     15  O   UNL     1     -30.327 -18.584  29.434  1.00  0.00    -0.396 OA
ATOM     16  H   UNL     1     -29.516 -18.752  29.982  1.00  0.00     0.210 HD
ENDBRANCH  14  15
ENDBRANCH  13  14
ENDBRANCH  12  13
ENDBRANCH  11  12
ENDBRANCH  10  11
ENDBRANCH   9  10
ENDBRANCH   1   9
TORSDOF 13
ENDMDL
MODEL 9
REMARK VINA RESULT:    -0.180      2.224      5.437
REMARK INTER + INTRA:          -1.384
REMARK INTER:                  -0.381
REMARK INTRA:                  -1.004
REMARK UNBOUND:                -1.072
REMARK SMILES CCCCCCCCCCCCCCO
REMARK SMILES IDX 8 1 7 2 6 3 5 4 4 5 3 6 2 7 1 8 9 9 10 10 11 11 12 12 13 13
REMARK SMILES IDX 14 14 15 15
REMARK H PARENT 15 16
REMARK Flexibility Score: inf
ROOT
ATOM      1  C   UNL     1     -33.704 -20.495  28.745  1.00  0.00     0.000 C 
ENDROOT
BRANCH   1   2
ATOM      2  C   UNL     1     -32.827 -21.628  29.307  1.00  0.00    -0.000 C 
BRANCH   2   3
ATOM      3  C   UNL     1     -31.395 -21.601  28.746  1.00  0.00    -0.000 C 
BRANCH   3   4
ATOM      4  C   UNL     1     -31.090 -22.807  27.841  1.00  0.00    -0.000 C 
BRANCH   4   5
ATOM      5  C   UNL     1     -32.365 -23.529  27.371  1.00  0.00    -0.000 C 
BRANCH   5   6
ATOM      6  C   UNL     1     -32.857 -23.026  26.003  1.00  0.00    -0.000 C 
BRANCH   6   7
ATOM      7  C   UNL     1     -34.377 -22.794  25.974  1.00  0.00    -0.003 C 
ATOM      8  C   UNL     1     -35.093 -23.410  27.177  1.00  0.00     0.004 C 
ENDBRANCH   6   7
ENDBRANCH   5   6
ENDBRANCH   4   5
ENDBRANCH   3   4
ENDBRANCH   2   3
ENDBRANCH   1   2
BRANCH   1   9
ATOM      9  C   UNL     1     -33.118 -19.874  27.467  1.00  0.00     0.000 C 
BRANCH   9  10
ATOM     10  C   UNL     1     -33.936 -18.671  26.964  1.00  0.00     0.000 C 
BRANCH  10  11
ATOM     11  C   UNL     1     -33.149 -17.352  27.030  1.00  0.00     0.000 C 
BRANCH  11  12
ATOM     12  C   UNL     1     -32.513 -17.112  28.411  1.00  0.00     0.002 C 
BRANCH  12  13
ATOM     13  C   UNL     1     -31.014 -17.455  28.437  1.00  0.00     0.028 C 
BRANCH  13  14
ATOM     14  C   UNL     1     -30.646 -18.432  29.561  1.00  0.00     0.156 C 
BRANCH  14  15
ATOM     15  O   UNL     1     -31.701 -18.529  30.478  1.00  0.00    -0.396 OA
ATOM     16  H   UNL     1     -31.967 -19.485  30.506  1.00  0.00     0.210 HD
ENDBRANCH  14  15
ENDBRANCH  13  14
ENDBRANCH  12  13
ENDBRANCH  11  12
ENDBRANCH  10  11
ENDBRANCH   9  10
ENDBRANCH   1   9
TORSDOF 13
ENDMDL
