MODEL 1
REMARK VINA RESULT:     4.666      0.000      0.000
REMARK INTER + INTRA:           6.843
REMARK INTER:                   7.122
REMARK INTRA:                  -0.278
REMARK UNBOUND:                -0.278
REMARK SMILES CCCCCCCCCCC(=O)[O-]
REMARK SMILES IDX 7 1 8 2 9 3 10 4 11 5 12 6 13 7 6 8 5 9 4 10 3 11 2 12 1 13
REMARK H PARENT
REMARK Flexibility Score: inf
ROOT
ATOM      1  C   UNL     1       2.676   7.669  -3.708  1.00  0.00     0.000 C 
ENDROOT
BRANCH   1   2
ATOM      2  C   UNL     1       1.146   7.771  -3.619  1.00  0.00     0.000 C 
BRANCH   2   3
ATOM      3  C   UNL     1       0.468   7.782  -5.003  1.00  0.00     0.006 C 
BRANCH   3   4
ATOM      4  C   UNL     1       0.869   8.980  -5.881  1.00  0.00     0.053 C 
BRANCH   4   5
ATOM      5  C   UNL     1       1.415   8.563  -7.212  1.00  0.00     0.041 C 
ATOM      6  O   UNL     1       0.670   7.993  -8.052  1.00  0.00    -0.550 OA
ATOM      7  O   UNL     1       2.747   8.804  -7.524  1.00  0.00    -0.550 OA
ENDBRANCH   4   5
ENDBRANCH   3   4
ENDBRANCH   2   3
ENDBRANCH   1   2
BRANCH   1   8
ATOM      8  C   UNL     1       3.268   7.103  -2.411  1.00  0.00     0.000 C 
BRANCH   8   9
ATOM      9  C   UNL     1       4.708   7.580  -2.152  1.00  0.00    -0.000 C 
BRANCH   9  10
ATOM     10  C   UNL     1       5.783   6.640  -2.739  1.00  0.00    -0.000 C 
BRANCH  10  11
ATOM     11  C   UNL     1       5.164   5.395  -3.400  1.00  0.00    -0.000 C 
BRANCH  11  12
ATOM     12  C   UNL     1       6.173   4.629  -4.269  1.00  0.00    -0.003 C 
ATOM     13  C   UNL     1       6.761   3.414  -3.550  1.00  0.00     0.004 C 
ENDBRANCH  11  12
ENDBRANCH  10  11
ENDBRANCH   9  10
ENDBRANCH   8   9
ENDBRANCH   1   8
TORSDOF 9
ENDMDL
MODEL 2
REMARK VINA RESULT:     4.759      0.734      1.122
REMARK INTER + INTRA:           6.985
REMARK INTER:                   7.292
REMARK INTRA:                  -0.307
REMARK UNBOUND:                -0.278
REMARK SMILES CCCCCCCCCCC(=O)[O-]
REMARK SMILES IDX 7 1 8 2 9 3 10 4 11 5 12 6 13 7 6 8 5 9 4 10 3 11 2 12 1 13
REMARK H PARENT
REMARK Flexibility Score: inf
ROOT
ATOM      1  C   UNL     1       1.519   6.952  -3.334  1.00  0.00     0.000 C 
ENDROOT
BRANCH   1   2
ATOM      2  C   UNL     1       0.462   7.868  -3.969  1.00  0.00     0.000 C 
BRANCH   2   3
ATOM      3  C   UNL     1       1.044   8.776  -5.070  1.00  0.00     0.006 C 
BRANCH   3   4
ATOM      4  C   UNL     1       0.287   8.695  -6.407  1.00  0.00     0.053 C 
BRANCH   4   5
ATOM      5  C   UNL     1       1.200   8.484  -7.575  1.00  0.00     0.041 C 
ATOM      6  O   UNL     1       0.745   8.042  -8.663  1.00  0.00    -0.550 OA
ATOM      7  O   UNL     1       2.553   8.775  -7.462  1.00  0.00    -0.550 OA
ENDBRANCH   4   5
ENDBRANCH   3   4
ENDBRANCH   2   3
ENDBRANCH   1   2
BRANCH   1   8
ATOM      8  C   UNL     1       2.897   7.626  -3.324  1.00  0.00     0.000 C 
BRANCH   8   9
ATOM      9  C   UNL     1       3.748   7.228  -2.105  1.00  0.00    -0.000 C 
BRANCH   9  10
ATOM     10  C   UNL     1       5.239   7.603  -2.246  1.00  0.00    -0.000 C 
BRANCH  10  11
ATOM     11  C   UNL     1       6.099   6.403  -2.681  1.00  0.00    -0.000 C 
BRANCH  11  12
ATOM     12  C   UNL     1       5.275   5.315  -3.388  1.00  0.00    -0.003 C 
ATOM     13  C   UNL     1       6.049   4.637  -4.518  1.00  0.00     0.004 C 
ENDBRANCH  11  12
ENDBRANCH  10  11
ENDBRANCH   9  10
ENDBRANCH   8   9
ENDBRANCH   1   8
TORSDOF 9
ENDMDL
MODEL 3
REMARK VINA RESULT:     5.218      2.721      5.929
REMARK INTER + INTRA:           7.684
REMARK INTER:                   7.942
REMARK INTRA:                  -0.257
REMARK UNBOUND:                -0.278
REMARK SMILES CCCCCCCCCCC(=O)[O-]
REMARK SMILES IDX 7 1 8 2 9 3 10 4 11 5 12 6 13 7 6 8 5 9 4 10 3 11 2 12 1 13
REMARK H PARENT
REMARK Flexibility Score: inf
ROOT
ATOM      1  C   UNL     1       3.608   7.244  -2.075  1.00  0.00     0.000 C 
ENDROOT
BRANCH   1   2
ATOM      2  C   UNL     1       5.076   7.672  -2.218  1.00  0.00     0.000 C 
BRANCH   2   3
ATOM      3  C   UNL     1       5.990   6.522  -2.684  1.00  0.00     0.006 C 
BRANCH   3   4
ATOM      4  C   UNL     1       5.226   5.313  -3.250  1.00  0.00     0.053 C 
BRANCH   4   5
ATOM      5  C   UNL     1       6.062   4.482  -4.174  1.00  0.00     0.041 C 
ATOM      6  O   UNL     1       6.026   4.685  -5.417  1.00  0.00    -0.550 OA
ATOM      7  O   UNL     1       6.881   3.483  -3.663  1.00  0.00    -0.550 OA
ENDBRANCH   4   5
ENDBRANCH   3   4
ENDBRANCH   2   3
ENDBRANCH   1   2
BRANCH   1   8
ATOM      8  C   UNL     1       2.808   7.585  -3.338  1.00  0.00     0.000 C 
BRANCH   8   9
ATOM      9  C   UNL     1       1.358   7.074  -3.285  1.00  0.00    -0.000 C 
BRANCH   9  10
ATOM     10  C   UNL     1       0.386   7.885  -4.169  1.00  0.00    -0.000 C 
BRANCH  10  11
ATOM     11  C   UNL     1       1.126   8.696  -5.248  1.00  0.00    -0.000 C 
BRANCH  11  12
ATOM     12  C   UNL     1       0.400   8.672  -6.602  1.00  0.00    -0.003 C 
ATOM     13  C   UNL     1       1.352   8.425  -7.772  1.00  0.00     0.004 C 
ENDBRANCH  11  12
ENDBRANCH  10  11
ENDBRANCH   9  10
ENDBRANCH   8   9
ENDBRANCH   1   8
TORSDOF 9
ENDMDL
MODEL 4
REMARK VINA RESULT:     5.531      1.170      1.916
REMARK INTER + INTRA:           8.163
REMARK INTER:                   8.495
REMARK INTRA:                  -0.332
REMARK UNBOUND:                -0.278
REMARK SMILES CCCCCCCCCCC(=O)[O-]
REMARK SMILES IDX 7 1 8 2 9 3 10 4 11 5 12 6 13 7 6 8 5 9 4 10 3 11 2 12 1 13
REMARK H PARENT
REMARK Flexibility Score: inf
ROOT
ATOM      1  C   UNL     1       3.559   7.181  -2.219  1.00  0.00     0.000 C 
ENDROOT
BRANCH   1   2
ATOM      2  C   UNL     1       2.776   7.618  -3.466  1.00  0.00     0.000 C 
BRANCH   2   3
ATOM      3  C   UNL     1       1.251   7.471  -3.294  1.00  0.00     0.006 C 
BRANCH   3   4
ATOM      4  C   UNL     1       0.468   7.538  -4.615  1.00  0.00     0.053 C 
BRANCH   4   5
ATOM      5  C   UNL     1       0.814   8.745  -5.431  1.00  0.00     0.041 C 
ATOM      6  O   UNL     1       0.432   9.888  -5.066  1.00  0.00    -0.550 OA
ATOM      7  O   UNL     1       1.558   8.607  -6.596  1.00  0.00    -0.550 OA
ENDBRANCH   4   5
ENDBRANCH   3   4
ENDBRANCH   2   3
ENDBRANCH   1   2
BRANCH   1   8
ATOM      8  C   UNL     1       5.029   7.608  -2.313  1.00  0.00     0.000 C 
BRANCH   8   9
ATOM      9  C   UNL     1       5.979   6.430  -2.588  1.00  0.00    -0.000 C 
BRANCH   9  10
ATOM     10  C   UNL     1       5.349   5.320  -3.456  1.00  0.00    -0.000 C 
BRANCH  10  11
ATOM     11  C   UNL     1       6.398   4.591  -4.315  1.00  0.00    -0.000 C 
BRANCH  11  12
ATOM     12  C   UNL     1       6.523   3.104  -3.954  1.00  0.00    -0.003 C 
ATOM     13  C   UNL     1       7.370   2.875  -2.702  1.00  0.00     0.004 C 
ENDBRANCH  11  12
ENDBRANCH  10  11
ENDBRANCH   9  10
ENDBRANCH   8   9
ENDBRANCH   1   8
TORSDOF 9
ENDMDL
MODEL 5
REMARK VINA RESULT:     6.425      3.141      5.911
REMARK INTER + INTRA:           9.527
REMARK INTER:                   9.989
REMARK INTRA:                  -0.463
REMARK UNBOUND:                -0.278
REMARK SMILES CCCCCCCCCCC(=O)[O-]
REMARK SMILES IDX 7 1 8 2 9 3 10 4 11 5 12 6 13 7 6 8 5 9 4 10 3 11 2 12 1 13
REMARK H PARENT
REMARK Flexibility Score: inf
ROOT
ATOM      1  C   UNL     1       0.542   7.190  -4.052  1.00  0.00     0.000 C 
ENDROOT
BRANCH   1   2
ATOM      2  C   UNL     1       1.433   7.187  -2.800  1.00  0.00     0.000 C 
BRANCH   2   3
ATOM      3  C   UNL     1       2.913   7.472  -3.121  1.00  0.00     0.006 C 
BRANCH   3   4
ATOM      4  C   UNL     1       3.878   7.098  -1.983  1.00  0.00     0.053 C 
BRANCH   4   5
ATOM      5  C   UNL     1       5.315   7.171  -2.397  1.00  0.00     0.041 C 
ATOM      6  O   UNL     1       5.831   6.237  -3.067  1.00  0.00    -0.550 OA
ATOM      7  O   UNL     1       6.086   8.271  -2.042  1.00  0.00    -0.550 OA
ENDBRANCH   4   5
ENDBRANCH   3   4
ENDBRANCH   2   3
ENDBRANCH   1   2
BRANCH   1   8
ATOM      8  C   UNL     1       0.232   8.622  -4.506  1.00  0.00     0.000 C 
BRANCH   8   9
ATOM      9  C   UNL     1       0.943   9.002  -5.817  1.00  0.00    -0.000 C 
BRANCH   9  10
ATOM     10  C   UNL     1       0.203   8.516  -7.081  1.00  0.00    -0.000 C 
BRANCH  10  11
ATOM     11  C   UNL     1       1.169   8.248  -8.249  1.00  0.00    -0.000 C 
BRANCH  11  12
ATOM     12  C   UNL     1       2.559   8.856  -8.013  1.00  0.00    -0.003 C 
ATOM     13  C   UNL     1       3.143   9.490  -9.276  1.00  0.00     0.004 C 
ENDBRANCH  11  12
ENDBRANCH  10  11
ENDBRANCH   9  10
ENDBRANCH   8   9
ENDBRANCH   1   8
TORSDOF 9
ENDMDL
MODEL 6
REMARK VINA RESULT:     6.603      1.531      2.611
REMARK INTER + INTRA:           9.798
REMARK INTER:                  10.290
REMARK INTRA:                  -0.492
REMARK UNBOUND:                -0.278
REMARK SMILES CCCCCCCCCCC(=O)[O-]
REMARK SMILES IDX 7 1 8 2 9 3 10 4 11 5 12 6 13 7 6 8 5 9 4 10 3 11 2 12 1 13
REMARK H PARENT
REMARK Flexibility Score: inf
ROOT
ATOM      1  C   UNL     1       0.425   7.217  -4.014  1.00  0.00     0.000 C 
ENDROOT
BRANCH   1   2
ATOM      2  C   UNL     1       0.114   8.666  -4.420  1.00  0.00     0.000 C 
BRANCH   2   3
ATOM      3  C   UNL     1       0.307   8.915  -5.929  1.00  0.00     0.006 C 
BRANCH   3   4
ATOM      4  C   UNL     1       1.776   8.876  -6.382  1.00  0.00     0.053 C 
BRANCH   4   5
ATOM      5  C   UNL     1       1.922   8.630  -7.852  1.00  0.00     0.041 C 
ATOM      6  O   UNL     1       2.989   8.939  -8.445  1.00  0.00    -0.550 OA
ATOM      7  O   UNL     1       0.877   8.059  -8.568  1.00  0.00    -0.550 OA
ENDBRANCH   4   5
ENDBRANCH   3   4
ENDBRANCH   2   3
ENDBRANCH   1   2
BRANCH   1   8
ATOM      8  C   UNL     1       1.403   7.173  -2.833  1.00  0.00     0.000 C 
BRANCH   8   9
ATOM      9  C   UNL     1       2.876   7.176  -3.276  1.00  0.00    -0.000 C 
BRANCH   9  10
ATOM     10  C   UNL     1       3.859   6.798  -2.147  1.00  0.00    -0.000 C 
BRANCH  10  11
ATOM     11  C   UNL     1       5.308   6.689  -2.654  1.00  0.00    -0.000 C 
BRANCH  11  12
ATOM     12  C   UNL     1       6.125   7.960  -2.380  1.00  0.00    -0.003 C 
ATOM     13  C   UNL     1       5.533   8.803  -1.249  1.00  0.00     0.004 C 
ENDBRANCH  11  12
ENDBRANCH  10  11
ENDBRANCH   9  10
ENDBRANCH   8   9
ENDBRANCH   1   8
TORSDOF 9
ENDMDL
MODEL 7
REMARK VINA RESULT:     7.230      1.848      3.093
REMARK INTER + INTRA:          10.755
REMARK INTER:                  11.101
REMARK INTRA:                  -0.346
REMARK UNBOUND:                -0.278
REMARK SMILES CCCCCCCCCCC(=O)[O-]
REMARK SMILES IDX 7 1 8 2 9 3 10 4 11 5 12 6 13 7 6 8 5 9 4 10 3 11 2 12 1 13
REMARK H PARENT
REMARK Flexibility Score: inf
ROOT
ATOM      1  C   UNL     1       1.148   8.710  -5.075  1.00  0.00     0.000 C 
ENDROOT
BRANCH   1   2
ATOM      2  C   UNL     1       0.313   8.856  -6.356  1.00  0.00     0.000 C 
BRANCH   2   3
ATOM      3  C   UNL     1       0.783   7.918  -7.485  1.00  0.00     0.006 C 
BRANCH   3   4
ATOM      4  C   UNL     1       1.179   8.652  -8.777  1.00  0.00     0.053 C 
BRANCH   4   5
ATOM      5  C   UNL     1       2.601   9.122  -8.762  1.00  0.00     0.041 C 
ATOM      6  O   UNL     1       3.316   8.947  -7.740  1.00  0.00    -0.550 OA
ATOM      7  O   UNL     1       3.136   9.756  -9.876  1.00  0.00    -0.550 OA
ENDBRANCH   4   5
ENDBRANCH   3   4
ENDBRANCH   2   3
ENDBRANCH   1   2
BRANCH   1   8
ATOM      8  C   UNL     1       0.452   7.788  -4.065  1.00  0.00     0.000 C 
BRANCH   8   9
ATOM      9  C   UNL     1       1.426   7.177  -3.042  1.00  0.00    -0.000 C 
BRANCH   9  10
ATOM     10  C   UNL     1       2.906   7.511  -3.325  1.00  0.00    -0.000 C 
BRANCH  10  11
ATOM     11  C   UNL     1       3.863   6.708  -2.425  1.00  0.00    -0.000 C 
BRANCH  11  12
ATOM     12  C   UNL     1       5.323   7.165  -2.565  1.00  0.00    -0.003 C 
ATOM     13  C   UNL     1       5.635   8.397  -1.716  1.00  0.00     0.004 C 
ENDBRANCH  11  12
ENDBRANCH  10  11
ENDBRANCH   9  10
ENDBRANCH   8   9
ENDBRANCH   1   8
TORSDOF 9
ENDMDL
