MODEL 1
REMARK VINA RESULT:     7.548      0.000      0.000
REMARK INTER + INTRA:          11.927
REMARK INTER:                  11.078
REMARK INTRA:                   0.848
REMARK UNBOUND:                 0.848
REMARK SMILES C=C1C=C[C@H](C(C)C)CCC(C)=CCC1
REMARK SMILES IDX 3 1 4 2 5 3 9 4 10 5 11 6 12 7 13 8 6 10 7 11 8 12 2 13 1 14
REMARK SMILES IDX 15 15 14 16
REMARK H PARENT
REMARK Flexibility Score: 70.00
ROOT
ATOM      1  C   UNL     1       1.371   5.612 -10.497  1.00  0.00    -0.001 C 
ATOM      2  C   UNL     1       0.347   6.003 -11.277  1.00  0.00    -0.023 C 
ENDROOT
BRANCH   2   3
ATOM      3  C   UNL     1      -1.106   5.539 -11.208  1.00  0.00     0.014 C 
BRANCH   3   4
ATOM      4  C   UNL     1      -1.866   6.375 -10.131  1.00  0.00     0.012 C 
BRANCH   4   5
ATOM      5  C   UNL     1      -1.594   6.034  -8.639  1.00  0.00     0.031 C 
BRANCH   5   6
ATOM      6  C   UNL     1      -1.156   7.179  -7.733  1.00  0.00    -0.077 C 
ATOM      7  C   UNL     1      -2.153   8.257  -7.380  1.00  0.00     0.039 C 
ATOM      8  C   UNL     1       0.112   7.342  -7.291  1.00  0.00    -0.028 CG0
ATOM      9  G   UNL     1       1.250   6.393  -7.546  1.00  0.00     0.000 G0
ENDBRANCH   5   6
ENDBRANCH   4   5
ENDBRANCH   3   4
BRANCH   3  10
ATOM     10  C   UNL     1      -1.740   5.652 -12.639  1.00  0.00    -0.010 C 
ATOM     11  C   UNL     1      -3.004   4.804 -12.832  1.00  0.00     0.008 C 
ATOM     12  C   UNL     1      -0.719   5.256 -13.726  1.00  0.00     0.008 C 
ENDBRANCH   3  10
ENDBRANCH   2   3
BRANCH   1  13
ATOM     13  C   UNL     1       1.329   4.649  -9.370  1.00  0.00    -0.055 C 
ATOM     14  C   UNL     1       1.660   3.376  -9.614  1.00  0.00     0.012 C 
BRANCH  13  15
ATOM     15  C   UNL     1       0.779   5.013  -8.014  1.00  0.00     0.039 C 
BRANCH  15  16
ATOM     16  C   UNL     1       1.257   6.406  -7.550  1.00  0.00     0.032 CG0
ATOM     17  G   UNL     1       0.094   7.323  -7.290  1.00  0.00     0.000 G0
ENDBRANCH  15  16
ENDBRANCH  13  15
ENDBRANCH   1  13
TORSDOF 1
ENDMDL
