MODEL 1
REMARK VINA RESULT:    -3.605      0.000      0.000
REMARK INTER + INTRA:          -5.049
REMARK INTER:                  -4.659
REMARK INTRA:                  -0.390
REMARK UNBOUND:                -0.390
REMARK SMILES CCO[C@@H]1O[C@H](CO)[C@@H](O)[C@H](O)[C@@H]1O
REMARK SMILES IDX 4 1 13 2 11 3 9 4 6 5 5 6 3 7 2 8 1 9 14 10 12 12 7 14 8 15
REMARK SMILES IDX 10 17
REMARK H PARENT 14 11 12 13 8 16 10 18
REMARK Flexibility Score: inf
ROOT
ATOM      1  C   UNL     1      10.263  -4.582  -2.506  1.00  0.00     0.281 C 
ATOM      2  C   UNL     1      10.333  -5.838  -1.598  1.00  0.00     0.202 C 
ATOM      3  C   UNL     1       8.969  -6.550  -1.684  1.00  0.00     0.179 C 
ATOM      4  C   UNL     1       7.838  -5.554  -1.342  1.00  0.00     0.177 C 
ATOM      5  C   UNL     1       7.974  -4.251  -2.182  1.00  0.00     0.178 C 
ATOM      6  O   UNL     1       9.269  -3.682  -2.043  1.00  0.00    -0.341 OA
ENDROOT
BRANCH   1   7
ATOM      7  O   UNL     1      11.499  -3.914  -2.740  1.00  0.00    -0.350 OA
BRANCH   7   8
ATOM      8  C   UNL     1      12.614  -4.746  -3.018  1.00  0.00     0.160 C 
ATOM      9  C   UNL     1      13.744  -4.622  -1.995  1.00  0.00     0.035 C 
ENDBRANCH   7   8
ENDBRANCH   1   7
BRANCH   2  10
ATOM     10  O   UNL     1      10.572  -5.477  -0.260  1.00  0.00    -0.385 OA
ATOM     11  H   UNL     1      10.939  -4.555  -0.272  1.00  0.00     0.211 HD
ENDBRANCH   2  10
BRANCH   3  12
ATOM     12  O   UNL     1       8.923  -7.637  -0.796  1.00  0.00    -0.387 OA
ATOM     13  H   UNL     1       8.209  -7.435  -0.135  1.00  0.00     0.211 HD
ENDBRANCH   3  12
BRANCH   5  14
ATOM     14  C   UNL     1       6.936  -3.213  -1.734  1.00  0.00     0.191 C 
BRANCH  14  15
ATOM     15  O   UNL     1       6.455  -3.524  -0.454  1.00  0.00    -0.394 OA
ATOM     16  H   UNL     1       5.826  -4.284  -0.560  1.00  0.00     0.210 HD
ENDBRANCH  14  15
ENDBRANCH   5  14
BRANCH   4  17
ATOM     17  O   UNL     1       6.581  -6.156  -1.534  1.00  0.00    -0.387 OA
ATOM     18  H   UNL     1       6.690  -7.132  -1.388  1.00  0.00     0.211 HD
ENDBRANCH   4  17
TORSDOF 7
ENDMDL
MODEL 2
REMARK VINA RESULT:    -3.502      7.811     11.008
REMARK INTER + INTRA:          -4.916
REMARK INTER:                  -4.478
REMARK INTRA:                  -0.439
REMARK UNBOUND:                -0.390
REMARK SMILES CCO[C@@H]1O[C@H](CO)[C@@H](O)[C@H](O)[C@@H]1O
REMARK SMILES IDX 4 1 13 2 11 3 9 4 6 5 5 6 3 7 2 8 1 9 14 10 12 12 7 14 8 15
REMARK SMILES IDX 10 17
REMARK H PARENT 14 11 12 13 8 16 10 18
REMARK Flexibility Score: inf
ROOT
ATOM      1  C   UNL     1      18.299  -8.542  -0.711  1.00  0.00     0.281 C 
ATOM      2  C   UNL     1      18.967  -8.995  -2.035  1.00  0.00     0.202 C 
ATOM      3  C   UNL     1      20.481  -8.737  -1.904  1.00  0.00     0.179 C 
ATOM      4  C   UNL     1      20.726  -7.262  -1.515  1.00  0.00     0.177 C 
ATOM      5  C   UNL     1      19.864  -6.862  -0.282  1.00  0.00     0.178 C 
ATOM      6  O   UNL     1      18.489  -7.152  -0.501  1.00  0.00    -0.341 OA
ENDROOT
BRANCH   1   7
ATOM      7  O   UNL     1      16.932  -8.909  -0.546  1.00  0.00    -0.350 OA
BRANCH   7   8
ATOM      8  C   UNL     1      16.016  -7.841  -0.370  1.00  0.00     0.160 C 
ATOM      9  C   UNL     1      15.166  -7.550  -1.608  1.00  0.00     0.035 C 
ENDBRANCH   7   8
ENDBRANCH   1   7
BRANCH   2  10
ATOM     10  O   UNL     1      18.473  -8.254  -3.124  1.00  0.00    -0.385 OA
ATOM     11  H   UNL     1      18.763  -7.315  -2.989  1.00  0.00     0.211 HD
ENDBRANCH   2  10
BRANCH   3  12
ATOM     12  O   UNL     1      21.136  -9.019  -3.114  1.00  0.00    -0.387 OA
ATOM     13  H   UNL     1      20.752  -8.408  -3.796  1.00  0.00     0.211 HD
ENDBRANCH   3  12
BRANCH   5  14
ATOM     14  C   UNL     1      20.004  -5.361   0.007  1.00  0.00     0.191 C 
BRANCH  14  15
ATOM     15  O   UNL     1      21.061  -5.133   0.900  1.00  0.00    -0.394 OA
ATOM     16  H   UNL     1      20.666  -4.720   1.712  1.00  0.00     0.210 HD
ENDBRANCH  14  15
ENDBRANCH   5  14
BRANCH   4  17
ATOM     17  O   UNL     1      22.094  -7.040  -1.273  1.00  0.00    -0.387 OA
ATOM     18  H   UNL     1      22.173  -6.218  -0.722  1.00  0.00     0.211 HD
ENDBRANCH   4  17
TORSDOF 7
ENDMDL
MODEL 3
REMARK VINA RESULT:    -3.377      1.864      2.901
REMARK INTER + INTRA:          -4.755
REMARK INTER:                  -4.354
REMARK INTRA:                  -0.401
REMARK UNBOUND:                -0.390
REMARK SMILES CCO[C@@H]1O[C@H](CO)[C@@H](O)[C@H](O)[C@@H]1O
REMARK SMILES IDX 4 1 13 2 11 3 9 4 6 5 5 6 3 7 2 8 1 9 14 10 12 12 7 14 8 15
REMARK SMILES IDX 10 17
REMARK H PARENT 14 11 12 13 8 16 10 18
REMARK Flexibility Score: inf
ROOT
ATOM      1  C   UNL     1       8.310  -5.559  -2.260  1.00  0.00     0.281 C 
ATOM      2  C   UNL     1       8.979  -4.639  -1.206  1.00  0.00     0.202 C 
ATOM      3  C   UNL     1       7.883  -4.185  -0.222  1.00  0.00     0.179 C 
ATOM      4  C   UNL     1       6.714  -3.546  -1.004  1.00  0.00     0.177 C 
ATOM      5  C   UNL     1       6.242  -4.479  -2.158  1.00  0.00     0.178 C 
ATOM      6  O   UNL     1       7.328  -4.848  -2.997  1.00  0.00    -0.341 OA
ENDROOT
BRANCH   1   7
ATOM      7  O   UNL     1       9.197  -6.264  -3.123  1.00  0.00    -0.350 OA
BRANCH   7   8
ATOM      8  C   UNL     1      10.287  -6.920  -2.496  1.00  0.00     0.160 C 
ATOM      9  C   UNL     1      11.655  -6.458  -3.000  1.00  0.00     0.035 C 
ENDBRANCH   7   8
ENDBRANCH   1   7
BRANCH   2  10
ATOM     10  O   UNL     1       9.540  -3.503  -1.816  1.00  0.00    -0.385 OA
ATOM     11  H   UNL     1      10.520  -3.654  -1.862  1.00  0.00     0.211 HD
ENDBRANCH   2  10
BRANCH   3  12
ATOM     12  O   UNL     1       8.398  -3.255   0.696  1.00  0.00    -0.387 OA
ATOM     13  H   UNL     1       7.711  -2.545   0.799  1.00  0.00     0.211 HD
ENDBRANCH   3  12
BRANCH   5  14
ATOM     14  C   UNL     1       5.181  -3.777  -3.016  1.00  0.00     0.191 C 
BRANCH  14  15
ATOM     15  O   UNL     1       3.912  -3.918  -2.436  1.00  0.00    -0.394 OA
ATOM     16  H   UNL     1       3.571  -4.810  -2.707  1.00  0.00     0.210 HD
ENDBRANCH  14  15
ENDBRANCH   5  14
BRANCH   4  17
ATOM     17  O   UNL     1       5.653  -3.237  -0.133  1.00  0.00    -0.387 OA
ATOM     18  H   UNL     1       6.048  -2.971   0.739  1.00  0.00     0.211 HD
ENDBRANCH   4  17
TORSDOF 7
ENDMDL
MODEL 4
REMARK VINA RESULT:    -3.344      1.575      1.984
REMARK INTER + INTRA:          -4.711
REMARK INTER:                  -4.583
REMARK INTRA:                  -0.128
REMARK UNBOUND:                -0.390
REMARK SMILES CCO[C@@H]1O[C@H](CO)[C@@H](O)[C@H](O)[C@@H]1O
REMARK SMILES IDX 4 1 13 2 11 3 9 4 6 5 5 6 3 7 2 8 1 9 14 10 12 12 7 14 8 15
REMARK SMILES IDX 10 17
REMARK H PARENT 14 11 12 13 8 16 10 18
REMARK Flexibility Score: inf
ROOT
ATOM      1  C   UNL     1      10.187  -6.192  -1.624  1.00  0.00     0.281 C 
ATOM      2  C   UNL     1       9.227  -7.402  -1.756  1.00  0.00     0.202 C 
ATOM      3  C   UNL     1       7.901  -6.882  -2.347  1.00  0.00     0.179 C 
ATOM      4  C   UNL     1       7.372  -5.712  -1.487  1.00  0.00     0.177 C 
ATOM      5  C   UNL     1       8.478  -4.640  -1.265  1.00  0.00     0.178 C 
ATOM      6  O   UNL     1       9.659  -5.226  -0.730  1.00  0.00    -0.341 OA
ENDROOT
BRANCH   1   7
ATOM      7  O   UNL     1      11.541  -6.504  -1.310  1.00  0.00    -0.350 OA
BRANCH   7   8
ATOM      8  C   UNL     1      12.525  -5.665  -1.890  1.00  0.00     0.160 C 
ATOM      9  C   UNL     1      13.960  -6.084  -1.566  1.00  0.00     0.035 C 
ENDBRANCH   7   8
ENDBRANCH   1   7
BRANCH   2  10
ATOM     10  O   UNL     1       8.967  -7.976  -0.498  1.00  0.00    -0.385 OA
ATOM     11  H   UNL     1       9.670  -8.659  -0.342  1.00  0.00     0.211 HD
ENDBRANCH   2  10
BRANCH   3  12
ATOM     12  O   UNL     1       6.942  -7.907  -2.387  1.00  0.00    -0.387 OA
ATOM     13  H   UNL     1       6.737  -8.143  -1.444  1.00  0.00     0.211 HD
ENDBRANCH   3  12
BRANCH   5  14
ATOM     14  C   UNL     1       7.989  -3.557  -0.294  1.00  0.00     0.191 C 
BRANCH  14  15
ATOM     15  O   UNL     1       8.800  -3.524   0.850  1.00  0.00    -0.394 OA
ATOM     16  H   UNL     1       9.715  -3.775   0.560  1.00  0.00     0.210 HD
ENDBRANCH  14  15
ENDBRANCH   5  14
BRANCH   4  17
ATOM     17  O   UNL     1       6.228  -5.147  -2.081  1.00  0.00    -0.387 OA
ATOM     18  H   UNL     1       5.433  -5.594  -1.688  1.00  0.00     0.211 HD
ENDBRANCH   4  17
TORSDOF 7
ENDMDL
MODEL 5
REMARK VINA RESULT:    -3.199      1.813      4.664
REMARK INTER + INTRA:          -4.524
REMARK INTER:                  -4.174
REMARK INTRA:                  -0.350
REMARK UNBOUND:                -0.390
REMARK SMILES CCO[C@@H]1O[C@H](CO)[C@@H](O)[C@H](O)[C@@H]1O
REMARK SMILES IDX 4 1 13 2 11 3 9 4 6 5 5 6 3 7 2 8 1 9 14 10 12 12 7 14 8 15
REMARK SMILES IDX 10 17
REMARK H PARENT 14 11 12 13 8 16 10 18
REMARK Flexibility Score: inf
ROOT
ATOM      1  C   UNL     1       7.342  -4.876  -1.932  1.00  0.00     0.281 C 
ATOM      2  C   UNL     1       8.746  -4.346  -1.539  1.00  0.00     0.202 C 
ATOM      3  C   UNL     1       9.783  -5.385  -2.010  1.00  0.00     0.179 C 
ATOM      4  C   UNL     1       9.422  -6.776  -1.443  1.00  0.00     0.177 C 
ATOM      5  C   UNL     1       7.934  -7.126  -1.736  1.00  0.00     0.178 C 
ATOM      6  O   UNL     1       7.065  -6.101  -1.274  1.00  0.00    -0.341 OA
ENDROOT
BRANCH   1   7
ATOM      7  O   UNL     1       6.267  -3.952  -1.786  1.00  0.00    -0.350 OA
BRANCH   7   8
ATOM      8  C   UNL     1       5.550  -3.638  -2.968  1.00  0.00     0.160 C 
ATOM      9  C   UNL     1       4.173  -4.299  -3.047  1.00  0.00     0.035 C 
ENDBRANCH   7   8
ENDBRANCH   1   7
BRANCH   2  10
ATOM     10  O   UNL     1       8.854  -4.199  -0.144  1.00  0.00    -0.385 OA
ATOM     11  H   UNL     1       9.643  -3.621   0.024  1.00  0.00     0.211 HD
ENDBRANCH   2  10
BRANCH   3  12
ATOM     12  O   UNL     1      11.072  -5.024  -1.585  1.00  0.00    -0.387 OA
ATOM     13  H   UNL     1      11.242  -4.110  -1.934  1.00  0.00     0.211 HD
ENDBRANCH   3  12
BRANCH   5  14
ATOM     14  C   UNL     1       7.546  -8.441  -1.047  1.00  0.00     0.191 C 
BRANCH  14  15
ATOM     15  O   UNL     1       8.448  -8.737  -0.015  1.00  0.00    -0.394 OA
ATOM     16  H   UNL     1       9.349  -8.787  -0.427  1.00  0.00     0.210 HD
ENDBRANCH  14  15
ENDBRANCH   5  14
BRANCH   4  17
ATOM     17  O   UNL     1      10.288  -7.756  -1.962  1.00  0.00    -0.387 OA
ATOM     18  H   UNL     1      11.089  -7.790  -1.376  1.00  0.00     0.211 HD
ENDBRANCH   4  17
TORSDOF 7
ENDMDL
MODEL 6
REMARK VINA RESULT:    -3.156      7.777     11.145
REMARK INTER + INTRA:          -4.469
REMARK INTER:                  -4.123
REMARK INTRA:                  -0.345
REMARK UNBOUND:                -0.390
REMARK SMILES CCO[C@@H]1O[C@H](CO)[C@@H](O)[C@H](O)[C@@H]1O
REMARK SMILES IDX 4 1 13 2 11 3 9 4 6 5 5 6 3 7 2 8 1 9 14 10 12 12 7 14 8 15
REMARK SMILES IDX 10 17
REMARK H PARENT 14 11 12 13 8 16 10 18
REMARK Flexibility Score: inf
ROOT
ATOM      1  C   UNL     1      18.116  -7.662  -1.458  1.00  0.00     0.281 C 
ATOM      2  C   UNL     1      18.211  -6.593  -0.338  1.00  0.00     0.202 C 
ATOM      3  C   UNL     1      19.555  -5.858  -0.511  1.00  0.00     0.179 C 
ATOM      4  C   UNL     1      20.710  -6.885  -0.541  1.00  0.00     0.177 C 
ATOM      5  C   UNL     1      20.421  -8.016  -1.571  1.00  0.00     0.178 C 
ATOM      6  O   UNL     1      19.156  -8.618  -1.331  1.00  0.00    -0.341 OA
ENDROOT
BRANCH   1   7
ATOM      7  O   UNL     1      16.847  -8.293  -1.608  1.00  0.00    -0.350 OA
BRANCH   7   8
ATOM      8  C   UNL     1      15.713  -7.457  -1.447  1.00  0.00     0.160 C 
ATOM      9  C   UNL     1      14.562  -7.794  -2.396  1.00  0.00     0.035 C 
ENDBRANCH   7   8
ENDBRANCH   1   7
BRANCH   2  10
ATOM     10  O   UNL     1      18.184  -7.194   0.933  1.00  0.00    -0.385 OA
ATOM     11  H   UNL     1      17.442  -7.852   0.924  1.00  0.00     0.211 HD
ENDBRANCH   2  10
BRANCH   3  12
ATOM     12  O   UNL     1      19.761  -4.950   0.540  1.00  0.00    -0.387 OA
ATOM     13  H   UNL     1      20.017  -4.085   0.125  1.00  0.00     0.211 HD
ENDBRANCH   3  12
BRANCH   5  14
ATOM     14  C   UNL     1      21.501  -9.103  -1.490  1.00  0.00     0.191 C 
BRANCH  14  15
ATOM     15  O   UNL     1      22.164  -9.044  -0.256  1.00  0.00    -0.394 OA
ATOM     16  H   UNL     1      23.017  -9.539  -0.364  1.00  0.00     0.210 HD
ENDBRANCH  14  15
ENDBRANCH   5  14
BRANCH   4  17
ATOM     17  O   UNL     1      21.930  -6.241  -0.819  1.00  0.00    -0.387 OA
ATOM     18  H   UNL     1      21.720  -5.374  -1.254  1.00  0.00     0.211 HD
ENDBRANCH   4  17
TORSDOF 7
ENDMDL
MODEL 7
REMARK VINA RESULT:    -3.142      1.963      5.251
REMARK INTER + INTRA:          -4.450
REMARK INTER:                  -4.140
REMARK INTRA:                  -0.310
REMARK UNBOUND:                -0.390
REMARK SMILES CCO[C@@H]1O[C@H](CO)[C@@H](O)[C@H](O)[C@@H]1O
REMARK SMILES IDX 4 1 13 2 11 3 9 4 6 5 5 6 3 7 2 8 1 9 14 10 12 12 7 14 8 15
REMARK SMILES IDX 10 17
REMARK H PARENT 14 11 12 13 8 16 10 18
REMARK Flexibility Score: inf
ROOT
ATOM      1  C   UNL     1       6.678  -5.145  -2.724  1.00  0.00     0.281 C 
ATOM      2  C   UNL     1       6.984  -3.934  -1.806  1.00  0.00     0.202 C 
ATOM      3  C   UNL     1       8.514  -3.749  -1.775  1.00  0.00     0.179 C 
ATOM      4  C   UNL     1       9.191  -5.075  -1.361  1.00  0.00     0.177 C 
ATOM      5  C   UNL     1       8.671  -6.258  -2.228  1.00  0.00     0.178 C 
ATOM      6  O   UNL     1       7.252  -6.331  -2.199  1.00  0.00    -0.341 OA
ENDROOT
BRANCH   1   7
ATOM      7  O   UNL     1       5.308  -5.337  -3.064  1.00  0.00    -0.350 OA
BRANCH   7   8
ATOM      8  C   UNL     1       4.511  -4.166  -3.125  1.00  0.00     0.160 C 
ATOM      9  C   UNL     1       3.012  -4.434  -2.986  1.00  0.00     0.035 C 
ENDBRANCH   7   8
ENDBRANCH   1   7
BRANCH   2  10
ATOM     10  O   UNL     1       6.529  -4.169  -0.496  1.00  0.00    -0.385 OA
ATOM     11  H   UNL     1       5.678  -4.673  -0.573  1.00  0.00     0.211 HD
ENDBRANCH   2  10
BRANCH   3  12
ATOM     12  O   UNL     1       8.871  -2.737  -0.869  1.00  0.00    -0.387 OA
ATOM     13  H   UNL     1       9.859  -2.642  -0.921  1.00  0.00     0.211 HD
ENDBRANCH   3  12
BRANCH   5  14
ATOM     14  C   UNL     1       9.238  -7.589  -1.716  1.00  0.00     0.191 C 
BRANCH  14  15
ATOM     15  O   UNL     1       9.586  -7.484  -0.362  1.00  0.00    -0.394 OA
ATOM     16  H   UNL     1       8.813  -7.066   0.100  1.00  0.00     0.210 HD
ENDBRANCH  14  15
ENDBRANCH   5  14
BRANCH   4  17
ATOM     17  O   UNL     1      10.590  -4.958  -1.445  1.00  0.00    -0.387 OA
ATOM     18  H   UNL     1      10.838  -4.059  -1.103  1.00  0.00     0.211 HD
ENDBRANCH   4  17
TORSDOF 7
ENDMDL
MODEL 8
REMARK VINA RESULT:    -3.075      1.722      4.794
REMARK INTER + INTRA:          -4.365
REMARK INTER:                  -3.925
REMARK INTRA:                  -0.439
REMARK UNBOUND:                -0.390
REMARK SMILES CCO[C@@H]1O[C@H](CO)[C@@H](O)[C@H](O)[C@@H]1O
REMARK SMILES IDX 4 1 13 2 11 3 9 4 6 5 5 6 3 7 2 8 1 9 14 10 12 12 7 14 8 15
REMARK SMILES IDX 10 17
REMARK H PARENT 14 11 12 13 8 16 10 18
REMARK Flexibility Score: inf
ROOT
ATOM      1  C   UNL     1       8.654  -4.999  -2.884  1.00  0.00     0.281 C 
ATOM      2  C   UNL     1       9.641  -3.808  -2.782  1.00  0.00     0.202 C 
ATOM      3  C   UNL     1      11.066  -4.369  -2.950  1.00  0.00     0.179 C 
ATOM      4  C   UNL     1      11.301  -5.507  -1.930  1.00  0.00     0.177 C 
ATOM      5  C   UNL     1      10.150  -6.554  -1.991  1.00  0.00     0.178 C 
ATOM      6  O   UNL     1       8.881  -5.931  -1.840  1.00  0.00    -0.341 OA
ENDROOT
BRANCH   1   7
ATOM      7  O   UNL     1       7.274  -4.656  -2.982  1.00  0.00    -0.350 OA
BRANCH   7   8
ATOM      8  C   UNL     1       6.502  -4.833  -1.805  1.00  0.00     0.160 C 
ATOM      9  C   UNL     1       6.063  -3.520  -1.155  1.00  0.00     0.035 C 
ENDBRANCH   7   8
ENDBRANCH   1   7
BRANCH   2  10
ATOM     10  O   UNL     1       9.545  -3.182  -1.526  1.00  0.00    -0.385 OA
ATOM     11  H   UNL     1       9.648  -3.893  -0.842  1.00  0.00     0.211 HD
ENDBRANCH   2  10
BRANCH   3  12
ATOM     12  O   UNL     1      12.022  -3.359  -2.755  1.00  0.00    -0.387 OA
ATOM     13  H   UNL     1      11.869  -2.994  -1.843  1.00  0.00     0.211 HD
ENDBRANCH   3  12
BRANCH   5  14
ATOM     14  C   UNL     1      10.316  -7.599  -0.880  1.00  0.00     0.191 C 
BRANCH  14  15
ATOM     15  O   UNL     1      11.281  -8.550  -1.243  1.00  0.00    -0.394 OA
ATOM     16  H   UNL     1      11.727  -8.208  -2.061  1.00  0.00     0.210 HD
ENDBRANCH  14  15
ENDBRANCH   5  14
BRANCH   4  17
ATOM     17  O   UNL     1      12.552  -6.111  -2.150  1.00  0.00    -0.387 OA
ATOM     18  H   UNL     1      12.738  -6.708  -1.379  1.00  0.00     0.211 HD
ENDBRANCH   4  17
TORSDOF 7
ENDMDL
MODEL 9
REMARK VINA RESULT:    -3.020      1.568      4.836
REMARK INTER + INTRA:          -4.293
REMARK INTER:                  -4.095
REMARK INTRA:                  -0.198
REMARK UNBOUND:                -0.390
REMARK SMILES CCO[C@@H]1O[C@H](CO)[C@@H](O)[C@H](O)[C@@H]1O
REMARK SMILES IDX 4 1 13 2 11 3 9 4 6 5 5 6 3 7 2 8 1 9 14 10 12 12 7 14 8 15
REMARK SMILES IDX 10 17
REMARK H PARENT 14 11 12 13 8 16 10 18
REMARK Flexibility Score: inf
ROOT
ATOM      1  C   UNL     1       7.463  -6.040  -2.279  1.00  0.00     0.281 C 
ATOM      2  C   UNL     1       7.109  -4.554  -2.011  1.00  0.00     0.202 C 
ATOM      3  C   UNL     1       8.288  -3.697  -2.512  1.00  0.00     0.179 C 
ATOM      4  C   UNL     1       9.601  -4.188  -1.862  1.00  0.00     0.177 C 
ATOM      5  C   UNL     1       9.764  -5.727  -2.032  1.00  0.00     0.178 C 
ATOM      6  O   UNL     1       8.619  -6.420  -1.552  1.00  0.00    -0.341 OA
ENDROOT
BRANCH   1   7
ATOM      7  O   UNL     1       6.403  -6.974  -2.094  1.00  0.00    -0.350 OA
BRANCH   7   8
ATOM      8  C   UNL     1       6.750  -8.343  -2.219  1.00  0.00     0.160 C 
ATOM      9  C   UNL     1       6.651  -9.125  -0.909  1.00  0.00     0.035 C 
ENDBRANCH   7   8
ENDBRANCH   1   7
BRANCH   2  10
ATOM     10  O   UNL     1       6.932  -4.321  -0.635  1.00  0.00    -0.385 OA
ATOM     11  H   UNL     1       7.831  -4.361  -0.218  1.00  0.00     0.211 HD
ENDBRANCH   2  10
BRANCH   3  12
ATOM     12  O   UNL     1       8.085  -2.344  -2.197  1.00  0.00    -0.387 OA
ATOM     13  H   UNL     1       7.102  -2.207  -2.147  1.00  0.00     0.211 HD
ENDBRANCH   3  12
BRANCH   5  14
ATOM     14  C   UNL     1      10.994  -6.225  -1.262  1.00  0.00     0.191 C 
BRANCH  14  15
ATOM     15  O   UNL     1      10.968  -5.752   0.058  1.00  0.00    -0.394 OA
ATOM     16  H   UNL     1      11.852  -5.967   0.457  1.00  0.00     0.210 HD
ENDBRANCH  14  15
ENDBRANCH   5  14
BRANCH   4  17
ATOM     17  O   UNL     1      10.702  -3.497  -2.401  1.00  0.00    -0.387 OA
ATOM     18  H   UNL     1      11.500  -3.733  -1.859  1.00  0.00     0.211 HD
ENDBRANCH   4  17
TORSDOF 7
ENDMDL
