MODEL 1
REMARK VINA RESULT:    -7.137      0.000      0.000
REMARK INTER + INTRA:         -12.545
REMARK INTER:                 -10.892
REMARK INTRA:                  -1.653
REMARK UNBOUND:                -1.653
REMARK SMILES CC(=O)CCC=C(C)CCC=C(C)CCC=C(C)C
REMARK SMILES IDX 10 1 11 2 12 3 13 4 14 5 15 6 16 7 18 8 17 9 19 10 9 11 7 12
REMARK SMILES IDX 6 13 8 14 5 15 4 16 2 17 3 18 1 19
REMARK H PARENT
REMARK Flexibility Score: inf
ROOT
ATOM      1  C   UNL     1     -14.777 -31.618  31.405  1.00  0.00     0.032 C 
ENDROOT
BRANCH   1   2
ATOM      2  C   UNL     1     -14.504 -32.120  30.009  1.00  0.00    -0.028 C 
ATOM      3  C   UNL     1     -14.865 -31.477  28.876  1.00  0.00    -0.077 C 
ATOM      4  C   UNL     1     -15.521 -30.117  28.908  1.00  0.00     0.039 C 
BRANCH   3   5
ATOM      5  C   UNL     1     -14.623 -32.151  27.541  1.00  0.00     0.034 C 
BRANCH   5   6
ATOM      6  C   UNL     1     -14.297 -33.638  27.720  1.00  0.00     0.032 C 
BRANCH   6   7
ATOM      7  C   UNL     1     -13.305 -34.108  26.683  1.00  0.00    -0.028 C 
ATOM      8  C   UNL     1     -11.369 -33.598  28.174  1.00  0.00     0.039 C 
ATOM      9  C   UNL     1     -11.970 -34.095  26.882  1.00  0.00    -0.080 C 
ATOM     10  C   UNL     1     -11.070 -34.595  25.782  1.00  0.00     0.039 C 
ENDBRANCH   6   7
ENDBRANCH   5   6
ENDBRANCH   3   5
ENDBRANCH   1   2
BRANCH   1  11
ATOM     11  C   UNL     1     -14.775 -32.762  32.428  1.00  0.00     0.034 C 
BRANCH  11  12
ATOM     12  C   UNL     1     -13.617 -33.714  32.208  1.00  0.00    -0.077 C 
ATOM     13  C   UNL     1     -13.864 -34.970  31.768  1.00  0.00    -0.028 C 
ATOM     14  C   UNL     1     -12.216 -33.233  32.505  1.00  0.00     0.039 C 
BRANCH  13  15
ATOM     15  C   UNL     1     -12.803 -36.018  31.533  1.00  0.00     0.035 C 
BRANCH  15  16
ATOM     16  C   UNL     1     -13.353 -37.248  30.797  1.00  0.00     0.079 C 
BRANCH  16  17
ATOM     17  C   UNL     1     -13.241 -37.118  29.298  1.00  0.00     0.130 C 
ATOM     18  O   UNL     1     -12.169 -36.814  28.796  1.00  0.00    -0.300 OA
ATOM     19  C   UNL     1     -14.434 -37.309  28.407  1.00  0.00     0.087 C 
ENDBRANCH  16  17
ENDBRANCH  15  16
ENDBRANCH  13  15
ENDBRANCH  11  12
ENDBRANCH   1  11
TORSDOF 9
ENDMDL
MODEL 2
REMARK VINA RESULT:    -6.745      1.195      3.755
REMARK INTER + INTRA:         -11.947
REMARK INTER:                 -10.238
REMARK INTRA:                  -1.709
REMARK UNBOUND:                -1.653
REMARK SMILES CC(=O)CCC=C(C)CCC=C(C)CCC=C(C)C
REMARK SMILES IDX 10 1 11 2 12 3 13 4 14 5 15 6 16 7 18 8 17 9 19 10 9 11 7 12
REMARK SMILES IDX 6 13 8 14 5 15 4 16 2 17 3 18 1 19
REMARK H PARENT
REMARK Flexibility Score: inf
ROOT
ATOM      1  C   UNL     1     -10.304 -33.781  28.863  1.00  0.00     0.032 C 
ENDROOT
BRANCH   1   2
ATOM      2  C   UNL     1     -11.697 -33.615  28.308  1.00  0.00    -0.028 C 
ATOM      3  C   UNL     1     -12.073 -33.961  27.056  1.00  0.00    -0.077 C 
ATOM      4  C   UNL     1     -11.121 -34.642  26.100  1.00  0.00     0.039 C 
BRANCH   3   5
ATOM      5  C   UNL     1     -13.479 -33.638  26.597  1.00  0.00     0.034 C 
BRANCH   5   6
ATOM      6  C   UNL     1     -14.387 -33.295  27.783  1.00  0.00     0.032 C 
BRANCH   6   7
ATOM      7  C   UNL     1     -14.846 -31.858  27.722  1.00  0.00    -0.028 C 
ATOM      8  C   UNL     1     -14.826 -31.651  30.209  1.00  0.00     0.039 C 
ATOM      9  C   UNL     1     -15.046 -31.101  28.821  1.00  0.00    -0.080 C 
ATOM     10  C   UNL     1     -15.497 -29.674  28.644  1.00  0.00     0.039 C 
ENDBRANCH   6   7
ENDBRANCH   5   6
ENDBRANCH   3   5
ENDBRANCH   1   2
BRANCH   1  11
ATOM     11  C   UNL     1     -10.254 -33.478  30.366  1.00  0.00     0.034 C 
BRANCH  11  12
ATOM     12  C   UNL     1     -11.217 -34.347  31.150  1.00  0.00    -0.077 C 
ATOM     13  C   UNL     1     -11.147 -35.694  31.026  1.00  0.00    -0.028 C 
ATOM     14  C   UNL     1     -12.241 -33.679  32.036  1.00  0.00     0.039 C 
BRANCH  13  15
ATOM     15  C   UNL     1     -12.062 -36.666  31.732  1.00  0.00     0.035 C 
BRANCH  15  16
ATOM     16  C   UNL     1     -12.793 -37.594  30.752  1.00  0.00     0.079 C 
BRANCH  16  17
ATOM     17  C   UNL     1     -13.757 -36.848  29.864  1.00  0.00     0.130 C 
ATOM     18  O   UNL     1     -14.355 -35.876  30.302  1.00  0.00    -0.300 OA
ATOM     19  C   UNL     1     -14.038 -37.302  28.461  1.00  0.00     0.087 C 
ENDBRANCH  16  17
ENDBRANCH  15  16
ENDBRANCH  13  15
ENDBRANCH  11  12
ENDBRANCH   1  11
TORSDOF 9
ENDMDL
MODEL 3
REMARK VINA RESULT:    -6.472      1.427      4.098
REMARK INTER + INTRA:         -11.529
REMARK INTER:                  -9.738
REMARK INTRA:                  -1.791
REMARK UNBOUND:                -1.653
REMARK SMILES CC(=O)CCC=C(C)CCC=C(C)CCC=C(C)C
REMARK SMILES IDX 10 1 11 2 12 3 13 4 14 5 15 6 16 7 18 8 17 9 19 10 9 11 7 12
REMARK SMILES IDX 6 13 8 14 5 15 4 16 2 17 3 18 1 19
REMARK H PARENT
REMARK Flexibility Score: inf
ROOT
ATOM      1  C   UNL     1     -14.086 -32.138  27.825  1.00  0.00     0.032 C 
ENDROOT
BRANCH   1   2
ATOM      2  C   UNL     1     -14.002 -32.564  29.269  1.00  0.00    -0.028 C 
ATOM      3  C   UNL     1     -14.666 -31.970  30.287  1.00  0.00    -0.077 C 
ATOM      4  C   UNL     1     -15.644 -30.843  30.048  1.00  0.00     0.039 C 
BRANCH   3   5
ATOM      5  C   UNL     1     -14.404 -32.434  31.704  1.00  0.00     0.034 C 
BRANCH   5   6
ATOM      6  C   UNL     1     -13.506 -33.677  31.726  1.00  0.00     0.032 C 
BRANCH   6   7
ATOM      7  C   UNL     1     -12.290 -33.456  32.592  1.00  0.00    -0.028 C 
ATOM      8  C   UNL     1     -10.810 -33.183  30.600  1.00  0.00     0.039 C 
ATOM      9  C   UNL     1     -11.058 -33.228  32.088  1.00  0.00    -0.080 C 
ATOM     10  C   UNL     1      -9.913 -33.012  33.044  1.00  0.00     0.039 C 
ENDBRANCH   6   7
ENDBRANCH   5   6
ENDBRANCH   3   5
ENDBRANCH   1   2
BRANCH   1  11
ATOM     11  C   UNL     1     -14.324 -33.335  26.895  1.00  0.00     0.034 C 
BRANCH  11  12
ATOM     12  C   UNL     1     -13.622 -34.583  27.392  1.00  0.00    -0.077 C 
ATOM     13  C   UNL     1     -14.343 -35.548  28.013  1.00  0.00    -0.028 C 
ATOM     14  C   UNL     1     -12.130 -34.705  27.192  1.00  0.00     0.039 C 
BRANCH  13  15
ATOM     15  C   UNL     1     -13.760 -36.823  28.572  1.00  0.00     0.035 C 
BRANCH  15  16
ATOM     16  C   UNL     1     -13.912 -36.913  30.097  1.00  0.00     0.079 C 
BRANCH  16  17
ATOM     17  C   UNL     1     -12.604 -37.201  30.790  1.00  0.00     0.130 C 
ATOM     18  O   UNL     1     -12.579 -37.972  31.738  1.00  0.00    -0.300 OA
ATOM     19  C   UNL     1     -11.332 -36.525  30.369  1.00  0.00     0.087 C 
ENDBRANCH  16  17
ENDBRANCH  15  16
ENDBRANCH  13  15
ENDBRANCH  11  12
ENDBRANCH   1  11
TORSDOF 9
ENDMDL
MODEL 4
REMARK VINA RESULT:    -6.418      1.330      2.647
REMARK INTER + INTRA:         -11.447
REMARK INTER:                  -9.494
REMARK INTRA:                  -1.953
REMARK UNBOUND:                -1.653
REMARK SMILES CC(=O)CCC=C(C)CCC=C(C)CCC=C(C)C
REMARK SMILES IDX 10 1 11 2 12 3 13 4 14 5 15 6 16 7 18 8 17 9 19 10 9 11 7 12
REMARK SMILES IDX 6 13 8 14 5 15 4 16 2 17 3 18 1 19
REMARK H PARENT
REMARK Flexibility Score: inf
ROOT
ATOM      1  C   UNL     1     -14.618 -31.888  31.243  1.00  0.00     0.032 C 
ENDROOT
BRANCH   1   2
ATOM      2  C   UNL     1     -14.445 -32.159  29.769  1.00  0.00    -0.028 C 
ATOM      3  C   UNL     1     -14.946 -31.384  28.780  1.00  0.00    -0.077 C 
ATOM      4  C   UNL     1     -15.675 -30.094  29.074  1.00  0.00     0.039 C 
BRANCH   3   5
ATOM      5  C   UNL     1     -14.787 -31.835  27.343  1.00  0.00     0.034 C 
BRANCH   5   6
ATOM      6  C   UNL     1     -14.425 -33.322  27.263  1.00  0.00     0.032 C 
BRANCH   6   7
ATOM      7  C   UNL     1     -13.155 -33.533  26.476  1.00  0.00    -0.028 C 
ATOM      8  C   UNL     1     -12.568 -35.569  27.795  1.00  0.00     0.039 C 
ATOM      9  C   UNL     1     -12.304 -34.555  26.709  1.00  0.00    -0.080 C 
ATOM     10  C   UNL     1     -11.067 -34.676  25.857  1.00  0.00     0.039 C 
ENDBRANCH   6   7
ENDBRANCH   5   6
ENDBRANCH   3   5
ENDBRANCH   1   2
BRANCH   1  11
ATOM     11  C   UNL     1     -14.628 -33.188  32.059  1.00  0.00     0.034 C 
BRANCH  11  12
ATOM     12  C   UNL     1     -13.250 -33.815  32.139  1.00  0.00    -0.077 C 
ATOM     13  C   UNL     1     -12.206 -33.070  32.575  1.00  0.00    -0.028 C 
ATOM     14  C   UNL     1     -13.082 -35.253  31.710  1.00  0.00     0.039 C 
BRANCH  13  15
ATOM     15  C   UNL     1     -10.785 -33.570  32.678  1.00  0.00     0.035 C 
BRANCH  15  16
ATOM     16  C   UNL     1      -9.875 -32.961  31.601  1.00  0.00     0.079 C 
BRANCH  16  17
ATOM     17  C   UNL     1     -10.145 -33.531  30.231  1.00  0.00     0.130 C 
ATOM     18  O   UNL     1      -9.923 -34.713  30.013  1.00  0.00    -0.300 OA
ATOM     19  C   UNL     1     -10.640 -32.666  29.109  1.00  0.00     0.087 C 
ENDBRANCH  16  17
ENDBRANCH  15  16
ENDBRANCH  13  15
ENDBRANCH  11  12
ENDBRANCH   1  11
TORSDOF 9
ENDMDL
MODEL 5
REMARK VINA RESULT:    -6.353      1.341      4.013
REMARK INTER + INTRA:         -11.349
REMARK INTER:                  -9.350
REMARK INTRA:                  -1.999
REMARK UNBOUND:                -1.653
REMARK SMILES CC(=O)CCC=C(C)CCC=C(C)CCC=C(C)C
REMARK SMILES IDX 10 1 11 2 12 3 13 4 14 5 15 6 16 7 18 8 17 9 19 10 9 11 7 12
REMARK SMILES IDX 6 13 8 14 5 15 4 16 2 17 3 18 1 19
REMARK H PARENT
REMARK Flexibility Score: inf
ROOT
ATOM      1  C   UNL     1     -11.291 -33.549  32.471  1.00  0.00     0.032 C 
ENDROOT
BRANCH   1   2
ATOM      2  C   UNL     1     -12.590 -32.808  32.664  1.00  0.00    -0.028 C 
ATOM      3  C   UNL     1     -13.816 -33.329  32.429  1.00  0.00    -0.077 C 
ATOM      4  C   UNL     1     -14.000 -34.771  32.017  1.00  0.00     0.039 C 
BRANCH   3   5
ATOM      5  C   UNL     1     -15.031 -32.435  32.561  1.00  0.00     0.034 C 
BRANCH   5   6
ATOM      6  C   UNL     1     -15.070 -31.380  31.450  1.00  0.00     0.032 C 
BRANCH   6   7
ATOM      7  C   UNL     1     -14.715 -31.983  30.112  1.00  0.00    -0.028 C 
ATOM      8  C   UNL     1     -15.543 -29.973  28.885  1.00  0.00     0.039 C 
ATOM      9  C   UNL     1     -14.924 -31.349  28.940  1.00  0.00    -0.080 C 
ATOM     10  C   UNL     1     -14.524 -32.040  27.661  1.00  0.00     0.039 C 
ENDBRANCH   6   7
ENDBRANCH   5   6
ENDBRANCH   3   5
ENDBRANCH   1   2
BRANCH   1  11
ATOM     11  C   UNL     1     -10.693 -33.289  31.082  1.00  0.00     0.034 C 
BRANCH  11  12
ATOM     12  C   UNL     1     -11.040 -34.391  30.102  1.00  0.00    -0.077 C 
ATOM     13  C   UNL     1     -11.925 -34.141  29.108  1.00  0.00    -0.028 C 
ATOM     14  C   UNL     1     -10.398 -35.747  30.277  1.00  0.00     0.039 C 
BRANCH  13  15
ATOM     15  C   UNL     1     -12.371 -35.158  28.085  1.00  0.00     0.035 C 
BRANCH  15  16
ATOM     16  C   UNL     1     -13.824 -35.604  28.303  1.00  0.00     0.079 C 
BRANCH  16  17
ATOM     17  C   UNL     1     -13.926 -37.056  28.695  1.00  0.00     0.130 C 
ATOM     18  O   UNL     1     -14.492 -37.845  27.952  1.00  0.00    -0.300 OA
ATOM     19  C   UNL     1     -13.389 -37.551  30.006  1.00  0.00     0.087 C 
ENDBRANCH  16  17
ENDBRANCH  15  16
ENDBRANCH  13  15
ENDBRANCH  11  12
ENDBRANCH   1  11
TORSDOF 9
ENDMDL
MODEL 6
REMARK VINA RESULT:    -6.350      1.298      4.592
REMARK INTER + INTRA:         -11.344
REMARK INTER:                 -10.063
REMARK INTRA:                  -1.281
REMARK UNBOUND:                -1.653
REMARK SMILES CC(=O)CCC=C(C)CCC=C(C)CCC=C(C)C
REMARK SMILES IDX 10 1 11 2 12 3 13 4 14 5 15 6 16 7 18 8 17 9 19 10 9 11 7 12
REMARK SMILES IDX 6 13 8 14 5 15 4 16 2 17 3 18 1 19
REMARK H PARENT
REMARK Flexibility Score: inf
ROOT
ATOM      1  C   UNL     1     -15.189 -31.127  30.019  1.00  0.00     0.032 C 
ENDROOT
BRANCH   1   2
ATOM      2  C   UNL     1     -14.694 -32.426  30.604  1.00  0.00    -0.028 C 
ATOM      3  C   UNL     1     -14.550 -32.669  31.927  1.00  0.00    -0.077 C 
ATOM      4  C   UNL     1     -14.964 -31.657  32.971  1.00  0.00     0.039 C 
BRANCH   3   5
ATOM      5  C   UNL     1     -13.939 -33.981  32.370  1.00  0.00     0.034 C 
BRANCH   5   6
ATOM      6  C   UNL     1     -13.655 -34.895  31.172  1.00  0.00     0.032 C 
BRANCH   6   7
ATOM      7  C   UNL     1     -13.190 -36.258  31.624  1.00  0.00    -0.028 C 
ATOM      8  C   UNL     1     -13.382 -37.188  29.315  1.00  0.00     0.039 C 
ATOM      9  C   UNL     1     -13.061 -37.308  30.785  1.00  0.00    -0.080 C 
ATOM     10  C   UNL     1     -12.580 -38.624  31.340  1.00  0.00     0.039 C 
ENDBRANCH   6   7
ENDBRANCH   5   6
ENDBRANCH   3   5
ENDBRANCH   1   2
BRANCH   1  11
ATOM     11  C   UNL     1     -14.774 -30.974  28.550  1.00  0.00     0.034 C 
BRANCH  11  12
ATOM     12  C   UNL     1     -13.982 -32.170  28.060  1.00  0.00    -0.077 C 
ATOM     13  C   UNL     1     -12.759 -32.417  28.585  1.00  0.00    -0.028 C 
ATOM     14  C   UNL     1     -14.579 -33.043  26.982  1.00  0.00     0.039 C 
BRANCH  13  15
ATOM     15  C   UNL     1     -11.863 -33.558  28.166  1.00  0.00     0.035 C 
BRANCH  15  16
ATOM     16  C   UNL     1     -10.447 -33.429  28.744  1.00  0.00     0.079 C 
BRANCH  16  17
ATOM     17  C   UNL     1     -10.283 -34.185  30.038  1.00  0.00     0.130 C 
ATOM     18  O   UNL     1     -10.161 -35.401  30.017  1.00  0.00    -0.300 OA
ATOM     19  C   UNL     1     -10.313 -33.481  31.363  1.00  0.00     0.087 C 
ENDBRANCH  16  17
ENDBRANCH  15  16
ENDBRANCH  13  15
ENDBRANCH  11  12
ENDBRANCH   1  11
TORSDOF 9
ENDMDL
MODEL 7
REMARK VINA RESULT:    -6.329      1.954      4.554
REMARK INTER + INTRA:         -11.313
REMARK INTER:                  -9.775
REMARK INTRA:                  -1.538
REMARK UNBOUND:                -1.653
REMARK SMILES CC(=O)CCC=C(C)CCC=C(C)CCC=C(C)C
REMARK SMILES IDX 10 1 11 2 12 3 13 4 14 5 15 6 16 7 18 8 17 9 19 10 9 11 7 12
REMARK SMILES IDX 6 13 8 14 5 15 4 16 2 17 3 18 1 19
REMARK H PARENT
REMARK Flexibility Score: inf
ROOT
ATOM      1  C   UNL     1     -13.923 -36.385  28.128  1.00  0.00     0.032 C 
ENDROOT
BRANCH   1   2
ATOM      2  C   UNL     1     -14.439 -34.975  27.978  1.00  0.00    -0.028 C 
ATOM      3  C   UNL     1     -13.770 -33.972  27.364  1.00  0.00    -0.077 C 
ATOM      4  C   UNL     1     -12.442 -34.204  26.682  1.00  0.00     0.039 C 
BRANCH   3   5
ATOM      5  C   UNL     1     -14.361 -32.578  27.381  1.00  0.00     0.034 C 
BRANCH   5   6
ATOM      6  C   UNL     1     -14.166 -31.908  28.746  1.00  0.00     0.032 C 
BRANCH   6   7
ATOM      7  C   UNL     1     -13.817 -32.922  29.807  1.00  0.00    -0.028 C 
ATOM      8  C   UNL     1     -15.005 -31.617  31.573  1.00  0.00     0.039 C 
ATOM      9  C   UNL     1     -14.197 -32.800  31.097  1.00  0.00    -0.080 C 
ATOM     10  C   UNL     1     -13.801 -33.877  32.074  1.00  0.00     0.039 C 
ENDBRANCH   6   7
ENDBRANCH   5   6
ENDBRANCH   3   5
ENDBRANCH   1   2
BRANCH   1  11
ATOM     11  C   UNL     1     -14.027 -36.872  29.579  1.00  0.00     0.034 C 
BRANCH  11  12
ATOM     12  C   UNL     1     -12.699 -36.775  30.304  1.00  0.00    -0.077 C 
ATOM     13  C   UNL     1     -11.737 -35.953  29.820  1.00  0.00    -0.028 C 
ATOM     14  C   UNL     1     -12.484 -37.615  31.540  1.00  0.00     0.039 C 
BRANCH  13  15
ATOM     15  C   UNL     1     -10.369 -35.785  30.435  1.00  0.00     0.035 C 
BRANCH  15  16
ATOM     16  C   UNL     1     -10.345 -34.691  31.513  1.00  0.00     0.079 C 
BRANCH  16  17
ATOM     17  C   UNL     1     -10.076 -33.323  30.938  1.00  0.00     0.130 C 
ATOM     18  O   UNL     1      -9.875 -32.381  31.689  1.00  0.00    -0.300 OA
ATOM     19  C   UNL     1     -10.096 -33.081  29.457  1.00  0.00     0.087 C 
ENDBRANCH  16  17
ENDBRANCH  15  16
ENDBRANCH  13  15
ENDBRANCH  11  12
ENDBRANCH   1  11
TORSDOF 9
ENDMDL
MODEL 8
REMARK VINA RESULT:    -6.078      1.971      5.503
REMARK INTER + INTRA:         -10.929
REMARK INTER:                  -9.102
REMARK INTRA:                  -1.827
REMARK UNBOUND:                -1.653
REMARK SMILES CC(=O)CCC=C(C)CCC=C(C)CCC=C(C)C
REMARK SMILES IDX 10 1 11 2 12 3 13 4 14 5 15 6 16 7 18 8 17 9 19 10 9 11 7 12
REMARK SMILES IDX 6 13 8 14 5 15 4 16 2 17 3 18 1 19
REMARK H PARENT
REMARK Flexibility Score: inf
ROOT
ATOM      1  C   UNL     1     -10.095 -33.427  29.130  1.00  0.00     0.032 C 
ENDROOT
BRANCH   1   2
ATOM      2  C   UNL     1     -11.201 -33.277  30.145  1.00  0.00    -0.028 C 
ATOM      3  C   UNL     1     -11.337 -34.042  31.252  1.00  0.00    -0.077 C 
ATOM      4  C   UNL     1     -10.316 -35.091  31.624  1.00  0.00     0.039 C 
BRANCH   3   5
ATOM      5  C   UNL     1     -12.557 -33.852  32.129  1.00  0.00     0.034 C 
BRANCH   5   6
ATOM      6  C   UNL     1     -13.521 -35.039  32.007  1.00  0.00     0.032 C 
BRANCH   6   7
ATOM      7  C   UNL     1     -13.821 -35.350  30.561  1.00  0.00    -0.028 C 
ATOM      8  C   UNL     1     -12.881 -37.654  30.769  1.00  0.00     0.039 C 
ATOM      9  C   UNL     1     -13.536 -36.539  29.989  1.00  0.00    -0.080 C 
ATOM     10  C   UNL     1     -13.886 -36.748  28.538  1.00  0.00     0.039 C 
ENDBRANCH   6   7
ENDBRANCH   5   6
ENDBRANCH   3   5
ENDBRANCH   1   2
BRANCH   1  11
ATOM     11  C   UNL     1     -10.401 -34.544  28.122  1.00  0.00     0.034 C 
BRANCH  11  12
ATOM     12  C   UNL     1     -11.502 -34.148  27.158  1.00  0.00    -0.077 C 
ATOM     13  C   UNL     1     -12.607 -33.525  27.632  1.00  0.00    -0.028 C 
ATOM     14  C   UNL     1     -11.339 -34.480  25.694  1.00  0.00     0.039 C 
BRANCH  13  15
ATOM     15  C   UNL     1     -13.781 -33.102  26.781  1.00  0.00     0.035 C 
BRANCH  15  16
ATOM     16  C   UNL     1     -15.031 -32.804  27.621  1.00  0.00     0.079 C 
BRANCH  16  17
ATOM     17  C   UNL     1     -14.843 -31.613  28.527  1.00  0.00     0.130 C 
ATOM     18  O   UNL     1     -14.750 -30.494  28.044  1.00  0.00    -0.300 OA
ATOM     19  C   UNL     1     -14.720 -31.775  30.014  1.00  0.00     0.087 C 
ENDBRANCH  16  17
ENDBRANCH  15  16
ENDBRANCH  13  15
ENDBRANCH  11  12
ENDBRANCH   1  11
TORSDOF 9
ENDMDL
MODEL 9
REMARK VINA RESULT:    -5.938      3.623      5.432
REMARK INTER + INTRA:         -10.715
REMARK INTER:                  -9.661
REMARK INTRA:                  -1.054
REMARK UNBOUND:                -1.653
REMARK SMILES CC(=O)CCC=C(C)CCC=C(C)CCC=C(C)C
REMARK SMILES IDX 10 1 11 2 12 3 13 4 14 5 15 6 16 7 18 8 17 9 19 10 9 11 7 12
REMARK SMILES IDX 6 13 8 14 5 15 4 16 2 17 3 18 1 19
REMARK H PARENT
REMARK Flexibility Score: inf
ROOT
ATOM      1  C   UNL     1     -14.760 -31.945  31.449  1.00  0.00     0.032 C 
ENDROOT
BRANCH   1   2
ATOM      2  C   UNL     1     -14.355 -32.389  30.065  1.00  0.00    -0.028 C 
ATOM      3  C   UNL     1     -14.672 -31.736  28.924  1.00  0.00    -0.077 C 
ATOM      4  C   UNL     1     -15.412 -30.420  28.941  1.00  0.00     0.039 C 
BRANCH   3   5
ATOM      5  C   UNL     1     -14.291 -32.355  27.595  1.00  0.00     0.034 C 
BRANCH   5   6
ATOM      6  C   UNL     1     -13.267 -33.481  27.778  1.00  0.00     0.032 C 
BRANCH   6   7
ATOM      7  C   UNL     1     -13.929 -34.836  27.710  1.00  0.00    -0.028 C 
ATOM      8  C   UNL     1     -12.597 -35.683  29.645  1.00  0.00     0.039 C 
ATOM      9  C   UNL     1     -13.632 -35.844  28.557  1.00  0.00    -0.080 C 
ATOM     10  C   UNL     1     -14.359 -37.156  28.406  1.00  0.00     0.039 C 
ENDBRANCH   6   7
ENDBRANCH   5   6
ENDBRANCH   3   5
ENDBRANCH   1   2
BRANCH   1  11
ATOM     11  C   UNL     1     -14.486 -33.034  32.494  1.00  0.00     0.034 C 
BRANCH  11  12
ATOM     12  C   UNL     1     -13.220 -32.758  33.279  1.00  0.00    -0.077 C 
ATOM     13  C   UNL     1     -13.291 -32.032  34.420  1.00  0.00    -0.028 C 
ATOM     14  C   UNL     1     -11.909 -33.291  32.752  1.00  0.00     0.039 C 
BRANCH  13  15
ATOM     15  C   UNL     1     -12.102 -31.669  35.277  1.00  0.00     0.035 C 
BRANCH  15  16
ATOM     16  C   UNL     1     -12.428 -30.557  36.285  1.00  0.00     0.079 C 
BRANCH  16  17
ATOM     17  C   UNL     1     -11.296 -30.305  37.249  1.00  0.00     0.130 C 
ATOM     18  O   UNL     1     -10.777 -29.199  37.296  1.00  0.00    -0.300 OA
ATOM     19  C   UNL     1     -10.757 -31.398  38.124  1.00  0.00     0.087 C 
ENDBRANCH  16  17
ENDBRANCH  15  16
ENDBRANCH  13  15
ENDBRANCH  11  12
ENDBRANCH   1  11
TORSDOF 9
ENDMDL
