MODEL 1
REMARK VINA RESULT:    -3.273      0.000      0.000
REMARK INTER + INTRA:          -4.107
REMARK INTER:                  -4.039
REMARK INTRA:                  -0.069
REMARK UNBOUND:                -0.069
REMARK SMILES CCCCCC(=O)[O-]
REMARK SMILES IDX 4 1 5 2 6 3 7 4 8 5 3 6 2 7 1 8
REMARK H PARENT
REMARK Flexibility Score: inf
ROOT
ATOM      1  C   UNL     1      -8.585  -1.132 -23.987  1.00  0.00     0.006 C 
ENDROOT
BRANCH   1   2
ATOM      2  C   UNL     1      -7.424  -2.132 -24.062  1.00  0.00     0.053 C 
BRANCH   2   3
ATOM      3  C   UNL     1      -6.432  -1.861 -22.975  1.00  0.00     0.041 C 
ATOM      4  O   UNL     1      -5.630  -2.760 -22.610  1.00  0.00    -0.550 OA
ATOM      5  O   UNL     1      -6.361  -0.599 -22.397  1.00  0.00    -0.550 OA
ENDBRANCH   2   3
ENDBRANCH   1   2
BRANCH   1   6
ATOM      6  C   UNL     1      -8.836  -0.415 -25.323  1.00  0.00     0.000 C 
BRANCH   6   7
ATOM      7  C   UNL     1     -10.311  -0.037 -25.523  1.00  0.00    -0.003 C 
ATOM      8  C   UNL     1     -10.541   0.564 -26.906  1.00  0.00     0.004 C 
ENDBRANCH   6   7
ENDBRANCH   1   6
TORSDOF 4
ENDMDL
MODEL 2
REMARK VINA RESULT:    -3.205     11.873     12.741
REMARK INTER + INTRA:          -4.023
REMARK INTER:                  -3.760
REMARK INTRA:                  -0.264
REMARK UNBOUND:                -0.069
REMARK SMILES CCCCCC(=O)[O-]
REMARK SMILES IDX 4 1 5 2 6 3 7 4 8 5 3 6 2 7 1 8
REMARK H PARENT
REMARK Flexibility Score: inf
ROOT
ATOM      1  C   UNL     1     -21.244   2.277 -25.102  1.00  0.00     0.006 C 
ENDROOT
BRANCH   1   2
ATOM      2  C   UNL     1     -20.973   0.959 -25.839  1.00  0.00     0.053 C 
BRANCH   2   3
ATOM      3  C   UNL     1     -19.766   0.283 -25.270  1.00  0.00     0.041 C 
ATOM      4  O   UNL     1     -19.774  -0.132 -24.081  1.00  0.00    -0.550 OA
ATOM      5  O   UNL     1     -18.649   0.066 -26.068  1.00  0.00    -0.550 OA
ENDBRANCH   2   3
ENDBRANCH   1   2
BRANCH   1   6
ATOM      6  C   UNL     1     -20.035   3.226 -25.122  1.00  0.00     0.000 C 
BRANCH   6   7
ATOM      7  C   UNL     1     -19.764   3.866 -23.753  1.00  0.00    -0.003 C 
ATOM      8  C   UNL     1     -20.372   3.035 -22.627  1.00  0.00     0.004 C 
ENDBRANCH   6   7
ENDBRANCH   1   6
TORSDOF 4
ENDMDL
MODEL 3
REMARK VINA RESULT:    -3.198     11.851     12.955
REMARK INTER + INTRA:          -4.014
REMARK INTER:                  -3.953
REMARK INTRA:                  -0.062
REMARK UNBOUND:                -0.069
REMARK SMILES CCCCCC(=O)[O-]
REMARK SMILES IDX 4 1 5 2 6 3 7 4 8 5 3 6 2 7 1 8
REMARK H PARENT
REMARK Flexibility Score: inf
ROOT
ATOM      1  C   UNL     1     -20.214   2.956 -23.994  1.00  0.00     0.006 C 
ENDROOT
BRANCH   1   2
ATOM      2  C   UNL     1     -20.635   1.866 -24.989  1.00  0.00     0.053 C 
BRANCH   2   3
ATOM      3  C   UNL     1     -19.669   0.724 -24.950  1.00  0.00     0.041 C 
ATOM      4  O   UNL     1     -19.794  -0.182 -24.085  1.00  0.00    -0.550 OA
ATOM      5  O   UNL     1     -18.658   0.635 -25.900  1.00  0.00    -0.550 OA
ENDBRANCH   2   3
ENDBRANCH   1   2
BRANCH   1   6
ATOM      6  C   UNL     1     -20.875   2.785 -22.616  1.00  0.00     0.000 C 
BRANCH   6   7
ATOM      7  C   UNL     1     -20.410   3.841 -21.603  1.00  0.00    -0.003 C 
ATOM      8  C   UNL     1     -20.161   3.215 -20.234  1.00  0.00     0.004 C 
ENDBRANCH   6   7
ENDBRANCH   1   6
TORSDOF 4
ENDMDL
MODEL 4
REMARK VINA RESULT:    -3.120      2.488      3.843
REMARK INTER + INTRA:          -3.918
REMARK INTER:                  -3.821
REMARK INTRA:                  -0.097
REMARK UNBOUND:                -0.069
REMARK SMILES CCCCCC(=O)[O-]
REMARK SMILES IDX 4 1 5 2 6 3 7 4 8 5 3 6 2 7 1 8
REMARK H PARENT
REMARK Flexibility Score: inf
ROOT
ATOM      1  C   UNL     1      -7.050  -3.347 -24.885  1.00  0.00     0.006 C 
ENDROOT
BRANCH   1   2
ATOM      2  C   UNL     1      -7.480  -2.181 -23.984  1.00  0.00     0.053 C 
BRANCH   2   3
ATOM      3  C   UNL     1      -6.431  -1.904 -22.955  1.00  0.00     0.041 C 
ATOM      4  O   UNL     1      -5.615  -2.804 -22.623  1.00  0.00    -0.550 OA
ATOM      5  O   UNL     1      -6.322  -0.636 -22.397  1.00  0.00    -0.550 OA
ENDBRANCH   2   3
ENDBRANCH   1   2
BRANCH   1   6
ATOM      6  C   UNL     1      -8.234  -4.225 -25.321  1.00  0.00     0.000 C 
BRANCH   6   7
ATOM      7  C   UNL     1      -7.787  -5.570 -25.911  1.00  0.00    -0.003 C 
ATOM      8  C   UNL     1      -6.265  -5.670 -25.958  1.00  0.00     0.004 C 
ENDBRANCH   6   7
ENDBRANCH   1   6
TORSDOF 4
ENDMDL
MODEL 5
REMARK VINA RESULT:    -3.097     11.614     13.131
REMARK INTER + INTRA:          -3.889
REMARK INTER:                  -3.745
REMARK INTRA:                  -0.145
REMARK UNBOUND:                -0.069
REMARK SMILES CCCCCC(=O)[O-]
REMARK SMILES IDX 4 1 5 2 6 3 7 4 8 5 3 6 2 7 1 8
REMARK H PARENT
REMARK Flexibility Score: inf
ROOT
ATOM      1  C   UNL     1     -20.419   1.107 -27.790  1.00  0.00     0.006 C 
ENDROOT
BRANCH   1   2
ATOM      2  C   UNL     1     -20.589  -0.246 -27.088  1.00  0.00     0.053 C 
BRANCH   2   3
ATOM      3  C   UNL     1     -19.437  -0.504 -26.169  1.00  0.00     0.041 C 
ATOM      4  O   UNL     1     -18.437  -1.154 -26.573  1.00  0.00    -0.550 OA
ATOM      5  O   UNL     1     -19.445   0.015 -24.880  1.00  0.00    -0.550 OA
ENDBRANCH   2   3
ENDBRANCH   1   2
BRANCH   1   6
ATOM      6  C   UNL     1     -21.621   2.041 -27.573  1.00  0.00     0.000 C 
BRANCH   6   7
ATOM      7  C   UNL     1     -22.155   1.991 -26.135  1.00  0.00    -0.003 C 
ATOM      8  C   UNL     1     -23.501   2.700 -26.024  1.00  0.00     0.004 C 
ENDBRANCH   6   7
ENDBRANCH   1   6
TORSDOF 4
ENDMDL
MODEL 6
REMARK VINA RESULT:    -3.081      1.255      2.104
REMARK INTER + INTRA:          -3.870
REMARK INTER:                  -3.657
REMARK INTRA:                  -0.213
REMARK UNBOUND:                -0.069
REMARK SMILES CCCCCC(=O)[O-]
REMARK SMILES IDX 4 1 5 2 6 3 7 4 8 5 3 6 2 7 1 8
REMARK H PARENT
REMARK Flexibility Score: inf
ROOT
ATOM      1  C   UNL     1      -8.566  -1.288 -24.171  1.00  0.00     0.006 C 
ENDROOT
BRANCH   1   2
ATOM      2  C   UNL     1      -7.069  -1.585 -24.333  1.00  0.00     0.053 C 
BRANCH   2   3
ATOM      3  C   UNL     1      -6.391  -1.584 -22.999  1.00  0.00     0.041 C 
ATOM      4  O   UNL     1      -6.462  -0.572 -22.253  1.00  0.00    -0.550 OA
ATOM      5  O   UNL     1      -5.722  -2.719 -22.558  1.00  0.00    -0.550 OA
ENDBRANCH   2   3
ENDBRANCH   1   2
BRANCH   1   6
ATOM      6  C   UNL     1      -8.972   0.058 -24.794  1.00  0.00     0.000 C 
BRANCH   6   7
ATOM      7  C   UNL     1      -7.771   0.838 -25.349  1.00  0.00    -0.003 C 
ATOM      8  C   UNL     1      -7.594   2.166 -24.619  1.00  0.00     0.004 C 
ENDBRANCH   6   7
ENDBRANCH   1   6
TORSDOF 4
ENDMDL
MODEL 7
REMARK VINA RESULT:    -3.069     11.622     12.748
REMARK INTER + INTRA:          -3.856
REMARK INTER:                  -3.646
REMARK INTRA:                  -0.209
REMARK UNBOUND:                -0.069
REMARK SMILES CCCCCC(=O)[O-]
REMARK SMILES IDX 4 1 5 2 6 3 7 4 8 5 3 6 2 7 1 8
REMARK H PARENT
REMARK Flexibility Score: inf
ROOT
ATOM      1  C   UNL     1     -21.565   0.995 -26.072  1.00  0.00     0.006 C 
ENDROOT
BRANCH   1   2
ATOM      2  C   UNL     1     -20.454   0.340 -26.905  1.00  0.00     0.053 C 
BRANCH   2   3
ATOM      3  C   UNL     1     -19.452  -0.317 -26.010  1.00  0.00     0.041 C 
ATOM      4  O   UNL     1     -19.527  -0.175 -24.762  1.00  0.00    -0.550 OA
ATOM      5  O   UNL     1     -18.462  -1.128 -26.552  1.00  0.00    -0.550 OA
ENDBRANCH   2   3
ENDBRANCH   1   2
BRANCH   1   6
ATOM      6  C   UNL     1     -21.407   2.520 -25.970  1.00  0.00     0.000 C 
BRANCH   6   7
ATOM      7  C   UNL     1     -21.025   2.981 -24.556  1.00  0.00    -0.003 C 
ATOM      8  C   UNL     1     -19.625   3.588 -24.535  1.00  0.00     0.004 C 
ENDBRANCH   6   7
ENDBRANCH   1   6
TORSDOF 4
ENDMDL
MODEL 8
REMARK VINA RESULT:    -3.013      2.981      4.214
REMARK INTER + INTRA:          -3.787
REMARK INTER:                  -3.689
REMARK INTRA:                  -0.098
REMARK UNBOUND:                -0.069
REMARK SMILES CCCCCC(=O)[O-]
REMARK SMILES IDX 4 1 5 2 6 3 7 4 8 5 3 6 2 7 1 8
REMARK H PARENT
REMARK Flexibility Score: inf
ROOT
ATOM      1  C   UNL     1      -5.915   0.237 -23.105  1.00  0.00     0.006 C 
ENDROOT
BRANCH   1   2
ATOM      2  C   UNL     1      -7.003  -0.798 -22.789  1.00  0.00     0.053 C 
BRANCH   2   3
ATOM      3  C   UNL     1      -6.535  -2.172 -23.150  1.00  0.00     0.041 C 
ATOM      4  O   UNL     1      -5.488  -2.641 -22.633  1.00  0.00    -0.550 OA
ATOM      5  O   UNL     1      -7.283  -2.955 -24.022  1.00  0.00    -0.550 OA
ENDBRANCH   2   3
ENDBRANCH   1   2
BRANCH   1   6
ATOM      6  C   UNL     1      -6.468   1.668 -23.194  1.00  0.00     0.000 C 
BRANCH   6   7
ATOM      7  C   UNL     1      -5.628   2.677 -22.398  1.00  0.00    -0.003 C 
ATOM      8  C   UNL     1      -4.892   1.993 -21.249  1.00  0.00     0.004 C 
ENDBRANCH   6   7
ENDBRANCH   1   6
TORSDOF 4
ENDMDL
MODEL 9
REMARK VINA RESULT:    -3.013      9.635     10.376
REMARK INTER + INTRA:          -3.786
REMARK INTER:                  -3.665
REMARK INTRA:                  -0.121
REMARK UNBOUND:                -0.069
REMARK SMILES CCCCCC(=O)[O-]
REMARK SMILES IDX 4 1 5 2 6 3 7 4 8 5 3 6 2 7 1 8
REMARK H PARENT
REMARK Flexibility Score: inf
ROOT
ATOM      1  C   UNL     1     -11.522  -9.665 -27.762  1.00  0.00     0.006 C 
ENDROOT
BRANCH   1   2
ATOM      2  C   UNL     1     -10.150  -9.849 -27.099  1.00  0.00     0.053 C 
BRANCH   2   3
ATOM      3  C   UNL     1     -10.072  -9.053 -25.835  1.00  0.00     0.041 C 
ATOM      4  O   UNL     1     -10.063  -9.637 -24.719  1.00  0.00    -0.550 OA
ATOM      5  O   UNL     1      -9.961  -7.669 -25.889  1.00  0.00    -0.550 OA
ENDBRANCH   2   3
ENDBRANCH   1   2
BRANCH   1   6
ATOM      6  C   UNL     1     -12.340 -10.966 -27.797  1.00  0.00     0.000 C 
BRANCH   6   7
ATOM      7  C   UNL     1     -11.741 -12.065 -26.909  1.00  0.00    -0.003 C 
ATOM      8  C   UNL     1     -12.805 -13.076 -26.491  1.00  0.00     0.004 C 
ENDBRANCH   6   7
ENDBRANCH   1   6
TORSDOF 4
ENDMDL
