MODEL 1
REMARK VINA RESULT:     2.606      0.000      0.000
REMARK INTER + INTRA:           2.742
REMARK INTER:                   2.758
REMARK INTRA:                  -0.017
REMARK UNBOUND:                -0.017
REMARK SMILES O=C([O-])c1cccnc1
REMARK SMILES IDX 4 1 5 2 9 3 6 4 8 5 7 6 2 7 1 8 3 9
REMARK H PARENT
REMARK Flexibility Score: inf
ROOT
ATOM      1  C   UNL     1     -37.110  16.851  17.688  1.00  0.00     0.016 A 
ATOM      2  C   UNL     1     -36.605  18.109  18.057  1.00  0.00     0.013 A 
ATOM      3  C   UNL     1     -36.272  15.978  16.971  1.00  0.00     0.120 A 
ATOM      4  C   UNL     1     -35.300  18.468  17.715  1.00  0.00     0.021 A 
ATOM      5  N   UNL     1     -35.004  16.353  16.651  1.00  0.00    -0.264 NA
ATOM      6  C   UNL     1     -34.507  17.568  17.003  1.00  0.00     0.111 A 
ENDROOT
BRANCH   1   7
ATOM      7  C   UNL     1     -38.491  16.459  18.044  1.00  0.00     0.073 C 
ATOM      8  O   UNL     1     -38.701  15.579  18.920  1.00  0.00    -0.545 OA
ATOM      9  O   UNL     1     -39.577  17.059  17.417  1.00  0.00    -0.545 OA
ENDBRANCH   1   7
TORSDOF 1
ENDMDL
MODEL 2
REMARK VINA RESULT:     4.661      2.773      3.778
REMARK INTER + INTRA:           4.917
REMARK INTER:                   4.934
REMARK INTRA:                  -0.016
REMARK UNBOUND:                -0.017
REMARK SMILES O=C([O-])c1cccnc1
REMARK SMILES IDX 4 1 5 2 9 3 6 4 8 5 7 6 2 7 1 8 3 9
REMARK H PARENT
REMARK Flexibility Score: inf
ROOT
ATOM      1  C   UNL     1     -37.239  16.862  17.699  1.00  0.00     0.016 A 
ATOM      2  C   UNL     1     -38.303  17.607  17.166  1.00  0.00     0.013 A 
ATOM      3  C   UNL     1     -37.539  15.767  18.528  1.00  0.00     0.120 A 
ATOM      4  C   UNL     1     -39.622  17.255  17.462  1.00  0.00     0.021 A 
ATOM      5  N   UNL     1     -38.832  15.445  18.800  1.00  0.00    -0.264 NA
ATOM      6  C   UNL     1     -39.869  16.160  18.290  1.00  0.00     0.111 A 
ENDROOT
BRANCH   1   7
ATOM      7  C   UNL     1     -35.838  17.225  17.394  1.00  0.00     0.073 C 
ATOM      8  O   UNL     1     -35.170  16.555  16.563  1.00  0.00    -0.545 OA
ATOM      9  O   UNL     1     -35.241  18.312  18.020  1.00  0.00    -0.545 OA
ENDBRANCH   1   7
TORSDOF 1
ENDMDL
