MODEL 1
REMARK VINA RESULT:    -2.234      0.000      0.000
REMARK INTER + INTRA:          -3.243
REMARK INTER:                  -2.756
REMARK INTRA:                  -0.487
REMARK UNBOUND:                -0.487
REMARK SMILES C=CC[C@H](C)C(=O)CC
REMARK SMILES IDX 4 1 5 2 6 3 7 4 8 5 9 6 3 7 2 8 1 9
REMARK H PARENT
REMARK Flexibility Score: inf
ROOT
ATOM      1  C   UNL     1     154.923 151.875 149.159  1.00  0.00     0.057 C 
ATOM      2  C   UNL     1     155.606 152.782 150.189  1.00  0.00     0.016 C 
ENDROOT
BRANCH   1   3
ATOM      3  C   UNL     1     155.350 152.273 147.760  1.00  0.00     0.135 C 
ATOM      4  O   UNL     1     156.430 152.820 147.589  1.00  0.00    -0.299 OA
BRANCH   3   5
ATOM      5  C   UNL     1     154.474 151.988 146.567  1.00  0.00     0.072 C 
ATOM      6  C   UNL     1     154.118 153.274 145.831  1.00  0.00     0.012 C 
ENDBRANCH   3   5
ENDBRANCH   1   3
BRANCH   1   7
ATOM      7  C   UNL     1     153.391 151.936 149.317  1.00  0.00     0.038 C 
BRANCH   7   8
ATOM      8  C   UNL     1     152.944 153.284 149.818  1.00  0.00    -0.034 C 
ATOM      9  C   UNL     1     152.296 154.150 149.033  1.00  0.00     0.004 C 
ENDBRANCH   7   8
ENDBRANCH   1   7
TORSDOF 4
ENDMDL
MODEL 2
REMARK VINA RESULT:    -2.203     23.322     24.193
REMARK INTER + INTRA:          -3.204
REMARK INTER:                  -2.723
REMARK INTRA:                  -0.481
REMARK UNBOUND:                -0.487
REMARK SMILES C=CC[C@H](C)C(=O)CC
REMARK SMILES IDX 4 1 5 2 6 3 7 4 8 5 9 6 3 7 2 8 1 9
REMARK H PARENT
REMARK Flexibility Score: inf
ROOT
ATOM      1  C   UNL     1     168.871 172.124 148.879  1.00  0.00     0.057 C 
ATOM      2  C   UNL     1     168.190 171.018 149.693  1.00  0.00     0.016 C 
ENDROOT
BRANCH   1   3
ATOM      3  C   UNL     1     168.559 171.945 147.406  1.00  0.00     0.135 C 
ATOM      4  O   UNL     1     167.402 171.782 147.048  1.00  0.00    -0.299 OA
BRANCH   3   5
ATOM      5  C   UNL     1     169.650 171.986 146.368  1.00  0.00     0.072 C 
ATOM      6  C   UNL     1     169.882 170.605 145.764  1.00  0.00     0.012 C 
ENDBRANCH   3   5
ENDBRANCH   1   3
BRANCH   1   7
ATOM      7  C   UNL     1     170.391 172.125 149.134  1.00  0.00     0.038 C 
BRANCH   7   8
ATOM      8  C   UNL     1     170.850 170.816 149.721  1.00  0.00    -0.034 C 
ATOM      9  C   UNL     1     171.673 169.995 149.061  1.00  0.00     0.004 C 
ENDBRANCH   7   8
ENDBRANCH   1   7
TORSDOF 4
ENDMDL
MODEL 3
REMARK VINA RESULT:    -2.196     23.565     24.219
REMARK INTER + INTRA:          -3.197
REMARK INTER:                  -2.979
REMARK INTRA:                  -0.218
REMARK UNBOUND:                -0.487
REMARK SMILES C=CC[C@H](C)C(=O)CC
REMARK SMILES IDX 4 1 5 2 6 3 7 4 8 5 9 6 3 7 2 8 1 9
REMARK H PARENT
REMARK Flexibility Score: inf
ROOT
ATOM      1  C   UNL     1     171.285 170.651 149.225  1.00  0.00     0.057 C 
ATOM      2  C   UNL     1     170.888 172.111 149.469  1.00  0.00     0.016 C 
ENDROOT
BRANCH   1   3
ATOM      3  C   UNL     1     170.538 170.109 148.022  1.00  0.00     0.135 C 
ATOM      4  O   UNL     1     170.890 169.052 147.518  1.00  0.00    -0.299 OA
BRANCH   3   5
ATOM      5  C   UNL     1     169.352 170.839 147.448  1.00  0.00     0.072 C 
ATOM      6  C   UNL     1     169.641 171.320 146.030  1.00  0.00     0.012 C 
ENDBRANCH   3   5
ENDBRANCH   1   3
BRANCH   1   7
ATOM      7  C   UNL     1     171.017 169.801 150.482  1.00  0.00     0.038 C 
BRANCH   7   8
ATOM      8  C   UNL     1     170.669 170.665 151.666  1.00  0.00    -0.034 C 
ATOM      9  C   UNL     1     171.144 170.412 152.889  1.00  0.00     0.004 C 
ENDBRANCH   7   8
ENDBRANCH   1   7
TORSDOF 4
ENDMDL
MODEL 4
REMARK VINA RESULT:    -2.133     23.406     24.370
REMARK INTER + INTRA:          -3.119
REMARK INTER:                  -2.681
REMARK INTRA:                  -0.438
REMARK UNBOUND:                -0.487
REMARK SMILES C=CC[C@H](C)C(=O)CC
REMARK SMILES IDX 4 1 5 2 6 3 7 4 8 5 9 6 3 7 2 8 1 9
REMARK H PARENT
REMARK Flexibility Score: inf
ROOT
ATOM      1  C   UNL     1     169.703 170.579 151.023  1.00  0.00     0.057 C 
ATOM      2  C   UNL     1     168.332 171.200 150.732  1.00  0.00     0.016 C 
ENDROOT
BRANCH   1   3
ATOM      3  C   UNL     1     169.919 170.490 152.521  1.00  0.00     0.135 C 
ATOM      4  O   UNL     1     168.968 170.617 153.279  1.00  0.00    -0.299 OA
BRANCH   3   5
ATOM      5  C   UNL     1     171.286 170.222 153.096  1.00  0.00     0.072 C 
ATOM      6  C   UNL     1     171.689 168.767 152.893  1.00  0.00     0.012 C 
ENDBRANCH   3   5
ENDBRANCH   1   3
BRANCH   1   7
ATOM      7  C   UNL     1     170.820 171.394 150.343  1.00  0.00     0.038 C 
BRANCH   7   8
ATOM      8  C   UNL     1     171.345 170.691 149.119  1.00  0.00    -0.034 C 
ATOM      9  C   UNL     1     171.852 169.456 149.176  1.00  0.00     0.004 C 
ENDBRANCH   7   8
ENDBRANCH   1   7
TORSDOF 4
ENDMDL
MODEL 5
REMARK VINA RESULT:    -2.127      1.610      2.365
REMARK INTER + INTRA:          -3.111
REMARK INTER:                  -2.889
REMARK INTRA:                  -0.222
REMARK UNBOUND:                -0.487
REMARK SMILES C=CC[C@H](C)C(=O)CC
REMARK SMILES IDX 4 1 5 2 6 3 7 4 8 5 9 6 3 7 2 8 1 9
REMARK H PARENT
REMARK Flexibility Score: inf
ROOT
ATOM      1  C   UNL     1     152.941 153.361 149.050  1.00  0.00     0.057 C 
ATOM      2  C   UNL     1     153.051 151.876 149.411  1.00  0.00     0.016 C 
ENDROOT
BRANCH   1   3
ATOM      3  C   UNL     1     154.052 153.741 148.092  1.00  0.00     0.135 C 
ATOM      4  O   UNL     1     155.129 154.119 148.533  1.00  0.00    -0.299 OA
BRANCH   3   5
ATOM      5  C   UNL     1     153.864 153.642 146.601  1.00  0.00     0.072 C 
ATOM      6  C   UNL     1     154.571 152.413 146.041  1.00  0.00     0.012 C 
ENDBRANCH   3   5
ENDBRANCH   1   3
BRANCH   1   7
ATOM      7  C   UNL     1     152.974 154.231 150.322  1.00  0.00     0.038 C 
BRANCH   7   8
ATOM      8  C   UNL     1     153.309 153.410 151.539  1.00  0.00    -0.034 C 
ATOM      9  C   UNL     1     152.863 153.736 152.756  1.00  0.00     0.004 C 
ENDBRANCH   7   8
ENDBRANCH   1   7
TORSDOF 4
ENDMDL
MODEL 6
REMARK VINA RESULT:    -2.115      2.935      4.457
REMARK INTER + INTRA:          -3.097
REMARK INTER:                  -2.648
REMARK INTRA:                  -0.448
REMARK UNBOUND:                -0.487
REMARK SMILES C=CC[C@H](C)C(=O)CC
REMARK SMILES IDX 4 1 5 2 6 3 7 4 8 5 9 6 3 7 2 8 1 9
REMARK H PARENT
REMARK Flexibility Score: inf
ROOT
ATOM      1  C   UNL     1     154.297 153.453 151.068  1.00  0.00     0.057 C 
ATOM      2  C   UNL     1     155.684 152.860 150.799  1.00  0.00     0.016 C 
ENDROOT
BRANCH   1   3
ATOM      3  C   UNL     1     154.055 153.538 152.562  1.00  0.00     0.135 C 
ATOM      4  O   UNL     1     154.996 153.428 153.335  1.00  0.00    -0.299 OA
BRANCH   3   5
ATOM      5  C   UNL     1     152.674 153.777 153.116  1.00  0.00     0.072 C 
ATOM      6  C   UNL     1     152.278 155.243 152.980  1.00  0.00     0.012 C 
ENDBRANCH   3   5
ENDBRANCH   1   3
BRANCH   1   7
ATOM      7  C   UNL     1     153.207 152.618 150.370  1.00  0.00     0.038 C 
BRANCH   7   8
ATOM      8  C   UNL     1     152.642 153.340 149.175  1.00  0.00    -0.034 C 
ATOM      9  C   UNL     1     152.258 154.619 149.239  1.00  0.00     0.004 C 
ENDBRANCH   7   8
ENDBRANCH   1   7
TORSDOF 4
ENDMDL
MODEL 7
REMARK VINA RESULT:    -2.080     23.118     24.015
REMARK INTER + INTRA:          -3.053
REMARK INTER:                  -2.671
REMARK INTRA:                  -0.382
REMARK UNBOUND:                -0.487
REMARK SMILES C=CC[C@H](C)C(=O)CC
REMARK SMILES IDX 4 1 5 2 6 3 7 4 8 5 9 6 3 7 2 8 1 9
REMARK H PARENT
REMARK Flexibility Score: inf
ROOT
ATOM      1  C   UNL     1     170.202 169.953 148.314  1.00  0.00     0.057 C 
ATOM      2  C   UNL     1     170.450 168.464 148.048  1.00  0.00     0.016 C 
ENDROOT
BRANCH   1   3
ATOM      3  C   UNL     1     169.962 170.677 147.004  1.00  0.00     0.135 C 
ATOM      4  O   UNL     1     170.363 170.185 145.959  1.00  0.00    -0.299 OA
BRANCH   3   5
ATOM      5  C   UNL     1     169.216 171.985 146.962  1.00  0.00     0.072 C 
ATOM      6  C   UNL     1     168.029 171.968 147.917  1.00  0.00     0.012 C 
ENDBRANCH   3   5
ENDBRANCH   1   3
BRANCH   1   7
ATOM      7  C   UNL     1     171.385 170.568 149.087  1.00  0.00     0.038 C 
BRANCH   7   8
ATOM      8  C   UNL     1     170.910 171.389 150.257  1.00  0.00    -0.034 C 
ATOM      9  C   UNL     1     170.650 170.839 151.447  1.00  0.00     0.004 C 
ENDBRANCH   7   8
ENDBRANCH   1   7
TORSDOF 4
ENDMDL
MODEL 8
REMARK VINA RESULT:    -2.074     23.489     24.258
REMARK INTER + INTRA:          -3.046
REMARK INTER:                  -2.822
REMARK INTRA:                  -0.224
REMARK UNBOUND:                -0.487
REMARK SMILES C=CC[C@H](C)C(=O)CC
REMARK SMILES IDX 4 1 5 2 6 3 7 4 8 5 9 6 3 7 2 8 1 9
REMARK H PARENT
REMARK Flexibility Score: inf
ROOT
ATOM      1  C   UNL     1     169.711 171.934 148.959  1.00  0.00     0.057 C 
ATOM      2  C   UNL     1     168.360 171.528 149.558  1.00  0.00     0.016 C 
ENDROOT
BRANCH   1   3
ATOM      3  C   UNL     1     169.862 171.334 147.575  1.00  0.00     0.135 C 
ATOM      4  O   UNL     1     170.257 170.184 147.454  1.00  0.00    -0.299 OA
BRANCH   3   5
ATOM      5  C   UNL     1     169.512 172.125 146.341  1.00  0.00     0.072 C 
ATOM      6  C   UNL     1     168.238 171.593 145.695  1.00  0.00     0.012 C 
ENDBRANCH   3   5
ENDBRANCH   1   3
BRANCH   1   7
ATOM      7  C   UNL     1     170.865 171.503 149.886  1.00  0.00     0.038 C 
BRANCH   7   8
ATOM      8  C   UNL     1     170.363 170.670 151.036  1.00  0.00    -0.034 C 
ATOM      9  C   UNL     1     171.004 170.625 152.208  1.00  0.00     0.004 C 
ENDBRANCH   7   8
ENDBRANCH   1   7
TORSDOF 4
ENDMDL
MODEL 9
REMARK VINA RESULT:    -1.220      1.672      3.040
REMARK INTER + INTRA:          -1.992
REMARK INTER:                  -1.558
REMARK INTRA:                  -0.434
REMARK UNBOUND:                -0.487
REMARK SMILES C=CC[C@H](C)C(=O)CC
REMARK SMILES IDX 4 1 5 2 6 3 7 4 8 5 9 6 3 7 2 8 1 9
REMARK H PARENT
REMARK Flexibility Score: inf
ROOT
ATOM      1  C   UNL     1     153.471 153.576 149.696  1.00  0.00     0.057 C 
ATOM      2  C   UNL     1     152.262 154.202 148.992  1.00  0.00     0.016 C 
ENDROOT
BRANCH   1   3
ATOM      3  C   UNL     1     154.294 152.783 148.700  1.00  0.00     0.135 C 
ATOM      4  O   UNL     1     154.067 152.894 147.504  1.00  0.00    -0.299 OA
BRANCH   3   5
ATOM      5  C   UNL     1     155.406 151.875 149.156  1.00  0.00     0.072 C 
ATOM      6  C   UNL     1     156.583 152.680 149.694  1.00  0.00     0.012 C 
ENDBRANCH   3   5
ENDBRANCH   1   3
BRANCH   1   7
ATOM      7  C   UNL     1     153.012 152.693 150.873  1.00  0.00     0.038 C 
BRANCH   7   8
ATOM      8  C   UNL     1     153.224 153.384 152.194  1.00  0.00    -0.034 C 
ATOM      9  C   UNL     1     154.438 153.754 152.612  1.00  0.00     0.004 C 
ENDBRANCH   7   8
ENDBRANCH   1   7
TORSDOF 4
ENDMDL
