MODEL 1
REMARK VINA RESULT:    -8.313      0.000      0.000
REMARK INTER + INTRA:         -16.514
REMARK INTER:                 -13.660
REMARK INTRA:                  -2.854
REMARK UNBOUND:                -2.854
REMARK SMILES C[C@H]1O[C@@H](OC[C@@H]2O[C@H](Oc3c(-c4ccc(O)c(O)c4)oc4cc(O)cc(O)c4c3=O)[C@@H](O)[C@@H](O)[C@@H]2O)[C@@H](O)[C@@H](O)[C@@H]1O
REMARK SMILES IDX 7 1 36 2 34 3 32 4 9 5 8 6 6 7 5 8 4 9 1 10 2 11 42 12 3 13
REMARK SMILES IDX 40 14 38 15 43 16 41 18 39 20 37 22 35 24 10 26 11 27 12 28
REMARK SMILES IDX 30 29 21 30 29 31 31 32 22 33 27 34 23 35 26 36 24 37 13 38
REMARK SMILES IDX 20 39 14 40 18 41 15 42 16 43 19 44 17 46 28 48 25 50 33 52
REMARK H PARENT 43 17 41 19 39 21 37 23 35 25 19 45 17 47 28 49 25 51 33 53
REMARK Flexibility Score: inf
ROOT
ATOM      1  C   UNL     1       4.058  -2.528  20.146  1.00  0.00     0.180 C 
ATOM      2  C   UNL     1       4.287  -3.274  18.794  1.00  0.00     0.177 C 
ATOM      3  C   UNL     1       5.158  -4.537  18.889  1.00  0.00     0.180 C 
ATOM      4  C   UNL     1       4.715  -5.402  20.070  1.00  0.00     0.214 C 
ATOM      5  C   UNL     1       4.017  -4.729  21.407  1.00  0.00     0.339 C 
ATOM      6  O   UNL     1       3.603  -3.339  21.289  1.00  0.00    -0.332 OA
ENDROOT
BRANCH   1   7
ATOM      7  C   UNL     1       5.230  -1.580  20.547  1.00  0.00     0.198 C 
BRANCH   7   8
ATOM      8  O   UNL     1       4.725  -0.187  20.771  1.00  0.00    -0.347 OA
BRANCH   8   9
ATOM      9  C   UNL     1       4.861   0.648  19.612  1.00  0.00     0.281 C 
ATOM     10  C   UNL     1       5.127   2.681  22.150  1.00  0.00     0.041 C 
ATOM     11  C   UNL     1       4.910   2.785  20.639  1.00  0.00     0.150 C 
ATOM     12  C   UNL     1       3.425   3.040  20.246  1.00  0.00     0.174 C 
ATOM     13  O   UNL     1       5.647   1.788  19.956  1.00  0.00    -0.344 OA
ATOM     14  C   UNL     1       2.627   1.821  19.736  1.00  0.00     0.179 C 
ATOM     15  C   UNL     1       3.548   1.007  18.852  1.00  0.00     0.202 C 
BRANCH  12  16
ATOM     16  O   UNL     1       3.282   4.151  19.323  1.00  0.00    -0.388 OA
ATOM     17  H   UNL     1       2.840   4.870  19.847  1.00  0.00     0.211 HD
ENDBRANCH  12  16
BRANCH  14  18
ATOM     18  O   UNL     1       2.019   1.137  20.790  1.00  0.00    -0.387 OA
ATOM     19  H   UNL     1       2.342   0.212  20.768  1.00  0.00     0.211 HD
ENDBRANCH  14  18
BRANCH  15  20
ATOM     20  O   UNL     1       2.853  -0.128  18.303  1.00  0.00    -0.385 OA
ATOM     21  H   UNL     1       2.685  -0.723  19.077  1.00  0.00     0.211 HD
ENDBRANCH  15  20
ENDBRANCH   8   9
ENDBRANCH   7   8
ENDBRANCH   1   7
BRANCH   2  22
ATOM     22  O   UNL     1       4.817  -2.366  17.831  1.00  0.00    -0.387 OA
ATOM     23  H   UNL     1       5.622  -2.859  17.440  1.00  0.00     0.211 HD
ENDBRANCH   2  22
BRANCH   3  24
ATOM     24  O   UNL     1       5.077  -5.219  17.655  1.00  0.00    -0.387 OA
ATOM     25  H   UNL     1       4.234  -5.785  17.679  1.00  0.00     0.211 HD
ENDBRANCH   3  24
BRANCH   5  26
ATOM     26  O   UNL     1       4.534  -5.087  22.781  1.00  0.00    -0.454 OA
BRANCH  26  27
ATOM     27  C   UNL     1       3.880  -4.962  24.050  1.00  0.00     0.214 A 
ATOM     28  C   UNL     1       2.503  -4.727  24.651  1.00  0.00     0.180 A 
ATOM     29  C   UNL     1       4.561  -5.314  25.060  1.00  0.00     0.239 A 
ATOM     30  O   UNL     1       2.452  -4.489  26.043  1.00  0.00    -0.452 OA
ATOM     31  C   UNL     1       4.763  -4.235  25.969  1.00  0.00     0.111 A 
ATOM     32  O   UNL     1       4.613  -6.521  25.352  1.00  0.00    -0.285 OA
ATOM     33  C   UNL     1       3.597  -4.202  26.745  1.00  0.00     0.146 A 
ATOM     34  C   UNL     1       5.163  -2.899  25.553  1.00  0.00     0.134 A 
ATOM     35  C   UNL     1       3.507  -3.309  27.789  1.00  0.00     0.094 A 
ATOM     36  C   UNL     1       4.843  -1.817  26.401  1.00  0.00     0.093 A 
ATOM     37  C   UNL     1       4.074  -2.033  27.547  1.00  0.00     0.123 A 
BRANCH  28  38
ATOM     38  C   UNL     1       1.434  -4.020  23.993  1.00  0.00     0.025 A 
ATOM     39  C   UNL     1       1.635  -2.636  23.733  1.00  0.00     0.062 A 
ATOM     40  C   UNL     1       0.539  -4.828  23.227  1.00  0.00     0.016 A 
ATOM     41  C   UNL     1       1.053  -2.092  22.577  1.00  0.00     0.158 A 
ATOM     42  C   UNL     1       0.165  -4.311  21.965  1.00  0.00     0.051 A 
ATOM     43  C   UNL     1       0.405  -2.956  21.696  1.00  0.00     0.157 A 
BRANCH  41  44
ATOM     44  O   UNL     1       0.989  -0.752  22.395  1.00  0.00    -0.504 OA
ATOM     45  H   UNL     1       0.070  -0.195  22.251  1.00  0.00     0.293 HD
ENDBRANCH  41  44
BRANCH  43  46
ATOM     46  O   UNL     1      -0.125  -2.434  20.509  1.00  0.00    -0.504 OA
ATOM     47  H   UNL     1      -0.706  -1.615  20.521  1.00  0.00     0.293 HD
ENDBRANCH  43  46
ENDBRANCH  28  38
BRANCH  34  48
ATOM     48  O   UNL     1       5.647  -2.688  24.226  1.00  0.00    -0.507 OA
ATOM     49  H   UNL     1       6.182  -3.395  23.782  1.00  0.00     0.293 HD
ENDBRANCH  34  48
BRANCH  37  50
ATOM     50  O   UNL     1       3.702  -0.965  28.370  1.00  0.00    -0.508 OA
ATOM     51  H   UNL     1       4.350  -0.173  28.460  1.00  0.00     0.293 HD
ENDBRANCH  37  50
ENDBRANCH  26  27
ENDBRANCH   5  26
BRANCH   4  52
ATOM     52  O   UNL     1       4.137  -6.572  19.621  1.00  0.00    -0.384 OA
ATOM     53  H   UNL     1       3.231  -6.525  20.048  1.00  0.00     0.211 HD
ENDBRANCH   4  52
TORSDOF 16
ENDMDL
MODEL 2
REMARK VINA RESULT:    -8.216     11.371     14.272
REMARK INTER + INTRA:         -16.354
REMARK INTER:                 -14.014
REMARK INTRA:                  -2.340
REMARK UNBOUND:                -2.854
REMARK SMILES C[C@H]1O[C@@H](OC[C@@H]2O[C@H](Oc3c(-c4ccc(O)c(O)c4)oc4cc(O)cc(O)c4c3=O)[C@@H](O)[C@@H](O)[C@@H]2O)[C@@H](O)[C@@H](O)[C@@H]1O
REMARK SMILES IDX 7 1 36 2 34 3 32 4 9 5 8 6 6 7 5 8 4 9 1 10 2 11 42 12 3 13
REMARK SMILES IDX 40 14 38 15 43 16 41 18 39 20 37 22 35 24 10 26 11 27 12 28
REMARK SMILES IDX 30 29 21 30 29 31 31 32 22 33 27 34 23 35 26 36 24 37 13 38
REMARK SMILES IDX 20 39 14 40 18 41 15 42 16 43 19 44 17 46 28 48 25 50 33 52
REMARK H PARENT 43 17 41 19 39 21 37 23 35 25 19 45 17 47 28 49 25 51 33 53
REMARK Flexibility Score: inf
ROOT
ATOM      1  C   UNL     1      16.720  -6.243  28.385  1.00  0.00     0.180 C 
ATOM      2  C   UNL     1      15.464  -6.831  29.102  1.00  0.00     0.177 C 
ATOM      3  C   UNL     1      14.240  -7.043  28.196  1.00  0.00     0.180 C 
ATOM      4  C   UNL     1      14.654  -7.725  26.892  1.00  0.00     0.214 C 
ATOM      5  C   UNL     1      16.169  -7.524  26.267  1.00  0.00     0.339 C 
ATOM      6  O   UNL     1      17.152  -6.904  27.142  1.00  0.00    -0.332 OA
ENDROOT
BRANCH   1   7
ATOM      7  C   UNL     1      16.682  -4.692  28.226  1.00  0.00     0.198 C 
BRANCH   7   8
ATOM      8  O   UNL     1      16.560  -4.029  29.564  1.00  0.00    -0.347 OA
BRANCH   8   9
ATOM      9  C   UNL     1      16.405  -2.605  29.469  1.00  0.00     0.281 C 
ATOM     10  C   UNL     1      16.054  -3.279  32.642  1.00  0.00     0.041 C 
ATOM     11  C   UNL     1      15.791  -2.101  31.703  1.00  0.00     0.150 C 
ATOM     12  C   UNL     1      14.295  -1.962  31.291  1.00  0.00     0.174 C 
ATOM     13  O   UNL     1      16.795  -2.017  30.709  1.00  0.00    -0.344 OA
ATOM     14  C   UNL     1      13.917  -2.473  29.885  1.00  0.00     0.179 C 
ATOM     15  C   UNL     1      15.035  -2.086  28.939  1.00  0.00     0.202 C 
BRANCH  12  16
ATOM     16  O   UNL     1      13.792  -0.615  31.484  1.00  0.00    -0.388 OA
ATOM     17  H   UNL     1      13.039  -0.524  30.843  1.00  0.00     0.211 HD
ENDBRANCH  12  16
BRANCH  14  18
ATOM     18  O   UNL     1      13.575  -3.827  29.913  1.00  0.00    -0.387 OA
ATOM     19  H   UNL     1      14.352  -4.336  29.599  1.00  0.00     0.211 HD
ENDBRANCH  14  18
BRANCH  15  20
ATOM     20  O   UNL     1      14.727  -2.494  27.594  1.00  0.00    -0.385 OA
ATOM     21  H   UNL     1      15.004  -1.730  27.027  1.00  0.00     0.211 HD
ENDBRANCH  15  20
ENDBRANCH   8   9
ENDBRANCH   7   8
ENDBRANCH   1   7
BRANCH   2  22
ATOM     22  O   UNL     1      15.128  -6.018  30.223  1.00  0.00    -0.387 OA
ATOM     23  H   UNL     1      16.031  -5.778  30.637  1.00  0.00     0.211 HD
ENDBRANCH   2  22
BRANCH   3  24
ATOM     24  O   UNL     1      13.283  -7.788  28.921  1.00  0.00    -0.387 OA
ATOM     25  H   UNL     1      13.792  -8.355  29.594  1.00  0.00     0.211 HD
ENDBRANCH   3  24
BRANCH   5  26
ATOM     26  O   UNL     1      16.334  -7.142  24.813  1.00  0.00    -0.454 OA
BRANCH  26  27
ATOM     27  C   UNL     1      15.630  -6.147  24.059  1.00  0.00     0.214 A 
ATOM     28  C   UNL     1      14.731  -6.005  22.841  1.00  0.00     0.180 A 
ATOM     29  C   UNL     1      15.528  -5.008  24.607  1.00  0.00     0.239 A 
ATOM     30  O   UNL     1      14.460  -4.688  22.403  1.00  0.00    -0.452 OA
ATOM     31  C   UNL     1      16.155  -3.988  23.834  1.00  0.00     0.111 A 
ATOM     32  O   UNL     1      14.625  -4.827  25.442  1.00  0.00    -0.285 OA
ATOM     33  C   UNL     1      15.200  -3.631  22.874  1.00  0.00     0.146 A 
ATOM     34  C   UNL     1      17.477  -4.128  23.242  1.00  0.00     0.134 A 
ATOM     35  C   UNL     1      15.467  -2.595  22.008  1.00  0.00     0.094 A 
ATOM     36  C   UNL     1      17.788  -3.333  22.118  1.00  0.00     0.093 A 
ATOM     37  C   UNL     1      16.805  -2.523  21.544  1.00  0.00     0.123 A 
BRANCH  28  38
ATOM     38  C   UNL     1      14.730  -6.906  21.716  1.00  0.00     0.025 A 
ATOM     39  C   UNL     1      13.466  -7.377  21.263  1.00  0.00     0.062 A 
ATOM     40  C   UNL     1      15.878  -6.836  20.869  1.00  0.00     0.016 A 
ATOM     41  C   UNL     1      13.310  -7.625  19.891  1.00  0.00     0.158 A 
ATOM     42  C   UNL     1      15.623  -6.872  19.479  1.00  0.00     0.051 A 
ATOM     43  C   UNL     1      14.362  -7.295  19.037  1.00  0.00     0.157 A 
BRANCH  41  44
ATOM     44  O   UNL     1      12.235  -8.302  19.424  1.00  0.00    -0.504 OA
ATOM     45  H   UNL     1      11.281  -8.368  19.937  1.00  0.00     0.293 HD
ENDBRANCH  41  44
BRANCH  43  46
ATOM     46  O   UNL     1      14.193  -7.480  17.659  1.00  0.00    -0.504 OA
ATOM     47  H   UNL     1      14.137  -6.693  17.036  1.00  0.00     0.293 HD
ENDBRANCH  43  46
ENDBRANCH  28  38
BRANCH  34  48
ATOM     48  O   UNL     1      18.325  -5.201  23.653  1.00  0.00    -0.507 OA
ATOM     49  H   UNL     1      19.050  -5.509  23.052  1.00  0.00     0.293 HD
ENDBRANCH  34  48
BRANCH  37  50
ATOM     50  O   UNL     1      17.079  -1.769  20.398  1.00  0.00    -0.508 OA
ATOM     51  H   UNL     1      17.518  -2.242  19.599  1.00  0.00     0.293 HD
ENDBRANCH  37  50
ENDBRANCH  26  27
ENDBRANCH   5  26
BRANCH   4  52
ATOM     52  O   UNL     1      14.154  -9.010  26.840  1.00  0.00    -0.384 OA
ATOM     53  H   UNL     1      14.805  -9.454  26.221  1.00  0.00     0.211 HD
ENDBRANCH   4  52
TORSDOF 16
ENDMDL
MODEL 3
REMARK VINA RESULT:    -8.149      1.848      3.982
REMARK INTER + INTRA:         -16.244
REMARK INTER:                 -14.090
REMARK INTRA:                  -2.154
REMARK UNBOUND:                -2.854
REMARK SMILES C[C@H]1O[C@@H](OC[C@@H]2O[C@H](Oc3c(-c4ccc(O)c(O)c4)oc4cc(O)cc(O)c4c3=O)[C@@H](O)[C@@H](O)[C@@H]2O)[C@@H](O)[C@@H](O)[C@@H]1O
REMARK SMILES IDX 7 1 36 2 34 3 32 4 9 5 8 6 6 7 5 8 4 9 1 10 2 11 42 12 3 13
REMARK SMILES IDX 40 14 38 15 43 16 41 18 39 20 37 22 35 24 10 26 11 27 12 28
REMARK SMILES IDX 30 29 21 30 29 31 31 32 22 33 27 34 23 35 26 36 24 37 13 38
REMARK SMILES IDX 20 39 14 40 18 41 15 42 16 43 19 44 17 46 28 48 25 50 33 52
REMARK H PARENT 43 17 41 19 39 21 37 23 35 25 19 45 17 47 28 49 25 51 33 53
REMARK Flexibility Score: inf
ROOT
ATOM      1  C   UNL     1       2.906  -2.539  19.375  1.00  0.00     0.180 C 
ATOM      2  C   UNL     1       4.026  -3.355  18.655  1.00  0.00     0.177 C 
ATOM      3  C   UNL     1       4.836  -4.289  19.569  1.00  0.00     0.180 C 
ATOM      4  C   UNL     1       3.902  -5.084  20.481  1.00  0.00     0.214 C 
ATOM      5  C   UNL     1       2.439  -4.475  20.946  1.00  0.00     0.339 C 
ATOM      6  O   UNL     1       1.978  -3.291  20.237  1.00  0.00    -0.332 OA
ENDROOT
BRANCH   1   7
ATOM      7  C   UNL     1       3.426  -1.249  20.082  1.00  0.00     0.198 C 
BRANCH   7   8
ATOM      8  O   UNL     1       3.606  -0.142  19.089  1.00  0.00    -0.347 OA
BRANCH   8   9
ATOM      9  C   UNL     1       2.488   0.758  19.048  1.00  0.00     0.281 C 
ATOM     10  C   UNL     1       4.383   1.658  16.550  1.00  0.00     0.041 C 
ATOM     11  C   UNL     1       3.195   2.228  17.328  1.00  0.00     0.150 C 
ATOM     12  C   UNL     1       3.605   3.304  18.377  1.00  0.00     0.174 C 
ATOM     13  O   UNL     1       2.300   1.198  17.705  1.00  0.00    -0.344 OA
ATOM     14  C   UNL     1       3.662   2.846  19.849  1.00  0.00     0.179 C 
ATOM     15  C   UNL     1       2.489   1.919  20.088  1.00  0.00     0.202 C 
BRANCH  12  16
ATOM     16  O   UNL     1       2.814   4.516  18.262  1.00  0.00    -0.388 OA
ATOM     17  H   UNL     1       2.061   4.397  18.899  1.00  0.00     0.211 HD
ENDBRANCH  12  16
BRANCH  14  18
ATOM     18  O   UNL     1       4.923   2.341  20.174  1.00  0.00    -0.387 OA
ATOM     19  H   UNL     1       4.838   1.855  21.021  1.00  0.00     0.211 HD
ENDBRANCH  14  18
BRANCH  15  20
ATOM     20  O   UNL     1       2.453   1.486  21.460  1.00  0.00    -0.385 OA
ATOM     21  H   UNL     1       1.731   2.021  21.877  1.00  0.00     0.211 HD
ENDBRANCH  15  20
ENDBRANCH   8   9
ENDBRANCH   7   8
ENDBRANCH   1   7
BRANCH   2  22
ATOM     22  O   UNL     1       4.887  -2.466  17.950  1.00  0.00    -0.387 OA
ATOM     23  H   UNL     1       4.299  -1.656  17.747  1.00  0.00     0.211 HD
ENDBRANCH   2  22
BRANCH   3  24
ATOM     24  O   UNL     1       5.633  -5.119  18.749  1.00  0.00    -0.387 OA
ATOM     25  H   UNL     1       5.030  -5.487  18.018  1.00  0.00     0.211 HD
ENDBRANCH   3  24
BRANCH   5  26
ATOM     26  O   UNL     1       2.054  -4.487  22.408  1.00  0.00    -0.454 OA
BRANCH  26  27
ATOM     27  C   UNL     1       2.832  -4.097  23.546  1.00  0.00     0.214 A 
ATOM     28  C   UNL     1       3.600  -4.697  24.714  1.00  0.00     0.180 A 
ATOM     29  C   UNL     1       3.192  -2.882  23.580  1.00  0.00     0.239 A 
ATOM     30  O   UNL     1       4.045  -3.797  25.708  1.00  0.00    -0.452 OA
ATOM     31  C   UNL     1       2.670  -2.203  24.719  1.00  0.00     0.111 A 
ATOM     32  O   UNL     1       4.200  -2.541  22.937  1.00  0.00    -0.285 OA
ATOM     33  C   UNL     1       3.560  -2.513  25.755  1.00  0.00     0.146 A 
ATOM     34  C   UNL     1       1.286  -2.314  25.155  1.00  0.00     0.134 A 
ATOM     35  C   UNL     1       3.382  -1.936  26.992  1.00  0.00     0.094 A 
ATOM     36  C   UNL     1       0.996  -2.052  26.512  1.00  0.00     0.093 A 
ATOM     37  C   UNL     1       2.034  -1.802  27.412  1.00  0.00     0.123 A 
BRANCH  28  38
ATOM     38  C   UNL     1       3.317  -5.980  25.304  1.00  0.00     0.025 A 
ATOM     39  C   UNL     1       4.393  -6.908  25.387  1.00  0.00     0.062 A 
ATOM     40  C   UNL     1       2.193  -6.020  26.185  1.00  0.00     0.016 A 
ATOM     41  C   UNL     1       4.422  -7.788  26.480  1.00  0.00     0.158 A 
ATOM     42  C   UNL     1       2.371  -6.752  27.382  1.00  0.00     0.051 A 
ATOM     43  C   UNL     1       3.458  -7.633  27.476  1.00  0.00     0.157 A 
BRANCH  41  44
ATOM     44  O   UNL     1       5.261  -8.849  26.496  1.00  0.00    -0.504 OA
ATOM     45  H   UNL     1       5.925  -9.120  25.682  1.00  0.00     0.293 HD
ENDBRANCH  41  44
BRANCH  43  46
ATOM     46  O   UNL     1       3.515  -8.465  28.602  1.00  0.00    -0.504 OA
ATOM     47  H   UNL     1       2.708  -8.596  29.186  1.00  0.00     0.293 HD
ENDBRANCH  43  46
ENDBRANCH  28  38
BRANCH  34  48
ATOM     48  O   UNL     1       0.315  -2.894  24.283  1.00  0.00    -0.507 OA
ATOM     49  H   UNL     1       0.104  -2.451  23.423  1.00  0.00     0.293 HD
ENDBRANCH  34  48
BRANCH  37  50
ATOM     50  O   UNL     1       1.770  -1.594  28.769  1.00  0.00    -0.508 OA
ATOM     51  H   UNL     1       2.552  -1.340  29.383  1.00  0.00     0.293 HD
ENDBRANCH  37  50
ENDBRANCH  26  27
ENDBRANCH   5  26
BRANCH   4  52
ATOM     52  O   UNL     1       3.907  -6.420  20.131  1.00  0.00    -0.384 OA
ATOM     53  H   UNL     1       4.890  -6.608  20.073  1.00  0.00     0.211 HD
ENDBRANCH   4  52
TORSDOF 16
ENDMDL
MODEL 4
REMARK VINA RESULT:    -8.142     10.965     13.672
REMARK INTER + INTRA:         -16.233
REMARK INTER:                 -14.061
REMARK INTRA:                  -2.172
REMARK UNBOUND:                -2.854
REMARK SMILES C[C@H]1O[C@@H](OC[C@@H]2O[C@H](Oc3c(-c4ccc(O)c(O)c4)oc4cc(O)cc(O)c4c3=O)[C@@H](O)[C@@H](O)[C@@H]2O)[C@@H](O)[C@@H](O)[C@@H]1O
REMARK SMILES IDX 7 1 36 2 34 3 32 4 9 5 8 6 6 7 5 8 4 9 1 10 2 11 42 12 3 13
REMARK SMILES IDX 40 14 38 15 43 16 41 18 39 20 37 22 35 24 10 26 11 27 12 28
REMARK SMILES IDX 30 29 21 30 29 31 31 32 22 33 27 34 23 35 26 36 24 37 13 38
REMARK SMILES IDX 20 39 14 40 18 41 15 42 16 43 19 44 17 46 28 48 25 50 33 52
REMARK H PARENT 43 17 41 19 39 21 37 23 35 25 19 45 17 47 28 49 25 51 33 53
REMARK Flexibility Score: inf
ROOT
ATOM      1  C   UNL     1      16.348  -5.029  25.334  1.00  0.00     0.180 C 
ATOM      2  C   UNL     1      17.744  -4.409  25.013  1.00  0.00     0.177 C 
ATOM      3  C   UNL     1      17.970  -2.996  25.573  1.00  0.00     0.180 C 
ATOM      4  C   UNL     1      17.519  -2.923  27.033  1.00  0.00     0.214 C 
ATOM      5  C   UNL     1      16.315  -3.899  27.604  1.00  0.00     0.339 C 
ATOM      6  O   UNL     1      15.907  -4.995  26.739  1.00  0.00    -0.332 OA
ENDROOT
BRANCH   1   7
ATOM      7  C   UNL     1      15.215  -4.562  24.368  1.00  0.00     0.198 C 
BRANCH   7   8
ATOM      8  O   UNL     1      15.372  -5.208  23.025  1.00  0.00    -0.347 OA
BRANCH   8   9
ATOM      9  C   UNL     1      14.213  -5.053  22.193  1.00  0.00     0.281 C 
ATOM     10  C   UNL     1      13.807  -7.931  23.674  1.00  0.00     0.041 C 
ATOM     11  C   UNL     1      13.194  -7.172  22.496  1.00  0.00     0.150 C 
ATOM     12  C   UNL     1      13.719  -7.655  21.111  1.00  0.00     0.174 C 
ATOM     13  O   UNL     1      13.132  -5.785  22.769  1.00  0.00    -0.344 OA
ATOM     14  C   UNL     1      14.786  -6.770  20.432  1.00  0.00     0.179 C 
ATOM     15  C   UNL     1      14.404  -5.325  20.670  1.00  0.00     0.202 C 
BRANCH  12  16
ATOM     16  O   UNL     1      12.642  -7.939  20.181  1.00  0.00    -0.388 OA
ATOM     17  H   UNL     1      12.735  -8.903  19.961  1.00  0.00     0.211 HD
ENDBRANCH  12  16
BRANCH  14  18
ATOM     18  O   UNL     1      16.074  -7.141  20.823  1.00  0.00    -0.387 OA
ATOM     19  H   UNL     1      16.372  -7.855  20.221  1.00  0.00     0.211 HD
ENDBRANCH  14  18
BRANCH  15  20
ATOM     20  O   UNL     1      15.336  -4.439  20.023  1.00  0.00    -0.385 OA
ATOM     21  H   UNL     1      15.841  -4.016  20.764  1.00  0.00     0.211 HD
ENDBRANCH  15  20
ENDBRANCH   8   9
ENDBRANCH   7   8
ENDBRANCH   1   7
BRANCH   2  22
ATOM     22  O   UNL     1      17.966  -4.436  23.605  1.00  0.00    -0.387 OA
ATOM     23  H   UNL     1      18.594  -3.648  23.436  1.00  0.00     0.211 HD
ENDBRANCH   2  22
BRANCH   3  24
ATOM     24  O   UNL     1      19.335  -2.673  25.408  1.00  0.00    -0.387 OA
ATOM     25  H   UNL     1      19.498  -1.799  25.900  1.00  0.00     0.211 HD
ENDBRANCH   3  24
BRANCH   5  26
ATOM     26  O   UNL     1      15.172  -3.295  28.388  1.00  0.00    -0.454 OA
BRANCH  26  27
ATOM     27  C   UNL     1      14.745  -3.585  29.725  1.00  0.00     0.214 A 
ATOM     28  C   UNL     1      13.549  -3.409  30.647  1.00  0.00     0.180 A 
ATOM     29  C   UNL     1      15.470  -4.400  30.371  1.00  0.00     0.239 A 
ATOM     30  O   UNL     1      13.746  -3.733  32.009  1.00  0.00    -0.452 OA
ATOM     31  C   UNL     1      16.024  -3.806  31.543  1.00  0.00     0.111 A 
ATOM     32  O   UNL     1      15.302  -5.619  30.192  1.00  0.00    -0.285 OA
ATOM     33  C   UNL     1      15.014  -3.912  32.507  1.00  0.00     0.146 A 
ATOM     34  C   UNL     1      16.639  -2.487  31.560  1.00  0.00     0.134 A 
ATOM     35  C   UNL     1      15.264  -3.499  33.795  1.00  0.00     0.094 A 
ATOM     36  C   UNL     1      16.681  -1.792  32.787  1.00  0.00     0.093 A 
ATOM     37  C   UNL     1      16.052  -2.326  33.914  1.00  0.00     0.123 A 
BRANCH  28  38
ATOM     38  C   UNL     1      12.575  -2.354  30.530  1.00  0.00     0.025 A 
ATOM     39  C   UNL     1      12.572  -1.357  31.545  1.00  0.00     0.062 A 
ATOM     40  C   UNL     1      12.079  -2.115  29.211  1.00  0.00     0.016 A 
ATOM     41  C   UNL     1      12.220  -0.048  31.182  1.00  0.00     0.158 A 
ATOM     42  C   UNL     1      11.957  -0.758  28.833  1.00  0.00     0.051 A 
ATOM     43  C   UNL     1      11.999   0.224  29.833  1.00  0.00     0.157 A 
BRANCH  41  44
ATOM     44  O   UNL     1      11.954   0.887  32.124  1.00  0.00    -0.504 OA
ATOM     45  H   UNL     1      12.456   0.953  33.083  1.00  0.00     0.293 HD
ENDBRANCH  41  44
BRANCH  43  46
ATOM     46  O   UNL     1      11.708   1.541  29.451  1.00  0.00    -0.504 OA
ATOM     47  H   UNL     1      11.429   1.755  28.510  1.00  0.00     0.293 HD
ENDBRANCH  43  46
ENDBRANCH  28  38
BRANCH  34  48
ATOM     48  O   UNL     1      16.966  -1.845  30.327  1.00  0.00    -0.507 OA
ATOM     49  H   UNL     1      16.770  -0.880  30.211  1.00  0.00     0.293 HD
ENDBRANCH  34  48
BRANCH  37  50
ATOM     50  O   UNL     1      16.038  -1.626  35.125  1.00  0.00    -0.508 OA
ATOM     51  H   UNL     1      15.285  -0.948  35.284  1.00  0.00     0.293 HD
ENDBRANCH  37  50
ENDBRANCH  26  27
ENDBRANCH   5  26
BRANCH   4  52
ATOM     52  O   UNL     1      18.608  -2.769  27.867  1.00  0.00    -0.384 OA
ATOM     53  H   UNL     1      18.905  -1.839  27.639  1.00  0.00     0.211 HD
ENDBRANCH   4  52
TORSDOF 16
ENDMDL
MODEL 5
REMARK VINA RESULT:    -8.085      1.868      7.045
REMARK INTER + INTRA:         -16.138
REMARK INTER:                 -13.762
REMARK INTRA:                  -2.376
REMARK UNBOUND:                -2.854
REMARK SMILES C[C@H]1O[C@@H](OC[C@@H]2O[C@H](Oc3c(-c4ccc(O)c(O)c4)oc4cc(O)cc(O)c4c3=O)[C@@H](O)[C@@H](O)[C@@H]2O)[C@@H](O)[C@@H](O)[C@@H]1O
REMARK SMILES IDX 7 1 36 2 34 3 32 4 9 5 8 6 6 7 5 8 4 9 1 10 2 11 42 12 3 13
REMARK SMILES IDX 40 14 38 15 43 16 41 18 39 20 37 22 35 24 10 26 11 27 12 28
REMARK SMILES IDX 30 29 21 30 29 31 31 32 22 33 27 34 23 35 26 36 24 37 13 38
REMARK SMILES IDX 20 39 14 40 18 41 15 42 16 43 19 44 17 46 28 48 25 50 33 52
REMARK H PARENT 43 17 41 19 39 21 37 23 35 25 19 45 17 47 28 49 25 51 33 53
REMARK Flexibility Score: inf
ROOT
ATOM      1  C   UNL     1       5.078  -4.123  22.430  1.00  0.00     0.180 C 
ATOM      2  C   UNL     1       4.644  -5.462  21.755  1.00  0.00     0.177 C 
ATOM      3  C   UNL     1       4.027  -5.311  20.355  1.00  0.00     0.180 C 
ATOM      4  C   UNL     1       4.870  -4.366  19.499  1.00  0.00     0.214 C 
ATOM      5  C   UNL     1       5.761  -3.157  20.187  1.00  0.00     0.339 C 
ATOM      6  O   UNL     1       5.915  -3.211  21.632  1.00  0.00    -0.332 OA
ENDROOT
BRANCH   1   7
ATOM      7  C   UNL     1       3.907  -3.363  23.127  1.00  0.00     0.198 C 
BRANCH   7   8
ATOM      8  O   UNL     1       3.201  -4.262  24.096  1.00  0.00    -0.347 OA
BRANCH   8   9
ATOM      9  C   UNL     1       3.362  -3.846  25.460  1.00  0.00     0.281 C 
ATOM     10  C   UNL     1       2.704  -7.037  25.626  1.00  0.00     0.041 C 
ATOM     11  C   UNL     1       2.752  -5.844  26.582  1.00  0.00     0.150 C 
ATOM     12  C   UNL     1       1.346  -5.263  26.914  1.00  0.00     0.174 C 
ATOM     13  O   UNL     1       3.803  -4.962  26.232  1.00  0.00    -0.344 OA
ATOM     14  C   UNL     1       0.942  -3.969  26.175  1.00  0.00     0.179 C 
ATOM     15  C   UNL     1       2.166  -3.081  26.103  1.00  0.00     0.202 C 
BRANCH  12  16
ATOM     16  O   UNL     1       1.136  -5.107  28.342  1.00  0.00    -0.388 OA
ATOM     17  H   UNL     1       1.362  -5.990  28.736  1.00  0.00     0.211 HD
ENDBRANCH  12  16
BRANCH  14  18
ATOM     18  O   UNL     1       0.315  -4.255  24.961  1.00  0.00    -0.387 OA
ATOM     19  H   UNL     1      -0.653  -4.259  25.121  1.00  0.00     0.211 HD
ENDBRANCH  14  18
BRANCH  15  20
ATOM     20  O   UNL     1       1.850  -1.831  25.462  1.00  0.00    -0.385 OA
ATOM     21  H   UNL     1       0.900  -1.662  25.688  1.00  0.00     0.211 HD
ENDBRANCH  15  20
ENDBRANCH   8   9
ENDBRANCH   7   8
ENDBRANCH   1   7
BRANCH   2  22
ATOM     22  O   UNL     1       3.763  -6.171  22.621  1.00  0.00    -0.387 OA
ATOM     23  H   UNL     1       4.308  -6.981  22.923  1.00  0.00     0.211 HD
ENDBRANCH   2  22
BRANCH   3  24
ATOM     24  O   UNL     1       3.908  -6.600  19.788  1.00  0.00    -0.387 OA
ATOM     25  H   UNL     1       3.349  -7.158  20.426  1.00  0.00     0.211 HD
ENDBRANCH   3  24
BRANCH   5  26
ATOM     26  O   UNL     1       5.654  -1.749  19.646  1.00  0.00    -0.454 OA
BRANCH  26  27
ATOM     27  C   UNL     1       5.014  -0.607  20.230  1.00  0.00     0.214 A 
ATOM     28  C   UNL     1       3.718  -0.200  20.912  1.00  0.00     0.180 A 
ATOM     29  C   UNL     1       5.761   0.395  20.444  1.00  0.00     0.239 A 
ATOM     30  O   UNL     1       3.523   1.184  21.128  1.00  0.00    -0.452 OA
ATOM     31  C   UNL     1       5.335   1.542  19.713  1.00  0.00     0.111 A 
ATOM     32  O   UNL     1       6.450   0.415  21.479  1.00  0.00    -0.285 OA
ATOM     33  C   UNL     1       4.322   2.107  20.498  1.00  0.00     0.146 A 
ATOM     34  C   UNL     1       4.959   1.504  18.308  1.00  0.00     0.134 A 
ATOM     35  C   UNL     1       3.748   3.295  20.107  1.00  0.00     0.094 A 
ATOM     36  C   UNL     1       4.094   2.510  17.826  1.00  0.00     0.093 A 
ATOM     37  C   UNL     1       3.542   3.439  18.712  1.00  0.00     0.123 A 
BRANCH  28  38
ATOM     38  C   UNL     1       2.447  -0.847  20.706  1.00  0.00     0.025 A 
ATOM     39  C   UNL     1       2.340  -1.728  19.593  1.00  0.00     0.062 A 
ATOM     40  C   UNL     1       1.617  -0.959  21.863  1.00  0.00     0.016 A 
ATOM     41  C   UNL     1       1.499  -2.844  19.716  1.00  0.00     0.158 A 
ATOM     42  C   UNL     1       0.966  -2.202  22.038  1.00  0.00     0.051 A 
ATOM     43  C   UNL     1       0.901  -3.087  20.952  1.00  0.00     0.157 A 
BRANCH  41  44
ATOM     44  O   UNL     1       1.156  -3.579  18.632  1.00  0.00    -0.504 OA
ATOM     45  H   UNL     1       0.146  -3.904  18.405  1.00  0.00     0.293 HD
ENDBRANCH  41  44
BRANCH  43  46
ATOM     46  O   UNL     1       0.109  -4.232  21.103  1.00  0.00    -0.504 OA
ATOM     47  H   UNL     1      -0.724  -4.213  21.665  1.00  0.00     0.293 HD
ENDBRANCH  43  46
ENDBRANCH  28  38
BRANCH  34  48
ATOM     48  O   UNL     1       5.276   0.354  17.523  1.00  0.00    -0.507 OA
ATOM     49  H   UNL     1       6.198  -0.009  17.537  1.00  0.00     0.293 HD
ENDBRANCH  34  48
BRANCH  37  50
ATOM     50  O   UNL     1       2.641   4.409  18.261  1.00  0.00    -0.508 OA
ATOM     51  H   UNL     1       2.770   4.790  17.316  1.00  0.00     0.293 HD
ENDBRANCH  37  50
ENDBRANCH  26  27
ENDBRANCH   5  26
BRANCH   4  52
ATOM     52  O   UNL     1       5.494  -5.062  18.484  1.00  0.00    -0.384 OA
ATOM     53  H   UNL     1       5.545  -4.365  17.765  1.00  0.00     0.211 HD
ENDBRANCH   4  52
TORSDOF 16
ENDMDL
MODEL 6
REMARK VINA RESULT:    -7.982     10.827     13.617
REMARK INTER + INTRA:         -15.970
REMARK INTER:                 -13.619
REMARK INTRA:                  -2.351
REMARK UNBOUND:                -2.854
REMARK SMILES C[C@H]1O[C@@H](OC[C@@H]2O[C@H](Oc3c(-c4ccc(O)c(O)c4)oc4cc(O)cc(O)c4c3=O)[C@@H](O)[C@@H](O)[C@@H]2O)[C@@H](O)[C@@H](O)[C@@H]1O
REMARK SMILES IDX 7 1 36 2 34 3 32 4 9 5 8 6 6 7 5 8 4 9 1 10 2 11 42 12 3 13
REMARK SMILES IDX 40 14 38 15 43 16 41 18 39 20 37 22 35 24 10 26 11 27 12 28
REMARK SMILES IDX 30 29 21 30 29 31 31 32 22 33 27 34 23 35 26 36 24 37 13 38
REMARK SMILES IDX 20 39 14 40 18 41 15 42 16 43 19 44 17 46 28 48 25 50 33 52
REMARK H PARENT 43 17 41 19 39 21 37 23 35 25 19 45 17 47 28 49 25 51 33 53
REMARK Flexibility Score: inf
ROOT
ATOM      1  C   UNL     1      16.971  -6.834  23.595  1.00  0.00     0.180 C 
ATOM      2  C   UNL     1      17.484  -5.549  22.870  1.00  0.00     0.177 C 
ATOM      3  C   UNL     1      17.230  -4.234  23.625  1.00  0.00     0.180 C 
ATOM      4  C   UNL     1      17.620  -4.380  25.096  1.00  0.00     0.214 C 
ATOM      5  C   UNL     1      17.547  -5.843  25.858  1.00  0.00     0.339 C 
ATOM      6  O   UNL     1      17.360  -7.007  25.005  1.00  0.00    -0.332 OA
ENDROOT
BRANCH   1   7
ATOM      7  C   UNL     1      15.451  -7.110  23.383  1.00  0.00     0.198 C 
BRANCH   7   8
ATOM      8  O   UNL     1      15.122  -7.142  21.921  1.00  0.00    -0.347 OA
BRANCH   8   9
ATOM      9  C   UNL     1      13.713  -7.247  21.669  1.00  0.00     0.281 C 
ATOM     10  C   UNL     1      15.092  -7.163  18.713  1.00  0.00     0.041 C 
ATOM     11  C   UNL     1      13.691  -7.014  19.310  1.00  0.00     0.150 C 
ATOM     12  C   UNL     1      13.226  -5.533  19.431  1.00  0.00     0.174 C 
ATOM     13  O   UNL     1      13.517  -7.888  20.410  1.00  0.00    -0.344 OA
ATOM     14  C   UNL     1      13.308  -4.897  20.835  1.00  0.00     0.179 C 
ATOM     15  C   UNL     1      12.874  -5.944  21.839  1.00  0.00     0.202 C 
BRANCH  12  16
ATOM     16  O   UNL     1      11.908  -5.319  18.863  1.00  0.00    -0.388 OA
ATOM     17  H   UNL     1      11.424  -6.175  18.999  1.00  0.00     0.211 HD
ENDBRANCH  12  16
BRANCH  14  18
ATOM     18  O   UNL     1      14.557  -4.312  21.055  1.00  0.00    -0.387 OA
ATOM     19  H   UNL     1      14.724  -3.685  20.319  1.00  0.00     0.211 HD
ENDBRANCH  14  18
BRANCH  15  20
ATOM     20  O   UNL     1      12.883  -5.405  23.174  1.00  0.00    -0.385 OA
ATOM     21  H   UNL     1      13.840  -5.250  23.379  1.00  0.00     0.211 HD
ENDBRANCH  15  20
ENDBRANCH   8   9
ENDBRANCH   7   8
ENDBRANCH   1   7
BRANCH   2  22
ATOM     22  O   UNL     1      16.936  -5.492  21.556  1.00  0.00    -0.387 OA
ATOM     23  H   UNL     1      16.092  -6.065  21.611  1.00  0.00     0.211 HD
ENDBRANCH   2  22
BRANCH   3  24
ATOM     24  O   UNL     1      17.948  -3.209  22.970  1.00  0.00    -0.387 OA
ATOM     25  H   UNL     1      17.407  -2.938  22.153  1.00  0.00     0.211 HD
ENDBRANCH   3  24
BRANCH   5  26
ATOM     26  O   UNL     1      16.843  -5.957  27.191  1.00  0.00    -0.454 OA
BRANCH  26  27
ATOM     27  C   UNL     1      15.683  -5.257  27.660  1.00  0.00     0.214 A 
ATOM     28  C   UNL     1      15.288  -4.098  28.560  1.00  0.00     0.180 A 
ATOM     29  C   UNL     1      14.602  -5.509  27.048  1.00  0.00     0.239 A 
ATOM     30  O   UNL     1      13.909  -3.950  28.834  1.00  0.00    -0.452 OA
ATOM     31  C   UNL     1      13.617  -6.067  27.913  1.00  0.00     0.111 A 
ATOM     32  O   UNL     1      14.369  -4.914  25.981  1.00  0.00    -0.285 OA
ATOM     33  C   UNL     1      13.027  -4.962  28.540  1.00  0.00     0.146 A 
ATOM     34  C   UNL     1      13.897  -7.131  28.866  1.00  0.00     0.134 A 
ATOM     35  C   UNL     1      11.964  -5.158  29.391  1.00  0.00     0.094 A 
ATOM     36  C   UNL     1      13.052  -7.255  29.989  1.00  0.00     0.093 A 
ATOM     37  C   UNL     1      12.049  -6.308  30.215  1.00  0.00     0.123 A 
BRANCH  28  38
ATOM     38  C   UNL     1      16.062  -3.633  29.683  1.00  0.00     0.025 A 
ATOM     39  C   UNL     1      16.163  -2.225  29.863  1.00  0.00     0.062 A 
ATOM     40  C   UNL     1      16.212  -4.563  30.757  1.00  0.00     0.016 A 
ATOM     41  C   UNL     1      16.249  -1.735  31.175  1.00  0.00     0.158 A 
ATOM     42  C   UNL     1      16.066  -4.031  32.059  1.00  0.00     0.051 A 
ATOM     43  C   UNL     1      16.122  -2.640  32.227  1.00  0.00     0.157 A 
BRANCH  41  44
ATOM     44  O   UNL     1      16.594  -0.448  31.415  1.00  0.00    -0.504 OA
ATOM     45  H   UNL     1      17.466   0.042  30.996  1.00  0.00     0.293 HD
ENDBRANCH  41  44
BRANCH  43  46
ATOM     46  O   UNL     1      16.144  -2.153  33.541  1.00  0.00    -0.504 OA
ATOM     47  H   UNL     1      16.843  -2.461  34.193  1.00  0.00     0.293 HD
ENDBRANCH  43  46
ENDBRANCH  28  38
BRANCH  34  48
ATOM     48  O   UNL     1      15.122  -7.860  28.771  1.00  0.00    -0.507 OA
ATOM     49  H   UNL     1      15.590  -7.918  27.900  1.00  0.00     0.293 HD
ENDBRANCH  34  48
BRANCH  37  50
ATOM     50  O   UNL     1      11.237  -6.384  31.351  1.00  0.00    -0.508 OA
ATOM     51  H   UNL     1      10.686  -5.557  31.610  1.00  0.00     0.293 HD
ENDBRANCH  37  50
ENDBRANCH  26  27
ENDBRANCH   5  26
BRANCH   4  52
ATOM     52  O   UNL     1      18.736  -3.618  25.376  1.00  0.00    -0.384 OA
ATOM     53  H   UNL     1      18.320  -2.752  25.666  1.00  0.00     0.211 HD
ENDBRANCH   4  52
TORSDOF 16
ENDMDL
MODEL 7
REMARK VINA RESULT:    -7.938      1.914      7.952
REMARK INTER + INTRA:         -15.897
REMARK INTER:                 -13.501
REMARK INTRA:                  -2.396
REMARK UNBOUND:                -2.854
REMARK SMILES C[C@H]1O[C@@H](OC[C@@H]2O[C@H](Oc3c(-c4ccc(O)c(O)c4)oc4cc(O)cc(O)c4c3=O)[C@@H](O)[C@@H](O)[C@@H]2O)[C@@H](O)[C@@H](O)[C@@H]1O
REMARK SMILES IDX 7 1 36 2 34 3 32 4 9 5 8 6 6 7 5 8 4 9 1 10 2 11 42 12 3 13
REMARK SMILES IDX 40 14 38 15 43 16 41 18 39 20 37 22 35 24 10 26 11 27 12 28
REMARK SMILES IDX 30 29 21 30 29 31 31 32 22 33 27 34 23 35 26 36 24 37 13 38
REMARK SMILES IDX 20 39 14 40 18 41 15 42 16 43 19 44 17 46 28 48 25 50 33 52
REMARK H PARENT 43 17 41 19 39 21 37 23 35 25 19 45 17 47 28 49 25 51 33 53
REMARK Flexibility Score: inf
ROOT
ATOM      1  C   UNL     1       0.448  -4.452  23.781  1.00  0.00     0.180 C 
ATOM      2  C   UNL     1       0.315  -3.574  25.065  1.00  0.00     0.177 C 
ATOM      3  C   UNL     1       1.136  -2.275  25.050  1.00  0.00     0.180 C 
ATOM      4  C   UNL     1       0.961  -1.549  23.716  1.00  0.00     0.214 C 
ATOM      5  C   UNL     1       0.632  -2.382  22.328  1.00  0.00     0.339 C 
ATOM      6  O   UNL     1       0.255  -3.778  22.486  1.00  0.00    -0.332 OA
ENDROOT
BRANCH   1   7
ATOM      7  C   UNL     1       1.716  -5.360  23.770  1.00  0.00     0.198 C 
BRANCH   7   8
ATOM      8  O   UNL     1       2.735  -4.851  24.745  1.00  0.00    -0.347 OA
BRANCH   8   9
ATOM      9  C   UNL     1       4.080  -5.181  24.368  1.00  0.00     0.281 C 
ATOM     10  C   UNL     1       3.107  -7.652  26.264  1.00  0.00     0.041 C 
ATOM     11  C   UNL     1       4.422  -7.119  25.691  1.00  0.00     0.150 C 
ATOM     12  C   UNL     1       5.258  -6.303  26.721  1.00  0.00     0.174 C 
ATOM     13  O   UNL     1       4.228  -6.599  24.388  1.00  0.00    -0.344 OA
ATOM     14  C   UNL     1       5.201  -4.766  26.594  1.00  0.00     0.179 C 
ATOM     15  C   UNL     1       5.220  -4.427  25.118  1.00  0.00     0.202 C 
BRANCH  12  16
ATOM     16  O   UNL     1       6.638  -6.747  26.787  1.00  0.00    -0.388 OA
ATOM     17  H   UNL     1       6.807  -6.930  27.748  1.00  0.00     0.211 HD
ENDBRANCH  12  16
BRANCH  14  18
ATOM     18  O   UNL     1       4.144  -4.236  27.336  1.00  0.00    -0.387 OA
ATOM     19  H   UNL     1       3.838  -3.424  26.877  1.00  0.00     0.211 HD
ENDBRANCH  14  18
BRANCH  15  20
ATOM     20  O   UNL     1       5.214  -3.001  24.924  1.00  0.00    -0.385 OA
ATOM     21  H   UNL     1       4.595  -2.652  25.615  1.00  0.00     0.211 HD
ENDBRANCH  15  20
ENDBRANCH   8   9
ENDBRANCH   7   8
ENDBRANCH   1   7
BRANCH   2  22
ATOM     22  O   UNL     1       0.629  -4.357  26.214  1.00  0.00    -0.387 OA
ATOM     23  H   UNL     1      -0.127  -5.042  26.264  1.00  0.00     0.211 HD
ENDBRANCH   2  22
BRANCH   3  24
ATOM     24  O   UNL     1       0.733  -1.490  26.154  1.00  0.00    -0.387 OA
ATOM     25  H   UNL     1       0.482  -2.130  26.902  1.00  0.00     0.211 HD
ENDBRANCH   3  24
BRANCH   5  26
ATOM     26  O   UNL     1       1.454  -2.119  21.086  1.00  0.00    -0.454 OA
BRANCH  26  27
ATOM     27  C   UNL     1       2.755  -1.527  20.977  1.00  0.00     0.214 A 
ATOM     28  C   UNL     1       3.424  -0.190  20.696  1.00  0.00     0.180 A 
ATOM     29  C   UNL     1       3.720  -2.231  21.399  1.00  0.00     0.239 A 
ATOM     30  O   UNL     1       4.824  -0.210  20.508  1.00  0.00    -0.452 OA
ATOM     31  C   UNL     1       4.657  -2.526  20.366  1.00  0.00     0.111 A 
ATOM     32  O   UNL     1       3.967  -2.234  22.618  1.00  0.00    -0.285 OA
ATOM     33  C   UNL     1       5.484  -1.398  20.303  1.00  0.00     0.146 A 
ATOM     34  C   UNL     1       4.270  -2.976  19.037  1.00  0.00     0.134 A 
ATOM     35  C   UNL     1       6.561  -1.398  19.447  1.00  0.00     0.094 A 
ATOM     36  C   UNL     1       5.169  -2.749  17.973  1.00  0.00     0.093 A 
ATOM     37  C   UNL     1       6.339  -2.018  18.192  1.00  0.00     0.123 A 
BRANCH  28  38
ATOM     38  C   UNL     1       2.839   0.868  19.913  1.00  0.00     0.025 A 
ATOM     39  C   UNL     1       3.098   2.203  20.329  1.00  0.00     0.062 A 
ATOM     40  C   UNL     1       2.511   0.529  18.564  1.00  0.00     0.016 A 
ATOM     41  C   UNL     1       3.195   3.195  19.340  1.00  0.00     0.158 A 
ATOM     42  C   UNL     1       2.841   1.496  17.586  1.00  0.00     0.051 A 
ATOM     43  C   UNL     1       3.139   2.800  18.005  1.00  0.00     0.157 A 
BRANCH  41  44
ATOM     44  O   UNL     1       3.190   4.508  19.669  1.00  0.00    -0.504 OA
ATOM     45  H   UNL     1       4.060   5.058  20.012  1.00  0.00     0.293 HD
ENDBRANCH  41  44
BRANCH  43  46
ATOM     46  O   UNL     1       3.298   3.773  17.009  1.00  0.00    -0.504 OA
ATOM     47  H   UNL     1       2.588   4.466  16.848  1.00  0.00     0.293 HD
ENDBRANCH  43  46
ENDBRANCH  28  38
BRANCH  34  48
ATOM     48  O   UNL     1       2.931  -3.414  18.801  1.00  0.00    -0.507 OA
ATOM     49  H   UNL     1       2.256  -2.768  18.473  1.00  0.00     0.293 HD
ENDBRANCH  34  48
BRANCH  37  50
ATOM     50  O   UNL     1       7.215  -1.738  17.138  1.00  0.00    -0.508 OA
ATOM     51  H   UNL     1       7.581  -0.782  17.053  1.00  0.00     0.293 HD
ENDBRANCH  37  50
ENDBRANCH  26  27
ENDBRANCH   5  26
BRANCH   4  52
ATOM     52  O   UNL     1       0.248  -0.380  23.892  1.00  0.00    -0.384 OA
ATOM     53  H   UNL     1      -0.506  -0.691  24.475  1.00  0.00     0.211 HD
ENDBRANCH   4  52
TORSDOF 16
ENDMDL
MODEL 8
REMARK VINA RESULT:    -7.932     10.342     13.997
REMARK INTER + INTRA:         -15.886
REMARK INTER:                 -12.342
REMARK INTRA:                  -3.545
REMARK UNBOUND:                -2.854
REMARK SMILES C[C@H]1O[C@@H](OC[C@@H]2O[C@H](Oc3c(-c4ccc(O)c(O)c4)oc4cc(O)cc(O)c4c3=O)[C@@H](O)[C@@H](O)[C@@H]2O)[C@@H](O)[C@@H](O)[C@@H]1O
REMARK SMILES IDX 7 1 36 2 34 3 32 4 9 5 8 6 6 7 5 8 4 9 1 10 2 11 42 12 3 13
REMARK SMILES IDX 40 14 38 15 43 16 41 18 39 20 37 22 35 24 10 26 11 27 12 28
REMARK SMILES IDX 30 29 21 30 29 31 31 32 22 33 27 34 23 35 26 36 24 37 13 38
REMARK SMILES IDX 20 39 14 40 18 41 15 42 16 43 19 44 17 46 28 48 25 50 33 52
REMARK H PARENT 43 17 41 19 39 21 37 23 35 25 19 45 17 47 28 49 25 51 33 53
REMARK Flexibility Score: inf
ROOT
ATOM      1  C   UNL     1      15.122  -2.289  26.672  1.00  0.00     0.180 C 
ATOM      2  C   UNL     1      16.393  -2.083  27.555  1.00  0.00     0.177 C 
ATOM      3  C   UNL     1      17.496  -3.136  27.358  1.00  0.00     0.180 C 
ATOM      4  C   UNL     1      17.741  -3.380  25.869  1.00  0.00     0.214 C 
ATOM      5  C   UNL     1      16.534  -3.173  24.760  1.00  0.00     0.339 C 
ATOM      6  O   UNL     1      15.335  -2.498  25.230  1.00  0.00    -0.332 OA
ENDROOT
BRANCH   1   7
ATOM      7  C   UNL     1      14.112  -3.325  27.257  1.00  0.00     0.198 C 
BRANCH   7   8
ATOM      8  O   UNL     1      14.484  -4.715  26.837  1.00  0.00    -0.347 OA
BRANCH   8   9
ATOM      9  C   UNL     1      13.341  -5.537  26.558  1.00  0.00     0.281 C 
ATOM     10  C   UNL     1      14.925  -7.087  28.952  1.00  0.00     0.041 C 
ATOM     11  C   UNL     1      13.812  -7.397  27.949  1.00  0.00     0.150 C 
ATOM     12  C   UNL     1      14.298  -8.227  26.724  1.00  0.00     0.174 C 
ATOM     13  O   UNL     1      12.995  -6.261  27.737  1.00  0.00    -0.344 OA
ATOM     14  C   UNL     1      14.529  -7.448  25.412  1.00  0.00     0.179 C 
ATOM     15  C   UNL     1      13.417  -6.429  25.282  1.00  0.00     0.202 C 
BRANCH  12  16
ATOM     16  O   UNL     1      13.462  -9.387  26.476  1.00  0.00    -0.388 OA
ATOM     17  H   UNL     1      14.052 -10.039  26.014  1.00  0.00     0.211 HD
ENDBRANCH  12  16
BRANCH  14  18
ATOM     18  O   UNL     1      15.832  -6.953  25.339  1.00  0.00    -0.387 OA
ATOM     19  H   UNL     1      16.438  -7.670  25.623  1.00  0.00     0.211 HD
ENDBRANCH  14  18
BRANCH  15  20
ATOM     20  O   UNL     1      13.544  -5.692  24.051  1.00  0.00    -0.385 OA
ATOM     21  H   UNL     1      13.034  -4.856  24.202  1.00  0.00     0.211 HD
ENDBRANCH  15  20
ENDBRANCH   8   9
ENDBRANCH   7   8
ENDBRANCH   1   7
BRANCH   2  22
ATOM     22  O   UNL     1      16.014  -1.998  28.926  1.00  0.00    -0.387 OA
ATOM     23  H   UNL     1      16.573  -2.719  29.385  1.00  0.00     0.211 HD
ENDBRANCH   2  22
BRANCH   3  24
ATOM     24  O   UNL     1      18.653  -2.688  28.034  1.00  0.00    -0.387 OA
ATOM     25  H   UNL     1      18.679  -1.677  27.946  1.00  0.00     0.211 HD
ENDBRANCH   3  24
BRANCH   5  26
ATOM     26  O   UNL     1      16.254  -4.262  23.749  1.00  0.00    -0.454 OA
BRANCH  26  27
ATOM     27  C   UNL     1      16.261  -4.184  22.318  1.00  0.00     0.214 A 
ATOM     28  C   UNL     1      15.554  -3.481  21.170  1.00  0.00     0.180 A 
ATOM     29  C   UNL     1      17.259  -4.712  21.741  1.00  0.00     0.239 A 
ATOM     30  O   UNL     1      15.845  -3.946  19.867  1.00  0.00    -0.452 OA
ATOM     31  C   UNL     1      16.873  -5.774  20.874  1.00  0.00     0.111 A 
ATOM     32  O   UNL     1      18.311  -4.055  21.652  1.00  0.00    -0.285 OA
ATOM     33  C   UNL     1      16.496  -5.141  19.682  1.00  0.00     0.146 A 
ATOM     34  C   UNL     1      15.922  -6.811  21.249  1.00  0.00     0.134 A 
ATOM     35  C   UNL     1      16.143  -5.906  18.594  1.00  0.00     0.094 A 
ATOM     36  C   UNL     1      15.230  -7.480  20.216  1.00  0.00     0.093 A 
ATOM     37  C   UNL     1      15.390  -7.071  18.890  1.00  0.00     0.123 A 
BRANCH  28  38
ATOM     38  C   UNL     1      14.202  -2.985  21.223  1.00  0.00     0.025 A 
ATOM     39  C   UNL     1      13.159  -3.917  20.963  1.00  0.00     0.062 A 
ATOM     40  C   UNL     1      14.008  -1.805  22.004  1.00  0.00     0.016 A 
ATOM     41  C   UNL     1      11.941  -3.746  21.640  1.00  0.00     0.158 A 
ATOM     42  C   UNL     1      12.864  -1.795  22.835  1.00  0.00     0.051 A 
ATOM     43  C   UNL     1      11.857  -2.743  22.604  1.00  0.00     0.157 A 
BRANCH  41  44
ATOM     44  O   UNL     1      10.835  -4.431  21.265  1.00  0.00    -0.504 OA
ATOM     45  H   UNL     1      10.040  -4.730  21.939  1.00  0.00     0.293 HD
ENDBRANCH  41  44
BRANCH  43  46
ATOM     46  O   UNL     1      10.667  -2.604  23.329  1.00  0.00    -0.504 OA
ATOM     47  H   UNL     1      10.434  -1.735  23.777  1.00  0.00     0.293 HD
ENDBRANCH  43  46
ENDBRANCH  28  38
BRANCH  34  48
ATOM     48  O   UNL     1      15.547  -6.963  22.618  1.00  0.00    -0.507 OA
ATOM     49  H   UNL     1      14.716  -7.453  22.846  1.00  0.00     0.293 HD
ENDBRANCH  34  48
BRANCH  37  50
ATOM     50  O   UNL     1      14.672  -7.688  17.860  1.00  0.00    -0.508 OA
ATOM     51  H   UNL     1      15.133  -8.433  17.326  1.00  0.00     0.293 HD
ENDBRANCH  37  50
ENDBRANCH  26  27
ENDBRANCH   5  26
BRANCH   4  52
ATOM     52  O   UNL     1      18.980  -2.898  25.499  1.00  0.00    -0.384 OA
ATOM     53  H   UNL     1      18.822  -2.656  24.539  1.00  0.00     0.211 HD
ENDBRANCH   4  52
TORSDOF 16
ENDMDL
MODEL 9
REMARK VINA RESULT:    -7.858     11.172     14.460
REMARK INTER + INTRA:         -15.766
REMARK INTER:                 -13.059
REMARK INTRA:                  -2.707
REMARK UNBOUND:                -2.854
REMARK SMILES C[C@H]1O[C@@H](OC[C@@H]2O[C@H](Oc3c(-c4ccc(O)c(O)c4)oc4cc(O)cc(O)c4c3=O)[C@@H](O)[C@@H](O)[C@@H]2O)[C@@H](O)[C@@H](O)[C@@H]1O
REMARK SMILES IDX 7 1 36 2 34 3 32 4 9 5 8 6 6 7 5 8 4 9 1 10 2 11 42 12 3 13
REMARK SMILES IDX 40 14 38 15 43 16 41 18 39 20 37 22 35 24 10 26 11 27 12 28
REMARK SMILES IDX 30 29 21 30 29 31 31 32 22 33 27 34 23 35 26 36 24 37 13 38
REMARK SMILES IDX 20 39 14 40 18 41 15 42 16 43 19 44 17 46 28 48 25 50 33 52
REMARK H PARENT 43 17 41 19 39 21 37 23 35 25 19 45 17 47 28 49 25 51 33 53
REMARK Flexibility Score: inf
ROOT
ATOM      1  C   UNL     1      16.151  -6.136  28.953  1.00  0.00     0.180 C 
ATOM      2  C   UNL     1      14.765  -6.745  29.332  1.00  0.00     0.177 C 
ATOM      3  C   UNL     1      13.825  -7.005  28.144  1.00  0.00     0.180 C 
ATOM      4  C   UNL     1      14.579  -7.697  27.008  1.00  0.00     0.214 C 
ATOM      5  C   UNL     1      16.201  -7.467  26.795  1.00  0.00     0.339 C 
ATOM      6  O   UNL     1      16.907  -6.806  27.882  1.00  0.00    -0.332 OA
ENDROOT
BRANCH   1   7
ATOM      7  C   UNL     1      16.124  -4.589  28.754  1.00  0.00     0.198 C 
BRANCH   7   8
ATOM      8  O   UNL     1      15.868  -3.896  30.057  1.00  0.00    -0.347 OA
BRANCH   8   9
ATOM      9  C   UNL     1      15.219  -2.626  29.895  1.00  0.00     0.281 C 
ATOM     10  C   UNL     1      17.082  -2.285  32.552  1.00  0.00     0.041 C 
ATOM     11  C   UNL     1      15.933  -1.535  31.875  1.00  0.00     0.150 C 
ATOM     12  C   UNL     1      14.551  -1.786  32.547  1.00  0.00     0.174 C 
ATOM     13  O   UNL     1      16.044  -1.612  30.466  1.00  0.00    -0.344 OA
ATOM     14  C   UNL     1      13.609  -2.780  31.835  1.00  0.00     0.179 C 
ATOM     15  C   UNL     1      13.729  -2.540  30.345  1.00  0.00     0.202 C 
BRANCH  12  16
ATOM     16  O   UNL     1      13.846  -0.551  32.838  1.00  0.00    -0.388 OA
ATOM     17  H   UNL     1      13.836  -0.484  33.828  1.00  0.00     0.211 HD
ENDBRANCH  12  16
BRANCH  14  18
ATOM     18  O   UNL     1      13.832  -4.088  32.270  1.00  0.00    -0.387 OA
ATOM     19  H   UNL     1      14.284  -4.568  31.544  1.00  0.00     0.211 HD
ENDBRANCH  14  18
BRANCH  15  20
ATOM     20  O   UNL     1      12.840  -3.407  29.617  1.00  0.00    -0.385 OA
ATOM     21  H   UNL     1      12.968  -3.161  28.666  1.00  0.00     0.211 HD
ENDBRANCH  15  20
ENDBRANCH   8   9
ENDBRANCH   7   8
ENDBRANCH   1   7
BRANCH   2  22
ATOM     22  O   UNL     1      14.131  -5.922  30.307  1.00  0.00    -0.387 OA
ATOM     23  H   UNL     1      14.176  -4.982  29.909  1.00  0.00     0.211 HD
ENDBRANCH   2  22
BRANCH   3  24
ATOM     24  O   UNL     1      12.728  -7.763  28.611  1.00  0.00    -0.387 OA
ATOM     25  H   UNL     1      12.704  -8.622  28.069  1.00  0.00     0.211 HD
ENDBRANCH   3  24
BRANCH   5  26
ATOM     26  O   UNL     1      16.730  -7.105  25.426  1.00  0.00    -0.454 OA
BRANCH  26  27
ATOM     27  C   UNL     1      16.462  -5.940  24.636  1.00  0.00     0.214 A 
ATOM     28  C   UNL     1      15.326  -5.248  23.899  1.00  0.00     0.180 A 
ATOM     29  C   UNL     1      17.366  -5.051  24.640  1.00  0.00     0.239 A 
ATOM     30  O   UNL     1      15.679  -4.156  23.074  1.00  0.00    -0.452 OA
ATOM     31  C   UNL     1      17.892  -4.822  23.335  1.00  0.00     0.111 A 
ATOM     32  O   UNL     1      17.404  -4.243  25.584  1.00  0.00    -0.285 OA
ATOM     33  C   UNL     1      16.992  -3.929  22.740  1.00  0.00     0.146 A 
ATOM     34  C   UNL     1      18.264  -5.891  22.420  1.00  0.00     0.134 A 
ATOM     35  C   UNL     1      17.261  -3.436  21.484  1.00  0.00     0.094 A 
ATOM     36  C   UNL     1      18.274  -5.607  21.038  1.00  0.00     0.093 A 
ATOM     37  C   UNL     1      17.836  -4.362  20.578  1.00  0.00     0.123 A 
BRANCH  28  38
ATOM     38  C   UNL     1      14.175  -5.922  23.355  1.00  0.00     0.025 A 
ATOM     39  C   UNL     1      13.278  -5.145  22.572  1.00  0.00     0.062 A 
ATOM     40  C   UNL     1      14.300  -7.338  23.211  1.00  0.00     0.016 A 
ATOM     41  C   UNL     1      12.616  -5.776  21.507  1.00  0.00     0.158 A 
ATOM     42  C   UNL     1      13.803  -7.882  22.004  1.00  0.00     0.051 A 
ATOM     43  C   UNL     1      12.954  -7.096  21.212  1.00  0.00     0.157 A 
BRANCH  41  44
ATOM     44  O   UNL     1      11.575  -5.178  20.882  1.00  0.00    -0.504 OA
ATOM     45  H   UNL     1      11.674  -4.462  20.073  1.00  0.00     0.293 HD
ENDBRANCH  41  44
BRANCH  43  46
ATOM     46  O   UNL     1      12.345  -7.717  20.113  1.00  0.00    -0.504 OA
ATOM     47  H   UNL     1      11.686  -7.219  19.540  1.00  0.00     0.293 HD
ENDBRANCH  43  46
ENDBRANCH  28  38
BRANCH  34  48
ATOM     48  O   UNL     1      18.379  -7.229  22.907  1.00  0.00    -0.507 OA
ATOM     49  H   UNL     1      19.111  -7.808  22.576  1.00  0.00     0.293 HD
ENDBRANCH  34  48
BRANCH  37  50
ATOM     50  O   UNL     1      17.789  -4.082  19.209  1.00  0.00    -0.508 OA
ATOM     51  H   UNL     1      17.409  -3.176  18.911  1.00  0.00     0.293 HD
ENDBRANCH  37  50
ENDBRANCH  26  27
ENDBRANCH   5  26
BRANCH   4  52
ATOM     52  O   UNL     1      14.137  -8.996  26.858  1.00  0.00    -0.384 OA
ATOM     53  H   UNL     1      14.648  -9.290  26.047  1.00  0.00     0.211 HD
ENDBRANCH   4  52
TORSDOF 16
ENDMDL
