MODEL 1
REMARK VINA RESULT:    45.024      0.000      0.000
REMARK INTER + INTRA:          54.154
REMARK INTER:                  54.236
REMARK INTRA:                  -0.082
REMARK UNBOUND:                -0.082
REMARK SMILES Oc1cc(O)c2c(c1)O[C@H](c1ccc(O)c(O)c1)[C@@H](O)C2
REMARK SMILES IDX 21 1 19 2 10 3 9 4 7 5 8 6 2 7 3 8 4 9 6 10 20 11 11 13
REMARK SMILES IDX 18 14 12 15 16 16 13 17 14 18 17 19 15 21 5 23 1 25
REMARK H PARENT 20 12 17 20 15 22 5 24 1 26
REMARK Flexibility Score: inf
ROOT
ATOM      1  C   UNL     1      13.656   5.309  12.843  1.00  0.00     0.079 C 
ATOM      2  C   UNL     1      13.039   4.570  11.640  1.00  0.00     0.164 C 
ATOM      3  C   UNL     1      13.879   4.821  10.372  1.00  0.00     0.232 C 
ATOM      4  O   UNL     1      13.988   6.224  10.137  1.00  0.00    -0.482 OA
ATOM      5  C   UNL     1      14.142   7.148  11.176  1.00  0.00     0.131 A 
ATOM      6  C   UNL     1      14.430   8.478  10.862  1.00  0.00     0.093 A 
ATOM      7  C   UNL     1      14.604   9.422  11.878  1.00  0.00     0.122 A 
ATOM      8  C   UNL     1      14.500   9.030  13.215  1.00  0.00     0.092 A 
ATOM      9  C   UNL     1      14.214   7.701  13.550  1.00  0.00     0.126 A 
ATOM     10  C   UNL     1      13.992   6.751  12.523  1.00  0.00     0.039 A 
ENDROOT
BRANCH   2  11
ATOM     11  O   UNL     1      12.916   3.197  11.913  1.00  0.00    -0.389 OA
ATOM     12  H   UNL     1      13.118   3.062  12.877  1.00  0.00     0.211 HD
ENDBRANCH   2  11
BRANCH   3  13
ATOM     13  C   UNL     1      13.264   4.148   9.167  1.00  0.00    -0.001 A 
ATOM     14  C   UNL     1      12.479   4.884   8.263  1.00  0.00     0.057 A 
ATOM     15  C   UNL     1      13.429   2.768   8.967  1.00  0.00     0.012 A 
ATOM     16  C   UNL     1      11.885   4.253   7.159  1.00  0.00     0.157 A 
ATOM     17  C   UNL     1      12.837   2.139   7.868  1.00  0.00     0.050 A 
ATOM     18  C   UNL     1      12.067   2.873   6.963  1.00  0.00     0.157 A 
BRANCH  16  19
ATOM     19  O   UNL     1      11.113   4.990   6.264  1.00  0.00    -0.504 OA
ATOM     20  H   UNL     1      10.293   4.596   5.818  1.00  0.00     0.293 HD
ENDBRANCH  16  19
BRANCH  18  21
ATOM     21  O   UNL     1      11.490   2.217   5.875  1.00  0.00    -0.504 OA
ATOM     22  H   UNL     1      11.521   1.210   5.777  1.00  0.00     0.293 HD
ENDBRANCH  18  21
ENDBRANCH   3  13
BRANCH   9  23
ATOM     23  O   UNL     1      14.166   7.361  14.903  1.00  0.00    -0.507 OA
ATOM     24  H   UNL     1      14.525   7.956  15.638  1.00  0.00     0.293 HD
ENDBRANCH   9  23
BRANCH   7  25
ATOM     25  O   UNL     1      14.890  10.751  11.573  1.00  0.00    -0.508 OA
ATOM     26  H   UNL     1      15.093  11.430  12.299  1.00  0.00     0.293 HD
ENDBRANCH   7  25
TORSDOF 6
ENDMDL
MODEL 2
REMARK VINA RESULT:    46.637     14.697     15.715
REMARK INTER + INTRA:          56.097
REMARK INTER:                  55.816
REMARK INTRA:                   0.281
REMARK UNBOUND:                -0.082
REMARK SMILES Oc1cc(O)c2c(c1)O[C@H](c1ccc(O)c(O)c1)[C@@H](O)C2
REMARK SMILES IDX 21 1 19 2 10 3 9 4 7 5 8 6 2 7 3 8 4 9 6 10 20 11 11 13
REMARK SMILES IDX 18 14 12 15 16 16 13 17 14 18 17 19 15 21 5 23 1 25
REMARK H PARENT 20 12 17 20 15 22 5 24 1 26
REMARK Flexibility Score: inf
ROOT
ATOM      1  C   UNL     1       1.910   6.937  19.418  1.00  0.00     0.079 C 
ATOM      2  C   UNL     1       2.396   5.514  19.755  1.00  0.00     0.164 C 
ATOM      3  C   UNL     1       2.073   5.173  21.222  1.00  0.00     0.232 C 
ATOM      4  O   UNL     1       2.654   6.151  22.083  1.00  0.00    -0.482 OA
ATOM      5  C   UNL     1       2.689   7.512  21.755  1.00  0.00     0.131 A 
ATOM      6  C   UNL     1       3.101   8.430  22.723  1.00  0.00     0.093 A 
ATOM      7  C   UNL     1       3.131   9.798  22.431  1.00  0.00     0.122 A 
ATOM      8  C   UNL     1       2.738  10.246  21.168  1.00  0.00     0.092 A 
ATOM      9  C   UNL     1       2.321   9.340  20.186  1.00  0.00     0.126 A 
ATOM     10  C   UNL     1       2.331   7.952  20.462  1.00  0.00     0.039 A 
ENDROOT
BRANCH   2  11
ATOM     11  O   UNL     1       1.832   4.578  18.872  1.00  0.00    -0.389 OA
ATOM     12  H   UNL     1       2.382   4.574  18.044  1.00  0.00     0.211 HD
ENDBRANCH   2  11
BRANCH   3  13
ATOM     13  C   UNL     1       2.588   3.801  21.590  1.00  0.00    -0.001 A 
ATOM     14  C   UNL     1       3.225   2.996  20.630  1.00  0.00     0.057 A 
ATOM     15  C   UNL     1       2.388   3.295  22.885  1.00  0.00     0.012 A 
ATOM     16  C   UNL     1       3.678   1.711  20.965  1.00  0.00     0.157 A 
ATOM     17  C   UNL     1       2.839   2.015  23.219  1.00  0.00     0.050 A 
ATOM     18  C   UNL     1       3.483   1.220  22.267  1.00  0.00     0.157 A 
BRANCH  16  19
ATOM     19  O   UNL     1       4.314   0.922  20.009  1.00  0.00    -0.504 OA
ATOM     20  H   UNL     1       4.777   0.056  20.257  1.00  0.00     0.293 HD
ENDBRANCH  16  19
BRANCH  18  21
ATOM     21  O   UNL     1       3.922  -0.053  22.631  1.00  0.00    -0.504 OA
ATOM     22  H   UNL     1       4.675  -0.522  22.143  1.00  0.00     0.293 HD
ENDBRANCH  18  21
ENDBRANCH   3  13
BRANCH   9  23
ATOM     23  O   UNL     1       1.898   9.853  18.957  1.00  0.00    -0.507 OA
ATOM     24  H   UNL     1       1.891   9.313  18.103  1.00  0.00     0.293 HD
ENDBRANCH   9  23
BRANCH   7  25
ATOM     25  O   UNL     1       3.542  10.720  23.390  1.00  0.00    -0.508 OA
ATOM     26  H   UNL     1       2.883  11.349  23.838  1.00  0.00     0.293 HD
ENDBRANCH   7  25
TORSDOF 6
ENDMDL
