MODEL 1
REMARK VINA RESULT:    -5.528      0.000      0.000
REMARK INTER + INTRA:          -8.670
REMARK INTER:                  -7.629
REMARK INTRA:                  -1.041
REMARK UNBOUND:                -1.041
REMARK SMILES CCCCc1cccc(O)c1CCCC
REMARK SMILES IDX 5 1 11 2 9 3 8 4 7 5 6 6 4 7 3 8 2 9 1 10 12 11 13 12 14 13
REMARK SMILES IDX 15 14 10 15
REMARK H PARENT 10 16
REMARK Flexibility Score: inf
ROOT
ATOM      1  C   UNL     1      -8.949   8.009  35.713  1.00  0.00    -0.041 A 
ATOM      2  C   UNL     1      -8.280   7.194  34.755  1.00  0.00    -0.003 A 
ATOM      3  C   UNL     1      -6.888   7.353  34.570  1.00  0.00     0.119 A 
ATOM      4  C   UNL     1      -6.187   8.329  35.289  1.00  0.00     0.046 A 
ATOM      5  C   UNL     1      -6.851   9.145  36.200  1.00  0.00     0.004 A 
ATOM      6  C   UNL     1      -8.220   8.989  36.410  1.00  0.00     0.004 A 
ENDROOT
BRANCH   1   7
ATOM      7  C   UNL     1     -10.434   7.907  35.983  1.00  0.00     0.036 C 
BRANCH   7   8
ATOM      8  C   UNL     1     -11.129   9.246  35.705  1.00  0.00     0.004 C 
BRANCH   8   9
ATOM      9  C   UNL     1     -12.471   9.032  34.997  1.00  0.00    -0.003 C 
ATOM     10  C   UNL     1     -12.675   7.564  34.633  1.00  0.00     0.004 C 
ENDBRANCH   8   9
ENDBRANCH   7   8
ENDBRANCH   1   7
BRANCH   2  11
ATOM     11  C   UNL     1      -9.006   6.119  33.972  1.00  0.00     0.040 C 
BRANCH  11  12
ATOM     12  C   UNL     1      -9.293   4.902  34.859  1.00  0.00     0.005 C 
BRANCH  12  13
ATOM     13  C   UNL     1     -10.733   4.409  34.667  1.00  0.00    -0.003 C 
ATOM     14  C   UNL     1     -11.440   4.238  36.008  1.00  0.00     0.004 C 
ENDBRANCH  12  13
ENDBRANCH  11  12
ENDBRANCH   2  11
BRANCH   3  15
ATOM     15  O   UNL     1      -6.201   6.538  33.669  1.00  0.00    -0.508 OA
ATOM     16  H   UNL     1      -5.200   6.399  33.733  1.00  0.00     0.293 HD
ENDBRANCH   3  15
TORSDOF 7
ENDMDL
MODEL 2
REMARK VINA RESULT:    -5.496      1.544      3.793
REMARK INTER + INTRA:          -8.625
REMARK INTER:                  -7.631
REMARK INTRA:                  -0.994
REMARK UNBOUND:                -1.041
REMARK SMILES CCCCc1cccc(O)c1CCCC
REMARK SMILES IDX 5 1 11 2 9 3 8 4 7 5 6 6 4 7 3 8 2 9 1 10 12 11 13 12 14 13
REMARK SMILES IDX 15 14 10 15
REMARK H PARENT 10 16
REMARK Flexibility Score: inf
ROOT
ATOM      1  C   UNL     1      -8.234   7.264  34.742  1.00  0.00    -0.041 A 
ATOM      2  C   UNL     1      -8.805   8.057  35.778  1.00  0.00    -0.003 A 
ATOM      3  C   UNL     1      -7.994   9.002  36.446  1.00  0.00     0.119 A 
ATOM      4  C   UNL     1      -6.638   9.124  36.121  1.00  0.00     0.046 A 
ATOM      5  C   UNL     1      -6.076   8.323  35.131  1.00  0.00     0.004 A 
ATOM      6  C   UNL     1      -6.866   7.399  34.448  1.00  0.00     0.004 A 
ENDROOT
BRANCH   1   7
ATOM      7  C   UNL     1      -9.025   6.231  33.970  1.00  0.00     0.036 C 
BRANCH   7   8
ATOM      8  C   UNL     1      -8.228   4.928  33.834  1.00  0.00     0.004 C 
BRANCH   8   9
ATOM      9  C   UNL     1      -9.050   3.729  34.320  1.00  0.00    -0.003 C 
ATOM     10  C   UNL     1     -10.135   4.164  35.301  1.00  0.00     0.004 C 
ENDBRANCH   8   9
ENDBRANCH   7   8
ENDBRANCH   1   7
BRANCH   2  11
ATOM     11  C   UNL     1     -10.273   7.963  36.145  1.00  0.00     0.040 C 
BRANCH  11  12
ATOM     12  C   UNL     1     -11.077   9.070  35.454  1.00  0.00     0.005 C 
BRANCH  12  13
ATOM     13  C   UNL     1     -12.509   8.608  35.158  1.00  0.00    -0.003 C 
ATOM     14  C   UNL     1     -12.526   7.184  34.611  1.00  0.00     0.004 C 
ENDBRANCH  12  13
ENDBRANCH  11  12
ENDBRANCH   2  11
BRANCH   3  15
ATOM     15  O   UNL     1      -8.539   9.823  37.435  1.00  0.00    -0.508 OA
ATOM     16  H   UNL     1      -9.533  10.013  37.481  1.00  0.00     0.293 HD
ENDBRANCH   3  15
TORSDOF 7
ENDMDL
MODEL 3
REMARK VINA RESULT:    -5.480      2.026      4.427
REMARK INTER + INTRA:          -8.604
REMARK INTER:                  -7.777
REMARK INTRA:                  -0.827
REMARK UNBOUND:                -1.041
REMARK SMILES CCCCc1cccc(O)c1CCCC
REMARK SMILES IDX 5 1 11 2 9 3 8 4 7 5 6 6 4 7 3 8 2 9 1 10 12 11 13 12 14 13
REMARK SMILES IDX 15 14 10 15
REMARK H PARENT 10 16
REMARK Flexibility Score: inf
ROOT
ATOM      1  C   UNL     1     -10.013   7.628  35.572  1.00  0.00    -0.041 A 
ATOM      2  C   UNL     1     -10.527   6.523  34.837  1.00  0.00    -0.003 A 
ATOM      3  C   UNL     1     -11.857   6.572  34.361  1.00  0.00     0.119 A 
ATOM      4  C   UNL     1     -12.668   7.677  34.648  1.00  0.00     0.046 A 
ATOM      5  C   UNL     1     -12.172   8.740  35.396  1.00  0.00     0.004 A 
ATOM      6  C   UNL     1     -10.856   8.717  35.856  1.00  0.00     0.004 A 
ENDROOT
BRANCH   1   7
ATOM      7  C   UNL     1      -8.601   7.667  36.116  1.00  0.00     0.036 C 
BRANCH   7   8
ATOM      8  C   UNL     1      -8.188   9.105  36.450  1.00  0.00     0.004 C 
BRANCH   8   9
ATOM      9  C   UNL     1      -6.724   9.358  36.072  1.00  0.00    -0.003 C 
ATOM     10  C   UNL     1      -6.237   8.341  35.043  1.00  0.00     0.004 C 
ENDBRANCH   8   9
ENDBRANCH   7   8
ENDBRANCH   1   7
BRANCH   2  11
ATOM     11  C   UNL     1      -9.671   5.319  34.495  1.00  0.00     0.040 C 
BRANCH  11  12
ATOM     12  C   UNL     1      -8.688   5.654  33.367  1.00  0.00     0.005 C 
BRANCH  12  13
ATOM     13  C   UNL     1      -7.300   5.073  33.657  1.00  0.00    -0.003 C 
ATOM     14  C   UNL     1      -6.624   4.595  32.375  1.00  0.00     0.004 C 
ENDBRANCH  12  13
ENDBRANCH  11  12
ENDBRANCH   2  11
BRANCH   3  15
ATOM     15  O   UNL     1     -12.372   5.521  33.601  1.00  0.00    -0.508 OA
ATOM     16  H   UNL     1     -12.951   4.800  34.013  1.00  0.00     0.293 HD
ENDBRANCH   3  15
TORSDOF 7
ENDMDL
MODEL 4
REMARK VINA RESULT:    -5.439      3.314      6.220
REMARK INTER + INTRA:          -8.547
REMARK INTER:                  -7.552
REMARK INTRA:                  -0.995
REMARK UNBOUND:                -1.041
REMARK SMILES CCCCc1cccc(O)c1CCCC
REMARK SMILES IDX 5 1 11 2 9 3 8 4 7 5 6 6 4 7 3 8 2 9 1 10 12 11 13 12 14 13
REMARK SMILES IDX 15 14 10 15
REMARK H PARENT 10 16
REMARK Flexibility Score: inf
ROOT
ATOM      1  C   UNL     1     -13.698   4.896  34.361  1.00  0.00    -0.041 A 
ATOM      2  C   UNL     1     -13.153   3.882  35.199  1.00  0.00    -0.003 A 
ATOM      3  C   UNL     1     -13.850   2.661  35.343  1.00  0.00     0.119 A 
ATOM      4  C   UNL     1     -15.081   2.472  34.702  1.00  0.00     0.046 A 
ATOM      5  C   UNL     1     -15.626   3.479  33.911  1.00  0.00     0.004 A 
ATOM      6  C   UNL     1     -14.942   4.682  33.743  1.00  0.00     0.004 A 
ENDROOT
BRANCH   1   7
ATOM      7  C   UNL     1     -13.022   6.232  34.144  1.00  0.00     0.036 C 
BRANCH   7   8
ATOM      8  C   UNL     1     -13.926   7.380  34.608  1.00  0.00     0.004 C 
BRANCH   8   9
ATOM      9  C   UNL     1     -13.097   8.541  35.169  1.00  0.00    -0.003 C 
ATOM     10  C   UNL     1     -11.708   8.071  35.594  1.00  0.00     0.004 C 
ENDBRANCH   8   9
ENDBRANCH   7   8
ENDBRANCH   1   7
BRANCH   2  11
ATOM     11  C   UNL     1     -11.816   4.048  35.894  1.00  0.00     0.040 C 
BRANCH  11  12
ATOM     12  C   UNL     1     -10.664   3.920  34.891  1.00  0.00     0.005 C 
BRANCH  12  13
ATOM     13  C   UNL     1      -9.641   5.046  35.081  1.00  0.00    -0.003 C 
ATOM     14  C   UNL     1      -9.240   5.658  33.742  1.00  0.00     0.004 C 
ENDBRANCH  12  13
ENDBRANCH  11  12
ENDBRANCH   2  11
BRANCH   3  15
ATOM     15  O   UNL     1     -13.317   1.634  36.123  1.00  0.00    -0.508 OA
ATOM     16  H   UNL     1     -12.943   1.808  37.048  1.00  0.00     0.293 HD
ENDBRANCH   3  15
TORSDOF 7
ENDMDL
MODEL 5
REMARK VINA RESULT:    -5.394      3.629      7.022
REMARK INTER + INTRA:          -8.484
REMARK INTER:                  -7.517
REMARK INTRA:                  -0.967
REMARK UNBOUND:                -1.041
REMARK SMILES CCCCc1cccc(O)c1CCCC
REMARK SMILES IDX 5 1 11 2 9 3 8 4 7 5 6 6 4 7 3 8 2 9 1 10 12 11 13 12 14 13
REMARK SMILES IDX 15 14 10 15
REMARK H PARENT 10 16
REMARK Flexibility Score: inf
ROOT
ATOM      1  C   UNL     1     -13.271   3.986  35.124  1.00  0.00    -0.041 A 
ATOM      2  C   UNL     1     -13.834   4.925  34.214  1.00  0.00    -0.003 A 
ATOM      3  C   UNL     1     -15.080   4.636  33.612  1.00  0.00     0.119 A 
ATOM      4  C   UNL     1     -15.728   3.424  33.876  1.00  0.00     0.046 A 
ATOM      5  C   UNL     1     -15.157   2.495  34.741  1.00  0.00     0.004 A 
ATOM      6  C   UNL     1     -13.938   2.771  35.359  1.00  0.00     0.004 A 
ENDROOT
BRANCH   1   7
ATOM      7  C   UNL     1     -11.946   4.211  35.819  1.00  0.00     0.036 C 
BRANCH   7   8
ATOM      8  C   UNL     1     -11.149   2.903  35.904  1.00  0.00     0.004 C 
BRANCH   8   9
ATOM      9  C   UNL     1      -9.725   3.092  35.371  1.00  0.00    -0.003 C 
ATOM     10  C   UNL     1      -9.636   4.308  34.453  1.00  0.00     0.004 C 
ENDBRANCH   8   9
ENDBRANCH   7   8
ENDBRANCH   1   7
BRANCH   2  11
ATOM     11  C   UNL     1     -13.168   6.254  33.917  1.00  0.00     0.040 C 
BRANCH  11  12
ATOM     12  C   UNL     1     -13.745   7.361  34.808  1.00  0.00     0.005 C 
BRANCH  12  13
ATOM     13  C   UNL     1     -12.708   8.463  35.057  1.00  0.00    -0.003 C 
ATOM     14  C   UNL     1     -11.407   7.882  35.602  1.00  0.00     0.004 C 
ENDBRANCH  12  13
ENDBRANCH  11  12
ENDBRANCH   2  11
BRANCH   3  15
ATOM     15  O   UNL     1     -15.675   5.559  32.750  1.00  0.00    -0.508 OA
ATOM     16  H   UNL     1     -15.625   6.556  32.920  1.00  0.00     0.293 HD
ENDBRANCH   3  15
TORSDOF 7
ENDMDL
MODEL 6
REMARK VINA RESULT:    -5.379      2.394      4.410
REMARK INTER + INTRA:          -8.465
REMARK INTER:                  -7.919
REMARK INTRA:                  -0.546
REMARK UNBOUND:                -1.041
REMARK SMILES CCCCc1cccc(O)c1CCCC
REMARK SMILES IDX 5 1 11 2 9 3 8 4 7 5 6 6 4 7 3 8 2 9 1 10 12 11 13 12 14 13
REMARK SMILES IDX 15 14 10 15
REMARK H PARENT 10 16
REMARK Flexibility Score: inf
ROOT
ATOM      1  C   UNL     1     -12.436   6.416  34.737  1.00  0.00    -0.041 A 
ATOM      2  C   UNL     1     -11.153   6.365  35.352  1.00  0.00    -0.003 A 
ATOM      3  C   UNL     1     -10.601   7.551  35.888  1.00  0.00     0.119 A 
ATOM      4  C   UNL     1     -11.290   8.764  35.776  1.00  0.00     0.046 A 
ATOM      5  C   UNL     1     -12.529   8.814  35.144  1.00  0.00     0.004 A 
ATOM      6  C   UNL     1     -13.098   7.651  34.627  1.00  0.00     0.004 A 
ENDROOT
BRANCH   1   7
ATOM      7  C   UNL     1     -13.108   5.198  34.140  1.00  0.00     0.036 C 
BRANCH   7   8
ATOM      8  C   UNL     1     -14.564   5.509  33.771  1.00  0.00     0.004 C 
BRANCH   8   9
ATOM      9  C   UNL     1     -15.225   4.308  33.087  1.00  0.00    -0.003 C 
ATOM     10  C   UNL     1     -15.690   3.276  34.111  1.00  0.00     0.004 C 
ENDBRANCH   8   9
ENDBRANCH   7   8
ENDBRANCH   1   7
BRANCH   2  11
ATOM     11  C   UNL     1     -10.387   5.066  35.505  1.00  0.00     0.040 C 
BRANCH  11  12
ATOM     12  C   UNL     1      -9.770   4.640  34.168  1.00  0.00     0.005 C 
BRANCH  12  13
ATOM     13  C   UNL     1      -8.986   5.793  33.530  1.00  0.00    -0.003 C 
ATOM     14  C   UNL     1      -7.503   5.709  33.878  1.00  0.00     0.004 C 
ENDBRANCH  12  13
ENDBRANCH  11  12
ENDBRANCH   2  11
BRANCH   3  15
ATOM     15  O   UNL     1      -9.364   7.521  36.535  1.00  0.00    -0.508 OA
ATOM     16  H   UNL     1      -9.205   6.945  37.353  1.00  0.00     0.293 HD
ENDBRANCH   3  15
TORSDOF 7
ENDMDL
MODEL 7
REMARK VINA RESULT:    -5.337      2.244      4.568
REMARK INTER + INTRA:          -8.406
REMARK INTER:                  -7.750
REMARK INTRA:                  -0.656
REMARK UNBOUND:                -1.041
REMARK SMILES CCCCc1cccc(O)c1CCCC
REMARK SMILES IDX 5 1 11 2 9 3 8 4 7 5 6 6 4 7 3 8 2 9 1 10 12 11 13 12 14 13
REMARK SMILES IDX 15 14 10 15
REMARK H PARENT 10 16
REMARK Flexibility Score: inf
ROOT
ATOM      1  C   UNL     1     -10.990   7.350  35.337  1.00  0.00    -0.041 A 
ATOM      2  C   UNL     1     -11.506   6.216  34.649  1.00  0.00    -0.003 A 
ATOM      3  C   UNL     1     -12.845   6.238  34.196  1.00  0.00     0.119 A 
ATOM      4  C   UNL     1     -13.661   7.343  34.461  1.00  0.00     0.046 A 
ATOM      5  C   UNL     1     -13.162   8.435  35.164  1.00  0.00     0.004 A 
ATOM      6  C   UNL     1     -11.838   8.440  35.601  1.00  0.00     0.004 A 
ENDROOT
BRANCH   1   7
ATOM      7  C   UNL     1      -9.569   7.420  35.855  1.00  0.00     0.036 C 
BRANCH   7   8
ATOM      8  C   UNL     1      -9.177   8.868  36.169  1.00  0.00     0.004 C 
BRANCH   8   9
ATOM      9  C   UNL     1      -7.851   8.924  36.935  1.00  0.00    -0.003 C 
ATOM     10  C   UNL     1      -6.674   9.132  35.985  1.00  0.00     0.004 C 
ENDBRANCH   8   9
ENDBRANCH   7   8
ENDBRANCH   1   7
BRANCH   2  11
ATOM     11  C   UNL     1     -10.645   5.010  34.331  1.00  0.00     0.040 C 
BRANCH  11  12
ATOM     12  C   UNL     1     -10.763   3.953  35.435  1.00  0.00     0.005 C 
BRANCH  12  13
ATOM     13  C   UNL     1      -9.545   3.021  35.438  1.00  0.00    -0.003 C 
ATOM     14  C   UNL     1      -8.660   3.268  34.221  1.00  0.00     0.004 C 
ENDBRANCH  12  13
ENDBRANCH  11  12
ENDBRANCH   2  11
BRANCH   3  15
ATOM     15  O   UNL     1     -13.362   5.157  33.480  1.00  0.00    -0.508 OA
ATOM     16  H   UNL     1     -12.777   4.385  33.184  1.00  0.00     0.293 HD
ENDBRANCH   3  15
TORSDOF 7
ENDMDL
MODEL 8
REMARK VINA RESULT:    -5.073      2.777      4.740
REMARK INTER + INTRA:          -8.043
REMARK INTER:                  -7.213
REMARK INTRA:                  -0.830
REMARK UNBOUND:                -1.041
REMARK SMILES CCCCc1cccc(O)c1CCCC
REMARK SMILES IDX 5 1 11 2 9 3 8 4 7 5 6 6 4 7 3 8 2 9 1 10 12 11 13 12 14 13
REMARK SMILES IDX 15 14 10 15
REMARK H PARENT 10 16
REMARK Flexibility Score: inf
ROOT
ATOM      1  C   UNL     1     -11.019   6.623  34.857  1.00  0.00    -0.041 A 
ATOM      2  C   UNL     1     -12.196   7.408  34.697  1.00  0.00    -0.003 A 
ATOM      3  C   UNL     1     -12.238   8.705  35.256  1.00  0.00     0.119 A 
ATOM      4  C   UNL     1     -11.151   9.192  35.993  1.00  0.00     0.046 A 
ATOM      5  C   UNL     1     -10.016   8.408  36.175  1.00  0.00     0.004 A 
ATOM      6  C   UNL     1      -9.949   7.134  35.614  1.00  0.00     0.004 A 
ENDROOT
BRANCH   1   7
ATOM      7  C   UNL     1     -10.881   5.226  34.291  1.00  0.00     0.036 C 
BRANCH   7   8
ATOM      8  C   UNL     1     -10.431   4.243  35.378  1.00  0.00     0.004 C 
BRANCH   8   9
ATOM      9  C   UNL     1     -11.628   3.732  36.186  1.00  0.00    -0.003 C 
ATOM     10  C   UNL     1     -11.629   2.208  36.267  1.00  0.00     0.004 C 
ENDBRANCH   8   9
ENDBRANCH   7   8
ENDBRANCH   1   7
BRANCH   2  11
ATOM     11  C   UNL     1     -13.384   6.918  33.893  1.00  0.00     0.040 C 
BRANCH  11  12
ATOM     12  C   UNL     1     -14.097   5.773  34.620  1.00  0.00     0.005 C 
BRANCH  12  13
ATOM     13  C   UNL     1     -14.864   4.886  33.632  1.00  0.00    -0.003 C 
ATOM     14  C   UNL     1     -15.161   3.517  34.236  1.00  0.00     0.004 C 
ENDBRANCH  12  13
ENDBRANCH  11  12
ENDBRANCH   2  11
BRANCH   3  15
ATOM     15  O   UNL     1     -13.363   9.512  35.077  1.00  0.00    -0.508 OA
ATOM     16  H   UNL     1     -13.309  10.522  35.138  1.00  0.00     0.293 HD
ENDBRANCH   3  15
TORSDOF 7
ENDMDL
MODEL 9
REMARK VINA RESULT:    -4.907      7.976      9.207
REMARK INTER + INTRA:          -7.812
REMARK INTER:                  -6.326
REMARK INTRA:                  -1.486
REMARK UNBOUND:                -1.041
REMARK SMILES CCCCc1cccc(O)c1CCCC
REMARK SMILES IDX 5 1 11 2 9 3 8 4 7 5 6 6 4 7 3 8 2 9 1 10 12 11 13 12 14 13
REMARK SMILES IDX 15 14 10 15
REMARK H PARENT 10 16
REMARK Flexibility Score: inf
ROOT
ATOM      1  C   UNL     1     -12.293  16.344  33.802  1.00  0.00    -0.041 A 
ATOM      2  C   UNL     1     -11.883  15.538  34.901  1.00  0.00    -0.003 A 
ATOM      3  C   UNL     1     -10.600  14.946  34.878  1.00  0.00     0.119 A 
ATOM      4  C   UNL     1      -9.763  15.117  33.768  1.00  0.00     0.046 A 
ATOM      5  C   UNL     1     -10.182  15.879  32.682  1.00  0.00     0.004 A 
ATOM      6  C   UNL     1     -11.437  16.486  32.695  1.00  0.00     0.004 A 
ENDROOT
BRANCH   1   7
ATOM      7  C   UNL     1     -13.645  17.021  33.740  1.00  0.00     0.036 C 
BRANCH   7   8
ATOM      8  C   UNL     1     -14.457  16.504  32.546  1.00  0.00     0.004 C 
BRANCH   8   9
ATOM      9  C   UNL     1     -15.295  15.283  32.939  1.00  0.00    -0.003 C 
ATOM     10  C   UNL     1     -14.661  13.992  32.429  1.00  0.00     0.004 C 
ENDBRANCH   8   9
ENDBRANCH   7   8
ENDBRANCH   1   7
BRANCH   2  11
ATOM     11  C   UNL     1     -12.756  15.346  36.125  1.00  0.00     0.040 C 
BRANCH  11  12
ATOM     12  C   UNL     1     -13.543  14.033  36.029  1.00  0.00     0.005 C 
BRANCH  12  13
ATOM     13  C   UNL     1     -14.936  14.180  36.653  1.00  0.00    -0.003 C 
ATOM     14  C   UNL     1     -15.359  15.644  36.719  1.00  0.00     0.004 C 
ENDBRANCH  12  13
ENDBRANCH  11  12
ENDBRANCH   2  11
BRANCH   3  15
ATOM     15  O   UNL     1     -10.156  14.187  35.962  1.00  0.00    -0.508 OA
ATOM     16  H   UNL     1     -10.208  13.176  35.961  1.00  0.00     0.293 HD
ENDBRANCH   3  15
TORSDOF 7
ENDMDL
