MODEL 1
REMARK VINA RESULT:    54.313      0.000      0.000
REMARK INTER + INTRA:          83.598
REMARK INTER:                  79.714
REMARK INTRA:                   3.884
REMARK UNBOUND:                 3.884
REMARK SMILES Cc1cc2c(C(C)C)c(O)c(O)c(C=O)c2c(O)c1-c1c(C)cc2c(C(C)C)c(O)c(O)c(C=O)c2c1O
REMARK SMILES IDX 1 1 2 2 3 3 4 4 16 5 13 6 11 7 9 8 5 9 17 10 19 11 20 12
REMARK SMILES IDX 37 13 21 14 36 15 23 16 22 17 24 18 33 19 25 20 31 21 29 22
REMARK SMILES IDX 38 23 34 25 35 26 26 27 27 28 28 29 32 30 30 32 18 34 6 36
REMARK SMILES IDX 7 37 8 38 14 39 15 40 10 41 12 43
REMARK H PARENT 38 24 32 31 30 33 18 35 10 42 12 44
REMARK Flexibility Score: inf
ROOT
ATOM      1  C   UNL     1      40.076 106.863 265.152  1.00  0.00     0.045 C 
ATOM      2  C   UNL     1      39.233 106.626 263.922  1.00  0.00    -0.039 A 
ATOM      3  C   UNL     1      39.845 106.212 262.740  1.00  0.00     0.013 A 
ATOM      4  C   UNL     1      39.105 105.948 261.567  1.00  0.00    -0.006 A 
ATOM      5  C   UNL     1      37.703 106.227 261.561  1.00  0.00     0.039 A 
ATOM      6  C   UNL     1      36.977 106.079 260.340  1.00  0.00     0.072 A 
ATOM      7  C   UNL     1      37.658 105.738 259.154  1.00  0.00     0.169 A 
ATOM      8  C   UNL     1      39.029 105.468 259.175  1.00  0.00     0.162 A 
ATOM      9  C   UNL     1      39.745 105.449 260.390  1.00  0.00     0.008 A 
ATOM     10  C   UNL     1      37.085 106.683 262.767  1.00  0.00     0.132 A 
ATOM     11  C   UNL     1      37.847 106.846 263.944  1.00  0.00     0.031 A 
ENDROOT
BRANCH  11  12
ATOM     12  C   UNL     1      37.191 107.278 265.207  1.00  0.00     0.031 A 
ATOM     13  C   UNL     1      36.826 106.324 266.181  1.00  0.00     0.132 A 
ATOM     14  C   UNL     1      36.969 108.643 265.444  1.00  0.00    -0.039 A 
ATOM     15  C   UNL     1      36.149 106.728 267.371  1.00  0.00     0.039 A 
ATOM     16  C   UNL     1      36.395 109.049 266.649  1.00  0.00     0.013 A 
ATOM     17  C   UNL     1      37.404 109.686 264.442  1.00  0.00     0.045 C 
ATOM     18  C   UNL     1      35.940 108.120 267.611  1.00  0.00    -0.006 A 
ATOM     19  C   UNL     1      35.716 105.787 268.351  1.00  0.00     0.072 A 
ATOM     20  C   UNL     1      35.325 108.554 268.826  1.00  0.00     0.008 A 
ATOM     21  C   UNL     1      35.263 106.238 269.604  1.00  0.00     0.169 A 
ATOM     22  C   UNL     1      35.151 107.615 269.866  1.00  0.00     0.162 A 
BRANCH  13  23
ATOM     23  O   UNL     1      37.180 104.984 265.990  1.00  0.00    -0.507 OA
ATOM     24  H   UNL     1      36.776 104.213 266.508  1.00  0.00     0.293 HD
ENDBRANCH  13  23
BRANCH  19  25
ATOM     25  C   UNL     1      35.642 104.333 268.070  1.00  0.00     0.264 C 
ATOM     26  O   UNL     1      35.785 103.887 266.900  1.00  0.00    -0.298 OA
ENDBRANCH  19  25
BRANCH  20  27
ATOM     27  C   UNL     1      34.901 110.019 269.042  1.00  0.00     0.017 C 
ATOM     28  C   UNL     1      35.654 110.953 268.089  1.00  0.00     0.012 C 
ATOM     29  C   UNL     1      35.022 110.493 270.503  1.00  0.00     0.012 C 
ENDBRANCH  20  27
BRANCH  21  30
ATOM     30  O   UNL     1      34.879 105.292 270.561  1.00  0.00    -0.504 OA
ATOM     31  H   UNL     1      34.757 105.498 271.543  1.00  0.00     0.293 HD
ENDBRANCH  21  30
BRANCH  22  32
ATOM     32  O   UNL     1      34.876 108.072 271.157  1.00  0.00    -0.504 OA
ATOM     33  H   UNL     1      33.966 108.383 271.467  1.00  0.00     0.293 HD
ENDBRANCH  22  32
ENDBRANCH  11  12
BRANCH  10  34
ATOM     34  O   UNL     1      35.721 106.994 262.793  1.00  0.00    -0.507 OA
ATOM     35  H   UNL     1      35.281 107.555 263.510  1.00  0.00     0.293 HD
ENDBRANCH  10  34
BRANCH   9  36
ATOM     36  C   UNL     1      41.190 104.917 260.416  1.00  0.00     0.017 C 
ATOM     37  C   UNL     1      41.223 103.414 260.123  1.00  0.00     0.012 C 
ATOM     38  C   UNL     1      41.955 105.253 261.710  1.00  0.00     0.012 C 
ENDBRANCH   9  36
BRANCH   6  39
ATOM     39  C   UNL     1      35.515 106.279 260.271  1.00  0.00     0.264 C 
ATOM     40  O   UNL     1      34.875 105.979 259.228  1.00  0.00    -0.298 OA
ENDBRANCH   6  39
BRANCH   8  41
ATOM     41  O   UNL     1      39.693 105.210 257.972  1.00  0.00    -0.504 OA
ATOM     42  H   UNL     1      40.612 105.575 257.759  1.00  0.00     0.293 HD
ENDBRANCH   8  41
BRANCH   7  43
ATOM     43  O   UNL     1      36.988 105.624 257.929  1.00  0.00    -0.504 OA
ATOM     44  H   UNL     1      36.162 106.150 257.681  1.00  0.00     0.293 HD
ENDBRANCH   7  43
TORSDOF 11
ENDMDL
MODEL 2
REMARK VINA RESULT:    55.903      1.813      9.221
REMARK INTER + INTRA:          85.932
REMARK INTER:                  81.703
REMARK INTRA:                   4.230
REMARK UNBOUND:                 3.884
REMARK SMILES Cc1cc2c(C(C)C)c(O)c(O)c(C=O)c2c(O)c1-c1c(C)cc2c(C(C)C)c(O)c(O)c(C=O)c2c1O
REMARK SMILES IDX 1 1 2 2 3 3 4 4 16 5 13 6 11 7 9 8 5 9 17 10 19 11 20 12
REMARK SMILES IDX 37 13 21 14 36 15 23 16 22 17 24 18 33 19 25 20 31 21 29 22
REMARK SMILES IDX 38 23 34 25 35 26 26 27 27 28 28 29 32 30 30 32 18 34 6 36
REMARK SMILES IDX 7 37 8 38 14 39 15 40 10 41 12 43
REMARK H PARENT 38 24 32 31 30 33 18 35 10 42 12 44
REMARK Flexibility Score: inf
ROOT
ATOM      1  C   UNL     1      36.957 110.397 264.493  1.00  0.00     0.045 C 
ATOM      2  C   UNL     1      36.534 109.451 265.591  1.00  0.00    -0.039 A 
ATOM      3  C   UNL     1      36.152 109.964 266.829  1.00  0.00     0.013 A 
ATOM      4  C   UNL     1      35.721 109.130 267.884  1.00  0.00    -0.006 A 
ATOM      5  C   UNL     1      35.792 107.713 267.713  1.00  0.00     0.039 A 
ATOM      6  C   UNL     1      35.476 106.869 268.821  1.00  0.00     0.072 A 
ATOM      7  C   UNL     1      35.175 107.438 270.075  1.00  0.00     0.169 A 
ATOM      8  C   UNL     1      35.109 108.826 270.227  1.00  0.00     0.162 A 
ATOM      9  C   UNL     1      35.259 109.685 269.118  1.00  0.00     0.008 A 
ATOM     10  C   UNL     1      36.217 107.190 266.452  1.00  0.00     0.132 A 
ATOM     11  C   UNL     1      36.552 108.061 265.392  1.00  0.00     0.031 A 
ENDROOT
BRANCH  11  12
ATOM     12  C   UNL     1      36.949 107.512 264.069  1.00  0.00     0.031 A 
ATOM     13  C   UNL     1      38.150 107.931 263.456  1.00  0.00     0.132 A 
ATOM     14  C   UNL     1      36.144 106.546 263.446  1.00  0.00    -0.039 A 
ATOM     15  C   UNL     1      38.509 107.447 262.163  1.00  0.00     0.039 A 
ATOM     16  C   UNL     1      36.542 105.999 262.226  1.00  0.00     0.013 A 
ATOM     17  C   UNL     1      34.885 106.039 264.110  1.00  0.00     0.045 C 
ATOM     18  C   UNL     1      37.692 106.453 261.543  1.00  0.00    -0.006 A 
ATOM     19  C   UNL     1      39.686 107.889 261.490  1.00  0.00     0.072 A 
ATOM     20  C   UNL     1      38.067 105.902 260.279  1.00  0.00     0.008 A 
ATOM     21  C   UNL     1      40.123 107.224 260.330  1.00  0.00     0.169 A 
ATOM     22  C   UNL     1      39.358 106.180 259.779  1.00  0.00     0.162 A 
BRANCH  13  23
ATOM     23  O   UNL     1      39.008 108.788 264.154  1.00  0.00    -0.507 OA
ATOM     24  H   UNL     1      38.954 108.953 265.152  1.00  0.00     0.293 HD
ENDBRANCH  13  23
BRANCH  19  25
ATOM     25  C   UNL     1      40.435 109.094 261.920  1.00  0.00     0.264 C 
ATOM     26  O   UNL     1      40.617 110.063 261.136  1.00  0.00    -0.298 OA
ENDBRANCH  19  25
BRANCH  20  27
ATOM     27  C   UNL     1      37.123 104.982 259.483  1.00  0.00     0.017 C 
ATOM     28  C   UNL     1      36.314 105.782 258.457  1.00  0.00     0.012 C 
ATOM     29  C   UNL     1      36.205 104.117 260.368  1.00  0.00     0.012 C 
ENDBRANCH  20  27
BRANCH  21  30
ATOM     30  O   UNL     1      41.301 107.655 259.710  1.00  0.00    -0.504 OA
ATOM     31  H   UNL     1      41.459 107.626 258.712  1.00  0.00     0.293 HD
ENDBRANCH  21  30
BRANCH  22  32
ATOM     32  O   UNL     1      39.869 105.399 258.739  1.00  0.00    -0.504 OA
ATOM     33  H   UNL     1      39.872 104.388 258.739  1.00  0.00     0.293 HD
ENDBRANCH  22  32
ENDBRANCH  11  12
BRANCH  10  34
ATOM     34  O   UNL     1      36.327 105.809 266.255  1.00  0.00    -0.507 OA
ATOM     35  H   UNL     1      36.697 105.166 266.942  1.00  0.00     0.293 HD
ENDBRANCH  10  34
BRANCH   9  36
ATOM     36  C   UNL     1      34.945 111.185 269.266  1.00  0.00     0.017 C 
ATOM     37  C   UNL     1      34.904 111.872 267.898  1.00  0.00     0.012 C 
ATOM     38  C   UNL     1      35.884 111.925 270.237  1.00  0.00     0.012 C 
ENDBRANCH   9  36
BRANCH   6  39
ATOM     39  C   UNL     1      35.457 105.397 268.702  1.00  0.00     0.264 C 
ATOM     40  O   UNL     1      35.168 104.677 269.694  1.00  0.00    -0.298 OA
ENDBRANCH   6  39
BRANCH   8  41
ATOM     41  O   UNL     1      34.886 109.364 271.498  1.00  0.00    -0.504 OA
ATOM     42  H   UNL     1      34.004 109.279 271.988  1.00  0.00     0.293 HD
ENDBRANCH   8  41
BRANCH   7  43
ATOM     43  O   UNL     1      34.899 106.644 271.195  1.00  0.00    -0.504 OA
ATOM     44  H   UNL     1      33.989 106.564 271.625  1.00  0.00     0.293 HD
ENDBRANCH   7  43
TORSDOF 11
ENDMDL
