MODEL 1
REMARK VINA RESULT:    -4.087      0.000      0.000
REMARK INTER + INTRA:         -12.270
REMARK INTER:                  -8.865
REMARK INTRA:                  -3.406
REMARK UNBOUND:                -3.406
REMARK SMILES CCCCCCCCCCCCCCCCCCCCCC(=O)[O-]
REMARK SMILES IDX 12 1 11 2 10 3 9 4 8 5 7 6 6 7 5 8 4 9 3 10 2 11 1 12 13 13
REMARK SMILES IDX 14 14 15 15 16 16 17 17 18 18 19 19 20 20 21 21 22 22 23 23
REMARK SMILES IDX 24 24
REMARK H PARENT
REMARK Flexibility Score: inf
ROOT
ATOM      1  C   UNL     1    -113.006 -40.735 -66.034  1.00  0.00     0.000 C 
ENDROOT
BRANCH   1   2
ATOM      2  C   UNL     1    -113.646 -40.940 -67.420  1.00  0.00     0.000 C 
BRANCH   2   3
ATOM      3  C   UNL     1    -114.344 -42.295 -67.632  1.00  0.00     0.000 C 
BRANCH   3   4
ATOM      4  C   UNL     1    -113.433 -43.344 -68.293  1.00  0.00    -0.000 C 
BRANCH   4   5
ATOM      5  C   UNL     1    -113.082 -42.990 -69.747  1.00  0.00    -0.000 C 
BRANCH   5   6
ATOM      6  C   UNL     1    -111.571 -42.821 -69.970  1.00  0.00    -0.000 C 
BRANCH   6   7
ATOM      7  C   UNL     1    -110.797 -43.025 -68.662  1.00  0.00    -0.000 C 
BRANCH   7   8
ATOM      8  C   UNL     1    -109.531 -42.156 -68.632  1.00  0.00    -0.000 C 
BRANCH   8   9
ATOM      9  C   UNL     1    -109.714 -40.877 -67.799  1.00  0.00    -0.000 C 
BRANCH   9  10
ATOM     10  C   UNL     1    -108.535 -40.621 -66.842  1.00  0.00    -0.000 C 
BRANCH  10  11
ATOM     11  C   UNL     1    -108.960 -39.868 -65.573  1.00  0.00    -0.003 C 
ATOM     12  C   UNL     1    -107.769 -39.431 -64.720  1.00  0.00     0.004 C 
ENDBRANCH  10  11
ENDBRANCH   9  10
ENDBRANCH   8   9
ENDBRANCH   7   8
ENDBRANCH   6   7
ENDBRANCH   5   6
ENDBRANCH   4   5
ENDBRANCH   3   4
ENDBRANCH   2   3
ENDBRANCH   1   2
BRANCH   1  13
ATOM     13  C   UNL     1    -113.654 -41.596 -64.938  1.00  0.00     0.000 C 
BRANCH  13  14
ATOM     14  C   UNL     1    -112.676 -42.612 -64.325  1.00  0.00     0.000 C 
BRANCH  14  15
ATOM     15  C   UNL     1    -111.294 -42.636 -65.015  1.00  0.00     0.000 C 
BRANCH  15  16
ATOM     16  C   UNL     1    -110.337 -43.649 -64.363  1.00  0.00     0.000 C 
BRANCH  16  17
ATOM     17  C   UNL     1    -108.945 -43.648 -65.029  1.00  0.00     0.000 C 
BRANCH  17  18
ATOM     18  C   UNL     1    -107.784 -43.458 -64.038  1.00  0.00     0.000 C 
BRANCH  18  19
ATOM     19  C   UNL     1    -108.263 -43.172 -62.606  1.00  0.00     0.000 C 
BRANCH  19  20
ATOM     20  C   UNL     1    -107.548 -41.967 -61.968  1.00  0.00     0.006 C 
BRANCH  20  21
ATOM     21  C   UNL     1    -106.599 -42.331 -60.814  1.00  0.00     0.053 C 
BRANCH  21  22
ATOM     22  C   UNL     1    -105.208 -42.607 -61.295  1.00  0.00     0.041 C 
ATOM     23  O   UNL     1    -104.650 -43.702 -61.025  1.00  0.00    -0.550 OA
ATOM     24  O   UNL     1    -104.516 -41.640 -62.014  1.00  0.00    -0.550 OA
ENDBRANCH  21  22
ENDBRANCH  20  21
ENDBRANCH  19  20
ENDBRANCH  18  19
ENDBRANCH  17  18
ENDBRANCH  16  17
ENDBRANCH  15  16
ENDBRANCH  14  15
ENDBRANCH  13  14
ENDBRANCH   1  13
TORSDOF 20
ENDMDL
MODEL 2
REMARK VINA RESULT:    -4.047      1.010      2.276
REMARK INTER + INTRA:         -12.184
REMARK INTER:                  -9.214
REMARK INTRA:                  -2.970
REMARK UNBOUND:                -3.406
REMARK SMILES CCCCCCCCCCCCCCCCCCCCCC(=O)[O-]
REMARK SMILES IDX 12 1 11 2 10 3 9 4 8 5 7 6 6 7 5 8 4 9 3 10 2 11 1 12 13 13
REMARK SMILES IDX 14 14 15 15 16 16 17 17 18 18 19 19 20 20 21 21 22 22 23 23
REMARK SMILES IDX 24 24
REMARK H PARENT
REMARK Flexibility Score: inf
ROOT
ATOM      1  C   UNL     1    -112.627 -40.394 -68.801  1.00  0.00     0.000 C 
ENDROOT
BRANCH   1   2
ATOM      2  C   UNL     1    -112.506 -41.489 -69.878  1.00  0.00     0.000 C 
BRANCH   2   3
ATOM      3  C   UNL     1    -113.255 -42.799 -69.574  1.00  0.00     0.000 C 
BRANCH   3   4
ATOM      4  C   UNL     1    -112.322 -43.935 -69.122  1.00  0.00    -0.000 C 
BRANCH   4   5
ATOM      5  C   UNL     1    -110.836 -43.582 -69.293  1.00  0.00    -0.000 C 
BRANCH   5   6
ATOM      6  C   UNL     1    -110.055 -43.635 -67.971  1.00  0.00    -0.000 C 
BRANCH   6   7
ATOM      7  C   UNL     1    -108.934 -42.588 -67.954  1.00  0.00    -0.000 C 
BRANCH   7   8
ATOM      8  C   UNL     1    -109.431 -41.260 -67.364  1.00  0.00    -0.000 C 
BRANCH   8   9
ATOM      9  C   UNL     1    -108.302 -40.442 -66.718  1.00  0.00    -0.000 C 
BRANCH   9  10
ATOM     10  C   UNL     1    -108.764 -39.690 -65.457  1.00  0.00    -0.000 C 
BRANCH  10  11
ATOM     11  C   UNL     1    -107.732 -38.658 -64.976  1.00  0.00    -0.003 C 
ATOM     12  C   UNL     1    -107.205 -38.963 -63.574  1.00  0.00     0.004 C 
ENDBRANCH  10  11
ENDBRANCH   9  10
ENDBRANCH   8   9
ENDBRANCH   7   8
ENDBRANCH   6   7
ENDBRANCH   5   6
ENDBRANCH   4   5
ENDBRANCH   3   4
ENDBRANCH   2   3
ENDBRANCH   1   2
BRANCH   1  13
ATOM     13  C   UNL     1    -113.574 -40.780 -67.653  1.00  0.00     0.000 C 
BRANCH  13  14
ATOM     14  C   UNL     1    -112.881 -40.769 -66.281  1.00  0.00     0.000 C 
BRANCH  14  15
ATOM     15  C   UNL     1    -113.746 -41.360 -65.145  1.00  0.00     0.000 C 
BRANCH  15  16
ATOM     16  C   UNL     1    -113.004 -42.456 -64.360  1.00  0.00     0.000 C 
BRANCH  16  17
ATOM     17  C   UNL     1    -111.598 -42.733 -64.933  1.00  0.00     0.000 C 
BRANCH  17  18
ATOM     18  C   UNL     1    -110.681 -43.513 -63.975  1.00  0.00     0.000 C 
BRANCH  18  19
ATOM     19  C   UNL     1    -109.231 -43.006 -63.993  1.00  0.00     0.000 C 
BRANCH  19  20
ATOM     20  C   UNL     1    -108.445 -43.403 -62.730  1.00  0.00     0.006 C 
BRANCH  20  21
ATOM     21  C   UNL     1    -107.567 -42.282 -62.150  1.00  0.00     0.053 C 
BRANCH  21  22
ATOM     22  C   UNL     1    -106.539 -42.809 -61.197  1.00  0.00     0.041 C 
ATOM     23  O   UNL     1    -106.465 -42.349 -60.028  1.00  0.00    -0.550 OA
ATOM     24  O   UNL     1    -105.641 -43.785 -61.611  1.00  0.00    -0.550 OA
ENDBRANCH  21  22
ENDBRANCH  20  21
ENDBRANCH  19  20
ENDBRANCH  18  19
ENDBRANCH  17  18
ENDBRANCH  16  17
ENDBRANCH  15  16
ENDBRANCH  14  15
ENDBRANCH  13  14
ENDBRANCH   1  13
TORSDOF 20
ENDMDL
MODEL 3
REMARK VINA RESULT:    -3.957      3.144      6.496
REMARK INTER + INTRA:         -11.989
REMARK INTER:                  -7.959
REMARK INTRA:                  -4.030
REMARK UNBOUND:                -3.406
REMARK SMILES CCCCCCCCCCCCCCCCCCCCCC(=O)[O-]
REMARK SMILES IDX 12 1 11 2 10 3 9 4 8 5 7 6 6 7 5 8 4 9 3 10 2 11 1 12 13 13
REMARK SMILES IDX 14 14 15 15 16 16 17 17 18 18 19 19 20 20 21 21 22 22 23 23
REMARK SMILES IDX 24 24
REMARK H PARENT
REMARK Flexibility Score: inf
ROOT
ATOM      1  C   UNL     1    -110.048 -41.483 -65.722  1.00  0.00     0.000 C 
ENDROOT
BRANCH   1   2
ATOM      2  C   UNL     1    -110.432 -42.897 -65.245  1.00  0.00     0.000 C 
BRANCH   2   3
ATOM      3  C   UNL     1    -109.419 -44.006 -65.584  1.00  0.00     0.000 C 
BRANCH   3   4
ATOM      4  C   UNL     1    -108.291 -43.527 -66.515  1.00  0.00    -0.000 C 
BRANCH   4   5
ATOM      5  C   UNL     1    -106.925 -44.125 -66.143  1.00  0.00    -0.000 C 
BRANCH   5   6
ATOM      6  C   UNL     1    -105.827 -43.059 -66.005  1.00  0.00    -0.000 C 
BRANCH   6   7
ATOM      7  C   UNL     1    -106.422 -41.647 -66.066  1.00  0.00    -0.000 C 
BRANCH   7   8
ATOM      8  C   UNL     1    -106.060 -40.843 -64.808  1.00  0.00    -0.000 C 
BRANCH   8   9
ATOM      9  C   UNL     1    -106.165 -41.679 -63.523  1.00  0.00    -0.000 C 
BRANCH   9  10
ATOM     10  C   UNL     1    -107.551 -41.573 -62.860  1.00  0.00    -0.000 C 
BRANCH  10  11
ATOM     11  C   UNL     1    -108.066 -42.928 -62.353  1.00  0.00    -0.003 C 
ATOM     12  C   UNL     1    -107.007 -44.028 -62.429  1.00  0.00     0.004 C 
ENDBRANCH  10  11
ENDBRANCH   9  10
ENDBRANCH   8   9
ENDBRANCH   7   8
ENDBRANCH   6   7
ENDBRANCH   5   6
ENDBRANCH   4   5
ENDBRANCH   3   4
ENDBRANCH   2   3
ENDBRANCH   1   2
BRANCH   1  13
ATOM     13  C   UNL     1    -111.235 -40.704 -66.312  1.00  0.00     0.000 C 
BRANCH  13  14
ATOM     14  C   UNL     1    -112.499 -40.798 -65.442  1.00  0.00     0.000 C 
BRANCH  14  15
ATOM     15  C   UNL     1    -113.762 -41.217 -66.228  1.00  0.00     0.000 C 
BRANCH  15  16
ATOM     16  C   UNL     1    -113.481 -41.389 -67.730  1.00  0.00     0.000 C 
BRANCH  16  17
ATOM     17  C   UNL     1    -113.749 -42.830 -68.213  1.00  0.00     0.000 C 
BRANCH  17  18
ATOM     18  C   UNL     1    -112.757 -43.321 -69.280  1.00  0.00     0.000 C 
BRANCH  18  19
ATOM     19  C   UNL     1    -111.378 -43.668 -68.698  1.00  0.00     0.000 C 
BRANCH  19  20
ATOM     20  C   UNL     1    -110.234 -43.457 -69.707  1.00  0.00     0.006 C 
BRANCH  20  21
ATOM     21  C   UNL     1    -110.418 -42.241 -70.629  1.00  0.00     0.053 C 
BRANCH  21  22
ATOM     22  C   UNL     1    -110.170 -40.950 -69.912  1.00  0.00     0.041 C 
ATOM     23  O   UNL     1    -109.101 -40.777 -69.269  1.00  0.00    -0.550 OA
ATOM     24  O   UNL     1    -111.134 -39.948 -69.927  1.00  0.00    -0.550 OA
ENDBRANCH  21  22
ENDBRANCH  20  21
ENDBRANCH  19  20
ENDBRANCH  18  19
ENDBRANCH  17  18
ENDBRANCH  16  17
ENDBRANCH  15  16
ENDBRANCH  14  15
ENDBRANCH  13  14
ENDBRANCH   1  13
TORSDOF 20
ENDMDL
MODEL 4
REMARK VINA RESULT:    -3.951      2.370      3.416
REMARK INTER + INTRA:         -11.976
REMARK INTER:                  -7.908
REMARK INTRA:                  -4.069
REMARK UNBOUND:                -3.406
REMARK SMILES CCCCCCCCCCCCCCCCCCCCCC(=O)[O-]
REMARK SMILES IDX 12 1 11 2 10 3 9 4 8 5 7 6 6 7 5 8 4 9 3 10 2 11 1 12 13 13
REMARK SMILES IDX 14 14 15 15 16 16 17 17 18 18 19 19 20 20 21 21 22 22 23 23
REMARK SMILES IDX 24 24
REMARK H PARENT
REMARK Flexibility Score: inf
ROOT
ATOM      1  C   UNL     1    -111.630 -40.621 -65.768  1.00  0.00     0.000 C 
ENDROOT
BRANCH   1   2
ATOM      2  C   UNL     1    -112.812 -41.354 -65.107  1.00  0.00     0.000 C 
BRANCH   2   3
ATOM      3  C   UNL     1    -114.070 -41.504 -65.981  1.00  0.00     0.000 C 
BRANCH   3   4
ATOM      4  C   UNL     1    -114.090 -42.814 -66.788  1.00  0.00    -0.000 C 
BRANCH   4   5
ATOM      5  C   UNL     1    -113.590 -42.628 -68.229  1.00  0.00    -0.000 C 
BRANCH   5   6
ATOM      6  C   UNL     1    -112.369 -43.502 -68.554  1.00  0.00    -0.000 C 
BRANCH   6   7
ATOM      7  C   UNL     1    -111.235 -42.659 -69.150  1.00  0.00    -0.000 C 
BRANCH   7   8
ATOM      8  C   UNL     1    -109.968 -43.504 -69.348  1.00  0.00    -0.000 C 
BRANCH   8   9
ATOM      9  C   UNL     1    -108.730 -42.648 -69.661  1.00  0.00    -0.000 C 
BRANCH   9  10
ATOM     10  C   UNL     1    -107.712 -42.637 -68.507  1.00  0.00    -0.000 C 
BRANCH  10  11
ATOM     11  C   UNL     1    -107.450 -41.223 -67.967  1.00  0.00    -0.003 C 
ATOM     12  C   UNL     1    -108.309 -40.161 -68.654  1.00  0.00     0.004 C 
ENDBRANCH  10  11
ENDBRANCH   9  10
ENDBRANCH   8   9
ENDBRANCH   7   8
ENDBRANCH   6   7
ENDBRANCH   5   6
ENDBRANCH   4   5
ENDBRANCH   3   4
ENDBRANCH   2   3
ENDBRANCH   1   2
BRANCH   1  13
ATOM     13  C   UNL     1    -110.343 -41.462 -65.803  1.00  0.00     0.000 C 
BRANCH  13  14
ATOM     14  C   UNL     1    -110.572 -42.917 -65.362  1.00  0.00     0.000 C 
BRANCH  14  15
ATOM     15  C   UNL     1    -109.305 -43.798 -65.451  1.00  0.00     0.000 C 
BRANCH  15  16
ATOM     16  C   UNL     1    -108.312 -43.502 -64.314  1.00  0.00     0.000 C 
BRANCH  16  17
ATOM     17  C   UNL     1    -106.919 -43.105 -64.846  1.00  0.00     0.000 C 
BRANCH  17  18
ATOM     18  C   UNL     1    -106.450 -41.716 -64.378  1.00  0.00     0.000 C 
BRANCH  18  19
ATOM     19  C   UNL     1    -107.445 -41.042 -63.421  1.00  0.00     0.000 C 
BRANCH  19  20
ATOM     20  C   UNL     1    -107.437 -39.507 -63.537  1.00  0.00     0.006 C 
BRANCH  20  21
ATOM     21  C   UNL     1    -107.733 -38.976 -64.950  1.00  0.00     0.053 C 
BRANCH  21  22
ATOM     22  C   UNL     1    -106.663 -38.048 -65.437  1.00  0.00     0.041 C 
ATOM     23  O   UNL     1    -106.415 -37.958 -66.668  1.00  0.00    -0.550 OA
ATOM     24  O   UNL     1    -105.917 -37.307 -64.528  1.00  0.00    -0.550 OA
ENDBRANCH  21  22
ENDBRANCH  20  21
ENDBRANCH  19  20
ENDBRANCH  18  19
ENDBRANCH  17  18
ENDBRANCH  16  17
ENDBRANCH  15  16
ENDBRANCH  14  15
ENDBRANCH  13  14
ENDBRANCH   1  13
TORSDOF 20
ENDMDL
MODEL 5
REMARK VINA RESULT:    -3.943      2.540      6.119
REMARK INTER + INTRA:         -11.958
REMARK INTER:                  -8.302
REMARK INTRA:                  -3.656
REMARK UNBOUND:                -3.406
REMARK SMILES CCCCCCCCCCCCCCCCCCCCCC(=O)[O-]
REMARK SMILES IDX 12 1 11 2 10 3 9 4 8 5 7 6 6 7 5 8 4 9 3 10 2 11 1 12 13 13
REMARK SMILES IDX 14 14 15 15 16 16 17 17 18 18 19 19 20 20 21 21 22 22 23 23
REMARK SMILES IDX 24 24
REMARK H PARENT
REMARK Flexibility Score: inf
ROOT
ATOM      1  C   UNL     1    -110.490 -41.465 -65.553  1.00  0.00     0.000 C 
ENDROOT
BRANCH   1   2
ATOM      2  C   UNL     1    -110.652 -42.997 -65.563  1.00  0.00     0.000 C 
BRANCH   2   3
ATOM      3  C   UNL     1    -109.354 -43.800 -65.357  1.00  0.00     0.000 C 
BRANCH   3   4
ATOM      4  C   UNL     1    -108.118 -42.905 -65.160  1.00  0.00    -0.000 C 
BRANCH   4   5
ATOM      5  C   UNL     1    -107.014 -43.595 -64.342  1.00  0.00    -0.000 C 
BRANCH   5   6
ATOM      6  C   UNL     1    -107.299 -43.587 -62.832  1.00  0.00    -0.000 C 
BRANCH   6   7
ATOM      7  C   UNL     1    -107.877 -42.236 -62.390  1.00  0.00    -0.000 C 
BRANCH   7   8
ATOM      8  C   UNL     1    -106.757 -41.221 -62.122  1.00  0.00    -0.000 C 
BRANCH   8   9
ATOM      9  C   UNL     1    -107.055 -39.840 -62.729  1.00  0.00    -0.000 C 
BRANCH   9  10
ATOM     10  C   UNL     1    -106.632 -39.739 -64.205  1.00  0.00    -0.000 C 
BRANCH  10  11
ATOM     11  C   UNL     1    -107.697 -39.059 -65.078  1.00  0.00    -0.003 C 
ATOM     12  C   UNL     1    -107.553 -39.405 -66.560  1.00  0.00     0.004 C 
ENDBRANCH  10  11
ENDBRANCH   9  10
ENDBRANCH   8   9
ENDBRANCH   7   8
ENDBRANCH   6   7
ENDBRANCH   5   6
ENDBRANCH   4   5
ENDBRANCH   3   4
ENDBRANCH   2   3
ENDBRANCH   1   2
BRANCH   1  13
ATOM     13  C   UNL     1    -111.822 -40.718 -65.733  1.00  0.00     0.000 C 
BRANCH  13  14
ATOM     14  C   UNL     1    -113.024 -41.505 -65.186  1.00  0.00     0.000 C 
BRANCH  14  15
ATOM     15  C   UNL     1    -114.190 -41.634 -66.192  1.00  0.00     0.000 C 
BRANCH  15  16
ATOM     16  C   UNL     1    -113.711 -41.540 -67.651  1.00  0.00     0.000 C 
BRANCH  16  17
ATOM     17  C   UNL     1    -113.804 -42.895 -68.384  1.00  0.00     0.000 C 
BRANCH  17  18
ATOM     18  C   UNL     1    -112.442 -43.457 -68.823  1.00  0.00     0.000 C 
BRANCH  18  19
ATOM     19  C   UNL     1    -111.404 -42.358 -69.098  1.00  0.00     0.000 C 
BRANCH  19  20
ATOM     20  C   UNL     1    -110.011 -42.924 -69.432  1.00  0.00     0.006 C 
BRANCH  20  21
ATOM     21  C   UNL     1    -108.845 -42.167 -68.775  1.00  0.00     0.053 C 
BRANCH  21  22
ATOM     22  C   UNL     1    -107.515 -42.732 -69.171  1.00  0.00     0.041 C 
ATOM     23  O   UNL     1    -107.006 -42.433 -70.283  1.00  0.00    -0.550 OA
ATOM     24  O   UNL     1    -106.854 -43.614 -68.325  1.00  0.00    -0.550 OA
ENDBRANCH  21  22
ENDBRANCH  20  21
ENDBRANCH  19  20
ENDBRANCH  18  19
ENDBRANCH  17  18
ENDBRANCH  16  17
ENDBRANCH  15  16
ENDBRANCH  14  15
ENDBRANCH  13  14
ENDBRANCH   1  13
TORSDOF 20
ENDMDL
MODEL 6
REMARK VINA RESULT:    -3.939      3.674      7.206
REMARK INTER + INTRA:         -11.949
REMARK INTER:                  -8.196
REMARK INTRA:                  -3.753
REMARK UNBOUND:                -3.406
REMARK SMILES CCCCCCCCCCCCCCCCCCCCCC(=O)[O-]
REMARK SMILES IDX 12 1 11 2 10 3 9 4 8 5 7 6 6 7 5 8 4 9 3 10 2 11 1 12 13 13
REMARK SMILES IDX 14 14 15 15 16 16 17 17 18 18 19 19 20 20 21 21 22 22 23 23
REMARK SMILES IDX 24 24
REMARK H PARENT
REMARK Flexibility Score: inf
ROOT
ATOM      1  C   UNL     1    -108.048 -43.542 -64.217  1.00  0.00     0.000 C 
ENDROOT
BRANCH   1   2
ATOM      2  C   UNL     1    -108.176 -42.319 -63.290  1.00  0.00     0.000 C 
BRANCH   2   3
ATOM      3  C   UNL     1    -106.964 -42.051 -62.379  1.00  0.00     0.000 C 
BRANCH   3   4
ATOM      4  C   UNL     1    -106.374 -40.642 -62.562  1.00  0.00    -0.000 C 
BRANCH   4   5
ATOM      5  C   UNL     1    -107.390 -39.647 -63.145  1.00  0.00    -0.000 C 
BRANCH   5   6
ATOM      6  C   UNL     1    -106.730 -38.552 -63.997  1.00  0.00    -0.000 C 
BRANCH   6   7
ATOM      7  C   UNL     1    -107.393 -38.458 -65.377  1.00  0.00    -0.000 C 
BRANCH   7   8
ATOM      8  C   UNL     1    -108.595 -39.408 -65.476  1.00  0.00    -0.000 C 
BRANCH   8   9
ATOM      9  C   UNL     1    -108.525 -40.322 -66.709  1.00  0.00    -0.000 C 
BRANCH   9  10
ATOM     10  C   UNL     1    -107.096 -40.453 -67.267  1.00  0.00    -0.000 C 
BRANCH  10  11
ATOM     11  C   UNL     1    -106.431 -41.782 -66.876  1.00  0.00    -0.003 C 
ATOM     12  C   UNL     1    -105.233 -41.590 -65.947  1.00  0.00     0.004 C 
ENDBRANCH  10  11
ENDBRANCH   9  10
ENDBRANCH   8   9
ENDBRANCH   7   8
ENDBRANCH   6   7
ENDBRANCH   5   6
ENDBRANCH   4   5
ENDBRANCH   3   4
ENDBRANCH   2   3
ENDBRANCH   1   2
BRANCH   1  13
ATOM     13  C   UNL     1    -109.244 -43.703 -65.170  1.00  0.00     0.000 C 
BRANCH  13  14
ATOM     14  C   UNL     1    -110.380 -42.712 -64.870  1.00  0.00     0.000 C 
BRANCH  14  15
ATOM     15  C   UNL     1    -111.557 -43.336 -64.087  1.00  0.00     0.000 C 
BRANCH  15  16
ATOM     16  C   UNL     1    -112.893 -42.638 -64.393  1.00  0.00     0.000 C 
BRANCH  16  17
ATOM     17  C   UNL     1    -112.693 -41.264 -65.066  1.00  0.00     0.000 C 
BRANCH  17  18
ATOM     18  C   UNL     1    -113.320 -41.163 -66.467  1.00  0.00     0.000 C 
BRANCH  18  19
ATOM     19  C   UNL     1    -113.661 -42.535 -67.069  1.00  0.00     0.000 C 
BRANCH  19  20
ATOM     20  C   UNL     1    -112.549 -43.076 -67.987  1.00  0.00     0.006 C 
BRANCH  20  21
ATOM     21  C   UNL     1    -111.721 -41.988 -68.688  1.00  0.00     0.053 C 
BRANCH  21  22
ATOM     22  C   UNL     1    -112.354 -41.537 -69.968  1.00  0.00     0.041 C 
ATOM     23  O   UNL     1    -112.366 -40.316 -70.273  1.00  0.00    -0.550 OA
ATOM     24  O   UNL     1    -112.962 -42.462 -70.808  1.00  0.00    -0.550 OA
ENDBRANCH  21  22
ENDBRANCH  20  21
ENDBRANCH  19  20
ENDBRANCH  18  19
ENDBRANCH  17  18
ENDBRANCH  16  17
ENDBRANCH  15  16
ENDBRANCH  14  15
ENDBRANCH  13  14
ENDBRANCH   1  13
TORSDOF 20
ENDMDL
MODEL 7
REMARK VINA RESULT:    -3.916      2.074      4.707
REMARK INTER + INTRA:         -11.900
REMARK INTER:                  -7.920
REMARK INTRA:                  -3.980
REMARK UNBOUND:                -3.406
REMARK SMILES CCCCCCCCCCCCCCCCCCCCCC(=O)[O-]
REMARK SMILES IDX 12 1 11 2 10 3 9 4 8 5 7 6 6 7 5 8 4 9 3 10 2 11 1 12 13 13
REMARK SMILES IDX 14 14 15 15 16 16 17 17 18 18 19 19 20 20 21 21 22 22 23 23
REMARK SMILES IDX 24 24
REMARK H PARENT
REMARK Flexibility Score: inf
ROOT
ATOM      1  C   UNL     1    -113.232 -40.721 -68.027  1.00  0.00     0.000 C 
ENDROOT
BRANCH   1   2
ATOM      2  C   UNL     1    -113.924 -41.440 -66.853  1.00  0.00     0.000 C 
BRANCH   2   3
ATOM      3  C   UNL     1    -113.400 -41.073 -65.453  1.00  0.00     0.000 C 
BRANCH   3   4
ATOM      4  C   UNL     1    -112.999 -42.303 -64.620  1.00  0.00    -0.000 C 
BRANCH   4   5
ATOM      5  C   UNL     1    -111.622 -42.861 -65.016  1.00  0.00    -0.000 C 
BRANCH   5   6
ATOM      6  C   UNL     1    -110.835 -43.411 -63.817  1.00  0.00    -0.000 C 
BRANCH   6   7
ATOM      7  C   UNL     1    -109.328 -43.408 -64.103  1.00  0.00    -0.000 C 
BRANCH   7   8
ATOM      8  C   UNL     1    -108.523 -43.231 -62.807  1.00  0.00    -0.000 C 
BRANCH   8   9
ATOM      9  C   UNL     1    -107.006 -43.329 -63.037  1.00  0.00    -0.000 C 
BRANCH   9  10
ATOM     10  C   UNL     1    -106.643 -43.488 -64.524  1.00  0.00    -0.000 C 
BRANCH  10  11
ATOM     11  C   UNL     1    -105.217 -43.008 -64.836  1.00  0.00    -0.003 C 
ATOM     12  C   UNL     1    -105.133 -42.226 -66.147  1.00  0.00     0.004 C 
ENDBRANCH  10  11
ENDBRANCH   9  10
ENDBRANCH   8   9
ENDBRANCH   7   8
ENDBRANCH   6   7
ENDBRANCH   5   6
ENDBRANCH   4   5
ENDBRANCH   3   4
ENDBRANCH   2   3
ENDBRANCH   1   2
BRANCH   1  13
ATOM     13  C   UNL     1    -112.727 -41.686 -69.112  1.00  0.00     0.000 C 
BRANCH  13  14
ATOM     14  C   UNL     1    -112.826 -43.161 -68.688  1.00  0.00     0.000 C 
BRANCH  14  15
ATOM     15  C   UNL     1    -111.462 -43.886 -68.648  1.00  0.00     0.000 C 
BRANCH  15  16
ATOM     16  C   UNL     1    -110.285 -42.923 -68.880  1.00  0.00     0.000 C 
BRANCH  16  17
ATOM     17  C   UNL     1    -109.141 -43.146 -67.868  1.00  0.00     0.000 C 
BRANCH  17  18
ATOM     18  C   UNL     1    -108.550 -41.843 -67.304  1.00  0.00     0.000 C 
BRANCH  18  19
ATOM     19  C   UNL     1    -109.604 -40.740 -67.122  1.00  0.00     0.000 C 
BRANCH  19  20
ATOM     20  C   UNL     1    -109.493 -40.027 -65.761  1.00  0.00     0.006 C 
BRANCH  20  21
ATOM     21  C   UNL     1    -108.111 -40.141 -65.097  1.00  0.00     0.053 C 
BRANCH  21  22
ATOM     22  C   UNL     1    -107.276 -38.919 -65.325  1.00  0.00     0.041 C 
ATOM     23  O   UNL     1    -106.986 -38.162 -64.361  1.00  0.00    -0.550 OA
ATOM     24  O   UNL     1    -106.845 -38.598 -66.607  1.00  0.00    -0.550 OA
ENDBRANCH  21  22
ENDBRANCH  20  21
ENDBRANCH  19  20
ENDBRANCH  18  19
ENDBRANCH  17  18
ENDBRANCH  16  17
ENDBRANCH  15  16
ENDBRANCH  14  15
ENDBRANCH  13  14
ENDBRANCH   1  13
TORSDOF 20
ENDMDL
MODEL 8
REMARK VINA RESULT:    -3.916      2.131      4.806
REMARK INTER + INTRA:         -11.900
REMARK INTER:                  -8.346
REMARK INTRA:                  -3.554
REMARK UNBOUND:                -3.406
REMARK SMILES CCCCCCCCCCCCCCCCCCCCCC(=O)[O-]
REMARK SMILES IDX 12 1 11 2 10 3 9 4 8 5 7 6 6 7 5 8 4 9 3 10 2 11 1 12 13 13
REMARK SMILES IDX 14 14 15 15 16 16 17 17 18 18 19 19 20 20 21 21 22 22 23 23
REMARK SMILES IDX 24 24
REMARK H PARENT
REMARK Flexibility Score: inf
ROOT
ATOM      1  C   UNL     1    -109.366 -42.818 -66.250  1.00  0.00     0.000 C 
ENDROOT
BRANCH   1   2
ATOM      2  C   UNL     1    -110.434 -42.183 -65.339  1.00  0.00     0.000 C 
BRANCH   2   3
ATOM      3  C   UNL     1    -110.925 -40.789 -65.769  1.00  0.00     0.000 C 
BRANCH   3   4
ATOM      4  C   UNL     1    -112.459 -40.669 -65.778  1.00  0.00    -0.000 C 
BRANCH   4   5
ATOM      5  C   UNL     1    -113.150 -41.871 -65.115  1.00  0.00    -0.000 C 
BRANCH   5   6
ATOM      6  C   UNL     1    -114.086 -42.623 -66.073  1.00  0.00    -0.000 C 
BRANCH   6   7
ATOM      7  C   UNL     1    -114.168 -41.913 -67.430  1.00  0.00    -0.000 C 
BRANCH   7   8
ATOM      8  C   UNL     1    -113.756 -42.857 -68.570  1.00  0.00    -0.000 C 
BRANCH   8   9
ATOM      9  C   UNL     1    -112.261 -43.208 -68.533  1.00  0.00    -0.000 C 
BRANCH   9  10
ATOM     10  C   UNL     1    -111.467 -42.535 -69.668  1.00  0.00    -0.000 C 
BRANCH  10  11
ATOM     11  C   UNL     1    -111.119 -41.072 -69.354  1.00  0.00    -0.003 C 
ATOM     12  C   UNL     1    -109.613 -40.808 -69.373  1.00  0.00     0.004 C 
ENDBRANCH  10  11
ENDBRANCH   9  10
ENDBRANCH   8   9
ENDBRANCH   7   8
ENDBRANCH   6   7
ENDBRANCH   5   6
ENDBRANCH   4   5
ENDBRANCH   3   4
ENDBRANCH   2   3
ENDBRANCH   1   2
BRANCH   1  13
ATOM     13  C   UNL     1    -108.615 -43.980 -65.580  1.00  0.00     0.000 C 
BRANCH  13  14
ATOM     14  C   UNL     1    -107.217 -43.576 -65.083  1.00  0.00     0.000 C 
BRANCH  14  15
ATOM     15  C   UNL     1    -107.026 -43.750 -63.560  1.00  0.00     0.000 C 
BRANCH  15  16
ATOM     16  C   UNL     1    -108.068 -42.960 -62.750  1.00  0.00     0.000 C 
BRANCH  16  17
ATOM     17  C   UNL     1    -107.420 -41.867 -61.874  1.00  0.00     0.000 C 
BRANCH  17  18
ATOM     18  C   UNL     1    -106.807 -40.710 -62.681  1.00  0.00     0.000 C 
BRANCH  18  19
ATOM     19  C   UNL     1    -107.769 -40.143 -63.737  1.00  0.00     0.000 C 
BRANCH  19  20
ATOM     20  C   UNL     1    -107.083 -39.885 -65.091  1.00  0.00     0.006 C 
BRANCH  20  21
ATOM     21  C   UNL     1    -107.432 -38.532 -65.732  1.00  0.00     0.053 C 
BRANCH  21  22
ATOM     22  C   UNL     1    -106.377 -37.500 -65.474  1.00  0.00     0.041 C 
ATOM     23  O   UNL     1    -106.584 -36.295 -65.773  1.00  0.00    -0.550 OA
ATOM     24  O   UNL     1    -105.153 -37.875 -64.933  1.00  0.00    -0.550 OA
ENDBRANCH  21  22
ENDBRANCH  20  21
ENDBRANCH  19  20
ENDBRANCH  18  19
ENDBRANCH  17  18
ENDBRANCH  16  17
ENDBRANCH  15  16
ENDBRANCH  14  15
ENDBRANCH  13  14
ENDBRANCH   1  13
TORSDOF 20
ENDMDL
MODEL 9
REMARK VINA RESULT:    -3.914      1.725      4.619
REMARK INTER + INTRA:         -11.897
REMARK INTER:                  -9.253
REMARK INTRA:                  -2.644
REMARK UNBOUND:                -3.406
REMARK SMILES CCCCCCCCCCCCCCCCCCCCCC(=O)[O-]
REMARK SMILES IDX 12 1 11 2 10 3 9 4 8 5 7 6 6 7 5 8 4 9 3 10 2 11 1 12 13 13
REMARK SMILES IDX 14 14 15 15 16 16 17 17 18 18 19 19 20 20 21 21 22 22 23 23
REMARK SMILES IDX 24 24
REMARK H PARENT
REMARK Flexibility Score: inf
ROOT
ATOM      1  C   UNL     1    -107.763 -39.699 -66.558  1.00  0.00     0.000 C 
ENDROOT
BRANCH   1   2
ATOM      2  C   UNL     1    -108.849 -40.762 -66.809  1.00  0.00     0.000 C 
BRANCH   2   3
ATOM      3  C   UNL     1    -109.986 -40.803 -65.771  1.00  0.00     0.000 C 
BRANCH   3   4
ATOM      4  C   UNL     1    -110.391 -42.234 -65.379  1.00  0.00    -0.000 C 
BRANCH   4   5
ATOM      5  C   UNL     1    -111.861 -42.332 -64.939  1.00  0.00    -0.000 C 
BRANCH   5   6
ATOM      6  C   UNL     1    -112.707 -41.144 -65.420  1.00  0.00    -0.000 C 
BRANCH   6   7
ATOM      7  C   UNL     1    -114.164 -41.565 -65.651  1.00  0.00    -0.000 C 
BRANCH   7   8
ATOM      8  C   UNL     1    -114.438 -41.802 -67.144  1.00  0.00    -0.000 C 
BRANCH   8   9
ATOM      9  C   UNL     1    -113.272 -41.347 -68.036  1.00  0.00    -0.000 C 
BRANCH   9  10
ATOM     10  C   UNL     1    -112.549 -42.526 -68.712  1.00  0.00    -0.000 C 
BRANCH  10  11
ATOM     11  C   UNL     1    -111.177 -42.130 -69.278  1.00  0.00    -0.003 C 
ATOM     12  C   UNL     1    -110.322 -43.341 -69.652  1.00  0.00     0.004 C 
ENDBRANCH  10  11
ENDBRANCH   9  10
ENDBRANCH   8   9
ENDBRANCH   7   8
ENDBRANCH   6   7
ENDBRANCH   5   6
ENDBRANCH   4   5
ENDBRANCH   3   4
ENDBRANCH   2   3
ENDBRANCH   1   2
BRANCH   1  13
ATOM     13  C   UNL     1    -108.004 -38.882 -65.278  1.00  0.00     0.000 C 
BRANCH  13  14
ATOM     14  C   UNL     1    -106.936 -39.134 -64.201  1.00  0.00     0.000 C 
BRANCH  14  15
ATOM     15  C   UNL     1    -107.412 -40.066 -63.064  1.00  0.00     0.000 C 
BRANCH  15  16
ATOM     16  C   UNL     1    -107.186 -41.551 -63.397  1.00  0.00     0.000 C 
BRANCH  16  17
ATOM     17  C   UNL     1    -107.878 -42.488 -62.384  1.00  0.00     0.000 C 
BRANCH  17  18
ATOM     18  C   UNL     1    -107.075 -43.762 -62.070  1.00  0.00     0.000 C 
BRANCH  18  19
ATOM     19  C   UNL     1    -105.891 -43.503 -61.126  1.00  0.00     0.000 C 
BRANCH  19  20
ATOM     20  C   UNL     1    -106.229 -42.504 -60.005  1.00  0.00     0.006 C 
BRANCH  20  21
ATOM     21  C   UNL     1    -105.200 -41.376 -59.828  1.00  0.00     0.053 C 
BRANCH  21  22
ATOM     22  C   UNL     1    -104.854 -41.151 -58.388  1.00  0.00     0.041 C 
ATOM     23  O   UNL     1    -104.410 -40.036 -58.010  1.00  0.00    -0.550 OA
ATOM     24  O   UNL     1    -104.991 -42.185 -57.469  1.00  0.00    -0.550 OA
ENDBRANCH  21  22
ENDBRANCH  20  21
ENDBRANCH  19  20
ENDBRANCH  18  19
ENDBRANCH  17  18
ENDBRANCH  16  17
ENDBRANCH  15  16
ENDBRANCH  14  15
ENDBRANCH  13  14
ENDBRANCH   1  13
TORSDOF 20
ENDMDL
