MODEL 1
REMARK VINA RESULT:    -4.394      0.000      0.000
REMARK INTER + INTRA:          -9.457
REMARK INTER:                  -7.733
REMARK INTRA:                  -1.724
REMARK UNBOUND:                -1.724
REMARK SMILES CCCCCCC=CCCCCCCCC(=O)[O-]
REMARK SMILES IDX 10 1 11 2 12 3 13 4 14 5 15 6 16 7 17 8 18 9 9 10 8 11 7 12
REMARK SMILES IDX 6 13 5 14 4 15 3 16 2 17 1 18
REMARK H PARENT
REMARK Flexibility Score: inf
ROOT
ATOM      1  C   UNL     1      31.997   8.977  47.944  1.00  0.00     0.004 C 
ENDROOT
BRANCH   1   2
ATOM      2  C   UNL     1      30.848   8.415  48.803  1.00  0.00     0.000 C 
BRANCH   2   3
ATOM      3  C   UNL     1      30.552   6.934  48.512  1.00  0.00     0.000 C 
BRANCH   3   4
ATOM      4  C   UNL     1      31.407   6.377  47.363  1.00  0.00     0.000 C 
BRANCH   4   5
ATOM      5  C   UNL     1      32.371   5.268  47.822  1.00  0.00     0.006 C 
BRANCH   5   6
ATOM      6  C   UNL     1      33.756   5.819  48.186  1.00  0.00     0.053 C 
BRANCH   6   7
ATOM      7  C   UNL     1      34.849   4.860  47.824  1.00  0.00     0.041 C 
ATOM      8  O   UNL     1      34.920   4.392  46.657  1.00  0.00    -0.550 OA
ATOM      9  O   UNL     1      35.766   4.455  48.786  1.00  0.00    -0.550 OA
ENDBRANCH   6   7
ENDBRANCH   5   6
ENDBRANCH   4   5
ENDBRANCH   3   4
ENDBRANCH   2   3
ENDBRANCH   1   2
BRANCH   1  10
ATOM     10  C   UNL     1      32.835  10.076  48.620  1.00  0.00     0.027 C 
BRANCH  10  11
ATOM     11  C   UNL     1      34.292   9.693  48.730  1.00  0.00    -0.031 C 
ATOM     12  C   UNL     1      35.317  10.339  48.140  1.00  0.00    -0.031 C 
BRANCH  12  13
ATOM     13  C   UNL     1      35.188  11.543  47.240  1.00  0.00     0.027 C 
BRANCH  13  14
ATOM     14  C   UNL     1      35.694  11.246  45.823  1.00  0.00     0.004 C 
BRANCH  14  15
ATOM     15  C   UNL     1      34.583  10.631  44.961  1.00  0.00     0.000 C 
BRANCH  15  16
ATOM     16  C   UNL     1      35.086   9.492  44.058  1.00  0.00    -0.000 C 
BRANCH  16  17
ATOM     17  C   UNL     1      34.083   8.344  43.846  1.00  0.00    -0.003 C 
ATOM     18  C   UNL     1      34.027   7.373  45.024  1.00  0.00     0.004 C 
ENDBRANCH  16  17
ENDBRANCH  15  16
ENDBRANCH  14  15
ENDBRANCH  13  14
ENDBRANCH  12  13
ENDBRANCH  10  11
ENDBRANCH   1  10
TORSDOF 13
ENDMDL
MODEL 2
REMARK VINA RESULT:    -4.327     18.017     19.854
REMARK INTER + INTRA:          -9.340
REMARK INTER:                  -7.089
REMARK INTRA:                  -2.250
REMARK UNBOUND:                -1.724
REMARK SMILES CCCCCCC=CCCCCCCCC(=O)[O-]
REMARK SMILES IDX 10 1 11 2 12 3 13 4 14 5 15 6 16 7 17 8 18 9 9 10 8 11 7 12
REMARK SMILES IDX 6 13 5 14 4 15 3 16 2 17 1 18
REMARK H PARENT
REMARK Flexibility Score: inf
ROOT
ATOM      1  C   UNL     1      18.714  13.069  34.951  1.00  0.00     0.004 C 
ENDROOT
BRANCH   1   2
ATOM      2  C   UNL     1      18.463  12.159  33.734  1.00  0.00     0.000 C 
BRANCH   2   3
ATOM      3  C   UNL     1      19.064  12.718  32.432  1.00  0.00     0.000 C 
BRANCH   3   4
ATOM      4  C   UNL     1      20.159  11.809  31.852  1.00  0.00     0.000 C 
BRANCH   4   5
ATOM      5  C   UNL     1      21.553  12.462  31.883  1.00  0.00     0.006 C 
BRANCH   5   6
ATOM      6  C   UNL     1      21.484  13.959  32.212  1.00  0.00     0.053 C 
BRANCH   6   7
ATOM      7  C   UNL     1      21.968  14.802  31.073  1.00  0.00     0.041 C 
ATOM      8  O   UNL     1      22.360  14.261  30.006  1.00  0.00    -0.550 OA
ATOM      9  O   UNL     1      22.020  16.185  31.203  1.00  0.00    -0.550 OA
ENDBRANCH   6   7
ENDBRANCH   5   6
ENDBRANCH   4   5
ENDBRANCH   3   4
ENDBRANCH   2   3
ENDBRANCH   1   2
BRANCH   1  10
ATOM     10  C   UNL     1      19.692  12.503  35.994  1.00  0.00     0.027 C 
BRANCH  10  11
ATOM     11  C   UNL     1      21.130  12.614  35.543  1.00  0.00    -0.031 C 
ATOM     12  C   UNL     1      21.997  11.588  35.435  1.00  0.00    -0.031 C 
BRANCH  12  13
ATOM     13  C   UNL     1      21.693  10.149  35.774  1.00  0.00     0.027 C 
BRANCH  13  14
ATOM     14  C   UNL     1      20.919   9.454  34.647  1.00  0.00     0.004 C 
BRANCH  14  15
ATOM     15  C   UNL     1      19.600   8.867  35.169  1.00  0.00     0.000 C 
BRANCH  15  16
ATOM     16  C   UNL     1      19.667   8.471  36.655  1.00  0.00    -0.000 C 
BRANCH  16  17
ATOM     17  C   UNL     1      19.209   7.034  36.961  1.00  0.00    -0.003 C 
ATOM     18  C   UNL     1      18.551   6.347  35.766  1.00  0.00     0.004 C 
ENDBRANCH  16  17
ENDBRANCH  15  16
ENDBRANCH  14  15
ENDBRANCH  13  14
ENDBRANCH  12  13
ENDBRANCH  10  11
ENDBRANCH   1  10
TORSDOF 13
ENDMDL
MODEL 3
REMARK VINA RESULT:    -4.282     17.008     18.685
REMARK INTER + INTRA:          -9.261
REMARK INTER:                  -7.464
REMARK INTRA:                  -1.797
REMARK UNBOUND:                -1.724
REMARK SMILES CCCCCCC=CCCCCCCCC(=O)[O-]
REMARK SMILES IDX 10 1 11 2 12 3 13 4 14 5 15 6 16 7 17 8 18 9 9 10 8 11 7 12
REMARK SMILES IDX 6 13 5 14 4 15 3 16 2 17 1 18
REMARK H PARENT
REMARK Flexibility Score: inf
ROOT
ATOM      1  C   UNL     1      20.440   9.645  32.437  1.00  0.00     0.004 C 
ENDROOT
BRANCH   1   2
ATOM      2  C   UNL     1      19.987   8.423  31.615  1.00  0.00     0.000 C 
BRANCH   2   3
ATOM      3  C   UNL     1      19.241   7.376  32.461  1.00  0.00     0.000 C 
BRANCH   3   4
ATOM      4  C   UNL     1      20.195   6.387  33.149  1.00  0.00     0.000 C 
BRANCH   4   5
ATOM      5  C   UNL     1      20.559   6.814  34.583  1.00  0.00     0.006 C 
BRANCH   5   6
ATOM      6  C   UNL     1      19.385   7.490  35.302  1.00  0.00     0.053 C 
BRANCH   6   7
ATOM      7  C   UNL     1      19.359   7.153  36.762  1.00  0.00     0.041 C 
ATOM      8  O   UNL     1      19.303   5.952  37.134  1.00  0.00    -0.550 OA
ATOM      9  O   UNL     1      19.359   8.169  37.710  1.00  0.00    -0.550 OA
ENDBRANCH   6   7
ENDBRANCH   5   6
ENDBRANCH   4   5
ENDBRANCH   3   4
ENDBRANCH   2   3
ENDBRANCH   1   2
BRANCH   1  10
ATOM     10  C   UNL     1      19.917  11.000  31.927  1.00  0.00     0.027 C 
BRANCH  10  11
ATOM     11  C   UNL     1      21.015  12.033  31.833  1.00  0.00    -0.031 C 
ATOM     12  C   UNL     1      21.263  12.995  32.744  1.00  0.00    -0.031 C 
BRANCH  12  13
ATOM     13  C   UNL     1      20.468  13.229  34.005  1.00  0.00     0.027 C 
BRANCH  13  14
ATOM     14  C   UNL     1      21.270  12.855  35.257  1.00  0.00     0.004 C 
BRANCH  14  15
ATOM     15  C   UNL     1      20.857  11.473  35.781  1.00  0.00     0.000 C 
BRANCH  15  16
ATOM     16  C   UNL     1      21.974  10.423  35.647  1.00  0.00    -0.000 C 
BRANCH  16  17
ATOM     17  C   UNL     1      23.245  10.919  34.936  1.00  0.00    -0.003 C 
ATOM     18  C   UNL     1      24.494  10.833  35.813  1.00  0.00     0.004 C 
ENDBRANCH  16  17
ENDBRANCH  15  16
ENDBRANCH  14  15
ENDBRANCH  13  14
ENDBRANCH  12  13
ENDBRANCH  10  11
ENDBRANCH   1  10
TORSDOF 13
ENDMDL
MODEL 4
REMARK VINA RESULT:    -4.223     17.589     18.977
REMARK INTER + INTRA:          -9.155
REMARK INTER:                  -7.154
REMARK INTRA:                  -2.001
REMARK UNBOUND:                -1.724
REMARK SMILES CCCCCCC=CCCCCCCCC(=O)[O-]
REMARK SMILES IDX 10 1 11 2 12 3 13 4 14 5 15 6 16 7 17 8 18 9 9 10 8 11 7 12
REMARK SMILES IDX 6 13 5 14 4 15 3 16 2 17 1 18
REMARK H PARENT
REMARK Flexibility Score: inf
ROOT
ATOM      1  C   UNL     1      19.639   9.208  36.036  1.00  0.00     0.004 C 
ENDROOT
BRANCH   1   2
ATOM      2  C   UNL     1      19.610   8.114  37.120  1.00  0.00     0.000 C 
BRANCH   2   3
ATOM      3  C   UNL     1      19.390   6.705  36.543  1.00  0.00     0.000 C 
BRANCH   3   4
ATOM      4  C   UNL     1      18.008   6.545  35.890  1.00  0.00     0.000 C 
BRANCH   4   5
ATOM      5  C   UNL     1      18.079   5.877  34.505  1.00  0.00     0.006 C 
BRANCH   5   6
ATOM      6  C   UNL     1      18.484   6.867  33.405  1.00  0.00     0.053 C 
BRANCH   6   7
ATOM      7  C   UNL     1      19.716   6.419  32.680  1.00  0.00     0.041 C 
ATOM      8  O   UNL     1      19.689   6.244  31.434  1.00  0.00    -0.550 OA
ATOM      9  O   UNL     1      20.884   6.158  33.387  1.00  0.00    -0.550 OA
ENDBRANCH   6   7
ENDBRANCH   5   6
ENDBRANCH   4   5
ENDBRANCH   3   4
ENDBRANCH   2   3
ENDBRANCH   1   2
BRANCH   1  10
ATOM     10  C   UNL     1      20.912   9.230  35.171  1.00  0.00     0.027 C 
BRANCH  10  11
ATOM     11  C   UNL     1      22.019  10.035  35.811  1.00  0.00    -0.031 C 
ATOM     12  C   UNL     1      22.290  11.331  35.560  1.00  0.00    -0.031 C 
BRANCH  12  13
ATOM     13  C   UNL     1      21.553  12.200  34.571  1.00  0.00     0.027 C 
BRANCH  13  14
ATOM     14  C   UNL     1      20.854  13.376  35.265  1.00  0.00     0.004 C 
BRANCH  14  15
ATOM     15  C   UNL     1      19.441  12.984  35.719  1.00  0.00     0.000 C 
BRANCH  15  16
ATOM     16  C   UNL     1      18.416  13.002  34.572  1.00  0.00    -0.000 C 
BRANCH  16  17
ATOM     17  C   UNL     1      17.875  11.619  34.166  1.00  0.00    -0.003 C 
ATOM     18  C   UNL     1      18.535  11.065  32.904  1.00  0.00     0.004 C 
ENDBRANCH  16  17
ENDBRANCH  15  16
ENDBRANCH  14  15
ENDBRANCH  13  14
ENDBRANCH  12  13
ENDBRANCH  10  11
ENDBRANCH   1  10
TORSDOF 13
ENDMDL
MODEL 5
REMARK VINA RESULT:    -4.211      3.163      5.432
REMARK INTER + INTRA:          -9.135
REMARK INTER:                  -7.176
REMARK INTRA:                  -1.959
REMARK UNBOUND:                -1.724
REMARK SMILES CCCCCCC=CCCCCCCCC(=O)[O-]
REMARK SMILES IDX 10 1 11 2 12 3 13 4 14 5 15 6 16 7 17 8 18 9 9 10 8 11 7 12
REMARK SMILES IDX 6 13 5 14 4 15 3 16 2 17 1 18
REMARK H PARENT
REMARK Flexibility Score: inf
ROOT
ATOM      1  C   UNL     1      31.626   9.053  48.081  1.00  0.00     0.004 C 
ENDROOT
BRANCH   1   2
ATOM      2  C   UNL     1      32.831   9.992  48.280  1.00  0.00     0.000 C 
BRANCH   2   3
ATOM      3  C   UNL     1      34.071   9.269  48.832  1.00  0.00     0.000 C 
BRANCH   3   4
ATOM      4  C   UNL     1      35.333  10.144  48.782  1.00  0.00     0.000 C 
BRANCH   4   5
ATOM      5  C   UNL     1      35.164  11.382  47.884  1.00  0.00     0.006 C 
BRANCH   5   6
ATOM      6  C   UNL     1      35.983  11.277  46.591  1.00  0.00     0.053 C 
BRANCH   6   7
ATOM      7  C   UNL     1      36.367  12.625  46.064  1.00  0.00     0.041 C 
ATOM      8  O   UNL     1      37.575  12.975  46.039  1.00  0.00    -0.550 OA
ATOM      9  O   UNL     1      35.385  13.511  45.636  1.00  0.00    -0.550 OA
ENDBRANCH   6   7
ENDBRANCH   5   6
ENDBRANCH   4   5
ENDBRANCH   3   4
ENDBRANCH   2   3
ENDBRANCH   1   2
BRANCH   1  10
ATOM     10  C   UNL     1      31.690   7.739  48.880  1.00  0.00     0.027 C 
BRANCH  10  11
ATOM     11  C   UNL     1      31.357   6.538  48.025  1.00  0.00    -0.031 C 
ATOM     12  C   UNL     1      32.255   5.742  47.412  1.00  0.00    -0.031 C 
BRANCH  12  13
ATOM     13  C   UNL     1      33.751   5.925  47.447  1.00  0.00     0.027 C 
BRANCH  13  14
ATOM     14  C   UNL     1      34.374   5.756  46.055  1.00  0.00     0.004 C 
BRANCH  14  15
ATOM     15  C   UNL     1      33.713   6.700  45.041  1.00  0.00     0.000 C 
BRANCH  15  16
ATOM     16  C   UNL     1      34.135   8.169  45.226  1.00  0.00    -0.000 C 
BRANCH  16  17
ATOM     17  C   UNL     1      34.613   8.870  43.942  1.00  0.00    -0.003 C 
ATOM     18  C   UNL     1      34.001  10.258  43.756  1.00  0.00     0.004 C 
ENDBRANCH  16  17
ENDBRANCH  15  16
ENDBRANCH  14  15
ENDBRANCH  13  14
ENDBRANCH  12  13
ENDBRANCH  10  11
ENDBRANCH   1  10
TORSDOF 13
ENDMDL
MODEL 6
REMARK VINA RESULT:    -4.089     17.918     19.480
REMARK INTER + INTRA:          -8.921
REMARK INTER:                  -6.442
REMARK INTRA:                  -2.478
REMARK UNBOUND:                -1.724
REMARK SMILES CCCCCCC=CCCCCCCCC(=O)[O-]
REMARK SMILES IDX 10 1 11 2 12 3 13 4 14 5 15 6 16 7 17 8 18 9 9 10 8 11 7 12
REMARK SMILES IDX 6 13 5 14 4 15 3 16 2 17 1 18
REMARK H PARENT
REMARK Flexibility Score: inf
ROOT
ATOM      1  C   UNL     1      21.709  12.567  35.643  1.00  0.00     0.004 C 
ENDROOT
BRANCH   1   2
ATOM      2  C   UNL     1      21.967  11.368  34.712  1.00  0.00     0.000 C 
BRANCH   2   3
ATOM      3  C   UNL     1      21.923  10.017  35.448  1.00  0.00     0.000 C 
BRANCH   3   4
ATOM      4  C   UNL     1      20.488   9.513  35.668  1.00  0.00     0.000 C 
BRANCH   4   5
ATOM      5  C   UNL     1      20.336   8.008  35.379  1.00  0.00     0.006 C 
BRANCH   5   6
ATOM      6  C   UNL     1      19.348   7.735  34.238  1.00  0.00     0.053 C 
BRANCH   6   7
ATOM      7  C   UNL     1      20.040   7.211  33.017  1.00  0.00     0.041 C 
ATOM      8  O   UNL     1      20.003   7.861  31.939  1.00  0.00    -0.550 OA
ATOM      9  O   UNL     1      20.694   5.986  33.059  1.00  0.00    -0.550 OA
ENDBRANCH   6   7
ENDBRANCH   5   6
ENDBRANCH   4   5
ENDBRANCH   3   4
ENDBRANCH   2   3
ENDBRANCH   1   2
BRANCH   1  10
ATOM     10  C   UNL     1      20.524  13.461  35.236  1.00  0.00     0.027 C 
BRANCH  10  11
ATOM     11  C   UNL     1      19.229  13.009  35.869  1.00  0.00    -0.031 C 
ATOM     12  C   UNL     1      18.128  12.613  35.199  1.00  0.00    -0.031 C 
BRANCH  12  13
ATOM     13  C   UNL     1      17.985  12.579  33.698  1.00  0.00     0.027 C 
BRANCH  13  14
ATOM     14  C   UNL     1      18.370  11.209  33.124  1.00  0.00     0.004 C 
BRANCH  14  15
ATOM     15  C   UNL     1      19.470  11.349  32.063  1.00  0.00     0.000 C 
BRANCH  15  16
ATOM     16  C   UNL     1      19.813  12.815  31.744  1.00  0.00    -0.000 C 
BRANCH  16  17
ATOM     17  C   UNL     1      21.314  13.103  31.564  1.00  0.00    -0.003 C 
ATOM     18  C   UNL     1      21.646  14.594  31.602  1.00  0.00     0.004 C 
ENDBRANCH  16  17
ENDBRANCH  15  16
ENDBRANCH  14  15
ENDBRANCH  13  14
ENDBRANCH  12  13
ENDBRANCH  10  11
ENDBRANCH   1  10
TORSDOF 13
ENDMDL
MODEL 7
REMARK VINA RESULT:    -4.085     18.095     20.197
REMARK INTER + INTRA:          -8.912
REMARK INTER:                  -7.907
REMARK INTRA:                  -1.005
REMARK UNBOUND:                -1.724
REMARK SMILES CCCCCCC=CCCCCCCCC(=O)[O-]
REMARK SMILES IDX 10 1 11 2 12 3 13 4 14 5 15 6 16 7 17 8 18 9 9 10 8 11 7 12
REMARK SMILES IDX 6 13 5 14 4 15 3 16 2 17 1 18
REMARK H PARENT
REMARK Flexibility Score: inf
ROOT
ATOM      1  C   UNL     1      21.232  13.424  34.122  1.00  0.00     0.004 C 
ENDROOT
BRANCH   1   2
ATOM      2  C   UNL     1      20.442  12.757  32.980  1.00  0.00     0.000 C 
BRANCH   2   3
ATOM      3  C   UNL     1      20.867  13.252  31.587  1.00  0.00     0.000 C 
BRANCH   3   4
ATOM      4  C   UNL     1      21.592  14.607  31.640  1.00  0.00     0.000 C 
BRANCH   4   5
ATOM      5  C   UNL     1      22.414  14.892  30.371  1.00  0.00     0.006 C 
BRANCH   5   6
ATOM      6  C   UNL     1      22.189  16.314  29.842  1.00  0.00     0.053 C 
BRANCH   6   7
ATOM      7  C   UNL     1      22.747  17.348  30.773  1.00  0.00     0.041 C 
ATOM      8  O   UNL     1      23.989  17.539  30.837  1.00  0.00    -0.550 OA
ATOM      9  O   UNL     1      21.895  18.074  31.597  1.00  0.00    -0.550 OA
ENDBRANCH   6   7
ENDBRANCH   5   6
ENDBRANCH   4   5
ENDBRANCH   3   4
ENDBRANCH   2   3
ENDBRANCH   1   2
BRANCH   1  10
ATOM     10  C   UNL     1      21.217  12.657  35.456  1.00  0.00     0.027 C 
BRANCH  10  11
ATOM     11  C   UNL     1      22.306  11.612  35.522  1.00  0.00    -0.031 C 
ATOM     12  C   UNL     1      22.109  10.281  35.593  1.00  0.00    -0.031 C 
BRANCH  12  13
ATOM     13  C   UNL     1      20.764   9.599  35.649  1.00  0.00     0.027 C 
BRANCH  13  14
ATOM     14  C   UNL     1      20.352   9.049  34.278  1.00  0.00     0.004 C 
BRANCH  14  15
ATOM     15  C   UNL     1      19.909   7.583  34.386  1.00  0.00     0.000 C 
BRANCH  15  16
ATOM     16  C   UNL     1      20.477   6.876  35.630  1.00  0.00    -0.000 C 
BRANCH  16  17
ATOM     17  C   UNL     1      19.431   6.511  36.699  1.00  0.00    -0.003 C 
ATOM     18  C   UNL     1      18.073   6.139  36.105  1.00  0.00     0.004 C 
ENDBRANCH  16  17
ENDBRANCH  15  16
ENDBRANCH  14  15
ENDBRANCH  13  14
ENDBRANCH  12  13
ENDBRANCH  10  11
ENDBRANCH   1  10
TORSDOF 13
ENDMDL
MODEL 8
REMARK VINA RESULT:    -4.085     17.720     19.648
REMARK INTER + INTRA:          -8.912
REMARK INTER:                  -7.062
REMARK INTRA:                  -1.850
REMARK UNBOUND:                -1.724
REMARK SMILES CCCCCCC=CCCCCCCCC(=O)[O-]
REMARK SMILES IDX 10 1 11 2 12 3 13 4 14 5 15 6 16 7 17 8 18 9 9 10 8 11 7 12
REMARK SMILES IDX 6 13 5 14 4 15 3 16 2 17 1 18
REMARK H PARENT
REMARK Flexibility Score: inf
ROOT
ATOM      1  C   UNL     1      20.861   9.466  35.033  1.00  0.00     0.004 C 
ENDROOT
BRANCH   1   2
ATOM      2  C   UNL     1      22.086  10.070  35.746  1.00  0.00     0.000 C 
BRANCH   2   3
ATOM      3  C   UNL     1      22.411  11.497  35.273  1.00  0.00     0.000 C 
BRANCH   3   4
ATOM      4  C   UNL     1      21.952  11.758  33.830  1.00  0.00     0.000 C 
BRANCH   4   5
ATOM      5  C   UNL     1      21.237  13.112  33.668  1.00  0.00     0.006 C 
BRANCH   5   6
ATOM      6  C   UNL     1      20.659  13.623  34.994  1.00  0.00     0.053 C 
BRANCH   6   7
ATOM      7  C   UNL     1      19.273  13.108  35.231  1.00  0.00     0.041 C 
ATOM      8  O   UNL     1      18.428  13.109  34.298  1.00  0.00    -0.550 OA
ATOM      9  O   UNL     1      18.903  12.661  36.494  1.00  0.00    -0.550 OA
ENDBRANCH   6   7
ENDBRANCH   5   6
ENDBRANCH   4   5
ENDBRANCH   3   4
ENDBRANCH   2   3
ENDBRANCH   1   2
BRANCH   1  10
ATOM     10  C   UNL     1      19.647   9.201  35.941  1.00  0.00     0.027 C 
BRANCH  10  11
ATOM     11  C   UNL     1      19.647   7.794  36.492  1.00  0.00    -0.031 C 
ATOM     12  C   UNL     1      18.989   6.746  35.957  1.00  0.00    -0.031 C 
BRANCH  12  13
ATOM     13  C   UNL     1      18.112   6.799  34.730  1.00  0.00     0.027 C 
BRANCH  13  14
ATOM     14  C   UNL     1      18.657   5.908  33.607  1.00  0.00     0.004 C 
BRANCH  14  15
ATOM     15  C   UNL     1      19.968   6.475  33.045  1.00  0.00     0.000 C 
BRANCH  15  16
ATOM     16  C   UNL     1      19.789   7.148  31.672  1.00  0.00    -0.000 C 
BRANCH  16  17
ATOM     17  C   UNL     1      19.330   8.616  31.728  1.00  0.00    -0.003 C 
ATOM     18  C   UNL     1      20.412   9.599  31.281  1.00  0.00     0.004 C 
ENDBRANCH  16  17
ENDBRANCH  15  16
ENDBRANCH  14  15
ENDBRANCH  13  14
ENDBRANCH  12  13
ENDBRANCH  10  11
ENDBRANCH   1  10
TORSDOF 13
ENDMDL
MODEL 9
REMARK VINA RESULT:    -4.042     17.956     19.437
REMARK INTER + INTRA:          -8.837
REMARK INTER:                  -6.481
REMARK INTRA:                  -2.356
REMARK UNBOUND:                -1.724
REMARK SMILES CCCCCCC=CCCCCCCCC(=O)[O-]
REMARK SMILES IDX 10 1 11 2 12 3 13 4 14 5 15 6 16 7 17 8 18 9 9 10 8 11 7 12
REMARK SMILES IDX 6 13 5 14 4 15 3 16 2 17 1 18
REMARK H PARENT
REMARK Flexibility Score: inf
ROOT
ATOM      1  C   UNL     1      22.588  11.047  34.981  1.00  0.00     0.004 C 
ENDROOT
BRANCH   1   2
ATOM      2  C   UNL     1      21.919  10.047  35.942  1.00  0.00     0.000 C 
BRANCH   2   3
ATOM      3  C   UNL     1      20.847   9.182  35.256  1.00  0.00     0.000 C 
BRANCH   3   4
ATOM      4  C   UNL     1      19.757   8.713  36.232  1.00  0.00     0.000 C 
BRANCH   4   5
ATOM      5  C   UNL     1      19.379   7.233  36.036  1.00  0.00     0.006 C 
BRANCH   5   6
ATOM      6  C   UNL     1      19.865   6.685  34.688  1.00  0.00     0.053 C 
BRANCH   6   7
ATOM      7  C   UNL     1      18.751   6.596  33.690  1.00  0.00     0.041 C 
ATOM      8  O   UNL     1      18.580   5.541  33.025  1.00  0.00    -0.550 OA
ATOM      9  O   UNL     1      17.925   7.691  33.469  1.00  0.00    -0.550 OA
ENDBRANCH   6   7
ENDBRANCH   5   6
ENDBRANCH   4   5
ENDBRANCH   3   4
ENDBRANCH   2   3
ENDBRANCH   1   2
BRANCH   1  10
ATOM     10  C   UNL     1      21.613  11.892  34.141  1.00  0.00     0.027 C 
BRANCH  10  11
ATOM     11  C   UNL     1      21.270  13.200  34.815  1.00  0.00    -0.031 C 
ATOM     12  C   UNL     1      20.191  13.420  35.591  1.00  0.00    -0.031 C 
BRANCH  12  13
ATOM     13  C   UNL     1      19.117  12.407  35.900  1.00  0.00     0.027 C 
BRANCH  13  14
ATOM     14  C   UNL     1      17.977  12.461  34.875  1.00  0.00     0.004 C 
BRANCH  14  15
ATOM     15  C   UNL     1      17.875  11.141  34.098  1.00  0.00     0.000 C 
BRANCH  15  16
ATOM     16  C   UNL     1      18.334  11.271  32.634  1.00  0.00    -0.000 C 
BRANCH  16  17
ATOM     17  C   UNL     1      18.204  12.684  32.039  1.00  0.00    -0.003 C 
ATOM     18  C   UNL     1      19.505  13.197  31.425  1.00  0.00     0.004 C 
ENDBRANCH  16  17
ENDBRANCH  15  16
ENDBRANCH  14  15
ENDBRANCH  13  14
ENDBRANCH  12  13
ENDBRANCH  10  11
ENDBRANCH   1  10
TORSDOF 13
ENDMDL
