MODEL 1
REMARK VINA RESULT:    -3.738      0.000      0.000
REMARK INTER + INTRA:          -5.170
REMARK INTER:                  -5.268
REMARK INTRA:                   0.098
REMARK UNBOUND:                 0.098
REMARK SMILES CC1=CCC(=C(C)C)C(=O)CC(C)=CCC1
REMARK SMILES IDX 12 1 14 2 13 3 15 4 16 5 2 6 1 7 3 8 11 10 9 11 10 12 5 13
REMARK SMILES IDX 6 14 7 15 8 16 4 17
REMARK H PARENT
REMARK Flexibility Score: 60.00
ROOT
ATOM      1  C   UNL     1      57.810 -20.120   1.741  1.00  0.00    -0.070 C 
ATOM      2  C   UNL     1      59.086 -19.826   2.086  1.00  0.00    -0.027 C 
ATOM      3  C   UNL     1      56.877 -20.595   2.825  1.00  0.00     0.039 C 
ENDROOT
BRANCH   2   4
ATOM      4  C   UNL     1      60.189 -19.405   1.144  1.00  0.00     0.032 C 
BRANCH   4   5
ATOM      5  C   UNL     1      60.094 -17.926   0.730  1.00  0.00     0.034 C 
BRANCH   5   6
ATOM      6  C   UNL     1      60.191 -17.731  -0.772  1.00  0.00    -0.077 C 
ATOM      7  C   UNL     1      61.457 -18.162  -1.469  1.00  0.00     0.039 C 
ATOM      8  C   UNL     1      59.199 -17.210  -1.530  1.00  0.00    -0.023 CG0
ATOM      9  G   UNL     1      57.840 -16.775  -1.032  1.00  0.00     0.000 G0
ENDBRANCH   5   6
ENDBRANCH   4   5
ENDBRANCH   2   4
BRANCH   1  10
ATOM     10  C   UNL     1      57.274 -20.020   0.324  1.00  0.00     0.111 C 
BRANCH  10  11
ATOM     11  C   UNL     1      56.539 -18.724   0.079  1.00  0.00     0.163 C 
ATOM     12  O   UNL     1      55.642 -18.387   0.898  1.00  0.00    -0.294 OA
BRANCH  11  13
ATOM     13  C   UNL     1      56.783 -17.881  -1.131  1.00  0.00    -0.002 C 
ATOM     14  C   UNL     1      55.996 -18.017  -2.238  1.00  0.00    -0.069 C 
ATOM     15  C   UNL     1      56.154 -17.105  -3.433  1.00  0.00     0.039 C 
ATOM     16  C   UNL     1      54.898 -19.056  -2.300  1.00  0.00     0.039 C 
BRANCH  13  17
ATOM     17  C   UNL     1      57.822 -16.770  -1.042  1.00  0.00     0.066 CG0
ATOM     18  G   UNL     1      59.177 -17.232  -1.525  1.00  0.00     0.000 G0
ENDBRANCH  13  17
ENDBRANCH  11  13
ENDBRANCH  10  11
ENDBRANCH   1  10
TORSDOF 0
ENDMDL
MODEL 2
REMARK VINA RESULT:    -3.488      1.963      3.785
REMARK INTER + INTRA:          -4.817
REMARK INTER:                  -5.159
REMARK INTRA:                   0.342
REMARK UNBOUND:                 0.098
REMARK SMILES CC1=CCC(=C(C)C)C(=O)CC(C)=CCC1
REMARK SMILES IDX 12 1 14 2 13 3 15 4 16 5 2 6 1 7 3 8 11 10 9 11 10 12 5 13
REMARK SMILES IDX 6 14 7 15 8 16 4 17
REMARK H PARENT
REMARK Flexibility Score: 60.00
ROOT
ATOM      1  C   UNL     1      60.548 -18.613  -0.460  1.00  0.00    -0.070 C 
ATOM      2  C   UNL     1      60.289 -19.541   0.491  1.00  0.00    -0.027 C 
ATOM      3  C   UNL     1      61.875 -18.681  -1.172  1.00  0.00     0.039 C 
ENDROOT
BRANCH   2   4
ATOM      4  C   UNL     1      59.057 -19.605   1.363  1.00  0.00     0.032 C 
BRANCH   4   5
ATOM      5  C   UNL     1      57.829 -20.165   0.626  1.00  0.00     0.034 C 
BRANCH   5   6
ATOM      6  C   UNL     1      56.645 -19.215   0.654  1.00  0.00    -0.077 C 
ATOM      7  C   UNL     1      56.045 -18.859   1.990  1.00  0.00     0.039 C 
ATOM      8  C   UNL     1      56.108 -18.648  -0.451  1.00  0.00    -0.023 CG0
ATOM      9  G   UNL     1      56.600 -18.830  -1.868  1.00  0.00     0.000 G0
ENDBRANCH   5   6
ENDBRANCH   4   5
ENDBRANCH   2   4
BRANCH   1  10
ATOM     10  C   UNL     1      59.588 -17.498  -0.834  1.00  0.00     0.111 C 
BRANCH  10  11
ATOM     11  C   UNL     1      58.929 -17.733  -2.172  1.00  0.00     0.163 C 
ATOM     12  O   UNL     1      59.670 -17.931  -3.172  1.00  0.00    -0.294 OA
BRANCH  11  13
ATOM     13  C   UNL     1      57.448 -17.658  -2.359  1.00  0.00    -0.002 C 
ATOM     14  C   UNL     1      56.891 -16.627  -3.060  1.00  0.00    -0.069 C 
ATOM     15  C   UNL     1      55.409 -16.585  -3.354  1.00  0.00     0.039 C 
ATOM     16  C   UNL     1      57.741 -15.505  -3.616  1.00  0.00     0.039 C 
BRANCH  13  17
ATOM     17  C   UNL     1      56.598 -18.830  -1.886  1.00  0.00     0.066 CG0
ATOM     18  G   UNL     1      56.143 -18.650  -0.456  1.00  0.00     0.000 G0
ENDBRANCH  13  17
ENDBRANCH  11  13
ENDBRANCH  10  11
ENDBRANCH   1  10
TORSDOF 0
ENDMDL
MODEL 3
REMARK VINA RESULT:    -3.214      2.083      5.199
REMARK INTER + INTRA:          -4.431
REMARK INTER:                  -4.867
REMARK INTRA:                   0.436
REMARK UNBOUND:                 0.098
REMARK SMILES CC1=CCC(=C(C)C)C(=O)CC(C)=CCC1
REMARK SMILES IDX 12 1 14 2 13 3 15 4 16 5 2 6 1 7 3 8 11 10 9 11 10 12 5 13
REMARK SMILES IDX 6 14 7 15 8 16 4 17
REMARK H PARENT
REMARK Flexibility Score: 60.00
ROOT
ATOM      1  C   UNL     1      60.127 -17.823  -1.450  1.00  0.00    -0.070 C 
ATOM      2  C   UNL     1      59.124 -17.605  -2.334  1.00  0.00    -0.027 C 
ATOM      3  C   UNL     1      61.501 -18.111  -1.997  1.00  0.00     0.039 C 
ENDROOT
BRANCH   2   4
ATOM      4  C   UNL     1      57.671 -17.371  -1.994  1.00  0.00     0.032 C 
BRANCH   4   5
ATOM      5  C   UNL     1      56.884 -18.677  -1.789  1.00  0.00     0.034 C 
BRANCH   5   6
ATOM      6  C   UNL     1      56.105 -18.694  -0.487  1.00  0.00    -0.077 C 
ATOM      7  C   UNL     1      54.846 -17.869  -0.396  1.00  0.00     0.039 C 
ATOM      8  C   UNL     1      56.461 -19.423   0.595  1.00  0.00    -0.023 CG0
ATOM      9  G   UNL     1      57.648 -20.355   0.684  1.00  0.00     0.000 G0
ENDBRANCH   5   6
ENDBRANCH   4   5
ENDBRANCH   2   4
BRANCH   1  10
ATOM     10  C   UNL     1      59.940 -17.813   0.057  1.00  0.00     0.111 C 
BRANCH  10  11
ATOM     11  C   UNL     1      59.970 -19.202   0.647  1.00  0.00     0.163 C 
ATOM     12  O   UNL     1      60.966 -19.932   0.397  1.00  0.00    -0.294 OA
BRANCH  11  13
ATOM     13  C   UNL     1      58.832 -19.760   1.440  1.00  0.00    -0.002 C 
ATOM     14  C   UNL     1      58.789 -19.598   2.795  1.00  0.00    -0.069 C 
ATOM     15  C   UNL     1      57.599 -20.060   3.605  1.00  0.00     0.039 C 
ATOM     16  C   UNL     1      59.908 -18.905   3.541  1.00  0.00     0.039 C 
BRANCH  13  17
ATOM     17  C   UNL     1      57.658 -20.374   0.688  1.00  0.00     0.066 CG0
ATOM     18  G   UNL     1      56.486 -19.422   0.608  1.00  0.00     0.000 G0
ENDBRANCH  13  17
ENDBRANCH  11  13
ENDBRANCH  10  11
ENDBRANCH   1  10
TORSDOF 0
ENDMDL
MODEL 4
REMARK VINA RESULT:    -3.175      2.184      4.005
REMARK INTER + INTRA:          -4.376
REMARK INTER:                  -4.572
REMARK INTRA:                   0.196
REMARK UNBOUND:                 0.098
REMARK SMILES CC1=CCC(=C(C)C)C(=O)CC(C)=CCC1
REMARK SMILES IDX 12 1 14 2 13 3 15 4 16 5 2 6 1 7 3 8 11 10 9 11 10 12 5 13
REMARK SMILES IDX 6 14 7 15 8 16 4 17
REMARK H PARENT
REMARK Flexibility Score: 60.00
ROOT
ATOM      1  C   UNL     1      60.227 -19.406   2.936  1.00  0.00    -0.070 C 
ATOM      2  C   UNL     1      59.107 -19.746   3.617  1.00  0.00    -0.027 C 
ATOM      3  C   UNL     1      61.505 -20.131   3.272  1.00  0.00     0.039 C 
ENDROOT
BRANCH   2   4
ATOM      4  C   UNL     1      57.750 -19.096   3.481  1.00  0.00     0.032 C 
BRANCH   4   5
ATOM      5  C   UNL     1      56.984 -19.561   2.231  1.00  0.00     0.034 C 
BRANCH   5   6
ATOM      6  C   UNL     1      56.522 -18.404   1.363  1.00  0.00    -0.077 C 
ATOM      7  C   UNL     1      55.539 -17.421   1.946  1.00  0.00     0.039 C 
ATOM      8  C   UNL     1      56.957 -18.189   0.100  1.00  0.00    -0.023 CG0
ATOM      9  G   UNL     1      57.980 -19.021  -0.638  1.00  0.00     0.000 G0
ENDBRANCH   5   6
ENDBRANCH   4   5
ENDBRANCH   2   4
BRANCH   1  10
ATOM     10  C   UNL     1      60.273 -18.325   1.871  1.00  0.00     0.111 C 
BRANCH  10  11
ATOM     11  C   UNL     1      60.301 -18.897   0.474  1.00  0.00     0.163 C 
ATOM     12  O   UNL     1      61.184 -19.755   0.202  1.00  0.00    -0.294 OA
BRANCH  11  13
ATOM     13  C   UNL     1      59.380 -18.424  -0.604  1.00  0.00    -0.002 C 
ATOM     14  C   UNL     1      59.835 -17.590  -1.585  1.00  0.00    -0.069 C 
ATOM     15  C   UNL     1      58.954 -17.184  -2.743  1.00  0.00     0.039 C 
ATOM     16  C   UNL     1      61.257 -17.074  -1.581  1.00  0.00     0.039 C 
BRANCH  13  17
ATOM     17  C   UNL     1      57.977 -19.014  -0.668  1.00  0.00     0.066 CG0
ATOM     18  G   UNL     1      56.985 -18.180   0.110  1.00  0.00     0.000 G0
ENDBRANCH  13  17
ENDBRANCH  11  13
ENDBRANCH  10  11
ENDBRANCH   1  10
TORSDOF 0
ENDMDL
MODEL 5
REMARK VINA RESULT:    -3.101      2.272      5.761
REMARK INTER + INTRA:          -4.272
REMARK INTER:                  -4.407
REMARK INTRA:                   0.135
REMARK UNBOUND:                 0.098
REMARK SMILES CC1=CCC(=C(C)C)C(=O)CC(C)=CCC1
REMARK SMILES IDX 12 1 14 2 13 3 15 4 16 5 2 6 1 7 3 8 11 10 9 11 10 12 5 13
REMARK SMILES IDX 6 14 7 15 8 16 4 17
REMARK H PARENT
REMARK Flexibility Score: 60.00
ROOT
ATOM      1  C   UNL     1      57.196 -15.933  -4.926  1.00  0.00    -0.070 C 
ATOM      2  C   UNL     1      55.863 -16.140  -4.803  1.00  0.00    -0.027 C 
ATOM      3  C   UNL     1      57.659 -14.862  -5.879  1.00  0.00     0.039 C 
ENDROOT
BRANCH   2   4
ATOM      4  C   UNL     1      55.200 -17.205  -3.960  1.00  0.00     0.032 C 
BRANCH   4   5
ATOM      5  C   UNL     1      55.123 -16.830  -2.471  1.00  0.00     0.034 C 
BRANCH   5   6
ATOM      6  C   UNL     1      55.485 -17.986  -1.556  1.00  0.00    -0.077 C 
ATOM      7  C   UNL     1      54.627 -19.225  -1.596  1.00  0.00     0.039 C 
ATOM      8  C   UNL     1      56.549 -17.981  -0.720  1.00  0.00    -0.023 CG0
ATOM      9  G   UNL     1      57.558 -16.865  -0.578  1.00  0.00     0.000 G0
ENDBRANCH   5   6
ENDBRANCH   4   5
ENDBRANCH   2   4
BRANCH   1  10
ATOM     10  C   UNL     1      58.247 -16.732  -4.177  1.00  0.00     0.111 C 
BRANCH  10  11
ATOM     11  C   UNL     1      58.577 -16.127  -2.834  1.00  0.00     0.163 C 
ATOM     12  O   UNL     1      58.830 -14.893  -2.785  1.00  0.00    -0.294 OA
BRANCH  11  13
ATOM     13  C   UNL     1      58.693 -16.949  -1.591  1.00  0.00    -0.002 C 
ATOM     14  C   UNL     1      59.835 -17.650  -1.329  1.00  0.00    -0.069 C 
ATOM     15  C   UNL     1      60.016 -18.402  -0.031  1.00  0.00     0.039 C 
ATOM     16  C   UNL     1      60.989 -17.666  -2.307  1.00  0.00     0.039 C 
BRANCH  13  17
ATOM     17  C   UNL     1      57.575 -16.862  -0.559  1.00  0.00     0.066 CG0
ATOM     18  G   UNL     1      56.566 -17.975  -0.732  1.00  0.00     0.000 G0
ENDBRANCH  13  17
ENDBRANCH  11  13
ENDBRANCH  10  11
ENDBRANCH   1  10
TORSDOF 0
ENDMDL
MODEL 6
REMARK VINA RESULT:    -2.960      1.529      3.593
REMARK INTER + INTRA:          -4.073
REMARK INTER:                  -4.531
REMARK INTRA:                   0.458
REMARK UNBOUND:                 0.098
REMARK SMILES CC1=CCC(=C(C)C)C(=O)CC(C)=CCC1
REMARK SMILES IDX 12 1 14 2 13 3 15 4 16 5 2 6 1 7 3 8 11 10 9 11 10 12 5 13
REMARK SMILES IDX 6 14 7 15 8 16 4 17
REMARK H PARENT
REMARK Flexibility Score: 60.00
ROOT
ATOM      1  C   UNL     1      58.828 -19.798   1.695  1.00  0.00    -0.070 C 
ATOM      2  C   UNL     1      57.543 -20.069   2.025  1.00  0.00    -0.027 C 
ATOM      3  C   UNL     1      59.832 -19.668   2.812  1.00  0.00     0.039 C 
ENDROOT
BRANCH   2   4
ATOM      4  C   UNL     1      56.379 -20.169   1.067  1.00  0.00     0.032 C 
BRANCH   4   5
ATOM      5  C   UNL     1      55.833 -18.795   0.641  1.00  0.00     0.034 C 
BRANCH   5   6
ATOM      6  C   UNL     1      55.752 -18.638  -0.866  1.00  0.00    -0.077 C 
ATOM      7  C   UNL     1      54.715 -19.439  -1.613  1.00  0.00     0.039 C 
ATOM      8  C   UNL     1      56.541 -17.804  -1.581  1.00  0.00    -0.023 CG0
ATOM      9  G   UNL     1      57.594 -16.879  -1.015  1.00  0.00     0.000 G0
ENDBRANCH   5   6
ENDBRANCH   4   5
ENDBRANCH   2   4
BRANCH   1  10
ATOM     10  C   UNL     1      59.309 -19.598   0.269  1.00  0.00     0.111 C 
BRANCH  10  11
ATOM     11  C   UNL     1      59.616 -18.152  -0.035  1.00  0.00     0.163 C 
ATOM     12  O   UNL     1      60.365 -17.524   0.761  1.00  0.00    -0.294 OA
BRANCH  11  13
ATOM     13  C   UNL     1      59.002 -17.428  -1.190  1.00  0.00    -0.002 C 
ATOM     14  C   UNL     1      59.641 -17.382  -2.396  1.00  0.00    -0.069 C 
ATOM     15  C   UNL     1      58.993 -16.748  -3.605  1.00  0.00     0.039 C 
ATOM     16  C   UNL     1      61.005 -18.007  -2.587  1.00  0.00     0.039 C 
BRANCH  13  17
ATOM     17  C   UNL     1      57.589 -16.880  -1.032  1.00  0.00     0.066 CG0
ATOM     18  G   UNL     1      56.555 -17.834  -1.583  1.00  0.00     0.000 G0
ENDBRANCH  13  17
ENDBRANCH  11  13
ENDBRANCH  10  11
ENDBRANCH   1  10
TORSDOF 0
ENDMDL
MODEL 7
REMARK VINA RESULT:    -2.926      1.664      3.504
REMARK INTER + INTRA:          -4.025
REMARK INTER:                  -4.504
REMARK INTRA:                   0.479
REMARK UNBOUND:                 0.098
REMARK SMILES CC1=CCC(=C(C)C)C(=O)CC(C)=CCC1
REMARK SMILES IDX 12 1 14 2 13 3 15 4 16 5 2 6 1 7 3 8 11 10 9 11 10 12 5 13
REMARK SMILES IDX 6 14 7 15 8 16 4 17
REMARK H PARENT
REMARK Flexibility Score: 60.00
ROOT
ATOM      1  C   UNL     1      60.398 -17.366  -0.930  1.00  0.00    -0.070 C 
ATOM      2  C   UNL     1      60.744 -18.239   0.045  1.00  0.00    -0.027 C 
ATOM      3  C   UNL     1      61.085 -16.025  -0.955  1.00  0.00     0.039 C 
ENDROOT
BRANCH   2   4
ATOM      4  C   UNL     1      60.128 -19.598   0.286  1.00  0.00     0.032 C 
BRANCH   4   5
ATOM      5  C   UNL     1      59.515 -19.738   1.690  1.00  0.00     0.034 C 
BRANCH   5   6
ATOM      6  C   UNL     1      58.440 -18.703   1.966  1.00  0.00    -0.077 C 
ATOM      7  C   UNL     1      58.598 -17.812   3.173  1.00  0.00     0.039 C 
ATOM      8  C   UNL     1      57.355 -18.514   1.180  1.00  0.00    -0.023 CG0
ATOM      9  G   UNL     1      57.048 -19.259  -0.099  1.00  0.00     0.000 G0
ENDBRANCH   5   6
ENDBRANCH   4   5
ENDBRANCH   2   4
BRANCH   1  10
ATOM     10  C   UNL     1      59.344 -17.653  -1.985  1.00  0.00     0.111 C 
BRANCH  10  11
ATOM     11  C   UNL     1      57.957 -17.272  -1.528  1.00  0.00     0.163 C 
ATOM     12  O   UNL     1      57.727 -16.058  -1.280  1.00  0.00    -0.294 OA
BRANCH  11  13
ATOM     13  C   UNL     1      56.886 -18.286  -1.286  1.00  0.00    -0.002 C 
ATOM     14  C   UNL     1      55.858 -18.431  -2.172  1.00  0.00    -0.069 C 
ATOM     15  C   UNL     1      54.822 -19.519  -2.004  1.00  0.00     0.039 C 
ATOM     16  C   UNL     1      55.737 -17.540  -3.389  1.00  0.00     0.039 C 
BRANCH  13  17
ATOM     17  C   UNL     1      57.052 -19.248  -0.116  1.00  0.00     0.066 CG0
ATOM     18  G   UNL     1      57.363 -18.517   1.170  1.00  0.00     0.000 G0
ENDBRANCH  13  17
ENDBRANCH  11  13
ENDBRANCH  10  11
ENDBRANCH   1  10
TORSDOF 0
ENDMDL
MODEL 8
REMARK VINA RESULT:    -2.884      2.100      4.867
REMARK INTER + INTRA:          -3.966
REMARK INTER:                  -4.060
REMARK INTRA:                   0.094
REMARK UNBOUND:                 0.098
REMARK SMILES CC1=CCC(=C(C)C)C(=O)CC(C)=CCC1
REMARK SMILES IDX 12 1 14 2 13 3 15 4 16 5 2 6 1 7 3 8 11 10 9 11 10 12 5 13
REMARK SMILES IDX 6 14 7 15 8 16 4 17
REMARK H PARENT
REMARK Flexibility Score: 60.00
ROOT
ATOM      1  C   UNL     1      54.979 -17.049  -4.189  1.00  0.00    -0.070 C 
ATOM      2  C   UNL     1      55.714 -16.305  -5.048  1.00  0.00    -0.027 C 
ATOM      3  C   UNL     1      53.925 -17.959  -4.766  1.00  0.00     0.039 C 
ENDROOT
BRANCH   2   4
ATOM      4  C   UNL     1      56.764 -15.285  -4.672  1.00  0.00     0.032 C 
BRANCH   4   5
ATOM      5  C   UNL     1      58.164 -15.899  -4.506  1.00  0.00     0.034 C 
BRANCH   5   6
ATOM      6  C   UNL     1      58.871 -15.415  -3.253  1.00  0.00    -0.077 C 
ATOM      7  C   UNL     1      59.351 -13.987  -3.209  1.00  0.00     0.039 C 
ATOM      8  C   UNL     1      59.078 -16.185  -2.160  1.00  0.00    -0.023 CG0
ATOM      9  G   UNL     1      58.623 -17.616  -1.985  1.00  0.00     0.000 G0
ENDBRANCH   5   6
ENDBRANCH   4   5
ENDBRANCH   2   4
BRANCH   1  10
ATOM     10  C   UNL     1      55.140 -17.003  -2.680  1.00  0.00     0.111 C 
BRANCH  10  11
ATOM     11  C   UNL     1      56.085 -18.064  -2.172  1.00  0.00     0.163 C 
ATOM     12  O   UNL     1      55.818 -19.269  -2.429  1.00  0.00    -0.294 OA
BRANCH  11  13
ATOM     13  C   UNL     1      57.267 -17.742  -1.315  1.00  0.00    -0.002 C 
ATOM     14  C   UNL     1      57.141 -17.687   0.043  1.00  0.00    -0.069 C 
ATOM     15  C   UNL     1      58.341 -17.468   0.937  1.00  0.00     0.039 C 
ATOM     16  C   UNL     1      55.802 -17.890   0.718  1.00  0.00     0.039 C 
BRANCH  13  17
ATOM     17  C   UNL     1      58.634 -17.631  -1.979  1.00  0.00     0.066 CG0
ATOM     18  G   UNL     1      59.060 -16.190  -2.143  1.00  0.00     0.000 G0
ENDBRANCH  13  17
ENDBRANCH  11  13
ENDBRANCH  10  11
ENDBRANCH   1  10
TORSDOF 0
ENDMDL
MODEL 9
REMARK VINA RESULT:    -2.815      1.521      4.103
REMARK INTER + INTRA:          -3.869
REMARK INTER:                  -3.975
REMARK INTRA:                   0.107
REMARK UNBOUND:                 0.098
REMARK SMILES CC1=CCC(=C(C)C)C(=O)CC(C)=CCC1
REMARK SMILES IDX 12 1 14 2 13 3 15 4 16 5 2 6 1 7 3 8 11 10 9 11 10 12 5 13
REMARK SMILES IDX 6 14 7 15 8 16 4 17
REMARK H PARENT
REMARK Flexibility Score: 60.00
ROOT
ATOM      1  C   UNL     1      56.274 -16.970  -2.839  1.00  0.00    -0.070 C 
ATOM      2  C   UNL     1      57.406 -16.761  -3.555  1.00  0.00    -0.027 C 
ATOM      3  C   UNL     1      54.976 -17.096  -3.593  1.00  0.00     0.039 C 
ENDROOT
BRANCH   2   4
ATOM      4  C   UNL     1      58.789 -16.538  -2.990  1.00  0.00     0.032 C 
BRANCH   4   5
ATOM      5  C   UNL     1      59.493 -17.847  -2.592  1.00  0.00     0.034 C 
BRANCH   5   6
ATOM      6  C   UNL     1      60.130 -17.774  -1.216  1.00  0.00    -0.077 C 
ATOM      7  C   UNL     1      61.258 -16.796  -1.001  1.00  0.00     0.039 C 
ATOM      8  C   UNL     1      59.732 -18.520  -0.160  1.00  0.00    -0.023 CG0
ATOM      9  G   UNL     1      58.589 -19.509  -0.155  1.00  0.00     0.000 G0
ENDBRANCH   5   6
ENDBRANCH   4   5
ENDBRANCH   2   4
BRANCH   1  10
ATOM     10  C   UNL     1      56.239 -17.062  -1.325  1.00  0.00     0.111 C 
BRANCH  10  11
ATOM     11  C   UNL     1      56.320 -18.487  -0.834  1.00  0.00     0.163 C 
ATOM     12  O   UNL     1      55.509 -19.326  -1.311  1.00  0.00    -0.294 OA
BRANCH  11  13
ATOM     13  C   UNL     1      57.265 -18.911   0.244  1.00  0.00    -0.002 C 
ATOM     14  C   UNL     1      56.880 -18.876   1.553  1.00  0.00    -0.069 C 
ATOM     15  C   UNL     1      57.777 -19.399   2.651  1.00  0.00     0.039 C 
ATOM     16  C   UNL     1      55.517 -18.358   1.959  1.00  0.00     0.039 C 
BRANCH  13  17
ATOM     17  C   UNL     1      58.600 -19.522  -0.163  1.00  0.00     0.066 CG0
ATOM     18  G   UNL     1      59.711 -18.498  -0.150  1.00  0.00     0.000 G0
ENDBRANCH  13  17
ENDBRANCH  11  13
ENDBRANCH  10  11
ENDBRANCH   1  10
TORSDOF 0
ENDMDL
