MODEL 1
REMARK VINA RESULT:    -3.158      0.000      0.000
REMARK INTER + INTRA:          -3.434
REMARK INTER:                  -3.434
REMARK INTRA:                   0.000
REMARK UNBOUND:                 0.000
REMARK SMILES [NH3+]CC(=O)[O-]
REMARK SMILES IDX 2 1 1 2 3 6 4 7 5 8
REMARK H PARENT 1 3 1 4 1 5
REMARK Flexibility Score: inf
ROOT
ATOM      1  C   UNL     1     -12.682  -4.589 -22.627  1.00  0.00     0.312 C 
ENDROOT
BRANCH   1   2
ATOM      2  N   UNL     1     -11.979  -4.585 -23.908  1.00  0.00    -0.353 N 
ATOM      3  H   UNL     1     -11.471  -5.489 -24.042  1.00  0.00     0.344 HD
ATOM      4  H   UNL     1     -11.287  -3.801 -23.916  1.00  0.00     0.344 HD
ATOM      5  H   UNL     1     -12.660  -4.443 -24.691  1.00  0.00     0.344 HD
ENDBRANCH   1   2
BRANCH   1   6
ATOM      6  C   UNL     1     -14.164  -4.549 -22.839  1.00  0.00     0.096 C 
ATOM      7  O   UNL     1     -14.661  -3.776 -23.698  1.00  0.00    -0.544 OA
ATOM      8  O   UNL     1     -14.992  -5.404 -22.121  1.00  0.00    -0.544 OA
ENDBRANCH   1   6
TORSDOF 2
ENDMDL
MODEL 2
REMARK VINA RESULT:    -3.147     21.246     21.353
REMARK INTER + INTRA:          -3.423
REMARK INTER:                  -3.423
REMARK INTRA:                   0.000
REMARK UNBOUND:                 0.000
REMARK SMILES [NH3+]CC(=O)[O-]
REMARK SMILES IDX 2 1 1 2 3 6 4 7 5 8
REMARK H PARENT 1 3 1 4 1 5
REMARK Flexibility Score: inf
ROOT
ATOM      1  C   UNL     1     -18.238  13.435 -12.618  1.00  0.00     0.312 C 
ENDROOT
BRANCH   1   2
ATOM      2  N   UNL     1     -18.456  13.772 -11.213  1.00  0.00    -0.353 N 
ATOM      3  H   UNL     1     -18.920  12.974 -10.720  1.00  0.00     0.344 HD
ATOM      4  H   UNL     1     -19.075  14.613 -11.154  1.00  0.00     0.344 HD
ATOM      5  H   UNL     1     -17.543  13.991 -10.750  1.00  0.00     0.344 HD
ENDBRANCH   1   2
BRANCH   1   6
ATOM      6  C   UNL     1     -19.542  13.182 -13.309  1.00  0.00     0.096 C 
ATOM      7  O   UNL     1     -19.836  13.814 -14.357  1.00  0.00    -0.544 OA
ATOM      8  O   UNL     1     -20.409  12.212 -12.824  1.00  0.00    -0.544 OA
ENDBRANCH   1   6
TORSDOF 2
ENDMDL
MODEL 3
REMARK VINA RESULT:    -3.142     21.237     21.431
REMARK INTER + INTRA:          -3.418
REMARK INTER:                  -3.418
REMARK INTRA:                   0.000
REMARK UNBOUND:                 0.000
REMARK SMILES [NH3+]CC(=O)[O-]
REMARK SMILES IDX 2 1 1 2 3 6 4 7 5 8
REMARK H PARENT 1 3 1 4 1 5
REMARK Flexibility Score: inf
ROOT
ATOM      1  C   UNL     1     -18.266  13.429 -12.605  1.00  0.00     0.312 C 
ENDROOT
BRANCH   1   2
ATOM      2  N   UNL     1     -18.464  13.792 -11.203  1.00  0.00    -0.353 N 
ATOM      3  H   UNL     1     -17.879  14.624 -10.961  1.00  0.00     0.344 HD
ATOM      4  H   UNL     1     -18.179  12.988 -10.598  1.00  0.00     0.344 HD
ATOM      5  H   UNL     1     -19.474  14.007 -11.028  1.00  0.00     0.344 HD
ENDBRANCH   1   2
BRANCH   1   6
ATOM      6  C   UNL     1     -19.578  13.138 -13.265  1.00  0.00     0.096 C 
ATOM      7  O   UNL     1     -20.311  12.209 -12.836  1.00  0.00    -0.544 OA
ATOM      8  O   UNL     1     -20.013  13.925 -14.323  1.00  0.00    -0.544 OA
ENDBRANCH   1   6
TORSDOF 2
ENDMDL
MODEL 4
REMARK VINA RESULT:    -3.106     19.647     19.847
REMARK INTER + INTRA:          -3.378
REMARK INTER:                  -3.378
REMARK INTRA:                   0.000
REMARK UNBOUND:                 0.000
REMARK SMILES [NH3+]CC(=O)[O-]
REMARK SMILES IDX 2 1 1 2 3 6 4 7 5 8
REMARK H PARENT 1 3 1 4 1 5
REMARK Flexibility Score: inf
ROOT
ATOM      1  C   UNL     1     -18.153  12.786 -13.872  1.00  0.00     0.312 C 
ENDROOT
BRANCH   1   2
ATOM      2  N   UNL     1     -18.511  11.611 -13.082  1.00  0.00    -0.353 N 
ATOM      3  H   UNL     1     -18.414  11.820 -12.062  1.00  0.00     0.344 HD
ATOM      4  H   UNL     1     -17.867  10.824 -13.329  1.00  0.00     0.344 HD
ATOM      5  H   UNL     1     -19.495  11.322 -13.293  1.00  0.00     0.344 HD
ENDBRANCH   1   2
BRANCH   1   6
ATOM      6  C   UNL     1     -16.698  12.762 -14.227  1.00  0.00     0.096 C 
ATOM      7  O   UNL     1     -16.318  12.236 -15.305  1.00  0.00    -0.544 OA
ATOM      8  O   UNL     1     -15.768  13.365 -13.390  1.00  0.00    -0.544 OA
ENDBRANCH   1   6
TORSDOF 2
ENDMDL
MODEL 5
REMARK VINA RESULT:    -3.049     20.245     20.393
REMARK INTER + INTRA:          -3.316
REMARK INTER:                  -3.316
REMARK INTRA:                   0.000
REMARK UNBOUND:                 0.000
REMARK SMILES [NH3+]CC(=O)[O-]
REMARK SMILES IDX 2 1 1 2 3 6 4 7 5 8
REMARK H PARENT 1 3 1 4 1 5
REMARK Flexibility Score: inf
ROOT
ATOM      1  C   UNL     1     -16.515  12.981 -13.573  1.00  0.00     0.312 C 
ENDROOT
BRANCH   1   2
ATOM      2  N   UNL     1     -16.585  12.906 -15.031  1.00  0.00    -0.353 N 
ATOM      3  H   UNL     1     -16.691  11.911 -15.335  1.00  0.00     0.344 HD
ATOM      4  H   UNL     1     -15.702  13.293 -15.436  1.00  0.00     0.344 HD
ATOM      5  H   UNL     1     -17.394  13.471 -15.381  1.00  0.00     0.344 HD
ENDBRANCH   1   2
BRANCH   1   6
ATOM      6  C   UNL     1     -17.884  12.881 -12.973  1.00  0.00     0.096 C 
ATOM      7  O   UNL     1     -18.629  11.907 -13.256  1.00  0.00    -0.544 OA
ATOM      8  O   UNL     1     -18.315  13.836 -12.062  1.00  0.00    -0.544 OA
ENDBRANCH   1   6
TORSDOF 2
ENDMDL
MODEL 6
REMARK VINA RESULT:    -3.043     19.059     19.232
REMARK INTER + INTRA:          -3.310
REMARK INTER:                  -3.310
REMARK INTRA:                   0.000
REMARK UNBOUND:                 0.000
REMARK SMILES [NH3+]CC(=O)[O-]
REMARK SMILES IDX 2 1 1 2 3 6 4 7 5 8
REMARK H PARENT 1 3 1 4 1 5
REMARK Flexibility Score: inf
ROOT
ATOM      1  C   UNL     1     -16.173  11.874 -15.472  1.00  0.00     0.312 C 
ENDROOT
BRANCH   1   2
ATOM      2  N   UNL     1     -17.261  11.278 -16.243  1.00  0.00    -0.353 N 
ATOM      3  H   UNL     1     -16.921  11.005 -17.194  1.00  0.00     0.344 HD
ATOM      4  H   UNL     1     -18.031  11.978 -16.346  1.00  0.00     0.344 HD
ATOM      5  H   UNL     1     -17.634  10.436 -15.746  1.00  0.00     0.344 HD
ENDBRANCH   1   2
BRANCH   1   6
ATOM      6  C   UNL     1     -16.714  12.694 -14.342  1.00  0.00     0.096 C 
ATOM      7  O   UNL     1     -15.932  13.337 -13.595  1.00  0.00    -0.544 OA
ATOM      8  O   UNL     1     -18.086  12.787 -14.145  1.00  0.00    -0.544 OA
ENDBRANCH   1   6
TORSDOF 2
ENDMDL
MODEL 7
REMARK VINA RESULT:    -3.033     20.879     21.065
REMARK INTER + INTRA:          -3.300
REMARK INTER:                  -3.300
REMARK INTRA:                   0.000
REMARK UNBOUND:                 0.000
REMARK SMILES [NH3+]CC(=O)[O-]
REMARK SMILES IDX 2 1 1 2 3 6 4 7 5 8
REMARK H PARENT 1 3 1 4 1 5
REMARK Flexibility Score: inf
ROOT
ATOM      1  C   UNL     1     -18.667  13.720 -12.352  1.00  0.00     0.312 C 
ENDROOT
BRANCH   1   2
ATOM      2  N   UNL     1     -18.391  13.429 -10.947  1.00  0.00    -0.353 N 
ATOM      3  H   UNL     1     -17.741  12.614 -10.869  1.00  0.00     0.344 HD
ATOM      4  H   UNL     1     -19.289  13.194 -10.464  1.00  0.00     0.344 HD
ATOM      5  H   UNL     1     -17.967  14.267 -10.484  1.00  0.00     0.344 HD
ENDBRANCH   1   2
BRANCH   1   6
ATOM      6  C   UNL     1     -17.662  13.049 -13.237  1.00  0.00     0.096 C 
ATOM      7  O   UNL     1     -18.040  12.245 -14.128  1.00  0.00    -0.544 OA
ATOM      8  O   UNL     1     -16.312  13.350 -13.109  1.00  0.00    -0.544 OA
ENDBRANCH   1   6
TORSDOF 2
ENDMDL
MODEL 8
REMARK VINA RESULT:    -3.025      3.120      3.385
REMARK INTER + INTRA:          -3.290
REMARK INTER:                  -3.290
REMARK INTRA:                   0.000
REMARK UNBOUND:                 0.000
REMARK SMILES [NH3+]CC(=O)[O-]
REMARK SMILES IDX 2 1 1 2 3 6 4 7 5 8
REMARK H PARENT 1 3 1 4 1 5
REMARK Flexibility Score: inf
ROOT
ATOM      1  C   UNL     1     -13.634  -3.711 -21.647  1.00  0.00     0.312 C 
ENDROOT
BRANCH   1   2
ATOM      2  N   UNL     1     -13.422  -2.781 -22.755  1.00  0.00    -0.353 N 
ATOM      3  H   UNL     1     -12.435  -2.436 -22.751  1.00  0.00     0.344 HD
ATOM      4  H   UNL     1     -14.067  -1.965 -22.645  1.00  0.00     0.344 HD
ATOM      5  H   UNL     1     -13.627  -3.255 -23.665  1.00  0.00     0.344 HD
ENDBRANCH   1   2
BRANCH   1   6
ATOM      6  C   UNL     1     -12.560  -3.555 -20.615  1.00  0.00     0.096 C 
ATOM      7  O   UNL     1     -12.851  -3.178 -19.451  1.00  0.00    -0.544 OA
ATOM      8  O   UNL     1     -11.245  -3.877 -20.926  1.00  0.00    -0.544 OA
ENDBRANCH   1   6
TORSDOF 2
ENDMDL
MODEL 9
REMARK VINA RESULT:    -3.021      2.763      2.773
REMARK INTER + INTRA:          -3.286
REMARK INTER:                  -3.286
REMARK INTRA:                   0.000
REMARK UNBOUND:                 0.000
REMARK SMILES [NH3+]CC(=O)[O-]
REMARK SMILES IDX 2 1 1 2 3 6 4 7 5 8
REMARK H PARENT 1 3 1 4 1 5
REMARK Flexibility Score: inf
ROOT
ATOM      1  C   UNL     1     -12.777  -3.493 -20.400  1.00  0.00     0.312 C 
ENDROOT
BRANCH   1   2
ATOM      2  N   UNL     1     -13.693  -2.821 -19.481  1.00  0.00    -0.353 N 
ATOM      3  H   UNL     1     -14.540  -3.413 -19.321  1.00  0.00     0.344 HD
ATOM      4  H   UNL     1     -13.991  -1.910 -19.899  1.00  0.00     0.344 HD
ATOM      5  H   UNL     1     -13.214  -2.635 -18.569  1.00  0.00     0.344 HD
ENDBRANCH   1   2
BRANCH   1   6
ATOM      6  C   UNL     1     -13.462  -3.804 -21.695  1.00  0.00     0.096 C 
ATOM      7  O   UNL     1     -13.344  -3.024 -22.676  1.00  0.00    -0.544 OA
ATOM      8  O   UNL     1     -14.188  -4.980 -21.833  1.00  0.00    -0.544 OA
ENDBRANCH   1   6
TORSDOF 2
ENDMDL
