MODEL 1
REMARK VINA RESULT:    -4.207      0.000      0.000
REMARK INTER + INTRA:          -4.756
REMARK INTER:                  -4.576
REMARK INTRA:                  -0.180
REMARK UNBOUND:                -0.180
REMARK SMILES Cc1ccc(C(C)C)c(O)c1
REMARK SMILES IDX 1 1 2 2 11 3 9 4 5 5 4 6 3 7 10 8 6 10 7 11 8 12
REMARK H PARENT 10 9
REMARK Flexibility Score: inf
ROOT
ATOM      1  C   UNL     1     132.257 127.413 114.917  1.00  0.00     0.044 C 
ATOM      2  C   UNL     1     131.456 128.675 114.786  1.00  0.00    -0.047 A 
ATOM      3  C   UNL     1     130.117 128.708 115.199  1.00  0.00     0.049 A 
ATOM      4  C   UNL     1     129.372 129.893 115.114  1.00  0.00     0.119 A 
ATOM      5  C   UNL     1     129.972 131.072 114.620  1.00  0.00    -0.004 A 
ATOM      6  C   UNL     1     131.325 131.032 114.227  1.00  0.00     0.008 A 
ATOM      7  C   UNL     1     132.059 129.847 114.315  1.00  0.00     0.004 A 
ENDROOT
BRANCH   4   8
ATOM      8  O   UNL     1     128.039 129.895 115.523  1.00  0.00    -0.508 OA
ATOM      9  H   UNL     1     127.503 129.038 115.599  1.00  0.00     0.293 HD
ENDBRANCH   4   8
BRANCH   5  10
ATOM     10  C   UNL     1     129.185 132.371 114.518  1.00  0.00     0.017 C 
ATOM     11  C   UNL     1     128.402 132.441 113.202  1.00  0.00     0.012 C 
ATOM     12  C   UNL     1     130.105 133.587 114.678  1.00  0.00     0.012 C 
ENDBRANCH   5  10
TORSDOF 2
ENDMDL
MODEL 2
REMARK VINA RESULT:    -4.048     13.345     14.907
REMARK INTER + INTRA:          -4.583
REMARK INTER:                  -4.383
REMARK INTRA:                  -0.200
REMARK UNBOUND:                -0.180
REMARK SMILES Cc1ccc(C(C)C)c(O)c1
REMARK SMILES IDX 1 1 2 2 11 3 9 4 5 5 4 6 3 7 10 8 6 10 7 11 8 12
REMARK H PARENT 10 9
REMARK Flexibility Score: inf
ROOT
ATOM      1  C   UNL     1     141.671 126.978 119.545  1.00  0.00     0.044 C 
ATOM      2  C   UNL     1     142.687 127.293 118.488  1.00  0.00    -0.047 A 
ATOM      3  C   UNL     1     144.056 127.208 118.776  1.00  0.00     0.049 A 
ATOM      4  C   UNL     1     145.013 127.465 117.784  1.00  0.00     0.119 A 
ATOM      5  C   UNL     1     144.602 127.803 116.475  1.00  0.00    -0.004 A 
ATOM      6  C   UNL     1     143.223 127.866 116.192  1.00  0.00     0.008 A 
ATOM      7  C   UNL     1     142.278 127.608 117.187  1.00  0.00     0.004 A 
ENDROOT
BRANCH   4   8
ATOM      8  O   UNL     1     146.369 127.382 118.100  1.00  0.00    -0.508 OA
ATOM      9  H   UNL     1     146.788 126.520 118.429  1.00  0.00     0.293 HD
ENDBRANCH   4   8
BRANCH   5  10
ATOM     10  C   UNL     1     145.621 128.086 115.380  1.00  0.00     0.017 C 
ATOM     11  C   UNL     1     145.257 129.355 114.601  1.00  0.00     0.012 C 
ATOM     12  C   UNL     1     145.769 126.884 114.440  1.00  0.00     0.012 C 
ENDBRANCH   5  10
TORSDOF 2
ENDMDL
MODEL 3
REMARK VINA RESULT:    -4.038     10.054     11.891
REMARK INTER + INTRA:          -4.572
REMARK INTER:                  -4.384
REMARK INTRA:                  -0.188
REMARK UNBOUND:                -0.180
REMARK SMILES Cc1ccc(C(C)C)c(O)c1
REMARK SMILES IDX 1 1 2 2 11 3 9 4 5 5 4 6 3 7 10 8 6 10 7 11 8 12
REMARK H PARENT 10 9
REMARK Flexibility Score: inf
ROOT
ATOM      1  C   UNL     1     145.258 128.928 114.744  1.00  0.00     0.044 C 
ATOM      2  C   UNL     1     143.764 128.819 114.813  1.00  0.00    -0.047 A 
ATOM      3  C   UNL     1     142.961 129.933 114.530  1.00  0.00     0.049 A 
ATOM      4  C   UNL     1     141.562 129.831 114.556  1.00  0.00     0.119 A 
ATOM      5  C   UNL     1     140.948 128.595 114.857  1.00  0.00    -0.004 A 
ATOM      6  C   UNL     1     141.765 127.477 115.119  1.00  0.00     0.008 A 
ATOM      7  C   UNL     1     143.157 127.589 115.091  1.00  0.00     0.004 A 
ENDROOT
BRANCH   4   8
ATOM      8  O   UNL     1     140.788 130.958 114.280  1.00  0.00    -0.508 OA
ATOM      9  H   UNL     1     140.518 131.610 115.007  1.00  0.00     0.293 HD
ENDBRANCH   4   8
BRANCH   5  10
ATOM     10  C   UNL     1     139.433 128.459 114.890  1.00  0.00     0.017 C 
ATOM     11  C   UNL     1     138.995 127.406 115.916  1.00  0.00     0.012 C 
ATOM     12  C   UNL     1     138.877 128.137 113.498  1.00  0.00     0.012 C 
ENDBRANCH   5  10
TORSDOF 2
ENDMDL
MODEL 4
REMARK VINA RESULT:    -4.002     11.909     14.065
REMARK INTER + INTRA:          -4.533
REMARK INTER:                  -4.333
REMARK INTRA:                  -0.200
REMARK UNBOUND:                -0.180
REMARK SMILES Cc1ccc(C(C)C)c(O)c1
REMARK SMILES IDX 1 1 2 2 11 3 9 4 5 5 4 6 3 7 10 8 6 10 7 11 8 12
REMARK H PARENT 10 9
REMARK Flexibility Score: inf
ROOT
ATOM      1  C   UNL     1     139.726 127.233 116.590  1.00  0.00     0.044 C 
ATOM      2  C   UNL     1     141.211 127.368 116.421  1.00  0.00    -0.047 A 
ATOM      3  C   UNL     1     142.058 127.303 117.536  1.00  0.00     0.049 A 
ATOM      4  C   UNL     1     143.449 127.391 117.383  1.00  0.00     0.119 A 
ATOM      5  C   UNL     1     144.011 127.536 116.095  1.00  0.00    -0.004 A 
ATOM      6  C   UNL     1     143.151 127.579 114.980  1.00  0.00     0.008 A 
ATOM      7  C   UNL     1     141.767 127.491 115.142  1.00  0.00     0.004 A 
ENDROOT
BRANCH   4   8
ATOM      8  O   UNL     1     144.268 127.332 118.510  1.00  0.00    -0.508 OA
ATOM      9  H   UNL     1     144.962 126.604 118.628  1.00  0.00     0.293 HD
ENDBRANCH   4   8
BRANCH   5  10
ATOM     10  C   UNL     1     145.518 127.633 115.903  1.00  0.00     0.017 C 
ATOM     11  C   UNL     1     145.976 129.096 115.857  1.00  0.00     0.012 C 
ATOM     12  C   UNL     1     145.964 126.875 114.647  1.00  0.00     0.012 C 
ENDBRANCH   5  10
TORSDOF 2
ENDMDL
MODEL 5
REMARK VINA RESULT:    -3.999      1.780      4.610
REMARK INTER + INTRA:          -4.530
REMARK INTER:                  -4.336
REMARK INTRA:                  -0.194
REMARK UNBOUND:                -0.180
REMARK SMILES Cc1ccc(C(C)C)c(O)c1
REMARK SMILES IDX 1 1 2 2 11 3 9 4 5 5 4 6 3 7 10 8 6 10 7 11 8 12
REMARK H PARENT 10 9
REMARK Flexibility Score: inf
ROOT
ATOM      1  C   UNL     1     128.413 132.508 114.011  1.00  0.00     0.044 C 
ATOM      2  C   UNL     1     129.226 131.298 114.363  1.00  0.00    -0.047 A 
ATOM      3  C   UNL     1     130.626 131.354 114.331  1.00  0.00     0.049 A 
ATOM      4  C   UNL     1     131.395 130.239 114.695  1.00  0.00     0.119 A 
ATOM      5  C   UNL     1     130.760 129.047 115.109  1.00  0.00    -0.004 A 
ATOM      6  C   UNL     1     129.352 129.009 115.157  1.00  0.00     0.008 A 
ATOM      7  C   UNL     1     128.595 130.125 114.793  1.00  0.00     0.004 A 
ENDROOT
BRANCH   4   8
ATOM      8  O   UNL     1     132.787 130.319 114.645  1.00  0.00    -0.508 OA
ATOM      9  H   UNL     1     133.296 130.213 113.776  1.00  0.00     0.293 HD
ENDBRANCH   4   8
BRANCH   5  10
ATOM     10  C   UNL     1     131.572 127.823 115.510  1.00  0.00     0.017 C 
ATOM     11  C   UNL     1     131.865 126.933 114.296  1.00  0.00     0.012 C 
ATOM     12  C   UNL     1     130.867 127.032 116.617  1.00  0.00     0.012 C 
ENDBRANCH   5  10
TORSDOF 2
ENDMDL
MODEL 6
REMARK VINA RESULT:    -3.998     12.084     14.209
REMARK INTER + INTRA:          -4.529
REMARK INTER:                  -4.331
REMARK INTRA:                  -0.197
REMARK UNBOUND:                -0.180
REMARK SMILES Cc1ccc(C(C)C)c(O)c1
REMARK SMILES IDX 1 1 2 2 11 3 9 4 5 5 4 6 3 7 10 8 6 10 7 11 8 12
REMARK H PARENT 10 9
REMARK Flexibility Score: inf
ROOT
ATOM      1  C   UNL     1     140.261 130.015 114.500  1.00  0.00     0.044 C 
ATOM      2  C   UNL     1     141.620 129.428 114.743  1.00  0.00    -0.047 A 
ATOM      3  C   UNL     1     142.747 130.260 114.808  1.00  0.00     0.049 A 
ATOM      4  C   UNL     1     144.016 129.724 115.072  1.00  0.00     0.119 A 
ATOM      5  C   UNL     1     144.168 128.337 115.286  1.00  0.00    -0.004 A 
ATOM      6  C   UNL     1     143.025 127.513 115.238  1.00  0.00     0.008 A 
ATOM      7  C   UNL     1     141.765 128.056 114.975  1.00  0.00     0.004 A 
ENDROOT
BRANCH   4   8
ATOM      8  O   UNL     1     145.121 130.574 115.122  1.00  0.00    -0.508 OA
ATOM      9  H   UNL     1     145.849 130.461 115.818  1.00  0.00     0.293 HD
ENDBRANCH   4   8
BRANCH   5  10
ATOM     10  C   UNL     1     145.535 127.731 115.574  1.00  0.00     0.017 C 
ATOM     11  C   UNL     1     146.019 126.875 114.398  1.00  0.00     0.012 C 
ATOM     12  C   UNL     1     145.516 126.921 116.876  1.00  0.00     0.012 C 
ENDBRANCH   5  10
TORSDOF 2
ENDMDL
MODEL 7
REMARK VINA RESULT:    -3.991      1.581      2.362
REMARK INTER + INTRA:          -4.521
REMARK INTER:                  -4.320
REMARK INTRA:                  -0.200
REMARK UNBOUND:                -0.180
REMARK SMILES Cc1ccc(C(C)C)c(O)c1
REMARK SMILES IDX 1 1 2 2 11 3 9 4 5 5 4 6 3 7 10 8 6 10 7 11 8 12
REMARK H PARENT 10 9
REMARK Flexibility Score: inf
ROOT
ATOM      1  C   UNL     1     132.258 127.002 114.730  1.00  0.00     0.044 C 
ATOM      2  C   UNL     1     131.528 128.312 114.755  1.00  0.00    -0.047 A 
ATOM      3  C   UNL     1     132.185 129.493 114.385  1.00  0.00     0.049 A 
ATOM      4  C   UNL     1     131.500 130.717 114.370  1.00  0.00     0.119 A 
ATOM      5  C   UNL     1     130.133 130.767 114.719  1.00  0.00    -0.004 A 
ATOM      6  C   UNL     1     129.477 129.570 115.069  1.00  0.00     0.008 A 
ATOM      7  C   UNL     1     130.168 128.356 115.081  1.00  0.00     0.004 A 
ENDROOT
BRANCH   4   8
ATOM      8  O   UNL     1     132.181 131.879 114.007  1.00  0.00    -0.508 OA
ATOM      9  H   UNL     1     131.690 132.734 113.773  1.00  0.00     0.293 HD
ENDBRANCH   4   8
BRANCH   5  10
ATOM     10  C   UNL     1     129.367 132.083 114.710  1.00  0.00     0.017 C 
ATOM     11  C   UNL     1     128.470 132.209 115.947  1.00  0.00     0.012 C 
ATOM     12  C   UNL     1     128.554 132.239 113.420  1.00  0.00     0.012 C 
ENDBRANCH   5  10
TORSDOF 2
ENDMDL
MODEL 8
REMARK VINA RESULT:    -3.971      1.130      3.947
REMARK INTER + INTRA:          -4.499
REMARK INTER:                  -4.300
REMARK INTRA:                  -0.199
REMARK UNBOUND:                -0.180
REMARK SMILES Cc1ccc(C(C)C)c(O)c1
REMARK SMILES IDX 1 1 2 2 11 3 9 4 5 5 4 6 3 7 10 8 6 10 7 11 8 12
REMARK H PARENT 10 9
REMARK Flexibility Score: inf
ROOT
ATOM      1  C   UNL     1     130.893 133.296 113.494  1.00  0.00     0.044 C 
ATOM      2  C   UNL     1     130.605 131.942 114.071  1.00  0.00    -0.047 A 
ATOM      3  C   UNL     1     129.303 131.606 114.467  1.00  0.00     0.049 A 
ATOM      4  C   UNL     1     129.017 130.330 114.974  1.00  0.00     0.119 A 
ATOM      5  C   UNL     1     130.042 129.364 115.079  1.00  0.00    -0.004 A 
ATOM      6  C   UNL     1     131.343 129.706 114.659  1.00  0.00     0.008 A 
ATOM      7  C   UNL     1     131.618 130.980 114.156  1.00  0.00     0.004 A 
ENDROOT
BRANCH   4   8
ATOM      8  O   UNL     1     127.714 130.025 115.369  1.00  0.00    -0.508 OA
ATOM      9  H   UNL     1     126.910 130.470 114.942  1.00  0.00     0.293 HD
ENDBRANCH   4   8
BRANCH   5  10
ATOM     10  C   UNL     1     129.757 127.972 115.625  1.00  0.00     0.017 C 
ATOM     11  C   UNL     1     129.992 127.913 117.139  1.00  0.00     0.012 C 
ATOM     12  C   UNL     1     130.590 126.912 114.895  1.00  0.00     0.012 C 
ENDBRANCH   5  10
TORSDOF 2
ENDMDL
MODEL 9
REMARK VINA RESULT:    -3.970     10.508     12.568
REMARK INTER + INTRA:          -4.498
REMARK INTER:                  -4.313
REMARK INTRA:                  -0.185
REMARK UNBOUND:                -0.180
REMARK SMILES Cc1ccc(C(C)C)c(O)c1
REMARK SMILES IDX 1 1 2 2 11 3 9 4 5 5 4 6 3 7 10 8 6 10 7 11 8 12
REMARK H PARENT 10 9
REMARK Flexibility Score: inf
ROOT
ATOM      1  C   UNL     1     138.565 127.747 113.993  1.00  0.00     0.044 C 
ATOM      2  C   UNL     1     139.991 128.030 114.359  1.00  0.00    -0.047 A 
ATOM      3  C   UNL     1     140.470 129.348 114.371  1.00  0.00     0.049 A 
ATOM      4  C   UNL     1     141.791 129.625 114.748  1.00  0.00     0.119 A 
ATOM      5  C   UNL     1     142.653 128.574 115.131  1.00  0.00    -0.004 A 
ATOM      6  C   UNL     1     142.156 127.255 115.135  1.00  0.00     0.008 A 
ATOM      7  C   UNL     1     140.837 126.989 114.759  1.00  0.00     0.004 A 
ENDROOT
BRANCH   4   8
ATOM      8  O   UNL     1     142.244 130.944 114.741  1.00  0.00    -0.508 OA
ATOM      9  H   UNL     1     142.106 131.551 113.942  1.00  0.00     0.293 HD
ENDBRANCH   4   8
BRANCH   5  10
ATOM     10  C   UNL     1     144.092 128.849 115.545  1.00  0.00     0.017 C 
ATOM     11  C   UNL     1     145.021 128.880 114.325  1.00  0.00     0.012 C 
ATOM     12  C   UNL     1     144.574 127.825 116.580  1.00  0.00     0.012 C 
ENDBRANCH   5  10
TORSDOF 2
ENDMDL
