MODEL 1
REMARK VINA RESULT:     0.695      0.000      0.000
REMARK INTER + INTRA:           1.776
REMARK INTER:                   1.000
REMARK INTRA:                   0.776
REMARK UNBOUND:                 0.776
REMARK SMILES O=c1c(O[C@@H]2O[C@H](CO)[C@H](O)[C@H](O)[C@H]2O)c(-c2ccc(O)cc2)oc2cc(O)cc(O)c12
REMARK SMILES IDX 4 1 3 2 16 3 24 4 2 5 25 6 1 7 32 8 26 9 30 10 27 11 29 12
REMARK SMILES IDX 17 13 18 14 19 15 20 16 23 17 22 18 21 19 31 21 28 23 5 25
REMARK SMILES IDX 14 26 6 27 12 28 7 29 10 30 15 31 13 33 8 35 9 36 11 38
REMARK H PARENT 21 20 31 22 28 24 15 32 13 34 9 37 11 39
REMARK Flexibility Score: inf
ROOT
ATOM      1  O   UNL     1     -14.478  15.643  10.080  1.00  0.00    -0.454 OA
ENDROOT
BRANCH   1   2
ATOM      2  C   UNL     1     -14.717  15.618  11.461  1.00  0.00     0.214 A 
ATOM      3  C   UNL     1     -15.876  16.190  12.032  1.00  0.00     0.180 A 
ATOM      4  O   UNL     1     -15.985  16.273  13.354  1.00  0.00    -0.452 OA
ATOM      5  C   UNL     1     -13.773  15.025  12.308  1.00  0.00     0.239 A 
ATOM      6  C   UNL     1     -15.078  15.785  14.194  1.00  0.00     0.146 A 
ATOM      7  O   UNL     1     -12.774  14.445  11.804  1.00  0.00    -0.285 OA
ATOM      8  C   UNL     1     -13.939  15.104  13.705  1.00  0.00     0.111 A 
ATOM      9  C   UNL     1     -15.268  15.944  15.570  1.00  0.00     0.094 A 
ATOM     10  C   UNL     1     -13.010  14.565  14.626  1.00  0.00     0.134 A 
ATOM     11  C   UNL     1     -14.338  15.422  16.475  1.00  0.00     0.123 A 
ATOM     12  C   UNL     1     -13.222  14.727  16.004  1.00  0.00     0.093 A 
BRANCH   3  13
ATOM     13  C   UNL     1     -17.004  16.691  11.211  1.00  0.00     0.021 A 
ATOM     14  C   UNL     1     -18.206  17.113  11.806  1.00  0.00     0.016 A 
ATOM     15  C   UNL     1     -19.257  17.589  11.016  1.00  0.00     0.047 A 
ATOM     16  C   UNL     1     -19.111  17.674   9.626  1.00  0.00     0.115 A 
ATOM     17  C   UNL     1     -16.855  16.804   9.814  1.00  0.00     0.016 A 
ATOM     18  C   UNL     1     -17.902  17.290   9.027  1.00  0.00     0.047 A 
BRANCH  16  19
ATOM     19  O   UNL     1     -20.168  18.147   8.849  1.00  0.00    -0.508 OA
ATOM     20  H   UNL     1     -20.224  19.125   8.575  1.00  0.00     0.293 HD
ENDBRANCH  16  19
ENDBRANCH   3  13
BRANCH  10  21
ATOM     21  O   UNL     1     -11.876  13.877  14.184  1.00  0.00    -0.507 OA
ATOM     22  H   UNL     1     -11.886  13.325  13.334  1.00  0.00     0.293 HD
ENDBRANCH  10  21
BRANCH  11  23
ATOM     23  O   UNL     1     -14.510  15.596  17.845  1.00  0.00    -0.508 OA
ATOM     24  H   UNL     1     -14.677  16.510  18.244  1.00  0.00     0.293 HD
ENDBRANCH  11  23
ENDBRANCH   1   2
BRANCH   1  25
ATOM     25  C   UNL     1     -14.797  14.549   9.217  1.00  0.00     0.339 C 
ATOM     26  C   UNL     1     -15.722  14.989   8.062  1.00  0.00     0.214 C 
ATOM     27  O   UNL     1     -13.621  13.895   8.766  1.00  0.00    -0.332 OA
ATOM     28  C   UNL     1     -14.978  15.858   7.026  1.00  0.00     0.180 C 
ATOM     29  C   UNL     1     -12.841  14.646   7.845  1.00  0.00     0.179 C 
ATOM     30  C   UNL     1     -13.637  15.202   6.631  1.00  0.00     0.177 C 
BRANCH  26  31
ATOM     31  O   UNL     1     -16.313  13.876   7.435  1.00  0.00    -0.384 OA
ATOM     32  H   UNL     1     -15.822  13.058   7.719  1.00  0.00     0.211 HD
ENDBRANCH  26  31
BRANCH  28  33
ATOM     33  O   UNL     1     -14.760  17.165   7.500  1.00  0.00    -0.387 OA
ATOM     34  H   UNL     1     -14.527  17.724   6.705  1.00  0.00     0.211 HD
ENDBRANCH  28  33
BRANCH  29  35
ATOM     35  C   UNL     1     -11.875  15.630   8.545  1.00  0.00     0.191 C 
BRANCH  35  36
ATOM     36  O   UNL     1     -12.248  16.967   8.357  1.00  0.00    -0.394 OA
ATOM     37  H   UNL     1     -11.399  17.489   8.327  1.00  0.00     0.210 HD
ENDBRANCH  35  36
ENDBRANCH  29  35
BRANCH  30  38
ATOM     38  O   UNL     1     -12.836  16.097   5.893  1.00  0.00    -0.387 OA
ATOM     39  H   UNL     1     -11.896  15.783   5.970  1.00  0.00     0.211 HD
ENDBRANCH  30  38
ENDBRANCH   1  25
TORSDOF 11
ENDMDL
