MODEL 1
REMARK VINA RESULT:    -7.123      0.000      0.000
REMARK INTER + INTRA:          -8.891
REMARK INTER:                  -8.581
REMARK INTRA:                  -0.310
REMARK UNBOUND:                -0.310
REMARK SMILES O=c1c(O)c(-c2ccc(O)c(O)c2)oc2cc(O)cc(O)c12
REMARK SMILES IDX 5 1 3 2 2 3 1 4 22 5 20 6 19 7 17 8 16 9 15 10 14 11 6 12
REMARK SMILES IDX 7 13 8 14 9 15 13 16 11 17 10 18 12 20 4 22 21 24 18 26
REMARK H PARENT 10 19 12 21 4 23 21 25 18 27
REMARK Flexibility Score: inf
ROOT
ATOM      1  C   UNL     1      15.201  15.012  62.131  1.00  0.00     0.180 A 
ATOM      2  C   UNL     1      15.045  14.137  61.042  1.00  0.00     0.208 A 
ATOM      3  C   UNL     1      16.012  14.138  60.024  1.00  0.00     0.238 A 
ATOM      4  O   UNL     1      15.896  13.314  59.080  1.00  0.00    -0.285 OA
ATOM      5  C   UNL     1      17.112  15.025  60.099  1.00  0.00     0.111 A 
ATOM      6  C   UNL     1      18.131  15.140  59.106  1.00  0.00     0.134 A 
ATOM      7  C   UNL     1      19.242  15.956  59.346  1.00  0.00     0.093 A 
ATOM      8  C   UNL     1      19.341  16.712  60.513  1.00  0.00     0.123 A 
ATOM      9  C   UNL     1      18.323  16.653  61.466  1.00  0.00     0.094 A 
ATOM     10  C   UNL     1      17.219  15.820  61.271  1.00  0.00     0.146 A 
ATOM     11  O   UNL     1      16.278  15.785  62.206  1.00  0.00    -0.452 OA
ENDROOT
BRANCH   1  12
ATOM     12  C   UNL     1      14.210  15.086  63.231  1.00  0.00     0.025 A 
ATOM     13  C   UNL     1      14.378  14.350  64.417  1.00  0.00     0.016 A 
ATOM     14  C   UNL     1      13.418  14.416  65.430  1.00  0.00     0.051 A 
ATOM     15  C   UNL     1      12.272  15.206  65.270  1.00  0.00     0.157 A 
ATOM     16  C   UNL     1      13.051  15.860  63.066  1.00  0.00     0.062 A 
ATOM     17  C   UNL     1      12.088  15.930  64.079  1.00  0.00     0.158 A 
BRANCH  15  18
ATOM     18  O   UNL     1      11.318  15.272  66.284  1.00  0.00    -0.504 OA
ATOM     19  H   UNL     1      10.553  15.933  66.251  1.00  0.00     0.293 HD
ENDBRANCH  15  18
BRANCH  17  20
ATOM     20  O   UNL     1      10.956  16.719  63.885  1.00  0.00    -0.504 OA
ATOM     21  H   UNL     1      10.299  16.544  63.134  1.00  0.00     0.293 HD
ENDBRANCH  17  20
ENDBRANCH   1  12
BRANCH   2  22
ATOM     22  O   UNL     1      13.962  13.254  60.998  1.00  0.00    -0.502 OA
ATOM     23  H   UNL     1      13.818  12.607  60.232  1.00  0.00     0.293 HD
ENDBRANCH   2  22
BRANCH   6  24
ATOM     24  O   UNL     1      18.084  14.499  57.863  1.00  0.00    -0.507 OA
ATOM     25  H   UNL     1      18.849  13.987  57.451  1.00  0.00     0.293 HD
ENDBRANCH   6  24
BRANCH   8  26
ATOM     26  O   UNL     1      20.454  17.526  60.713  1.00  0.00    -0.508 OA
ATOM     27  H   UNL     1      20.357  18.512  60.928  1.00  0.00     0.293 HD
ENDBRANCH   8  26
TORSDOF 6
ENDMDL
MODEL 2
REMARK VINA RESULT:    -6.800      1.870      3.192
REMARK INTER + INTRA:          -8.502
REMARK INTER:                  -8.937
REMARK INTRA:                   0.435
REMARK UNBOUND:                -0.310
REMARK SMILES O=c1c(O)c(-c2ccc(O)c(O)c2)oc2cc(O)cc(O)c12
REMARK SMILES IDX 5 1 3 2 2 3 1 4 22 5 20 6 19 7 17 8 16 9 15 10 14 11 6 12
REMARK SMILES IDX 7 13 8 14 9 15 13 16 11 17 10 18 12 20 4 22 21 24 18 26
REMARK H PARENT 10 19 12 21 4 23 21 25 18 27
REMARK Flexibility Score: inf
ROOT
ATOM      1  C   UNL     1      15.433  15.362  61.243  1.00  0.00     0.180 A 
ATOM      2  C   UNL     1      15.803  16.590  60.665  1.00  0.00     0.208 A 
ATOM      3  C   UNL     1      16.685  16.589  59.573  1.00  0.00     0.238 A 
ATOM      4  O   UNL     1      16.970  17.686  59.026  1.00  0.00    -0.285 OA
ATOM      5  C   UNL     1      17.200  15.365  59.083  1.00  0.00     0.111 A 
ATOM      6  C   UNL     1      18.131  15.249  58.008  1.00  0.00     0.134 A 
ATOM      7  C   UNL     1      18.471  13.980  57.522  1.00  0.00     0.093 A 
ATOM      8  C   UNL     1      17.965  12.824  58.112  1.00  0.00     0.123 A 
ATOM      9  C   UNL     1      17.099  12.923  59.203  1.00  0.00     0.094 A 
ATOM     10  C   UNL     1      16.713  14.175  59.687  1.00  0.00     0.146 A 
ATOM     11  O   UNL     1      15.879  14.227  60.719  1.00  0.00    -0.452 OA
ENDROOT
BRANCH   1  12
ATOM     12  C   UNL     1      14.526  15.283  62.411  1.00  0.00     0.025 A 
ATOM     13  C   UNL     1      13.778  16.396  62.834  1.00  0.00     0.016 A 
ATOM     14  C   UNL     1      12.947  16.305  63.954  1.00  0.00     0.051 A 
ATOM     15  C   UNL     1      12.862  15.108  64.676  1.00  0.00     0.157 A 
ATOM     16  C   UNL     1      14.453  14.092  63.151  1.00  0.00     0.062 A 
ATOM     17  C   UNL     1      13.622  13.996  64.272  1.00  0.00     0.158 A 
BRANCH  15  18
ATOM     18  O   UNL     1      12.031  15.020  65.792  1.00  0.00    -0.504 OA
ATOM     19  H   UNL     1      11.409  15.776  66.052  1.00  0.00     0.293 HD
ENDBRANCH  15  18
BRANCH  17  20
ATOM     20  O   UNL     1      13.565  12.793  64.974  1.00  0.00    -0.504 OA
ATOM     21  H   UNL     1      14.395  12.347  65.347  1.00  0.00     0.293 HD
ENDBRANCH  17  20
ENDBRANCH   1  12
BRANCH   2  22
ATOM     22  O   UNL     1      15.267  17.786  61.151  1.00  0.00    -0.502 OA
ATOM     23  H   UNL     1      15.847  18.559  61.453  1.00  0.00     0.293 HD
ENDBRANCH   2  22
BRANCH   6  24
ATOM     24  O   UNL     1      18.768  16.339  57.407  1.00  0.00    -0.507 OA
ATOM     25  H   UNL     1      19.711  16.636  57.607  1.00  0.00     0.293 HD
ENDBRANCH   6  24
BRANCH   8  26
ATOM     26  O   UNL     1      18.336  11.577  57.613  1.00  0.00    -0.508 OA
ATOM     27  H   UNL     1      17.793  10.744  57.808  1.00  0.00     0.293 HD
ENDBRANCH   8  26
TORSDOF 6
ENDMDL
MODEL 3
REMARK VINA RESULT:    -6.700      1.587      2.754
REMARK INTER + INTRA:          -8.381
REMARK INTER:                  -8.273
REMARK INTRA:                  -0.108
REMARK UNBOUND:                -0.310
REMARK SMILES O=c1c(O)c(-c2ccc(O)c(O)c2)oc2cc(O)cc(O)c12
REMARK SMILES IDX 5 1 3 2 2 3 1 4 22 5 20 6 19 7 17 8 16 9 15 10 14 11 6 12
REMARK SMILES IDX 7 13 8 14 9 15 13 16 11 17 10 18 12 20 4 22 21 24 18 26
REMARK H PARENT 10 19 12 21 4 23 21 25 18 27
REMARK Flexibility Score: inf
ROOT
ATOM      1  C   UNL     1      14.985  15.393  61.988  1.00  0.00     0.180 A 
ATOM      2  C   UNL     1      15.363  16.621  61.415  1.00  0.00     0.208 A 
ATOM      3  C   UNL     1      16.211  16.615  60.296  1.00  0.00     0.238 A 
ATOM      4  O   UNL     1      16.502  17.714  59.753  1.00  0.00    -0.285 OA
ATOM      5  C   UNL     1      16.683  15.387  59.774  1.00  0.00     0.111 A 
ATOM      6  C   UNL     1      17.577  15.266  58.669  1.00  0.00     0.134 A 
ATOM      7  C   UNL     1      17.874  13.997  58.156  1.00  0.00     0.093 A 
ATOM      8  C   UNL     1      17.362  12.844  58.748  1.00  0.00     0.123 A 
ATOM      9  C   UNL     1      16.533  12.947  59.866  1.00  0.00     0.094 A 
ATOM     10  C   UNL     1      16.190  14.201  60.378  1.00  0.00     0.146 A 
ATOM     11  O   UNL     1      15.390  14.256  61.437  1.00  0.00    -0.452 OA
ENDROOT
BRANCH   1  12
ATOM     12  C   UNL     1      14.114  15.318  63.184  1.00  0.00     0.025 A 
ATOM     13  C   UNL     1      14.550  14.699  64.369  1.00  0.00     0.016 A 
ATOM     14  C   UNL     1      13.701  14.618  65.476  1.00  0.00     0.051 A 
ATOM     15  C   UNL     1      12.403  15.141  65.414  1.00  0.00     0.157 A 
ATOM     16  C   UNL     1      12.805  15.823  63.119  1.00  0.00     0.062 A 
ATOM     17  C   UNL     1      11.953  15.744  64.227  1.00  0.00     0.158 A 
BRANCH  15  18
ATOM     18  O   UNL     1      11.561  15.061  66.521  1.00  0.00    -0.504 OA
ATOM     19  H   UNL     1      11.891  14.718  67.415  1.00  0.00     0.293 HD
ENDBRANCH  15  18
BRANCH  17  20
ATOM     20  O   UNL     1      10.665  16.268  64.129  1.00  0.00    -0.504 OA
ATOM     21  H   UNL     1      10.135  16.238  63.266  1.00  0.00     0.293 HD
ENDBRANCH  17  20
ENDBRANCH   1  12
BRANCH   2  22
ATOM     22  O   UNL     1      14.868  17.821  61.932  1.00  0.00    -0.502 OA
ATOM     23  H   UNL     1      15.337  18.708  61.792  1.00  0.00     0.293 HD
ENDBRANCH   2  22
BRANCH   6  24
ATOM     24  O   UNL     1      18.218  16.350  58.061  1.00  0.00    -0.507 OA
ATOM     25  H   UNL     1      17.786  17.242  57.873  1.00  0.00     0.293 HD
ENDBRANCH   6  24
BRANCH   8  26
ATOM     26  O   UNL     1      17.691  11.596  58.221  1.00  0.00    -0.508 OA
ATOM     27  H   UNL     1      18.619  11.203  58.329  1.00  0.00     0.293 HD
ENDBRANCH   8  26
TORSDOF 6
ENDMDL
MODEL 4
REMARK VINA RESULT:    -6.542      4.579      6.841
REMARK INTER + INTRA:          -8.191
REMARK INTER:                  -7.886
REMARK INTRA:                  -0.306
REMARK UNBOUND:                -0.310
REMARK SMILES O=c1c(O)c(-c2ccc(O)c(O)c2)oc2cc(O)cc(O)c12
REMARK SMILES IDX 5 1 3 2 2 3 1 4 22 5 20 6 19 7 17 8 16 9 15 10 14 11 6 12
REMARK SMILES IDX 7 13 8 14 9 15 13 16 11 17 10 18 12 20 4 22 21 24 18 26
REMARK H PARENT 10 19 12 21 4 23 21 25 18 27
REMARK Flexibility Score: inf
ROOT
ATOM      1  C   UNL     1      12.207  19.558  63.498  1.00  0.00     0.180 A 
ATOM      2  C   UNL     1      11.182  18.634  63.767  1.00  0.00     0.208 A 
ATOM      3  C   UNL     1      11.462  17.262  63.668  1.00  0.00     0.238 A 
ATOM      4  O   UNL     1      10.557  16.438  63.963  1.00  0.00    -0.285 OA
ATOM      5  C   UNL     1      12.754  16.831  63.285  1.00  0.00     0.111 A 
ATOM      6  C   UNL     1      13.138  15.467  63.114  1.00  0.00     0.134 A 
ATOM      7  C   UNL     1      14.478  15.151  62.861  1.00  0.00     0.093 A 
ATOM      8  C   UNL     1      15.436  16.152  62.708  1.00  0.00     0.123 A 
ATOM      9  C   UNL     1      15.062  17.493  62.815  1.00  0.00     0.094 A 
ATOM     10  C   UNL     1      13.739  17.837  63.103  1.00  0.00     0.146 A 
ATOM     11  O   UNL     1      13.427  19.123  63.206  1.00  0.00    -0.452 OA
ENDROOT
BRANCH   1  12
ATOM     12  C   UNL     1      11.983  21.022  63.557  1.00  0.00     0.025 A 
ATOM     13  C   UNL     1      11.360  21.710  62.502  1.00  0.00     0.016 A 
ATOM     14  C   UNL     1      11.181  23.094  62.569  1.00  0.00     0.051 A 
ATOM     15  C   UNL     1      11.634  23.813  63.684  1.00  0.00     0.157 A 
ATOM     16  C   UNL     1      12.453  21.749  64.663  1.00  0.00     0.062 A 
ATOM     17  C   UNL     1      12.275  23.135  64.734  1.00  0.00     0.158 A 
BRANCH  15  18
ATOM     18  O   UNL     1      11.452  25.193  63.749  1.00  0.00    -0.504 OA
ATOM     19  H   UNL     1      11.475  25.772  62.918  1.00  0.00     0.293 HD
ENDBRANCH  15  18
BRANCH  17  20
ATOM     20  O   UNL     1      12.743  23.821  65.854  1.00  0.00    -0.504 OA
ATOM     21  H   UNL     1      12.929  23.354  66.734  1.00  0.00     0.293 HD
ENDBRANCH  17  20
ENDBRANCH   1  12
BRANCH   2  22
ATOM     22  O   UNL     1       9.919  19.079  64.164  1.00  0.00    -0.502 OA
ATOM     23  H   UNL     1       9.230  18.463  64.578  1.00  0.00     0.293 HD
ENDBRANCH   2  22
BRANCH   6  24
ATOM     24  O   UNL     1      12.241  14.394  63.155  1.00  0.00    -0.507 OA
ATOM     25  H   UNL     1      11.709  14.060  62.366  1.00  0.00     0.293 HD
ENDBRANCH   6  24
BRANCH   8  26
ATOM     26  O   UNL     1      16.759  15.803  62.441  1.00  0.00    -0.508 OA
ATOM     27  H   UNL     1      16.999  14.902  62.044  1.00  0.00     0.293 HD
ENDBRANCH   8  26
TORSDOF 6
ENDMDL
MODEL 5
REMARK VINA RESULT:    -6.451      3.031      6.469
REMARK INTER + INTRA:          -8.081
REMARK INTER:                  -7.756
REMARK INTRA:                  -0.325
REMARK UNBOUND:                -0.310
REMARK SMILES O=c1c(O)c(-c2ccc(O)c(O)c2)oc2cc(O)cc(O)c12
REMARK SMILES IDX 5 1 3 2 2 3 1 4 22 5 20 6 19 7 17 8 16 9 15 10 14 11 6 12
REMARK SMILES IDX 7 13 8 14 9 15 13 16 11 17 10 18 12 20 4 22 21 24 18 26
REMARK H PARENT 10 19 12 21 4 23 21 25 18 27
REMARK Flexibility Score: inf
ROOT
ATOM      1  C   UNL     1      15.123  12.928  61.299  1.00  0.00     0.180 A 
ATOM      2  C   UNL     1      14.688  12.342  62.501  1.00  0.00     0.208 A 
ATOM      3  C   UNL     1      14.326  13.175  63.572  1.00  0.00     0.238 A 
ATOM      4  O   UNL     1      13.885  12.647  64.626  1.00  0.00    -0.285 OA
ATOM      5  C   UNL     1      14.420  14.580  63.435  1.00  0.00     0.111 A 
ATOM      6  C   UNL     1      14.118  15.518  64.467  1.00  0.00     0.134 A 
ATOM      7  C   UNL     1      14.120  16.889  64.179  1.00  0.00     0.093 A 
ATOM      8  C   UNL     1      14.476  17.357  62.916  1.00  0.00     0.123 A 
ATOM      9  C   UNL     1      14.831  16.452  61.914  1.00  0.00     0.094 A 
ATOM     10  C   UNL     1      14.803  15.077  62.161  1.00  0.00     0.146 A 
ATOM     11  O   UNL     1      15.137  14.250  61.178  1.00  0.00    -0.452 OA
ENDROOT
BRANCH   1  12
ATOM     12  C   UNL     1      15.544  12.116  60.134  1.00  0.00     0.025 A 
ATOM     13  C   UNL     1      16.893  11.775  59.929  1.00  0.00     0.016 A 
ATOM     14  C   UNL     1      17.271  11.029  58.810  1.00  0.00     0.051 A 
ATOM     15  C   UNL     1      16.311  10.623  57.873  1.00  0.00     0.157 A 
ATOM     16  C   UNL     1      14.590  11.724  59.183  1.00  0.00     0.062 A 
ATOM     17  C   UNL     1      14.963  10.976  58.061  1.00  0.00     0.158 A 
BRANCH  15  18
ATOM     18  O   UNL     1      16.691   9.876  56.759  1.00  0.00    -0.504 OA
ATOM     19  H   UNL     1      16.267  10.024  55.851  1.00  0.00     0.293 HD
ENDBRANCH  15  18
BRANCH  17  20
ATOM     20  O   UNL     1      13.985  10.593  57.144  1.00  0.00    -0.504 OA
ATOM     21  H   UNL     1      14.149   9.874  56.450  1.00  0.00     0.293 HD
ENDBRANCH  17  20
ENDBRANCH   1  12
BRANCH   2  22
ATOM     22  O   UNL     1      14.582  10.952  62.609  1.00  0.00    -0.502 OA
ATOM     23  H   UNL     1      13.742  10.495  62.943  1.00  0.00     0.293 HD
ENDBRANCH   2  22
BRANCH   6  24
ATOM     24  O   UNL     1      13.839  15.159  65.790  1.00  0.00    -0.507 OA
ATOM     25  H   UNL     1      14.536  14.944  66.486  1.00  0.00     0.293 HD
ENDBRANCH   6  24
BRANCH   8  26
ATOM     26  O   UNL     1      14.483  18.729  62.668  1.00  0.00    -0.508 OA
ATOM     27  H   UNL     1      13.622  19.254  62.568  1.00  0.00     0.293 HD
ENDBRANCH   8  26
TORSDOF 6
ENDMDL
MODEL 6
REMARK VINA RESULT:    -6.437      2.758      4.416
REMARK INTER + INTRA:          -8.064
REMARK INTER:                  -8.118
REMARK INTRA:                   0.054
REMARK UNBOUND:                -0.310
REMARK SMILES O=c1c(O)c(-c2ccc(O)c(O)c2)oc2cc(O)cc(O)c12
REMARK SMILES IDX 5 1 3 2 2 3 1 4 22 5 20 6 19 7 17 8 16 9 15 10 14 11 6 12
REMARK SMILES IDX 7 13 8 14 9 15 13 16 11 17 10 18 12 20 4 22 21 24 18 26
REMARK H PARENT 10 19 12 21 4 23 21 25 18 27
REMARK Flexibility Score: inf
ROOT
ATOM      1  C   UNL     1      13.846  14.904  63.048  1.00  0.00     0.180 A 
ATOM      2  C   UNL     1      13.566  13.882  63.972  1.00  0.00     0.208 A 
ATOM      3  C   UNL     1      14.080  12.596  63.739  1.00  0.00     0.238 A 
ATOM      4  O   UNL     1      13.872  11.698  64.597  1.00  0.00    -0.285 OA
ATOM      5  C   UNL     1      14.852  12.344  62.580  1.00  0.00     0.111 A 
ATOM      6  C   UNL     1      15.389  11.071  62.224  1.00  0.00     0.134 A 
ATOM      7  C   UNL     1      16.247  10.966  61.123  1.00  0.00     0.093 A 
ATOM      8  C   UNL     1      16.536  12.073  60.328  1.00  0.00     0.123 A 
ATOM      9  C   UNL     1      15.970  13.313  60.631  1.00  0.00     0.094 A 
ATOM     10  C   UNL     1      15.138  13.456  61.745  1.00  0.00     0.146 A 
ATOM     11  O   UNL     1      14.628  14.654  62.005  1.00  0.00    -0.452 OA
ENDROOT
BRANCH   1  12
ATOM     12  C   UNL     1      13.320  16.279  63.212  1.00  0.00     0.025 A 
ATOM     13  C   UNL     1      14.163  17.401  63.125  1.00  0.00     0.016 A 
ATOM     14  C   UNL     1      13.649  18.687  63.307  1.00  0.00     0.051 A 
ATOM     15  C   UNL     1      12.289  18.872  63.591  1.00  0.00     0.157 A 
ATOM     16  C   UNL     1      11.963  16.468  63.517  1.00  0.00     0.062 A 
ATOM     17  C   UNL     1      11.443  17.755  63.698  1.00  0.00     0.158 A 
BRANCH  15  18
ATOM     18  O   UNL     1      11.779  20.157  63.770  1.00  0.00    -0.504 OA
ATOM     19  H   UNL     1      11.896  20.659  64.641  1.00  0.00     0.293 HD
ENDBRANCH  15  18
BRANCH  17  20
ATOM     20  O   UNL     1      10.087  17.904  63.987  1.00  0.00    -0.504 OA
ATOM     21  H   UNL     1       9.694  17.636  64.881  1.00  0.00     0.293 HD
ENDBRANCH  17  20
ENDBRANCH   1  12
BRANCH   2  22
ATOM     22  O   UNL     1      12.819  14.156  65.121  1.00  0.00    -0.502 OA
ATOM     23  H   UNL     1      12.077  13.549  65.445  1.00  0.00     0.293 HD
ENDBRANCH   2  22
BRANCH   6  24
ATOM     24  O   UNL     1      15.089   9.882  62.897  1.00  0.00    -0.507 OA
ATOM     25  H   UNL     1      15.555   9.001  62.743  1.00  0.00     0.293 HD
ENDBRANCH   6  24
BRANCH   8  26
ATOM     26  O   UNL     1      17.383  11.930  59.230  1.00  0.00    -0.508 OA
ATOM     27  H   UNL     1      17.645  12.723  58.656  1.00  0.00     0.293 HD
ENDBRANCH   8  26
TORSDOF 6
ENDMDL
MODEL 7
REMARK VINA RESULT:    -6.270      1.769      7.124
REMARK INTER + INTRA:          -7.863
REMARK INTER:                  -7.572
REMARK INTRA:                  -0.291
REMARK UNBOUND:                -0.310
REMARK SMILES O=c1c(O)c(-c2ccc(O)c(O)c2)oc2cc(O)cc(O)c12
REMARK SMILES IDX 5 1 3 2 2 3 1 4 22 5 20 6 19 7 17 8 16 9 15 10 14 11 6 12
REMARK SMILES IDX 7 13 8 14 9 15 13 16 11 17 10 18 12 20 4 22 21 24 18 26
REMARK H PARENT 10 19 12 21 4 23 21 25 18 27
REMARK Flexibility Score: inf
ROOT
ATOM      1  C   UNL     1      15.530  15.645  61.450  1.00  0.00     0.180 A 
ATOM      2  C   UNL     1      14.837  16.753  61.968  1.00  0.00     0.208 A 
ATOM      3  C   UNL     1      13.928  16.555  63.019  1.00  0.00     0.238 A 
ATOM      4  O   UNL     1      13.352  17.558  63.516  1.00  0.00    -0.285 OA
ATOM      5  C   UNL     1      13.710  15.253  63.528  1.00  0.00     0.111 A 
ATOM      6  C   UNL     1      12.784  14.931  64.565  1.00  0.00     0.134 A 
ATOM      7  C   UNL     1      12.746  13.629  65.079  1.00  0.00     0.093 A 
ATOM      8  C   UNL     1      13.554  12.624  64.551  1.00  0.00     0.123 A 
ATOM      9  C   UNL     1      14.422  12.912  63.497  1.00  0.00     0.094 A 
ATOM     10  C   UNL     1      14.508  14.210  62.987  1.00  0.00     0.146 A 
ATOM     11  O   UNL     1      15.354  14.446  61.991  1.00  0.00    -0.452 OA
ENDROOT
BRANCH   1  12
ATOM     12  C   UNL     1      16.486  15.769  60.325  1.00  0.00     0.025 A 
ATOM     13  C   UNL     1      16.127  15.401  59.016  1.00  0.00     0.016 A 
ATOM     14  C   UNL     1      17.054  15.504  57.975  1.00  0.00     0.051 A 
ATOM     15  C   UNL     1      18.354  15.962  58.227  1.00  0.00     0.157 A 
ATOM     16  C   UNL     1      17.795  16.208  60.576  1.00  0.00     0.062 A 
ATOM     17  C   UNL     1      18.726  16.313  59.536  1.00  0.00     0.158 A 
BRANCH  15  18
ATOM     18  O   UNL     1      19.274  16.066  57.185  1.00  0.00    -0.504 OA
ATOM     19  H   UNL     1      19.450  16.947  56.718  1.00  0.00     0.293 HD
ENDBRANCH  15  18
BRANCH  17  20
ATOM     20  O   UNL     1      20.013  16.766  59.821  1.00  0.00    -0.504 OA
ATOM     21  H   UNL     1      20.420  16.686  60.746  1.00  0.00     0.293 HD
ENDBRANCH  17  20
ENDBRANCH   1  12
BRANCH   2  22
ATOM     22  O   UNL     1      15.082  18.034  61.466  1.00  0.00    -0.502 OA
ATOM     23  H   UNL     1      14.412  18.531  60.891  1.00  0.00     0.293 HD
ENDBRANCH   2  22
BRANCH   6  24
ATOM     24  O   UNL     1      11.866  15.840  65.100  1.00  0.00    -0.507 OA
ATOM     25  H   UNL     1      11.208  15.628  65.835  1.00  0.00     0.293 HD
ENDBRANCH   6  24
BRANCH   8  26
ATOM     26  O   UNL     1      13.479  11.335  65.077  1.00  0.00    -0.508 OA
ATOM     27  H   UNL     1      13.360  11.174  66.070  1.00  0.00     0.293 HD
ENDBRANCH   8  26
TORSDOF 6
ENDMDL
MODEL 8
REMARK VINA RESULT:    -6.180      1.510      6.933
REMARK INTER + INTRA:          -7.755
REMARK INTER:                  -7.432
REMARK INTRA:                  -0.323
REMARK UNBOUND:                -0.310
REMARK SMILES O=c1c(O)c(-c2ccc(O)c(O)c2)oc2cc(O)cc(O)c12
REMARK SMILES IDX 5 1 3 2 2 3 1 4 22 5 20 6 19 7 17 8 16 9 15 10 14 11 6 12
REMARK SMILES IDX 7 13 8 14 9 15 13 16 11 17 10 18 12 20 4 22 21 24 18 26
REMARK H PARENT 10 19 12 21 4 23 21 25 18 27
REMARK Flexibility Score: inf
ROOT
ATOM      1  C   UNL     1      15.187  15.563  61.464  1.00  0.00     0.180 A 
ATOM      2  C   UNL     1      14.962  14.377  62.187  1.00  0.00     0.208 A 
ATOM      3  C   UNL     1      14.002  14.377  63.211  1.00  0.00     0.238 A 
ATOM      4  O   UNL     1      13.765  13.299  63.817  1.00  0.00    -0.285 OA
ATOM      5  C   UNL     1      13.290  15.563  63.510  1.00  0.00     0.111 A 
ATOM      6  C   UNL     1      12.323  15.688  64.552  1.00  0.00     0.134 A 
ATOM      7  C   UNL     1      11.586  16.872  64.674  1.00  0.00     0.093 A 
ATOM      8  C   UNL     1      11.826  17.958  63.834  1.00  0.00     0.123 A 
ATOM      9  C   UNL     1      12.811  17.869  62.849  1.00  0.00     0.094 A 
ATOM     10  C   UNL     1      13.538  16.688  62.680  1.00  0.00     0.146 A 
ATOM     11  O   UNL     1      14.458  16.641  61.724  1.00  0.00    -0.452 OA
ENDROOT
BRANCH   1  12
ATOM     12  C   UNL     1      16.201  15.648  60.387  1.00  0.00     0.025 A 
ATOM     13  C   UNL     1      15.886  15.314  59.058  1.00  0.00     0.016 A 
ATOM     14  C   UNL     1      16.865  15.379  58.063  1.00  0.00     0.051 A 
ATOM     15  C   UNL     1      18.174  15.765  58.382  1.00  0.00     0.157 A 
ATOM     16  C   UNL     1      17.518  16.014  60.705  1.00  0.00     0.062 A 
ATOM     17  C   UNL     1      18.501  16.081  59.711  1.00  0.00     0.158 A 
BRANCH  15  18
ATOM     18  O   UNL     1      19.147  15.830  57.386  1.00  0.00    -0.504 OA
ATOM     19  H   UNL     1      19.546  14.994  56.978  1.00  0.00     0.293 HD
ENDBRANCH  15  18
BRANCH  17  20
ATOM     20  O   UNL     1      19.795  16.462  60.063  1.00  0.00    -0.504 OA
ATOM     21  H   UNL     1      20.313  15.996  60.799  1.00  0.00     0.293 HD
ENDBRANCH  17  20
ENDBRANCH   1  12
BRANCH   2  22
ATOM     22  O   UNL     1      15.660  13.211  61.861  1.00  0.00    -0.502 OA
ATOM     23  H   UNL     1      15.980  12.554  62.562  1.00  0.00     0.293 HD
ENDBRANCH   2  22
BRANCH   6  24
ATOM     24  O   UNL     1      12.070  14.695  65.505  1.00  0.00    -0.507 OA
ATOM     25  H   UNL     1      12.449  13.761  65.475  1.00  0.00     0.293 HD
ENDBRANCH   6  24
BRANCH   8  26
ATOM     26  O   UNL     1      11.085  19.128  63.994  1.00  0.00    -0.508 OA
ATOM     27  H   UNL     1      10.111  19.104  64.273  1.00  0.00     0.293 HD
ENDBRANCH   8  26
TORSDOF 6
ENDMDL
MODEL 9
REMARK VINA RESULT:    -5.996      2.016      6.988
REMARK INTER + INTRA:          -7.533
REMARK INTER:                  -7.247
REMARK INTRA:                  -0.286
REMARK UNBOUND:                -0.310
REMARK SMILES O=c1c(O)c(-c2ccc(O)c(O)c2)oc2cc(O)cc(O)c12
REMARK SMILES IDX 5 1 3 2 2 3 1 4 22 5 20 6 19 7 17 8 16 9 15 10 14 11 6 12
REMARK SMILES IDX 7 13 8 14 9 15 13 16 11 17 10 18 12 20 4 22 21 24 18 26
REMARK H PARENT 10 19 12 21 4 23 21 25 18 27
REMARK Flexibility Score: inf
ROOT
ATOM      1  C   UNL     1      15.382  16.781  62.343  1.00  0.00     0.180 A 
ATOM      2  C   UNL     1      14.747  15.554  62.603  1.00  0.00     0.208 A 
ATOM      3  C   UNL     1      13.440  15.560  63.114  1.00  0.00     0.238 A 
ATOM      4  O   UNL     1      12.856  14.459  63.293  1.00  0.00    -0.285 OA
ATOM      5  C   UNL     1      12.790  16.790  63.375  1.00  0.00     0.111 A 
ATOM      6  C   UNL     1      11.481  16.915  63.930  1.00  0.00     0.134 A 
ATOM      7  C   UNL     1      10.887  18.180  64.023  1.00  0.00     0.093 A 
ATOM      8  C   UNL     1      11.578  19.329  63.643  1.00  0.00     0.123 A 
ATOM      9  C   UNL     1      12.881  19.225  63.153  1.00  0.00     0.094 A 
ATOM     10  C   UNL     1      13.487  17.974  63.015  1.00  0.00     0.146 A 
ATOM     11  O   UNL     1      14.724  17.917  62.535  1.00  0.00    -0.452 OA
ENDROOT
BRANCH   1  12
ATOM     12  C   UNL     1      16.769  16.857  61.827  1.00  0.00     0.025 A 
ATOM     13  C   UNL     1      17.058  16.627  60.470  1.00  0.00     0.016 A 
ATOM     14  C   UNL     1      18.376  16.679  60.010  1.00  0.00     0.051 A 
ATOM     15  C   UNL     1      19.426  16.948  60.899  1.00  0.00     0.157 A 
ATOM     16  C   UNL     1      17.826  17.105  62.717  1.00  0.00     0.062 A 
ATOM     17  C   UNL     1      19.147  17.159  62.260  1.00  0.00     0.158 A 
BRANCH  15  18
ATOM     18  O   UNL     1      20.739  17.002  60.436  1.00  0.00    -0.504 OA
ATOM     19  H   UNL     1      20.958  16.939  59.449  1.00  0.00     0.293 HD
ENDBRANCH  15  18
BRANCH  17  20
ATOM     20  O   UNL     1      20.169  17.422  63.171  1.00  0.00    -0.504 OA
ATOM     21  H   UNL     1      20.008  17.940  64.027  1.00  0.00     0.293 HD
ENDBRANCH  17  20
ENDBRANCH   1  12
BRANCH   2  22
ATOM     22  O   UNL     1      15.398  14.350  62.318  1.00  0.00    -0.502 OA
ATOM     23  H   UNL     1      16.071  13.933  62.950  1.00  0.00     0.293 HD
ENDBRANCH   2  22
BRANCH   6  24
ATOM     24  O   UNL     1      10.739  15.839  64.427  1.00  0.00    -0.507 OA
ATOM     25  H   UNL     1       9.832  15.918  64.861  1.00  0.00     0.293 HD
ENDBRANCH   6  24
BRANCH   8  26
ATOM     26  O   UNL     1      10.962  20.573  63.763  1.00  0.00    -0.508 OA
ATOM     27  H   UNL     1      10.540  21.035  62.966  1.00  0.00     0.293 HD
ENDBRANCH   8  26
TORSDOF 6
ENDMDL
