MODEL 1
REMARK VINA RESULT:    -6.450      0.000      0.000
REMARK INTER + INTRA:         -11.304
REMARK INTER:                  -9.467
REMARK INTRA:                  -1.838
REMARK UNBOUND:                -1.838
REMARK SMILES O=c1c(O[C@H]2O[C@H](CO)[C@H](O)[C@H](O)[C@H]2O)c(-c2ccc(O)c(O)c2)oc2cc(O)cc(O)c12
REMARK SMILES IDX 4 1 3 2 16 3 25 4 2 5 26 6 1 7 33 8 27 9 31 10 28 11 30 12
REMARK SMILES IDX 17 13 18 14 19 15 20 16 24 17 22 18 21 19 23 21 32 23 29 25
REMARK SMILES IDX 5 27 14 28 6 29 12 30 7 31 10 32 15 33 13 35 8 37 9 38 11 40
REMARK H PARENT 21 20 23 22 32 24 29 26 15 34 13 36 9 39 11 41
REMARK Flexibility Score: inf
ROOT
ATOM      1  O   UNL     1      29.938  62.203   3.571  1.00  0.00    -0.454 OA
ENDROOT
BRANCH   1   2
ATOM      2  C   UNL     1      30.353  61.059   4.274  1.00  0.00     0.214 A 
ATOM      3  C   UNL     1      30.130  59.804   3.688  1.00  0.00     0.180 A 
ATOM      4  O   UNL     1      30.539  58.698   4.302  1.00  0.00    -0.452 OA
ATOM      5  C   UNL     1      31.036  61.116   5.506  1.00  0.00     0.239 A 
ATOM      6  C   UNL     1      31.202  58.709   5.451  1.00  0.00     0.146 A 
ATOM      7  O   UNL     1      31.168  62.218   6.094  1.00  0.00    -0.285 OA
ATOM      8  C   UNL     1      31.535  59.924   6.085  1.00  0.00     0.111 A 
ATOM      9  C   UNL     1      31.568  57.482   6.026  1.00  0.00     0.094 A 
ATOM     10  C   UNL     1      32.344  59.885   7.257  1.00  0.00     0.134 A 
ATOM     11  C   UNL     1      32.291  57.450   7.220  1.00  0.00     0.123 A 
ATOM     12  C   UNL     1      32.672  58.645   7.830  1.00  0.00     0.093 A 
BRANCH   3  13
ATOM     13  C   UNL     1      29.530  59.683   2.344  1.00  0.00     0.025 A 
ATOM     14  C   UNL     1      30.371  59.599   1.225  1.00  0.00     0.016 A 
ATOM     15  C   UNL     1      29.828  59.557  -0.062  1.00  0.00     0.051 A 
ATOM     16  C   UNL     1      28.440  59.592  -0.245  1.00  0.00     0.157 A 
ATOM     17  C   UNL     1      28.137  59.704   2.162  1.00  0.00     0.062 A 
ATOM     18  C   UNL     1      27.589  59.658   0.874  1.00  0.00     0.158 A 
BRANCH  16  19
ATOM     19  O   UNL     1      27.901  59.575  -1.531  1.00  0.00    -0.504 OA
ATOM     20  H   UNL     1      28.459  59.807  -2.346  1.00  0.00     0.293 HD
ENDBRANCH  16  19
BRANCH  18  21
ATOM     21  O   UNL     1      26.203  59.671   0.722  1.00  0.00    -0.504 OA
ATOM     22  H   UNL     1      25.758  59.406  -0.146  1.00  0.00     0.293 HD
ENDBRANCH  18  21
ENDBRANCH   3  13
BRANCH  10  23
ATOM     23  O   UNL     1      32.886  61.026   7.853  1.00  0.00    -0.507 OA
ATOM     24  H   UNL     1      32.840  61.189   8.849  1.00  0.00     0.293 HD
ENDBRANCH  10  23
BRANCH  11  25
ATOM     25  O   UNL     1      32.655  56.233   7.801  1.00  0.00    -0.508 OA
ATOM     26  H   UNL     1      32.045  55.425   7.762  1.00  0.00     0.293 HD
ENDBRANCH  11  25
ENDBRANCH   1   2
BRANCH   1  27
ATOM     27  C   UNL     1      30.800  63.240   3.087  1.00  0.00     0.339 C 
ATOM     28  C   UNL     1      30.344  64.613   3.612  1.00  0.00     0.214 C 
ATOM     29  O   UNL     1      30.878  63.236   1.667  1.00  0.00    -0.332 OA
ATOM     30  C   UNL     1      29.006  65.038   2.950  1.00  0.00     0.180 C 
ATOM     31  C   UNL     1      29.601  63.439   1.085  1.00  0.00     0.179 C 
ATOM     32  C   UNL     1      29.068  64.844   1.409  1.00  0.00     0.177 C 
BRANCH  28  33
ATOM     33  O   UNL     1      30.248  64.571   5.012  1.00  0.00    -0.384 OA
ATOM     34  H   UNL     1      29.444  64.036   5.245  1.00  0.00     0.211 HD
ENDBRANCH  28  33
BRANCH  30  35
ATOM     35  O   UNL     1      28.721  66.387   3.236  1.00  0.00    -0.387 OA
ATOM     36  H   UNL     1      27.951  66.397   3.862  1.00  0.00     0.211 HD
ENDBRANCH  30  35
BRANCH  31  37
ATOM     37  C   UNL     1      29.695  63.183  -0.430  1.00  0.00     0.191 C 
BRANCH  37  38
ATOM     38  O   UNL     1      30.906  63.691  -0.928  1.00  0.00    -0.394 OA
ATOM     39  H   UNL     1      31.372  62.940  -1.386  1.00  0.00     0.210 HD
ENDBRANCH  37  38
ENDBRANCH  31  37
BRANCH  32  40
ATOM     40  O   UNL     1      29.821  65.835   0.745  1.00  0.00    -0.387 OA
ATOM     41  H   UNL     1      30.725  65.481   0.543  1.00  0.00     0.211 HD
ENDBRANCH  32  40
ENDBRANCH   1  27
TORSDOF 12
ENDMDL
MODEL 2
REMARK VINA RESULT:    -6.300      4.011      9.028
REMARK INTER + INTRA:         -11.085
REMARK INTER:                  -9.043
REMARK INTRA:                  -2.042
REMARK UNBOUND:                -1.838
REMARK SMILES O=c1c(O[C@H]2O[C@H](CO)[C@H](O)[C@H](O)[C@H]2O)c(-c2ccc(O)c(O)c2)oc2cc(O)cc(O)c12
REMARK SMILES IDX 4 1 3 2 16 3 25 4 2 5 26 6 1 7 33 8 27 9 31 10 28 11 30 12
REMARK SMILES IDX 17 13 18 14 19 15 20 16 24 17 22 18 21 19 23 21 32 23 29 25
REMARK SMILES IDX 5 27 14 28 6 29 12 30 7 31 10 32 15 33 13 35 8 37 9 38 11 40
REMARK H PARENT 21 20 23 22 32 24 29 26 15 34 13 36 9 39 11 41
REMARK Flexibility Score: inf
ROOT
ATOM      1  O   UNL     1      30.776  57.039   8.076  1.00  0.00    -0.454 OA
ENDROOT
BRANCH   1   2
ATOM      2  C   UNL     1      30.225  57.405   6.837  1.00  0.00     0.214 A 
ATOM      3  C   UNL     1      28.828  57.389   6.701  1.00  0.00     0.180 A 
ATOM      4  O   UNL     1      28.264  57.761   5.557  1.00  0.00    -0.452 OA
ATOM      5  C   UNL     1      31.003  57.845   5.746  1.00  0.00     0.239 A 
ATOM      6  C   UNL     1      28.958  58.201   4.515  1.00  0.00     0.146 A 
ATOM      7  O   UNL     1      32.256  57.785   5.811  1.00  0.00    -0.285 OA
ATOM      8  C   UNL     1      30.362  58.320   4.577  1.00  0.00     0.111 A 
ATOM      9  C   UNL     1      28.265  58.548   3.346  1.00  0.00     0.094 A 
ATOM     10  C   UNL     1      31.048  58.903   3.472  1.00  0.00     0.134 A 
ATOM     11  C   UNL     1      28.954  59.043   2.237  1.00  0.00     0.123 A 
ATOM     12  C   UNL     1      30.337  59.214   2.302  1.00  0.00     0.093 A 
BRANCH   3  13
ATOM     13  C   UNL     1      27.953  57.054   7.842  1.00  0.00     0.025 A 
ATOM     14  C   UNL     1      27.622  55.712   8.079  1.00  0.00     0.016 A 
ATOM     15  C   UNL     1      26.738  55.375   9.107  1.00  0.00     0.051 A 
ATOM     16  C   UNL     1      26.180  56.375   9.915  1.00  0.00     0.157 A 
ATOM     17  C   UNL     1      27.404  58.056   8.660  1.00  0.00     0.062 A 
ATOM     18  C   UNL     1      26.520  57.722   9.695  1.00  0.00     0.158 A 
BRANCH  16  19
ATOM     19  O   UNL     1      25.279  56.039  10.924  1.00  0.00    -0.504 OA
ATOM     20  H   UNL     1      24.543  55.356  10.776  1.00  0.00     0.293 HD
ENDBRANCH  16  19
BRANCH  18  21
ATOM     21  O   UNL     1      25.997  58.735  10.497  1.00  0.00    -0.504 OA
ATOM     22  H   UNL     1      26.585  59.301  11.094  1.00  0.00     0.293 HD
ENDBRANCH  18  21
ENDBRANCH   3  13
BRANCH  10  23
ATOM     23  O   UNL     1      32.404  59.239   3.503  1.00  0.00    -0.507 OA
ATOM     24  H   UNL     1      32.992  59.184   2.684  1.00  0.00     0.293 HD
ENDBRANCH  10  23
BRANCH  11  25
ATOM     25  O   UNL     1      28.271  59.387   1.068  1.00  0.00    -0.508 OA
ATOM     26  H   UNL     1      27.556  58.786   0.677  1.00  0.00     0.293 HD
ENDBRANCH  11  25
ENDBRANCH   1   2
BRANCH   1  27
ATOM     27  C   UNL     1      31.306  57.946   9.052  1.00  0.00     0.339 C 
ATOM     28  C   UNL     1      32.748  57.558   9.424  1.00  0.00     0.214 C 
ATOM     29  O   UNL     1      30.480  58.013  10.207  1.00  0.00    -0.332 OA
ATOM     30  C   UNL     1      32.770  56.237  10.239  1.00  0.00     0.180 C 
ATOM     31  C   UNL     1      30.364  56.743  10.827  1.00  0.00     0.179 C 
ATOM     32  C   UNL     1      31.720  56.280  11.384  1.00  0.00     0.177 C 
BRANCH  28  33
ATOM     33  O   UNL     1      33.525  57.471   8.259  1.00  0.00    -0.384 OA
ATOM     34  H   UNL     1      33.510  56.526   7.953  1.00  0.00     0.211 HD
ENDBRANCH  28  33
BRANCH  30  35
ATOM     35  O   UNL     1      34.048  56.019  10.789  1.00  0.00    -0.387 OA
ATOM     36  H   UNL     1      34.285  55.071  10.610  1.00  0.00     0.211 HD
ENDBRANCH  30  35
BRANCH  31  37
ATOM     37  C   UNL     1      29.277  56.814  11.914  1.00  0.00     0.191 C 
BRANCH  37  38
ATOM     38  O   UNL     1      29.180  58.124  12.410  1.00  0.00    -0.394 OA
ATOM     39  H   UNL     1      29.191  58.736  11.625  1.00  0.00     0.210 HD
ENDBRANCH  37  38
ENDBRANCH  31  37
BRANCH  32  40
ATOM     40  O   UNL     1      32.113  57.073  12.481  1.00  0.00    -0.387 OA
ATOM     41  H   UNL     1      31.464  57.814  12.600  1.00  0.00     0.211 HD
ENDBRANCH  32  40
ENDBRANCH   1  27
TORSDOF 12
ENDMDL
MODEL 3
REMARK VINA RESULT:    -6.267      2.082      5.286
REMARK INTER + INTRA:         -11.035
REMARK INTER:                  -9.045
REMARK INTRA:                  -1.990
REMARK UNBOUND:                -1.838
REMARK SMILES O=c1c(O[C@H]2O[C@H](CO)[C@H](O)[C@H](O)[C@H]2O)c(-c2ccc(O)c(O)c2)oc2cc(O)cc(O)c12
REMARK SMILES IDX 4 1 3 2 16 3 25 4 2 5 26 6 1 7 33 8 27 9 31 10 28 11 30 12
REMARK SMILES IDX 17 13 18 14 19 15 20 16 24 17 22 18 21 19 23 21 32 23 29 25
REMARK SMILES IDX 5 27 14 28 6 29 12 30 7 31 10 32 15 33 13 35 8 37 9 38 11 40
REMARK H PARENT 21 20 23 22 32 24 29 26 15 34 13 36 9 39 11 41
REMARK Flexibility Score: inf
ROOT
ATOM      1  O   UNL     1      31.481  62.359   3.529  1.00  0.00    -0.454 OA
ENDROOT
BRANCH   1   2
ATOM      2  C   UNL     1      31.928  61.542   4.581  1.00  0.00     0.214 A 
ATOM      3  C   UNL     1      32.382  62.162   5.755  1.00  0.00     0.180 A 
ATOM      4  O   UNL     1      32.781  61.427   6.787  1.00  0.00    -0.452 OA
ATOM      5  C   UNL     1      31.883  60.133   4.537  1.00  0.00     0.239 A 
ATOM      6  C   UNL     1      32.736  60.101   6.795  1.00  0.00     0.146 A 
ATOM      7  O   UNL     1      31.566  59.554   3.468  1.00  0.00    -0.285 OA
ATOM      8  C   UNL     1      32.230  59.387   5.688  1.00  0.00     0.111 A 
ATOM      9  C   UNL     1      33.203  59.420   7.929  1.00  0.00     0.094 A 
ATOM     10  C   UNL     1      32.099  57.971   5.791  1.00  0.00     0.134 A 
ATOM     11  C   UNL     1      33.146  58.026   7.988  1.00  0.00     0.123 A 
ATOM     12  C   UNL     1      32.601  57.310   6.923  1.00  0.00     0.093 A 
BRANCH   3  13
ATOM     13  C   UNL     1      32.340  63.630   5.909  1.00  0.00     0.025 A 
ATOM     14  C   UNL     1      33.372  64.405   5.360  1.00  0.00     0.016 A 
ATOM     15  C   UNL     1      33.393  65.788   5.554  1.00  0.00     0.051 A 
ATOM     16  C   UNL     1      32.382  66.414   6.294  1.00  0.00     0.157 A 
ATOM     17  C   UNL     1      31.318  64.258   6.640  1.00  0.00     0.062 A 
ATOM     18  C   UNL     1      31.334  65.646   6.834  1.00  0.00     0.158 A 
BRANCH  16  19
ATOM     19  O   UNL     1      32.419  67.791   6.508  1.00  0.00    -0.504 OA
ATOM     20  H   UNL     1      32.180  68.451   5.776  1.00  0.00     0.293 HD
ENDBRANCH  16  19
BRANCH  18  21
ATOM     21  O   UNL     1      30.303  66.245   7.557  1.00  0.00    -0.504 OA
ATOM     22  H   UNL     1      30.354  66.367   8.559  1.00  0.00     0.293 HD
ENDBRANCH  18  21
ENDBRANCH   3  13
BRANCH  10  23
ATOM     23  O   UNL     1      31.440  57.191   4.837  1.00  0.00    -0.507 OA
ATOM     24  H   UNL     1      31.935  56.699   4.107  1.00  0.00     0.293 HD
ENDBRANCH  10  23
BRANCH  11  25
ATOM     25  O   UNL     1      33.613  57.341   9.113  1.00  0.00    -0.508 OA
ATOM     26  H   UNL     1      33.216  56.452   9.393  1.00  0.00     0.293 HD
ENDBRANCH  11  25
ENDBRANCH   1   2
BRANCH   1  27
ATOM     27  C   UNL     1      30.110  62.624   3.206  1.00  0.00     0.339 C 
ATOM     28  C   UNL     1      29.825  62.287   1.731  1.00  0.00     0.214 C 
ATOM     29  O   UNL     1      29.753  63.968   3.502  1.00  0.00    -0.332 OA
ATOM     30  C   UNL     1      30.529  63.302   0.790  1.00  0.00     0.180 C 
ATOM     31  C   UNL     1      30.547  64.882   2.763  1.00  0.00     0.179 C 
ATOM     32  C   UNL     1      30.264  64.760   1.256  1.00  0.00     0.177 C 
BRANCH  28  33
ATOM     33  O   UNL     1      30.218  60.966   1.468  1.00  0.00    -0.384 OA
ATOM     34  H   UNL     1      29.428  60.477   1.117  1.00  0.00     0.211 HD
ENDBRANCH  28  33
BRANCH  30  35
ATOM     35  O   UNL     1      30.070  63.147  -0.532  1.00  0.00    -0.387 OA
ATOM     36  H   UNL     1      30.868  63.160  -1.122  1.00  0.00     0.211 HD
ENDBRANCH  30  35
BRANCH  31  37
ATOM     37  C   UNL     1      30.297  66.304   3.293  1.00  0.00     0.191 C 
BRANCH  37  38
ATOM     38  O   UNL     1      28.918  66.533   3.421  1.00  0.00    -0.394 OA
ATOM     39  H   UNL     1      28.806  67.438   3.821  1.00  0.00     0.210 HD
ENDBRANCH  37  38
ENDBRANCH  31  37
BRANCH  32  40
ATOM     40  O   UNL     1      28.970  65.226   0.946  1.00  0.00    -0.387 OA
ATOM     41  H   UNL     1      28.890  65.347  -0.035  1.00  0.00     0.211 HD
ENDBRANCH  32  40
ENDBRANCH   1  27
TORSDOF 12
ENDMDL
MODEL 4
REMARK VINA RESULT:    -6.186      0.977      2.335
REMARK INTER + INTRA:         -10.916
REMARK INTER:                  -9.443
REMARK INTRA:                  -1.473
REMARK UNBOUND:                -1.838
REMARK SMILES O=c1c(O[C@H]2O[C@H](CO)[C@H](O)[C@H](O)[C@H]2O)c(-c2ccc(O)c(O)c2)oc2cc(O)cc(O)c12
REMARK SMILES IDX 4 1 3 2 16 3 25 4 2 5 26 6 1 7 33 8 27 9 31 10 28 11 30 12
REMARK SMILES IDX 17 13 18 14 19 15 20 16 24 17 22 18 21 19 23 21 32 23 29 25
REMARK SMILES IDX 5 27 14 28 6 29 12 30 7 31 10 32 15 33 13 35 8 37 9 38 11 40
REMARK H PARENT 21 20 23 22 32 24 29 26 15 34 13 36 9 39 11 41
REMARK Flexibility Score: inf
ROOT
ATOM      1  O   UNL     1      30.603  62.036   3.281  1.00  0.00    -0.454 OA
ENDROOT
BRANCH   1   2
ATOM      2  C   UNL     1      30.896  60.931   4.097  1.00  0.00     0.214 A 
ATOM      3  C   UNL     1      30.578  59.651   3.619  1.00  0.00     0.180 A 
ATOM      4  O   UNL     1      30.870  58.576   4.344  1.00  0.00    -0.452 OA
ATOM      5  C   UNL     1      31.548  61.043   5.342  1.00  0.00     0.239 A 
ATOM      6  C   UNL     1      31.502  58.636   5.509  1.00  0.00     0.146 A 
ATOM      7  O   UNL     1      31.763  62.180   5.832  1.00  0.00    -0.285 OA
ATOM      8  C   UNL     1      31.925  59.872   6.042  1.00  0.00     0.111 A 
ATOM      9  C   UNL     1      31.742  57.442   6.205  1.00  0.00     0.094 A 
ATOM     10  C   UNL     1      32.696  59.872   7.240  1.00  0.00     0.134 A 
ATOM     11  C   UNL     1      32.429  57.458   7.421  1.00  0.00     0.123 A 
ATOM     12  C   UNL     1      32.898  58.668   7.933  1.00  0.00     0.093 A 
BRANCH   3  13
ATOM     13  C   UNL     1      30.004  59.458   2.272  1.00  0.00     0.025 A 
ATOM     14  C   UNL     1      30.865  59.375   1.169  1.00  0.00     0.016 A 
ATOM     15  C   UNL     1      30.345  59.265  -0.123  1.00  0.00     0.051 A 
ATOM     16  C   UNL     1      28.959  59.231  -0.327  1.00  0.00     0.157 A 
ATOM     17  C   UNL     1      28.615  59.410   2.071  1.00  0.00     0.062 A 
ATOM     18  C   UNL     1      28.089  59.296   0.777  1.00  0.00     0.158 A 
BRANCH  16  19
ATOM     19  O   UNL     1      28.442  59.147  -1.619  1.00  0.00    -0.504 OA
ATOM     20  H   UNL     1      28.317  59.970  -2.198  1.00  0.00     0.293 HD
ENDBRANCH  16  19
BRANCH  18  21
ATOM     21  O   UNL     1      26.706  59.242   0.606  1.00  0.00    -0.504 OA
ATOM     22  H   UNL     1      26.286  59.095  -0.302  1.00  0.00     0.293 HD
ENDBRANCH  18  21
ENDBRANCH   3  13
BRANCH  10  23
ATOM     23  O   UNL     1      33.322  61.013   7.749  1.00  0.00    -0.507 OA
ATOM     24  H   UNL     1      32.802  61.787   8.135  1.00  0.00     0.293 HD
ENDBRANCH  10  23
BRANCH  11  25
ATOM     25  O   UNL     1      32.668  56.273   8.121  1.00  0.00    -0.508 OA
ATOM     26  H   UNL     1      31.984  55.527   8.147  1.00  0.00     0.293 HD
ENDBRANCH  11  25
ENDBRANCH   1   2
BRANCH   1  27
ATOM     27  C   UNL     1      29.384  62.791   3.307  1.00  0.00     0.339 C 
ATOM     28  C   UNL     1      29.146  63.484   1.953  1.00  0.00     0.214 C 
ATOM     29  O   UNL     1      29.374  63.732   4.372  1.00  0.00    -0.332 OA
ATOM     30  C   UNL     1      30.172  64.628   1.734  1.00  0.00     0.180 C 
ATOM     31  C   UNL     1      30.443  64.656   4.247  1.00  0.00     0.179 C 
ATOM     32  C   UNL     1      30.266  65.532   2.995  1.00  0.00     0.177 C 
BRANCH  28  33
ATOM     33  O   UNL     1      29.194  62.530   0.924  1.00  0.00    -0.384 OA
ATOM     34  H   UNL     1      30.058  62.045   0.999  1.00  0.00     0.211 HD
ENDBRANCH  28  33
BRANCH  30  35
ATOM     35  O   UNL     1      29.801  65.415   0.626  1.00  0.00    -0.387 OA
ATOM     36  H   UNL     1      30.640  65.713   0.186  1.00  0.00     0.211 HD
ENDBRANCH  30  35
BRANCH  31  37
ATOM     37  C   UNL     1      30.536  65.491   5.537  1.00  0.00     0.191 C 
BRANCH  37  38
ATOM     38  O   UNL     1      30.890  64.666   6.617  1.00  0.00    -0.394 OA
ATOM     39  H   UNL     1      31.876  64.739   6.731  1.00  0.00     0.210 HD
ENDBRANCH  37  38
ENDBRANCH  31  37
BRANCH  32  40
ATOM     40  O   UNL     1      29.174  66.411   3.143  1.00  0.00    -0.387 OA
ATOM     41  H   UNL     1      29.083  66.664   4.098  1.00  0.00     0.211 HD
ENDBRANCH  32  40
ENDBRANCH   1  27
TORSDOF 12
ENDMDL
MODEL 5
REMARK VINA RESULT:    -6.064      2.627      6.269
REMARK INTER + INTRA:         -10.738
REMARK INTER:                  -8.890
REMARK INTRA:                  -1.848
REMARK UNBOUND:                -1.838
REMARK SMILES O=c1c(O[C@H]2O[C@H](CO)[C@H](O)[C@H](O)[C@H]2O)c(-c2ccc(O)c(O)c2)oc2cc(O)cc(O)c12
REMARK SMILES IDX 4 1 3 2 16 3 25 4 2 5 26 6 1 7 33 8 27 9 31 10 28 11 30 12
REMARK SMILES IDX 17 13 18 14 19 15 20 16 24 17 22 18 21 19 23 21 32 23 29 25
REMARK SMILES IDX 5 27 14 28 6 29 12 30 7 31 10 32 15 33 13 35 8 37 9 38 11 40
REMARK H PARENT 21 20 23 22 32 24 29 26 15 34 13 36 9 39 11 41
REMARK Flexibility Score: inf
ROOT
ATOM      1  O   UNL     1      31.816  61.473   5.313  1.00  0.00    -0.454 OA
ENDROOT
BRANCH   1   2
ATOM      2  C   UNL     1      31.668  62.846   5.572  1.00  0.00     0.214 A 
ATOM      3  C   UNL     1      31.297  63.685   4.511  1.00  0.00     0.180 A 
ATOM      4  O   UNL     1      31.111  64.984   4.720  1.00  0.00    -0.452 OA
ATOM      5  C   UNL     1      31.813  63.408   6.857  1.00  0.00     0.239 A 
ATOM      6  C   UNL     1      31.216  65.549   5.916  1.00  0.00     0.146 A 
ATOM      7  O   UNL     1      32.230  62.696   7.805  1.00  0.00    -0.285 OA
ATOM      8  C   UNL     1      31.518  64.778   7.058  1.00  0.00     0.111 A 
ATOM      9  C   UNL     1      31.022  66.934   6.024  1.00  0.00     0.094 A 
ATOM     10  C   UNL     1      31.509  65.413   8.334  1.00  0.00     0.134 A 
ATOM     11  C   UNL     1      31.096  67.563   7.268  1.00  0.00     0.123 A 
ATOM     12  C   UNL     1      31.342  66.805   8.412  1.00  0.00     0.093 A 
BRANCH   3  13
ATOM     13  C   UNL     1      31.012  63.139   3.168  1.00  0.00     0.025 A 
ATOM     14  C   UNL     1      29.679  62.974   2.768  1.00  0.00     0.016 A 
ATOM     15  C   UNL     1      29.382  62.393   1.532  1.00  0.00     0.051 A 
ATOM     16  C   UNL     1      30.414  61.977   0.680  1.00  0.00     0.157 A 
ATOM     17  C   UNL     1      32.048  62.735   2.310  1.00  0.00     0.062 A 
ATOM     18  C   UNL     1      31.754  62.156   1.069  1.00  0.00     0.158 A 
BRANCH  16  19
ATOM     19  O   UNL     1      30.116  61.374  -0.541  1.00  0.00    -0.504 OA
ATOM     20  H   UNL     1      29.339  61.687  -1.114  1.00  0.00     0.293 HD
ENDBRANCH  16  19
BRANCH  18  21
ATOM     21  O   UNL     1      32.802  61.771   0.232  1.00  0.00    -0.504 OA
ATOM     22  H   UNL     1      33.751  62.084   0.386  1.00  0.00     0.293 HD
ENDBRANCH  18  21
ENDBRANCH   3  13
BRANCH  10  23
ATOM     23  O   UNL     1      31.607  64.714   9.539  1.00  0.00    -0.507 OA
ATOM     24  H   UNL     1      30.807  64.548  10.133  1.00  0.00     0.293 HD
ENDBRANCH  10  23
BRANCH  11  25
ATOM     25  O   UNL     1      30.907  68.943   7.382  1.00  0.00    -0.508 OA
ATOM     26  H   UNL     1      31.257  69.584   6.681  1.00  0.00     0.293 HD
ENDBRANCH  11  25
ENDBRANCH   1   2
BRANCH   1  27
ATOM     27  C   UNL     1      30.825  60.467   5.556  1.00  0.00     0.339 C 
ATOM     28  C   UNL     1      31.370  59.386   6.506  1.00  0.00     0.214 C 
ATOM     29  O   UNL     1      30.354  59.893   4.344  1.00  0.00    -0.332 OA
ATOM     30  C   UNL     1      32.457  58.533   5.800  1.00  0.00     0.180 C 
ATOM     31  C   UNL     1      31.411  59.280   3.624  1.00  0.00     0.179 C 
ATOM     32  C   UNL     1      31.973  58.075   4.396  1.00  0.00     0.177 C 
BRANCH  28  33
ATOM     33  O   UNL     1      31.854  59.992   7.676  1.00  0.00    -0.384 OA
ATOM     34  H   UNL     1      32.045  59.273   8.335  1.00  0.00     0.211 HD
ENDBRANCH  28  33
BRANCH  30  35
ATOM     35  O   UNL     1      32.772  57.399   6.575  1.00  0.00    -0.387 OA
ATOM     36  H   UNL     1      32.606  57.638   7.524  1.00  0.00     0.211 HD
ENDBRANCH  30  35
BRANCH  31  37
ATOM     37  C   UNL     1      30.905  58.894   2.223  1.00  0.00     0.191 C 
BRANCH  37  38
ATOM     38  O   UNL     1      31.973  58.891   1.312  1.00  0.00    -0.394 OA
ATOM     39  H   UNL     1      31.723  58.278   0.569  1.00  0.00     0.210 HD
ENDBRANCH  37  38
ENDBRANCH  31  37
BRANCH  32  40
ATOM     40  O   UNL     1      31.037  57.021   4.438  1.00  0.00    -0.387 OA
ATOM     41  H   UNL     1      30.465  57.057   3.629  1.00  0.00     0.211 HD
ENDBRANCH  32  40
ENDBRANCH   1  27
TORSDOF 12
ENDMDL
MODEL 6
REMARK VINA RESULT:    -6.063      2.163      6.864
REMARK INTER + INTRA:         -10.736
REMARK INTER:                  -8.723
REMARK INTRA:                  -2.014
REMARK UNBOUND:                -1.838
REMARK SMILES O=c1c(O[C@H]2O[C@H](CO)[C@H](O)[C@H](O)[C@H]2O)c(-c2ccc(O)c(O)c2)oc2cc(O)cc(O)c12
REMARK SMILES IDX 4 1 3 2 16 3 25 4 2 5 26 6 1 7 33 8 27 9 31 10 28 11 30 12
REMARK SMILES IDX 17 13 18 14 19 15 20 16 24 17 22 18 21 19 23 21 32 23 29 25
REMARK SMILES IDX 5 27 14 28 6 29 12 30 7 31 10 32 15 33 13 35 8 37 9 38 11 40
REMARK H PARENT 21 20 23 22 32 24 29 26 15 34 13 36 9 39 11 41
REMARK Flexibility Score: inf
ROOT
ATOM      1  O   UNL     1      30.071  62.222   1.074  1.00  0.00    -0.454 OA
ENDROOT
BRANCH   1   2
ATOM      2  C   UNL     1      29.717  61.457  -0.050  1.00  0.00     0.214 A 
ATOM      3  C   UNL     1      29.783  60.059   0.052  1.00  0.00     0.180 A 
ATOM      4  O   UNL     1      29.424  59.297  -0.976  1.00  0.00    -0.452 OA
ATOM      5  C   UNL     1      29.241  62.024  -1.250  1.00  0.00     0.239 A 
ATOM      6  C   UNL     1      28.951  59.789  -2.114  1.00  0.00     0.146 A 
ATOM      7  O   UNL     1      29.257  63.271  -1.398  1.00  0.00    -0.285 OA
ATOM      8  C   UNL     1      28.782  61.179  -2.289  1.00  0.00     0.111 A 
ATOM      9  C   UNL     1      28.622  58.896  -3.145  1.00  0.00     0.094 A 
ATOM     10  C   UNL     1      28.167  61.647  -3.486  1.00  0.00     0.134 A 
ATOM     11  C   UNL     1      28.095  59.371  -4.348  1.00  0.00     0.123 A 
ATOM     12  C   UNL     1      27.874  60.738  -4.515  1.00  0.00     0.093 A 
BRANCH   3  13
ATOM     13  C   UNL     1      30.157  59.401   1.320  1.00  0.00     0.025 A 
ATOM     14  C   UNL     1      31.507  59.117   1.569  1.00  0.00     0.016 A 
ATOM     15  C   UNL     1      31.880  58.430   2.728  1.00  0.00     0.051 A 
ATOM     16  C   UNL     1      30.909  58.026   3.653  1.00  0.00     0.157 A 
ATOM     17  C   UNL     1      29.184  59.008   2.253  1.00  0.00     0.062 A 
ATOM     18  C   UNL     1      29.554  58.323   3.418  1.00  0.00     0.158 A 
BRANCH  16  19
ATOM     19  O   UNL     1      31.280  57.319   4.796  1.00  0.00    -0.504 OA
ATOM     20  H   UNL     1      31.319  57.762   5.708  1.00  0.00     0.293 HD
ENDBRANCH  16  19
BRANCH  18  21
ATOM     21  O   UNL     1      28.568  57.952   4.333  1.00  0.00    -0.504 OA
ATOM     22  H   UNL     1      27.956  58.632   4.763  1.00  0.00     0.293 HD
ENDBRANCH  18  21
ENDBRANCH   3  13
BRANCH  10  23
ATOM     23  O   UNL     1      27.782  62.976  -3.680  1.00  0.00    -0.507 OA
ATOM     24  H   UNL     1      27.061  63.415  -3.126  1.00  0.00     0.293 HD
ENDBRANCH  10  23
BRANCH  11  25
ATOM     25  O   UNL     1      27.768  58.489  -5.381  1.00  0.00    -0.508 OA
ATOM     26  H   UNL     1      27.378  58.819  -6.255  1.00  0.00     0.293 HD
ENDBRANCH  11  25
ENDBRANCH   1   2
BRANCH   1  27
ATOM     27  C   UNL     1      29.152  62.818   1.998  1.00  0.00     0.339 C 
ATOM     28  C   UNL     1      29.392  64.335   2.100  1.00  0.00     0.214 C 
ATOM     29  O   UNL     1      29.223  62.202   3.278  1.00  0.00    -0.332 OA
ATOM     30  C   UNL     1      30.735  64.631   2.820  1.00  0.00     0.180 C 
ATOM     31  C   UNL     1      30.523  62.325   3.833  1.00  0.00     0.179 C 
ATOM     32  C   UNL     1      30.856  63.797   4.126  1.00  0.00     0.177 C 
BRANCH  28  33
ATOM     33  O   UNL     1      29.346  64.903   0.818  1.00  0.00    -0.384 OA
ATOM     34  H   UNL     1      29.748  64.253   0.183  1.00  0.00     0.211 HD
ENDBRANCH  28  33
BRANCH  30  35
ATOM     35  O   UNL     1      30.833  66.001   3.134  1.00  0.00    -0.387 OA
ATOM     36  H   UNL     1      30.349  66.499   2.423  1.00  0.00     0.211 HD
ENDBRANCH  30  35
BRANCH  31  37
ATOM     37  C   UNL     1      30.616  61.442   5.089  1.00  0.00     0.191 C 
BRANCH  37  38
ATOM     38  O   UNL     1      29.380  61.420   5.754  1.00  0.00    -0.394 OA
ATOM     39  H   UNL     1      29.273  60.511   6.145  1.00  0.00     0.210 HD
ENDBRANCH  37  38
ENDBRANCH  31  37
BRANCH  32  40
ATOM     40  O   UNL     1      30.069  64.292   5.186  1.00  0.00    -0.387 OA
ATOM     41  H   UNL     1      30.058  63.629   5.924  1.00  0.00     0.211 HD
ENDBRANCH  32  40
ENDBRANCH   1  27
TORSDOF 12
ENDMDL
MODEL 7
REMARK VINA RESULT:    -6.059      2.181      6.400
REMARK INTER + INTRA:         -10.730
REMARK INTER:                  -9.229
REMARK INTRA:                  -1.501
REMARK UNBOUND:                -1.838
REMARK SMILES O=c1c(O[C@H]2O[C@H](CO)[C@H](O)[C@H](O)[C@H]2O)c(-c2ccc(O)c(O)c2)oc2cc(O)cc(O)c12
REMARK SMILES IDX 4 1 3 2 16 3 25 4 2 5 26 6 1 7 33 8 27 9 31 10 28 11 30 12
REMARK SMILES IDX 17 13 18 14 19 15 20 16 24 17 22 18 21 19 23 21 32 23 29 25
REMARK SMILES IDX 5 27 14 28 6 29 12 30 7 31 10 32 15 33 13 35 8 37 9 38 11 40
REMARK H PARENT 21 20 23 22 32 24 29 26 15 34 13 36 9 39 11 41
REMARK Flexibility Score: inf
ROOT
ATOM      1  O   UNL     1      29.896  61.985   1.851  1.00  0.00    -0.454 OA
ENDROOT
BRANCH   1   2
ATOM      2  C   UNL     1      29.666  61.265   0.667  1.00  0.00     0.214 A 
ATOM      3  C   UNL     1      29.889  59.880   0.678  1.00  0.00     0.180 A 
ATOM      4  O   UNL     1      29.650  59.156  -0.410  1.00  0.00    -0.452 OA
ATOM      5  C   UNL     1      29.164  61.857  -0.510  1.00  0.00     0.239 A 
ATOM      6  C   UNL     1      29.158  59.670  -1.530  1.00  0.00     0.146 A 
ATOM      7  O   UNL     1      29.040  63.106  -0.575  1.00  0.00    -0.285 OA
ATOM      8  C   UNL     1      28.836  61.041  -1.619  1.00  0.00     0.111 A 
ATOM      9  C   UNL     1      28.964  58.821  -2.630  1.00  0.00     0.094 A 
ATOM     10  C   UNL     1      28.207  61.520  -2.805  1.00  0.00     0.134 A 
ATOM     11  C   UNL     1      28.422  59.316  -3.817  1.00  0.00     0.123 A 
ATOM     12  C   UNL     1      28.051  60.658  -3.902  1.00  0.00     0.093 A 
BRANCH   3  13
ATOM     13  C   UNL     1      30.298  59.182   1.914  1.00  0.00     0.025 A 
ATOM     14  C   UNL     1      31.656  58.904   2.123  1.00  0.00     0.016 A 
ATOM     15  C   UNL     1      32.062  58.181   3.248  1.00  0.00     0.051 A 
ATOM     16  C   UNL     1      31.116  57.733   4.179  1.00  0.00     0.157 A 
ATOM     17  C   UNL     1      29.350  58.744   2.853  1.00  0.00     0.062 A 
ATOM     18  C   UNL     1      29.753  58.022   3.984  1.00  0.00     0.158 A 
BRANCH  16  19
ATOM     19  O   UNL     1      31.520  56.990   5.287  1.00  0.00    -0.504 OA
ATOM     20  H   UNL     1      31.002  56.176   5.602  1.00  0.00     0.293 HD
ENDBRANCH  16  19
BRANCH  18  21
ATOM     21  O   UNL     1      28.792  57.606   4.905  1.00  0.00    -0.504 OA
ATOM     22  H   UNL     1      28.702  58.039   5.815  1.00  0.00     0.293 HD
ENDBRANCH  18  21
ENDBRANCH   3  13
BRANCH  10  23
ATOM     23  O   UNL     1      27.678  62.807  -2.925  1.00  0.00    -0.507 OA
ATOM     24  H   UNL     1      26.910  63.019  -3.545  1.00  0.00     0.293 HD
ENDBRANCH  10  23
BRANCH  11  25
ATOM     25  O   UNL     1      28.230  58.477  -4.918  1.00  0.00    -0.508 OA
ATOM     26  H   UNL     1      27.401  57.901  -5.005  1.00  0.00     0.293 HD
ENDBRANCH  11  25
ENDBRANCH   1   2
BRANCH   1  27
ATOM     27  C   UNL     1      31.153  62.540   2.257  1.00  0.00     0.339 C 
ATOM     28  C   UNL     1      31.203  62.711   3.786  1.00  0.00     0.214 C 
ATOM     29  O   UNL     1      31.420  63.771   1.596  1.00  0.00    -0.332 OA
ATOM     30  C   UNL     1      30.244  63.843   4.243  1.00  0.00     0.180 C 
ATOM     31  C   UNL     1      30.418  64.733   1.884  1.00  0.00     0.179 C 
ATOM     32  C   UNL     1      30.439  65.115   3.373  1.00  0.00     0.177 C 
BRANCH  28  33
ATOM     33  O   UNL     1      30.904  61.487   4.404  1.00  0.00    -0.384 OA
ATOM     34  H   UNL     1      31.543  61.361   5.154  1.00  0.00     0.211 HD
ENDBRANCH  28  33
BRANCH  30  35
ATOM     35  O   UNL     1      30.473  64.165   5.595  1.00  0.00    -0.387 OA
ATOM     36  H   UNL     1      29.936  63.534   6.142  1.00  0.00     0.211 HD
ENDBRANCH  30  35
BRANCH  31  37
ATOM     37  C   UNL     1      30.614  65.950   0.964  1.00  0.00     0.191 C 
BRANCH  37  38
ATOM     38  O   UNL     1      29.815  67.017   1.403  1.00  0.00    -0.394 OA
ATOM     39  H   UNL     1      29.972  67.118   2.381  1.00  0.00     0.210 HD
ENDBRANCH  37  38
ENDBRANCH  31  37
BRANCH  32  40
ATOM     40  O   UNL     1      31.604  65.844   3.691  1.00  0.00    -0.387 OA
ATOM     41  H   UNL     1      31.518  66.218   4.605  1.00  0.00     0.211 HD
ENDBRANCH  32  40
ENDBRANCH   1  27
TORSDOF 12
ENDMDL
MODEL 8
REMARK VINA RESULT:    -6.027      2.034      5.639
REMARK INTER + INTRA:         -10.683
REMARK INTER:                  -9.402
REMARK INTRA:                  -1.281
REMARK UNBOUND:                -1.838
REMARK SMILES O=c1c(O[C@H]2O[C@H](CO)[C@H](O)[C@H](O)[C@H]2O)c(-c2ccc(O)c(O)c2)oc2cc(O)cc(O)c12
REMARK SMILES IDX 4 1 3 2 16 3 25 4 2 5 26 6 1 7 33 8 27 9 31 10 28 11 30 12
REMARK SMILES IDX 17 13 18 14 19 15 20 16 24 17 22 18 21 19 23 21 32 23 29 25
REMARK SMILES IDX 5 27 14 28 6 29 12 30 7 31 10 32 15 33 13 35 8 37 9 38 11 40
REMARK H PARENT 21 20 23 22 32 24 29 26 15 34 13 36 9 39 11 41
REMARK Flexibility Score: inf
ROOT
ATOM      1  O   UNL     1      28.865  61.907   3.015  1.00  0.00    -0.454 OA
ENDROOT
BRANCH   1   2
ATOM      2  C   UNL     1      29.606  62.725   3.883  1.00  0.00     0.214 A 
ATOM      3  C   UNL     1      30.516  62.112   4.758  1.00  0.00     0.180 A 
ATOM      4  O   UNL     1      31.262  62.851   5.571  1.00  0.00    -0.452 OA
ATOM      5  C   UNL     1      29.524  64.133   3.875  1.00  0.00     0.239 A 
ATOM      6  C   UNL     1      31.232  64.177   5.581  1.00  0.00     0.146 A 
ATOM      7  O   UNL     1      28.656  64.702   3.168  1.00  0.00    -0.285 OA
ATOM      8  C   UNL     1      30.400  64.889   4.691  1.00  0.00     0.111 A 
ATOM      9  C   UNL     1      32.045  64.861   6.497  1.00  0.00     0.094 A 
ATOM     10  C   UNL     1      30.487  66.311   4.664  1.00  0.00     0.134 A 
ATOM     11  C   UNL     1      32.063  66.257   6.519  1.00  0.00     0.123 A 
ATOM     12  C   UNL     1      31.285  66.974   5.610  1.00  0.00     0.093 A 
BRANCH   3  13
ATOM     13  C   UNL     1      30.737  60.651   4.730  1.00  0.00     0.025 A 
ATOM     14  C   UNL     1      31.931  60.151   4.193  1.00  0.00     0.016 A 
ATOM     15  C   UNL     1      32.133  58.773   4.089  1.00  0.00     0.051 A 
ATOM     16  C   UNL     1      31.147  57.878   4.527  1.00  0.00     0.157 A 
ATOM     17  C   UNL     1      29.753  59.756   5.182  1.00  0.00     0.062 A 
ATOM     18  C   UNL     1      29.954  58.373   5.084  1.00  0.00     0.158 A 
BRANCH  16  19
ATOM     19  O   UNL     1      31.341  56.504   4.399  1.00  0.00    -0.504 OA
ATOM     20  H   UNL     1      30.898  55.842   5.028  1.00  0.00     0.293 HD
ENDBRANCH  16  19
BRANCH  18  21
ATOM     21  O   UNL     1      28.965  57.506   5.548  1.00  0.00    -0.504 OA
ATOM     22  H   UNL     1      28.865  57.287   6.530  1.00  0.00     0.293 HD
ENDBRANCH  18  21
ENDBRANCH   3  13
BRANCH  10  23
ATOM     23  O   UNL     1      29.853  67.100   3.700  1.00  0.00    -0.507 OA
ATOM     24  H   UNL     1      29.178  66.721   3.052  1.00  0.00     0.293 HD
ENDBRANCH  10  23
BRANCH  11  25
ATOM     25  O   UNL     1      32.868  66.945   7.431  1.00  0.00    -0.508 OA
ATOM     26  H   UNL     1      33.738  67.378   7.147  1.00  0.00     0.293 HD
ENDBRANCH  11  25
ENDBRANCH   1   2
BRANCH   1  27
ATOM     27  C   UNL     1      28.791  62.057   1.591  1.00  0.00     0.339 C 
ATOM     28  C   UNL     1      27.390  61.679   1.079  1.00  0.00     0.214 C 
ATOM     29  O   UNL     1      29.798  61.299   0.932  1.00  0.00    -0.332 OA
ATOM     30  C   UNL     1      27.152  60.151   1.206  1.00  0.00     0.180 C 
ATOM     31  C   UNL     1      29.668  59.917   1.221  1.00  0.00     0.179 C 
ATOM     32  C   UNL     1      28.360  59.356   0.638  1.00  0.00     0.177 C 
BRANCH  28  33
ATOM     33  O   UNL     1      26.422  62.422   1.772  1.00  0.00    -0.384 OA
ATOM     34  H   UNL     1      25.727  61.790   2.096  1.00  0.00     0.211 HD
ENDBRANCH  28  33
BRANCH  30  35
ATOM     35  O   UNL     1      25.984  59.775   0.513  1.00  0.00    -0.387 OA
ATOM     36  H   UNL     1      25.213  60.141   1.021  1.00  0.00     0.211 HD
ENDBRANCH  30  35
BRANCH  31  37
ATOM     37  C   UNL     1      30.910  59.177   0.693  1.00  0.00     0.191 C 
BRANCH  37  38
ATOM     38  O   UNL     1      32.011  60.047   0.666  1.00  0.00    -0.394 OA
ATOM     39  H   UNL     1      32.599  59.799   1.430  1.00  0.00     0.210 HD
ENDBRANCH  37  38
ENDBRANCH  31  37
BRANCH  32  40
ATOM     40  O   UNL     1      28.406  59.327  -0.771  1.00  0.00    -0.387 OA
ATOM     41  H   UNL     1      28.040  58.464  -1.094  1.00  0.00     0.211 HD
ENDBRANCH  32  40
ENDBRANCH   1  27
TORSDOF 12
ENDMDL
MODEL 9
REMARK VINA RESULT:    -5.947      2.064      6.237
REMARK INTER + INTRA:         -10.566
REMARK INTER:                  -9.024
REMARK INTRA:                  -1.541
REMARK UNBOUND:                -1.838
REMARK SMILES O=c1c(O[C@H]2O[C@H](CO)[C@H](O)[C@H](O)[C@H]2O)c(-c2ccc(O)c(O)c2)oc2cc(O)cc(O)c12
REMARK SMILES IDX 4 1 3 2 16 3 25 4 2 5 26 6 1 7 33 8 27 9 31 10 28 11 30 12
REMARK SMILES IDX 17 13 18 14 19 15 20 16 24 17 22 18 21 19 23 21 32 23 29 25
REMARK SMILES IDX 5 27 14 28 6 29 12 30 7 31 10 32 15 33 13 35 8 37 9 38 11 40
REMARK H PARENT 21 20 23 22 32 24 29 26 15 34 13 36 9 39 11 41
REMARK Flexibility Score: inf
ROOT
ATOM      1  O   UNL     1      29.393  61.362   3.049  1.00  0.00    -0.454 OA
ENDROOT
BRANCH   1   2
ATOM      2  C   UNL     1      29.899  62.421   3.822  1.00  0.00     0.214 A 
ATOM      3  C   UNL     1      30.698  62.110   4.932  1.00  0.00     0.180 A 
ATOM      4  O   UNL     1      31.226  63.081   5.668  1.00  0.00    -0.452 OA
ATOM      5  C   UNL     1      29.693  63.779   3.499  1.00  0.00     0.239 A 
ATOM      6  C   UNL     1      31.074  64.369   5.388  1.00  0.00     0.146 A 
ATOM      7  O   UNL     1      28.909  64.085   2.566  1.00  0.00    -0.285 OA
ATOM      8  C   UNL     1      30.345  64.783   4.253  1.00  0.00     0.111 A 
ATOM      9  C   UNL     1      31.655  65.316   6.245  1.00  0.00     0.094 A 
ATOM     10  C   UNL     1      30.307  66.172   3.935  1.00  0.00     0.134 A 
ATOM     11  C   UNL     1      31.544  66.680   5.970  1.00  0.00     0.123 A 
ATOM     12  C   UNL     1      30.870  67.101   4.824  1.00  0.00     0.093 A 
BRANCH   3  13
ATOM     13  C   UNL     1      31.051  60.712   5.251  1.00  0.00     0.025 A 
ATOM     14  C   UNL     1      32.136  60.114   4.595  1.00  0.00     0.016 A 
ATOM     15  C   UNL     1      32.445  58.771   4.826  1.00  0.00     0.051 A 
ATOM     16  C   UNL     1      31.678  58.012   5.720  1.00  0.00     0.157 A 
ATOM     17  C   UNL     1      30.289  59.956   6.158  1.00  0.00     0.062 A 
ATOM     18  C   UNL     1      30.599  58.610   6.395  1.00  0.00     0.158 A 
BRANCH  16  19
ATOM     19  O   UNL     1      31.973  56.666   5.930  1.00  0.00    -0.504 OA
ATOM     20  H   UNL     1      31.477  56.112   6.619  1.00  0.00     0.293 HD
ENDBRANCH  16  19
BRANCH  18  21
ATOM     21  O   UNL     1      29.831  57.885   7.307  1.00  0.00    -0.504 OA
ATOM     22  H   UNL     1      30.183  57.635   8.221  1.00  0.00     0.293 HD
ENDBRANCH  18  21
ENDBRANCH   3  13
BRANCH  10  23
ATOM     23  O   UNL     1      29.778  66.670   2.741  1.00  0.00    -0.507 OA
ATOM     24  H   UNL     1      29.428  66.066   2.012  1.00  0.00     0.293 HD
ENDBRANCH  10  23
BRANCH  11  25
ATOM     25  O   UNL     1      32.116  67.628   6.821  1.00  0.00    -0.508 OA
ATOM     26  H   UNL     1      31.627  68.480   7.069  1.00  0.00     0.293 HD
ENDBRANCH  11  25
ENDBRANCH   1   2
BRANCH   1  27
ATOM     27  C   UNL     1      28.213  60.605   3.346  1.00  0.00     0.339 C 
ATOM     28  C   UNL     1      28.253  59.239   2.639  1.00  0.00     0.214 C 
ATOM     29  O   UNL     1      27.032  61.322   3.008  1.00  0.00    -0.332 OA
ATOM     30  C   UNL     1      28.090  59.409   1.105  1.00  0.00     0.180 C 
ATOM     31  C   UNL     1      27.001  61.630   1.624  1.00  0.00     0.179 C 
ATOM     32  C   UNL     1      26.896  60.349   0.779  1.00  0.00     0.177 C 
BRANCH  28  33
ATOM     33  O   UNL     1      29.444  58.575   2.971  1.00  0.00    -0.384 OA
ATOM     34  H   UNL     1      29.308  57.605   2.806  1.00  0.00     0.211 HD
ENDBRANCH  28  33
BRANCH  30  35
ATOM     35  O   UNL     1      27.876  58.159   0.491  1.00  0.00    -0.387 OA
ATOM     36  H   UNL     1      27.658  58.335  -0.462  1.00  0.00     0.211 HD
ENDBRANCH  30  35
BRANCH  31  37
ATOM     37  C   UNL     1      25.842  62.606   1.355  1.00  0.00     0.191 C 
BRANCH  37  38
ATOM     38  O   UNL     1      26.008  63.771   2.121  1.00  0.00    -0.394 OA
ATOM     39  H   UNL     1      26.486  64.431   1.550  1.00  0.00     0.210 HD
ENDBRANCH  37  38
ENDBRANCH  31  37
BRANCH  32  40
ATOM     40  O   UNL     1      25.636  59.739   0.941  1.00  0.00    -0.387 OA
ATOM     41  H   UNL     1      25.170  60.147   1.717  1.00  0.00     0.211 HD
ENDBRANCH  32  40
ENDBRANCH   1  27
TORSDOF 12
ENDMDL
