MODEL 1
REMARK VINA RESULT:    -3.239      0.000      0.000
REMARK INTER + INTRA:          -3.639
REMARK INTER:                  -3.617
REMARK INTRA:                  -0.022
REMARK UNBOUND:                -0.022
REMARK SMILES CC(C)CC=O
REMARK SMILES IDX 4 1 2 2 1 3 3 4 5 5 6 6
REMARK H PARENT
REMARK Flexibility Score: inf
ROOT
ATOM      1  C   UNL     1      24.045  56.680  -9.049  1.00  0.00     0.075 C 
ENDROOT
BRANCH   1   2
ATOM      2  C   UNL     1      24.046  55.155  -8.814  1.00  0.00    -0.010 C 
ATOM      3  C   UNL     1      22.800  54.743  -8.018  1.00  0.00     0.008 C 
ATOM      4  C   UNL     1      25.313  54.701  -8.076  1.00  0.00     0.008 C 
ENDBRANCH   1   2
BRANCH   1   5
ATOM      5  C   UNL     1      25.415  57.201  -9.375  1.00  0.00     0.224 C 
ATOM      6  O   UNL     1      25.581  58.380  -9.646  1.00  0.00    -0.303 OA
ENDBRANCH   1   5
TORSDOF 2
ENDMDL
MODEL 2
REMARK VINA RESULT:    -3.156     11.886     12.911
REMARK INTER + INTRA:          -3.546
REMARK INTER:                  -3.515
REMARK INTRA:                  -0.031
REMARK UNBOUND:                -0.022
REMARK SMILES CC(C)CC=O
REMARK SMILES IDX 4 1 2 2 1 3 3 4 5 5 6 6
REMARK H PARENT
REMARK Flexibility Score: inf
ROOT
ATOM      1  C   UNL     1      27.057  46.649  -1.408  1.00  0.00     0.075 C 
ENDROOT
BRANCH   1   2
ATOM      2  C   UNL     1      25.530  46.863  -1.475  1.00  0.00    -0.010 C 
ATOM      3  C   UNL     1      24.797  45.584  -1.049  1.00  0.00     0.008 C 
ATOM      4  C   UNL     1      25.083  47.280  -2.883  1.00  0.00     0.008 C 
ENDBRANCH   1   2
BRANCH   1   5
ATOM      5  C   UNL     1      27.415  45.330  -0.788  1.00  0.00     0.224 C 
ATOM      6  O   UNL     1      28.563  45.100  -0.441  1.00  0.00    -0.303 OA
ENDBRANCH   1   5
TORSDOF 2
ENDMDL
MODEL 3
REMARK VINA RESULT:    -3.112      2.383      3.286
REMARK INTER + INTRA:          -3.497
REMARK INTER:                  -3.534
REMARK INTRA:                   0.037
REMARK UNBOUND:                -0.022
REMARK SMILES CC(C)CC=O
REMARK SMILES IDX 4 1 2 2 1 3 3 4 5 5 6 6
REMARK H PARENT
REMARK Flexibility Score: inf
ROOT
ATOM      1  C   UNL     1      23.250  55.794  -8.799  1.00  0.00     0.075 C 
ENDROOT
BRANCH   1   2
ATOM      2  C   UNL     1      24.749  55.791  -9.165  1.00  0.00    -0.010 C 
ATOM      3  C   UNL     1      25.546  54.997  -8.121  1.00  0.00     0.008 C 
ATOM      4  C   UNL     1      25.303  57.219  -9.273  1.00  0.00     0.008 C 
ENDBRANCH   1   2
BRANCH   1   5
ATOM      5  C   UNL     1      22.839  54.536  -8.092  1.00  0.00     0.224 C 
ATOM      6  O   UNL     1      22.482  54.569  -6.925  1.00  0.00    -0.303 OA
ENDBRANCH   1   5
TORSDOF 2
ENDMDL
MODEL 4
REMARK VINA RESULT:    -3.103     16.676     17.274
REMARK INTER + INTRA:          -3.487
REMARK INTER:                  -3.420
REMARK INTRA:                  -0.067
REMARK UNBOUND:                -0.022
REMARK SMILES CC(C)CC=O
REMARK SMILES IDX 4 1 2 2 1 3 3 4 5 5 6 6
REMARK H PARENT
REMARK Flexibility Score: inf
ROOT
ATOM      1  C   UNL     1      14.451  42.417 -15.021  1.00  0.00     0.075 C 
ENDROOT
BRANCH   1   2
ATOM      2  C   UNL     1      13.918  42.880 -13.648  1.00  0.00    -0.010 C 
ATOM      3  C   UNL     1      13.876  44.413 -13.587  1.00  0.00     0.008 C 
ATOM      4  C   UNL     1      14.777  42.333 -12.499  1.00  0.00     0.008 C 
ENDBRANCH   1   2
BRANCH   1   5
ATOM      5  C   UNL     1      15.606  43.252 -15.489  1.00  0.00     0.224 C 
ATOM      6  O   UNL     1      16.747  42.821 -15.429  1.00  0.00    -0.303 OA
ENDBRANCH   1   5
TORSDOF 2
ENDMDL
MODEL 5
REMARK VINA RESULT:    -3.033     16.936     17.590
REMARK INTER + INTRA:          -3.409
REMARK INTER:                  -3.356
REMARK INTRA:                  -0.053
REMARK UNBOUND:                -0.022
REMARK SMILES CC(C)CC=O
REMARK SMILES IDX 4 1 2 2 1 3 3 4 5 5 6 6
REMARK H PARENT
REMARK Flexibility Score: inf
ROOT
ATOM      1  C   UNL     1      14.524  41.758 -14.058  1.00  0.00     0.075 C 
ENDROOT
BRANCH   1   2
ATOM      2  C   UNL     1      14.521  43.054 -14.895  1.00  0.00    -0.010 C 
ATOM      3  C   UNL     1      15.904  43.283 -15.520  1.00  0.00     0.008 C 
ATOM      4  C   UNL     1      14.120  44.269 -14.047  1.00  0.00     0.008 C 
ENDBRANCH   1   2
BRANCH   1   5
ATOM      5  C   UNL     1      15.306  41.910 -12.786  1.00  0.00     0.224 C 
ATOM      6  O   UNL     1      16.255  41.179 -12.551  1.00  0.00    -0.303 OA
ENDBRANCH   1   5
TORSDOF 2
ENDMDL
MODEL 6
REMARK VINA RESULT:    -2.958     11.351     12.375
REMARK INTER + INTRA:          -3.325
REMARK INTER:                  -3.301
REMARK INTRA:                  -0.024
REMARK UNBOUND:                -0.022
REMARK SMILES CC(C)CC=O
REMARK SMILES IDX 4 1 2 2 1 3 3 4 5 5 6 6
REMARK H PARENT
REMARK Flexibility Score: inf
ROOT
ATOM      1  C   UNL     1      25.184  46.207  -1.055  1.00  0.00     0.075 C 
ENDROOT
BRANCH   1   2
ATOM      2  C   UNL     1      26.706  46.406  -0.889  1.00  0.00    -0.010 C 
ATOM      3  C   UNL     1      27.280  47.136  -2.111  1.00  0.00     0.008 C 
ATOM      4  C   UNL     1      27.429  45.066  -0.692  1.00  0.00     0.008 C 
ENDBRANCH   1   2
BRANCH   1   5
ATOM      5  C   UNL     1      24.556  47.304  -1.863  1.00  0.00     0.224 C 
ATOM      6  O   UNL     1      23.878  47.041  -2.843  1.00  0.00    -0.303 OA
ENDBRANCH   1   5
TORSDOF 2
ENDMDL
MODEL 7
REMARK VINA RESULT:    -2.763      8.223      9.257
REMARK INTER + INTRA:          -3.108
REMARK INTER:                  -3.051
REMARK INTRA:                  -0.057
REMARK UNBOUND:                -0.022
REMARK SMILES CC(C)CC=O
REMARK SMILES IDX 4 1 2 2 1 3 3 4 5 5 6 6
REMARK H PARENT
REMARK Flexibility Score: inf
ROOT
ATOM      1  C   UNL     1      32.597  57.338 -14.205  1.00  0.00     0.075 C 
ENDROOT
BRANCH   1   2
ATOM      2  C   UNL     1      31.395  56.864 -13.361  1.00  0.00    -0.010 C 
ATOM      3  C   UNL     1      30.607  55.788 -14.120  1.00  0.00     0.008 C 
ATOM      4  C   UNL     1      30.468  58.033 -12.997  1.00  0.00     0.008 C 
ENDBRANCH   1   2
BRANCH   1   5
ATOM      5  C   UNL     1      33.892  56.759 -13.716  1.00  0.00     0.224 C 
ATOM      6  O   UNL     1      33.922  56.069 -12.710  1.00  0.00    -0.303 OA
ENDBRANCH   1   5
TORSDOF 2
ENDMDL
MODEL 8
REMARK VINA RESULT:    -2.714      8.559      9.959
REMARK INTER + INTRA:          -3.053
REMARK INTER:                  -3.015
REMARK INTRA:                  -0.038
REMARK UNBOUND:                -0.022
REMARK SMILES CC(C)CC=O
REMARK SMILES IDX 4 1 2 2 1 3 3 4 5 5 6 6
REMARK H PARENT
REMARK Flexibility Score: inf
ROOT
ATOM      1  C   UNL     1      31.876  57.705 -13.865  1.00  0.00     0.075 C 
ENDROOT
BRANCH   1   2
ATOM      2  C   UNL     1      33.390  57.686 -14.164  1.00  0.00    -0.010 C 
ATOM      3  C   UNL     1      34.024  56.405 -13.606  1.00  0.00     0.008 C 
ATOM      4  C   UNL     1      34.094  58.918 -13.575  1.00  0.00     0.008 C 
ENDBRANCH   1   2
BRANCH   1   5
ATOM      5  C   UNL     1      31.368  56.357 -13.444  1.00  0.00     0.224 C 
ATOM      6  O   UNL     1      30.438  55.833 -14.036  1.00  0.00    -0.303 OA
ENDBRANCH   1   5
TORSDOF 2
ENDMDL
MODEL 9
REMARK VINA RESULT:    -2.684     15.941     17.359
REMARK INTER + INTRA:          -3.020
REMARK INTER:                  -2.985
REMARK INTRA:                  -0.035
REMARK UNBOUND:                -0.022
REMARK SMILES CC(C)CC=O
REMARK SMILES IDX 4 1 2 2 1 3 3 4 5 5 6 6
REMARK H PARENT
REMARK Flexibility Score: inf
ROOT
ATOM      1  C   UNL     1      17.251  43.740   1.201  1.00  0.00     0.075 C 
ENDROOT
BRANCH   1   2
ATOM      2  C   UNL     1      16.321  44.295   0.102  1.00  0.00    -0.010 C 
ATOM      3  C   UNL     1      17.073  45.319  -0.759  1.00  0.00     0.008 C 
ATOM      4  C   UNL     1      15.063  44.938   0.703  1.00  0.00     0.008 C 
ENDBRANCH   1   2
BRANCH   1   5
ATOM      5  C   UNL     1      17.813  42.396   0.840  1.00  0.00     0.224 C 
ATOM      6  O   UNL     1      18.739  42.304   0.050  1.00  0.00    -0.303 OA
ENDBRANCH   1   5
TORSDOF 2
ENDMDL
