MODEL 1
REMARK VINA RESULT:    -5.592      0.000      0.000
REMARK INTER + INTRA:          -6.082
REMARK INTER:                  -6.082
REMARK INTRA:                   0.000
REMARK UNBOUND:                 0.000
REMARK SMILES Cc1cc(O)c2c(c1)C(=O)c1cc(O)cc(O)c1C2=O
REMARK SMILES IDX 1 1 2 2 8 3 7 4 6 5 4 6 3 7 19 8 20 9 18 10 11 11 9 12 10 13
REMARK SMILES IDX 12 14 13 15 15 16 16 17 5 18 17 20 14 22
REMARK H PARENT 5 19 17 21 14 23
REMARK Flexibility Score: inf
ROOT
ATOM      1  C   UNL     1      19.592  -5.306 -36.054  1.00  0.00     0.044 C 
ATOM      2  C   UNL     1      18.930  -5.928 -34.860  1.00  0.00    -0.047 A 
ATOM      3  C   UNL     1      17.558  -6.203 -34.880  1.00  0.00     0.016 A 
ATOM      4  C   UNL     1      16.920  -6.745 -33.752  1.00  0.00     0.038 A 
ATOM      5  C   UNL     1      17.661  -6.991 -32.575  1.00  0.00     0.076 A 
ATOM      6  C   UNL     1      19.060  -6.754 -32.575  1.00  0.00     0.127 A 
ATOM      7  C   UNL     1      19.669  -6.195 -33.704  1.00  0.00     0.050 A 
ATOM      8  C   UNL     1      16.924  -7.424 -31.359  1.00  0.00     0.201 C 
ATOM      9  O   UNL     1      17.360  -7.117 -30.218  1.00  0.00    -0.288 OA
ATOM     10  C   UNL     1      15.583  -8.051 -31.493  1.00  0.00     0.076 A 
ATOM     11  C   UNL     1      14.845  -7.802 -32.672  1.00  0.00     0.041 A 
ATOM     12  C   UNL     1      15.472  -7.063 -33.793  1.00  0.00     0.194 C 
ATOM     13  O   UNL     1      14.780  -6.727 -34.793  1.00  0.00    -0.289 OA
ATOM     14  C   UNL     1      13.521  -8.261 -32.778  1.00  0.00     0.059 A 
ATOM     15  C   UNL     1      12.932  -8.975 -31.735  1.00  0.00     0.120 A 
ATOM     16  C   UNL     1      13.671  -9.258 -30.583  1.00  0.00     0.093 A 
ATOM     17  C   UNL     1      14.997  -8.830 -30.461  1.00  0.00     0.131 A 
ENDROOT
BRANCH   6  18
ATOM     18  O   UNL     1      19.883  -7.084 -31.497  1.00  0.00    -0.507 OA
ATOM     19  H   UNL     1      20.873  -6.883 -31.467  1.00  0.00     0.293 HD
ENDBRANCH   6  18
BRANCH  17  20
ATOM     20  O   UNL     1      15.701  -9.229 -29.323  1.00  0.00    -0.507 OA
ATOM     21  H   UNL     1      16.024  -8.586 -28.613  1.00  0.00     0.293 HD
ENDBRANCH  17  20
BRANCH  15  22
ATOM     22  O   UNL     1      11.614  -9.408 -31.857  1.00  0.00    -0.508 OA
ATOM     23  H   UNL     1      11.064  -9.208 -32.685  1.00  0.00     0.293 HD
ENDBRANCH  15  22
TORSDOF 3
ENDMDL
MODEL 2
REMARK VINA RESULT:    -5.514      3.204      3.821
REMARK INTER + INTRA:          -5.997
REMARK INTER:                  -5.997
REMARK INTRA:                   0.000
REMARK UNBOUND:                 0.000
REMARK SMILES Cc1cc(O)c2c(c1)C(=O)c1cc(O)cc(O)c1C2=O
REMARK SMILES IDX 1 1 2 2 8 3 7 4 6 5 4 6 3 7 19 8 20 9 18 10 11 11 9 12 10 13
REMARK SMILES IDX 12 14 13 15 15 16 16 17 5 18 17 20 14 22
REMARK H PARENT 5 19 17 21 14 23
REMARK Flexibility Score: inf
ROOT
ATOM      1  C   UNL     1      20.003  -7.657 -32.837  1.00  0.00     0.044 C 
ATOM      2  C   UNL     1      19.079  -6.898 -31.931  1.00  0.00    -0.047 A 
ATOM      3  C   UNL     1      17.763  -7.334 -31.743  1.00  0.00     0.016 A 
ATOM      4  C   UNL     1      16.876  -6.607 -30.931  1.00  0.00     0.038 A 
ATOM      5  C   UNL     1      17.305  -5.408 -30.319  1.00  0.00     0.076 A 
ATOM      6  C   UNL     1      18.653  -4.995 -30.477  1.00  0.00     0.127 A 
ATOM      7  C   UNL     1      19.511  -5.725 -31.305  1.00  0.00     0.050 A 
ATOM      8  C   UNL     1      16.298  -4.592 -29.592  1.00  0.00     0.201 C 
ATOM      9  O   UNL     1      16.427  -3.340 -29.535  1.00  0.00    -0.288 OA
ATOM     10  C   UNL     1      15.050  -5.229 -29.098  1.00  0.00     0.076 A 
ATOM     11  C   UNL     1      14.624  -6.428 -29.713  1.00  0.00     0.041 A 
ATOM     12  C   UNL     1      15.493  -7.094 -30.711  1.00  0.00     0.194 C 
ATOM     13  O   UNL     1      15.066  -8.092 -31.355  1.00  0.00    -0.289 OA
ATOM     14  C   UNL     1      13.381  -6.986 -29.371  1.00  0.00     0.059 A 
ATOM     15  C   UNL     1      12.567  -6.375 -28.417  1.00  0.00     0.120 A 
ATOM     16  C   UNL     1      13.002  -5.211 -27.777  1.00  0.00     0.093 A 
ATOM     17  C   UNL     1      14.243  -4.647 -28.085  1.00  0.00     0.131 A 
ENDROOT
BRANCH   6  18
ATOM     18  O   UNL     1      19.188  -3.891 -29.808  1.00  0.00    -0.507 OA
ATOM     19  H   UNL     1      20.180  -3.733 -29.694  1.00  0.00     0.293 HD
ENDBRANCH   6  18
BRANCH  17  20
ATOM     20  O   UNL     1      14.650  -3.537 -27.341  1.00  0.00    -0.507 OA
ATOM     21  H   UNL     1      15.391  -3.566 -26.654  1.00  0.00     0.293 HD
ENDBRANCH  17  20
BRANCH  15  22
ATOM     22  O   UNL     1      11.332  -6.939 -28.103  1.00  0.00    -0.508 OA
ATOM     23  H   UNL     1      11.171  -7.937 -28.178  1.00  0.00     0.293 HD
ENDBRANCH  15  22
TORSDOF 3
ENDMDL
MODEL 3
REMARK VINA RESULT:    -5.478      1.280      6.268
REMARK INTER + INTRA:          -5.958
REMARK INTER:                  -5.958
REMARK INTRA:                   0.000
REMARK UNBOUND:                 0.000
REMARK SMILES Cc1cc(O)c2c(c1)C(=O)c1cc(O)cc(O)c1C2=O
REMARK SMILES IDX 1 1 2 2 8 3 7 4 6 5 4 6 3 7 19 8 20 9 18 10 11 11 9 12 10 13
REMARK SMILES IDX 12 14 13 15 15 16 16 17 5 18 17 20 14 22
REMARK H PARENT 5 19 17 21 14 23
REMARK Flexibility Score: inf
ROOT
ATOM      1  C   UNL     1      14.029  -9.559 -28.511  1.00  0.00     0.044 C 
ATOM      2  C   UNL     1      14.467  -9.054 -29.855  1.00  0.00    -0.047 A 
ATOM      3  C   UNL     1      15.696  -8.401 -29.995  1.00  0.00     0.016 A 
ATOM      4  C   UNL     1      16.095  -7.886 -31.240  1.00  0.00     0.038 A 
ATOM      5  C   UNL     1      15.238  -8.001 -32.357  1.00  0.00     0.076 A 
ATOM      6  C   UNL     1      14.013  -8.704 -32.219  1.00  0.00     0.127 A 
ATOM      7  C   UNL     1      13.629  -9.191 -30.966  1.00  0.00     0.050 A 
ATOM      8  C   UNL     1      15.629  -7.316 -33.616  1.00  0.00     0.201 C 
ATOM      9  O   UNL     1      14.741  -6.892 -34.402  1.00  0.00    -0.288 OA
ATOM     10  C   UNL     1      17.054  -6.964 -33.853  1.00  0.00     0.076 A 
ATOM     11  C   UNL     1      17.908  -6.849 -32.732  1.00  0.00     0.041 A 
ATOM     12  C   UNL     1      17.414  -7.224 -31.387  1.00  0.00     0.194 C 
ATOM     13  O   UNL     1      18.126  -7.004 -30.368  1.00  0.00    -0.289 OA
ATOM     14  C   UNL     1      19.223  -6.385 -32.901  1.00  0.00     0.059 A 
ATOM     15  C   UNL     1      19.701  -6.050 -34.168  1.00  0.00     0.120 A 
ATOM     16  C   UNL     1      18.873  -6.200 -35.283  1.00  0.00     0.093 A 
ATOM     17  C   UNL     1      17.566  -6.679 -35.145  1.00  0.00     0.131 A 
ENDROOT
BRANCH   6  18
ATOM     18  O   UNL     1      13.168  -8.968 -33.299  1.00  0.00    -0.507 OA
ATOM     19  H   UNL     1      12.866  -8.264 -33.958  1.00  0.00     0.293 HD
ENDBRANCH   6  18
BRANCH  17  20
ATOM     20  O   UNL     1      16.830  -6.889 -36.313  1.00  0.00    -0.507 OA
ATOM     21  H   UNL     1      16.788  -7.776 -36.796  1.00  0.00     0.293 HD
ENDBRANCH  17  20
BRANCH  15  22
ATOM     22  O   UNL     1      21.004  -5.579 -34.309  1.00  0.00    -0.508 OA
ATOM     23  H   UNL     1      21.618  -5.929 -35.036  1.00  0.00     0.293 HD
ENDBRANCH  15  22
TORSDOF 3
ENDMDL
MODEL 4
REMARK VINA RESULT:    -5.383      2.889      3.894
REMARK INTER + INTRA:          -5.855
REMARK INTER:                  -5.855
REMARK INTRA:                   0.000
REMARK UNBOUND:                 0.000
REMARK SMILES Cc1cc(O)c2c(c1)C(=O)c1cc(O)cc(O)c1C2=O
REMARK SMILES IDX 1 1 2 2 8 3 7 4 6 5 4 6 3 7 19 8 20 9 18 10 11 11 9 12 10 13
REMARK SMILES IDX 12 14 13 15 15 16 16 17 5 18 17 20 14 22
REMARK H PARENT 5 19 17 21 14 23
REMARK Flexibility Score: inf
ROOT
ATOM      1  C   UNL     1      19.764  -7.309 -33.091  1.00  0.00     0.044 C 
ATOM      2  C   UNL     1      18.458  -6.757 -32.599  1.00  0.00    -0.047 A 
ATOM      3  C   UNL     1      17.672  -7.498 -31.711  1.00  0.00     0.016 A 
ATOM      4  C   UNL     1      16.427  -7.010 -31.278  1.00  0.00     0.038 A 
ATOM      5  C   UNL     1      15.948  -5.773 -31.764  1.00  0.00     0.076 A 
ATOM      6  C   UNL     1      16.771  -5.005 -32.629  1.00  0.00     0.127 A 
ATOM      7  C   UNL     1      17.997  -5.520 -33.060  1.00  0.00     0.050 A 
ATOM      8  C   UNL     1      14.568  -5.361 -31.400  1.00  0.00     0.201 C 
ATOM      9  O   UNL     1      13.898  -4.645 -32.190  1.00  0.00    -0.288 OA
ATOM     10  C   UNL     1      13.915  -5.949 -30.201  1.00  0.00     0.076 A 
ATOM     11  C   UNL     1      14.396  -7.187 -29.718  1.00  0.00     0.041 A 
ATOM     12  C   UNL     1      15.614  -7.787 -30.312  1.00  0.00     0.194 C 
ATOM     13  O   UNL     1      15.974  -8.949 -29.974  1.00  0.00    -0.289 OA
ATOM     14  C   UNL     1      13.719  -7.841 -28.675  1.00  0.00     0.059 A 
ATOM     15  C   UNL     1      12.584  -7.272 -28.099  1.00  0.00     0.120 A 
ATOM     16  C   UNL     1      12.128  -6.029 -28.546  1.00  0.00     0.093 A 
ATOM     17  C   UNL     1      12.795  -5.348 -29.569  1.00  0.00     0.131 A 
ENDROOT
BRANCH   6  18
ATOM     18  O   UNL     1      16.427  -3.720 -33.055  1.00  0.00    -0.507 OA
ATOM     19  H   UNL     1      16.728  -2.876 -32.587  1.00  0.00     0.293 HD
ENDBRANCH   6  18
BRANCH  17  20
ATOM     20  O   UNL     1      12.336  -4.071 -29.899  1.00  0.00    -0.507 OA
ATOM     21  H   UNL     1      11.391  -3.756 -29.731  1.00  0.00     0.293 HD
ENDBRANCH  17  20
BRANCH  15  22
ATOM     22  O   UNL     1      11.921  -7.945 -27.075  1.00  0.00    -0.508 OA
ATOM     23  H   UNL     1      12.383  -8.662 -26.526  1.00  0.00     0.293 HD
ENDBRANCH  15  22
TORSDOF 3
ENDMDL
MODEL 5
REMARK VINA RESULT:    -5.323      1.996      3.589
REMARK INTER + INTRA:          -5.789
REMARK INTER:                  -5.789
REMARK INTRA:                   0.000
REMARK UNBOUND:                 0.000
REMARK SMILES Cc1cc(O)c2c(c1)C(=O)c1cc(O)cc(O)c1C2=O
REMARK SMILES IDX 1 1 2 2 8 3 7 4 6 5 4 6 3 7 19 8 20 9 18 10 11 11 9 12 10 13
REMARK SMILES IDX 12 14 13 15 15 16 16 17 5 18 17 20 14 22
REMARK H PARENT 5 19 17 21 14 23
REMARK Flexibility Score: inf
ROOT
ATOM      1  C   UNL     1      19.007  -6.172 -31.803  1.00  0.00     0.044 C 
ATOM      2  C   UNL     1      17.686  -6.882 -31.774  1.00  0.00    -0.047 A 
ATOM      3  C   UNL     1      16.863  -6.884 -32.905  1.00  0.00     0.016 A 
ATOM      4  C   UNL     1      15.604  -7.508 -32.874  1.00  0.00     0.038 A 
ATOM      5  C   UNL     1      15.150  -8.117 -31.683  1.00  0.00     0.076 A 
ATOM      6  C   UNL     1      16.008  -8.152 -30.553  1.00  0.00     0.127 A 
ATOM      7  C   UNL     1      17.247  -7.507 -30.602  1.00  0.00     0.050 A 
ATOM      8  C   UNL     1      13.758  -8.635 -31.646  1.00  0.00     0.201 C 
ATOM      9  O   UNL     1      13.121  -8.647 -30.559  1.00  0.00    -0.288 OA
ATOM     10  C   UNL     1      13.057  -8.959 -32.916  1.00  0.00     0.076 A 
ATOM     11  C   UNL     1      13.514  -8.348 -34.105  1.00  0.00     0.041 A 
ATOM     12  C   UNL     1      14.752  -7.533 -34.087  1.00  0.00     0.194 C 
ATOM     13  O   UNL     1      15.094  -6.882 -35.112  1.00  0.00    -0.289 OA
ATOM     14  C   UNL     1      12.795  -8.519 -35.300  1.00  0.00     0.059 A 
ATOM     15  C   UNL     1      11.641  -9.301 -35.328  1.00  0.00     0.120 A 
ATOM     16  C   UNL     1      11.207  -9.940 -34.163  1.00  0.00     0.093 A 
ATOM     17  C   UNL     1      11.916  -9.802 -32.966  1.00  0.00     0.131 A 
ENDROOT
BRANCH   6  18
ATOM     18  O   UNL     1      15.685  -8.838 -29.380  1.00  0.00    -0.507 OA
ATOM     19  H   UNL     1      14.923  -8.576 -28.771  1.00  0.00     0.293 HD
ENDBRANCH   6  18
BRANCH  17  20
ATOM     20  O   UNL     1      11.475 -10.543 -31.867  1.00  0.00    -0.507 OA
ATOM     21  H   UNL     1      11.214 -10.129 -30.983  1.00  0.00     0.293 HD
ENDBRANCH  17  20
BRANCH  15  22
ATOM     22  O   UNL     1      10.937  -9.446 -36.522  1.00  0.00    -0.508 OA
ATOM     23  H   UNL     1      11.411  -9.639 -37.396  1.00  0.00     0.293 HD
ENDBRANCH  15  22
TORSDOF 3
ENDMDL
MODEL 6
REMARK VINA RESULT:    -5.244      1.592      6.092
REMARK INTER + INTRA:          -5.703
REMARK INTER:                  -5.703
REMARK INTRA:                   0.000
REMARK UNBOUND:                 0.000
REMARK SMILES Cc1cc(O)c2c(c1)C(=O)c1cc(O)cc(O)c1C2=O
REMARK SMILES IDX 1 1 2 2 8 3 7 4 6 5 4 6 3 7 19 8 20 9 18 10 11 11 9 12 10 13
REMARK SMILES IDX 12 14 13 15 15 16 16 17 5 18 17 20 14 22
REMARK H PARENT 5 19 17 21 14 23
REMARK Flexibility Score: inf
ROOT
ATOM      1  C   UNL     1      11.017 -10.587 -32.387  1.00  0.00     0.044 C 
ATOM      2  C   UNL     1      12.174  -9.749 -32.847  1.00  0.00    -0.047 A 
ATOM      3  C   UNL     1      13.186  -9.394 -31.949  1.00  0.00     0.016 A 
ATOM      4  C   UNL     1      14.251  -8.574 -32.358  1.00  0.00     0.038 A 
ATOM      5  C   UNL     1      14.289  -8.077 -33.680  1.00  0.00     0.076 A 
ATOM      6  C   UNL     1      13.284  -8.478 -34.599  1.00  0.00     0.127 A 
ATOM      7  C   UNL     1      12.224  -9.279 -34.163  1.00  0.00     0.050 A 
ATOM      8  C   UNL     1      15.348  -7.096 -34.032  1.00  0.00     0.201 C 
ATOM      9  O   UNL     1      15.129  -6.225 -34.915  1.00  0.00    -0.288 OA
ATOM     10  C   UNL     1      16.588  -7.025 -33.216  1.00  0.00     0.076 A 
ATOM     11  C   UNL     1      16.546  -7.522 -31.893  1.00  0.00     0.041 A 
ATOM     12  C   UNL     1      15.337  -8.229 -31.409  1.00  0.00     0.194 C 
ATOM     13  O   UNL     1      15.244  -8.562 -30.196  1.00  0.00    -0.289 OA
ATOM     14  C   UNL     1      17.652  -7.347 -31.045  1.00  0.00     0.059 A 
ATOM     15  C   UNL     1      18.801  -6.700 -31.501  1.00  0.00     0.120 A 
ATOM     16  C   UNL     1      18.862  -6.242 -32.820  1.00  0.00     0.093 A 
ATOM     17  C   UNL     1      17.782  -6.421 -33.690  1.00  0.00     0.131 A 
ENDROOT
BRANCH   6  18
ATOM     18  O   UNL     1      13.316  -8.132 -35.951  1.00  0.00    -0.507 OA
ATOM     19  H   UNL     1      13.484  -8.796 -36.694  1.00  0.00     0.293 HD
ENDBRANCH   6  18
BRANCH  17  20
ATOM     20  O   UNL     1      17.951  -6.020 -35.017  1.00  0.00    -0.507 OA
ATOM     21  H   UNL     1      17.760  -6.618 -35.810  1.00  0.00     0.293 HD
ENDBRANCH  17  20
BRANCH  15  22
ATOM     22  O   UNL     1      19.881  -6.526 -30.638  1.00  0.00    -0.508 OA
ATOM     23  H   UNL     1      19.755  -6.484 -29.633  1.00  0.00     0.293 HD
ENDBRANCH  15  22
TORSDOF 3
ENDMDL
MODEL 7
REMARK VINA RESULT:    -5.219      3.530      6.607
REMARK INTER + INTRA:          -5.676
REMARK INTER:                  -5.676
REMARK INTRA:                   0.000
REMARK UNBOUND:                 0.000
REMARK SMILES Cc1cc(O)c2c(c1)C(=O)c1cc(O)cc(O)c1C2=O
REMARK SMILES IDX 1 1 2 2 8 3 7 4 6 5 4 6 3 7 19 8 20 9 18 10 11 11 9 12 10 13
REMARK SMILES IDX 12 14 13 15 15 16 16 17 5 18 17 20 14 22
REMARK H PARENT 5 19 17 21 14 23
REMARK Flexibility Score: inf
ROOT
ATOM      1  C   UNL     1      10.918  -6.214 -28.700  1.00  0.00     0.044 C 
ATOM      2  C   UNL     1      12.305  -5.677 -28.895  1.00  0.00    -0.047 A 
ATOM      3  C   UNL     1      13.319  -6.508 -29.382  1.00  0.00     0.016 A 
ATOM      4  C   UNL     1      14.632  -6.027 -29.528  1.00  0.00     0.038 A 
ATOM      5  C   UNL     1      14.940  -4.700 -29.154  1.00  0.00     0.076 A 
ATOM      6  C   UNL     1      13.898  -3.848 -28.704  1.00  0.00     0.127 A 
ATOM      7  C   UNL     1      12.604  -4.355 -28.549  1.00  0.00     0.050 A 
ATOM      8  C   UNL     1      16.363  -4.274 -29.183  1.00  0.00     0.201 C 
ATOM      9  O   UNL     1      16.773  -3.398 -28.376  1.00  0.00    -0.288 OA
ATOM     10  C   UNL     1      17.337  -5.014 -30.027  1.00  0.00     0.076 A 
ATOM     11  C   UNL     1      17.025  -6.342 -30.399  1.00  0.00     0.041 A 
ATOM     12  C   UNL     1      15.694  -6.905 -30.075  1.00  0.00     0.194 C 
ATOM     13  O   UNL     1      15.455  -8.125 -30.289  1.00  0.00    -0.289 OA
ATOM     14  C   UNL     1      17.978  -7.119 -31.078  1.00  0.00     0.059 A 
ATOM     15  C   UNL     1      19.226  -6.588 -31.404  1.00  0.00     0.120 A 
ATOM     16  C   UNL     1      19.524  -5.263 -31.074  1.00  0.00     0.093 A 
ATOM     17  C   UNL     1      18.586  -4.462 -30.416  1.00  0.00     0.131 A 
ENDROOT
BRANCH   6  18
ATOM     18  O   UNL     1      14.094  -2.492 -28.432  1.00  0.00    -0.507 OA
ATOM     19  H   UNL     1      14.916  -1.978 -28.718  1.00  0.00     0.293 HD
ENDBRANCH   6  18
BRANCH  17  20
ATOM     20  O   UNL     1      18.920  -3.123 -30.201  1.00  0.00    -0.507 OA
ATOM     21  H   UNL     1      18.586  -2.583 -29.414  1.00  0.00     0.293 HD
ENDBRANCH  17  20
BRANCH  15  22
ATOM     22  O   UNL     1      20.160  -7.382 -32.066  1.00  0.00    -0.508 OA
ATOM     23  H   UNL     1      20.098  -8.394 -32.055  1.00  0.00     0.293 HD
ENDBRANCH  15  22
TORSDOF 3
ENDMDL
MODEL 8
REMARK VINA RESULT:    -5.086      3.245      4.078
REMARK INTER + INTRA:          -5.532
REMARK INTER:                  -5.532
REMARK INTRA:                   0.000
REMARK UNBOUND:                 0.000
REMARK SMILES Cc1cc(O)c2c(c1)C(=O)c1cc(O)cc(O)c1C2=O
REMARK SMILES IDX 1 1 2 2 8 3 7 4 6 5 4 6 3 7 19 8 20 9 18 10 11 11 9 12 10 13
REMARK SMILES IDX 12 14 13 15 15 16 16 17 5 18 17 20 14 22
REMARK H PARENT 5 19 17 21 14 23
REMARK Flexibility Score: inf
ROOT
ATOM      1  C   UNL     1      19.995  -1.877 -30.436  1.00  0.00     0.044 C 
ATOM      2  C   UNL     1      19.137  -3.106 -30.514  1.00  0.00    -0.047 A 
ATOM      3  C   UNL     1      18.000  -3.223 -29.708  1.00  0.00     0.016 A 
ATOM      4  C   UNL     1      17.214  -4.388 -29.741  1.00  0.00     0.038 A 
ATOM      5  C   UNL     1      17.588  -5.465 -30.576  1.00  0.00     0.076 A 
ATOM      6  C   UNL     1      18.716  -5.323 -31.425  1.00  0.00     0.127 A 
ATOM      7  C   UNL     1      19.494  -4.162 -31.359  1.00  0.00     0.050 A 
ATOM      8  C   UNL     1      16.819  -6.732 -30.474  1.00  0.00     0.201 C 
ATOM      9  O   UNL     1      17.387  -7.832 -30.706  1.00  0.00    -0.288 OA
ATOM     10  C   UNL     1      15.441  -6.716 -29.917  1.00  0.00     0.076 A 
ATOM     11  C   UNL     1      15.071  -5.636 -29.083  1.00  0.00     0.041 A 
ATOM     12  C   UNL     1      15.993  -4.490 -28.907  1.00  0.00     0.194 C 
ATOM     13  O   UNL     1      15.725  -3.587 -28.067  1.00  0.00    -0.289 OA
ATOM     14  C   UNL     1      13.828  -5.654 -28.427  1.00  0.00     0.059 A 
ATOM     15  C   UNL     1      12.948  -6.721 -28.604  1.00  0.00     0.120 A 
ATOM     16  C   UNL     1      13.293  -7.771 -29.460  1.00  0.00     0.093 A 
ATOM     17  C   UNL     1      14.515  -7.768 -30.139  1.00  0.00     0.131 A 
ENDROOT
BRANCH   6  18
ATOM     18  O   UNL     1      19.081  -6.289 -32.365  1.00  0.00    -0.507 OA
ATOM     19  H   UNL     1      19.802  -6.979 -32.207  1.00  0.00     0.293 HD
ENDBRANCH   6  18
BRANCH  17  20
ATOM     20  O   UNL     1      14.750  -8.803 -31.046  1.00  0.00    -0.507 OA
ATOM     21  H   UNL     1      15.659  -9.005 -31.440  1.00  0.00     0.293 HD
ENDBRANCH  17  20
BRANCH  15  22
ATOM     22  O   UNL     1      11.727  -6.723 -27.933  1.00  0.00    -0.508 OA
ATOM     23  H   UNL     1      11.631  -7.125 -27.008  1.00  0.00     0.293 HD
ENDBRANCH  15  22
TORSDOF 3
ENDMDL
MODEL 9
REMARK VINA RESULT:    -5.034      4.016      6.530
REMARK INTER + INTRA:          -5.475
REMARK INTER:                  -5.475
REMARK INTRA:                   0.000
REMARK UNBOUND:                 0.000
REMARK SMILES Cc1cc(O)c2c(c1)C(=O)c1cc(O)cc(O)c1C2=O
REMARK SMILES IDX 1 1 2 2 8 3 7 4 6 5 4 6 3 7 19 8 20 9 18 10 11 11 9 12 10 13
REMARK SMILES IDX 12 14 13 15 15 16 16 17 5 18 17 20 14 22
REMARK H PARENT 5 19 17 21 14 23
REMARK Flexibility Score: inf
ROOT
ATOM      1  C   UNL     1      15.168  -1.875 -25.882  1.00  0.00     0.044 C 
ATOM      2  C   UNL     1      15.235  -2.935 -26.942  1.00  0.00    -0.047 A 
ATOM      3  C   UNL     1      16.316  -2.976 -27.828  1.00  0.00     0.016 A 
ATOM      4  C   UNL     1      16.367  -3.937 -28.853  1.00  0.00     0.038 A 
ATOM      5  C   UNL     1      15.304  -4.854 -29.010  1.00  0.00     0.076 A 
ATOM      6  C   UNL     1      14.232  -4.837 -28.080  1.00  0.00     0.127 A 
ATOM      7  C   UNL     1      14.195  -3.859 -27.081  1.00  0.00     0.050 A 
ATOM      8  C   UNL     1      15.324  -5.756 -30.190  1.00  0.00     0.201 C 
ATOM      9  O   UNL     1      14.240  -6.148 -30.699  1.00  0.00    -0.288 OA
ATOM     10  C   UNL     1      16.609  -6.039 -30.881  1.00  0.00     0.076 A 
ATOM     11  C   UNL     1      17.669  -5.119 -30.722  1.00  0.00     0.041 A 
ATOM     12  C   UNL     1      17.532  -3.994 -29.767  1.00  0.00     0.194 C 
ATOM     13  O   UNL     1      18.421  -3.099 -29.714  1.00  0.00    -0.289 OA
ATOM     14  C   UNL     1      18.850  -5.277 -31.467  1.00  0.00     0.059 A 
ATOM     15  C   UNL     1      18.993  -6.345 -32.352  1.00  0.00     0.120 A 
ATOM     16  C   UNL     1      17.962  -7.280 -32.483  1.00  0.00     0.093 A 
ATOM     17  C   UNL     1      16.785  -7.157 -31.739  1.00  0.00     0.131 A 
ENDROOT
BRANCH   6  18
ATOM     18  O   UNL     1      13.208  -5.786 -28.091  1.00  0.00    -0.507 OA
ATOM     19  H   UNL     1      12.230  -5.554 -27.975  1.00  0.00     0.293 HD
ENDBRANCH   6  18
BRANCH  17  20
ATOM     20  O   UNL     1      15.840  -8.178 -31.854  1.00  0.00    -0.507 OA
ATOM     21  H   UNL     1      14.945  -8.062 -32.310  1.00  0.00     0.293 HD
ENDBRANCH  17  20
BRANCH  15  22
ATOM     22  O   UNL     1      20.167  -6.474 -33.090  1.00  0.00    -0.508 OA
ATOM     23  H   UNL     1      20.771  -7.283 -32.989  1.00  0.00     0.293 HD
ENDBRANCH  15  22
TORSDOF 3
ENDMDL
