MODEL 1
REMARK VINA RESULT:    -4.112      0.000      0.000
REMARK INTER + INTRA:          -4.569
REMARK INTER:                  -4.353
REMARK INTRA:                  -0.216
REMARK UNBOUND:                -0.216
REMARK SMILES C=C(C)[C@@H]1CC=C(C)C(=O)C1
REMARK SMILES IDX 8 1 7 2 6 3 5 4 4 5 11 6 9 7 10 8 2 9 1 10 3 11
REMARK H PARENT
REMARK Flexibility Score: inf
ROOT
ATOM      1  C   UNL     1      18.258  27.629  27.513  1.00  0.00     0.048 C 
ATOM      2  C   UNL     1      18.310  28.692  28.577  1.00  0.00    -0.012 C 
ATOM      3  C   UNL     1      19.065  29.785  28.389  1.00  0.00    -0.019 C 
ATOM      4  C   UNL     1      19.189  30.870  29.423  1.00  0.00     0.036 C 
ATOM      5  C   UNL     1      17.938  31.018  30.315  1.00  0.00     0.025 C 
ATOM      6  C   UNL     1      17.435  29.653  30.827  1.00  0.00     0.089 C 
ATOM      7  C   UNL     1      17.414  28.600  29.754  1.00  0.00     0.158 C 
ATOM      8  O   UNL     1      16.647  27.609  29.887  1.00  0.00    -0.295 OA
ENDROOT
BRANCH   5   9
ATOM      9  C   UNL     1      16.838  31.856  29.661  1.00  0.00    -0.077 C 
ATOM     10  C   UNL     1      17.111  32.876  28.830  1.00  0.00     0.008 C 
ATOM     11  C   UNL     1      15.389  31.544  29.943  1.00  0.00     0.039 C 
ENDBRANCH   5   9
TORSDOF 1
ENDMDL
MODEL 2
REMARK VINA RESULT:    -4.056      3.539      4.588
REMARK INTER + INTRA:          -4.510
REMARK INTER:                  -4.292
REMARK INTRA:                  -0.218
REMARK UNBOUND:                -0.216
REMARK SMILES C=C(C)[C@@H]1CC=C(C)C(=O)C1
REMARK SMILES IDX 8 1 7 2 6 3 5 4 4 5 11 6 9 7 10 8 2 9 1 10 3 11
REMARK H PARENT
REMARK Flexibility Score: inf
ROOT
ATOM      1  C   UNL     1      24.040  27.823  27.741  1.00  0.00     0.048 C 
ATOM      2  C   UNL     1      22.806  27.839  28.601  1.00  0.00    -0.012 C 
ATOM      3  C   UNL     1      22.488  28.948  29.286  1.00  0.00    -0.019 C 
ATOM      4  C   UNL     1      21.288  29.024  30.190  1.00  0.00     0.036 C 
ATOM      5  C   UNL     1      20.128  28.102  29.754  1.00  0.00     0.025 C 
ATOM      6  C   UNL     1      20.623  26.683  29.407  1.00  0.00     0.089 C 
ATOM      7  C   UNL     1      21.870  26.690  28.568  1.00  0.00     0.158 C 
ATOM      8  O   UNL     1      22.134  25.681  27.859  1.00  0.00    -0.295 OA
ENDROOT
BRANCH   5   9
ATOM      9  C   UNL     1      19.260  28.720  28.656  1.00  0.00    -0.077 C 
ATOM     10  C   UNL     1      19.063  30.045  28.558  1.00  0.00     0.008 C 
ATOM     11  C   UNL     1      18.592  27.829  27.638  1.00  0.00     0.039 C 
ENDBRANCH   5   9
TORSDOF 1
ENDMDL
MODEL 3
REMARK VINA RESULT:    -4.038     13.824     15.158
REMARK INTER + INTRA:          -4.490
REMARK INTER:                  -4.273
REMARK INTRA:                  -0.217
REMARK UNBOUND:                -0.216
REMARK SMILES C=C(C)[C@@H]1CC=C(C)C(=O)C1
REMARK SMILES IDX 8 1 7 2 6 3 5 4 4 5 11 6 9 7 10 8 2 9 1 10 3 11
REMARK H PARENT
REMARK Flexibility Score: inf
ROOT
ATOM      1  C   UNL     1      34.748  32.089  25.594  1.00  0.00     0.048 C 
ATOM      2  C   UNL     1      33.898  32.005  26.832  1.00  0.00    -0.012 C 
ATOM      3  C   UNL     1      33.780  33.076  27.631  1.00  0.00    -0.019 C 
ATOM      4  C   UNL     1      32.974  33.053  28.901  1.00  0.00     0.036 C 
ATOM      5  C   UNL     1      31.789  32.064  28.862  1.00  0.00     0.025 C 
ATOM      6  C   UNL     1      32.209  30.689  28.303  1.00  0.00     0.089 C 
ATOM      7  C   UNL     1      33.077  30.796  27.081  1.00  0.00     0.158 C 
ATOM      8  O   UNL     1      33.129  29.822  26.283  1.00  0.00    -0.295 OA
ENDROOT
BRANCH   5   9
ATOM      9  C   UNL     1      30.556  32.643  28.166  1.00  0.00    -0.077 C 
ATOM     10  C   UNL     1      29.617  31.864  27.604  1.00  0.00     0.008 C 
ATOM     11  C   UNL     1      30.366  34.138  28.099  1.00  0.00     0.039 C 
ENDBRANCH   5   9
TORSDOF 1
ENDMDL
MODEL 4
REMARK VINA RESULT:    -3.977      1.972      3.739
REMARK INTER + INTRA:          -4.426
REMARK INTER:                  -4.208
REMARK INTRA:                  -0.218
REMARK UNBOUND:                -0.216
REMARK SMILES C=C(C)[C@@H]1CC=C(C)C(=O)C1
REMARK SMILES IDX 8 1 7 2 6 3 5 4 4 5 11 6 9 7 10 8 2 9 1 10 3 11
REMARK H PARENT
REMARK Flexibility Score: inf
ROOT
ATOM      1  C   UNL     1      15.733  30.972  32.441  1.00  0.00     0.048 C 
ATOM      2  C   UNL     1      16.309  31.386  31.114  1.00  0.00    -0.012 C 
ATOM      3  C   UNL     1      15.869  32.504  30.518  1.00  0.00    -0.019 C 
ATOM      4  C   UNL     1      16.377  32.960  29.178  1.00  0.00     0.036 C 
ATOM      5  C   UNL     1      17.832  32.530  28.891  1.00  0.00     0.025 C 
ATOM      6  C   UNL     1      18.067  31.044  29.232  1.00  0.00     0.089 C 
ATOM      7  C   UNL     1      17.462  30.646  30.549  1.00  0.00     0.158 C 
ATOM      8  O   UNL     1      17.926  29.642  31.154  1.00  0.00    -0.295 OA
ENDROOT
BRANCH   5   9
ATOM      9  C   UNL     1      18.863  33.463  29.526  1.00  0.00    -0.077 C 
ATOM     10  C   UNL     1      18.627  34.772  29.714  1.00  0.00     0.008 C 
ATOM     11  C   UNL     1      20.198  32.916  29.967  1.00  0.00     0.039 C 
ENDBRANCH   5   9
TORSDOF 1
ENDMDL
MODEL 5
REMARK VINA RESULT:    -3.972      3.052      3.874
REMARK INTER + INTRA:          -4.420
REMARK INTER:                  -4.202
REMARK INTRA:                  -0.219
REMARK UNBOUND:                -0.216
REMARK SMILES C=C(C)[C@@H]1CC=C(C)C(=O)C1
REMARK SMILES IDX 8 1 7 2 6 3 5 4 4 5 11 6 9 7 10 8 2 9 1 10 3 11
REMARK H PARENT
REMARK Flexibility Score: inf
ROOT
ATOM      1  C   UNL     1      20.137  32.322  29.770  1.00  0.00     0.048 C 
ATOM      2  C   UNL     1      18.669  32.574  29.981  1.00  0.00    -0.012 C 
ATOM      3  C   UNL     1      17.832  32.540  28.933  1.00  0.00    -0.019 C 
ATOM      4  C   UNL     1      16.359  32.814  29.066  1.00  0.00     0.036 C 
ATOM      5  C   UNL     1      15.782  32.432  30.446  1.00  0.00     0.025 C 
ATOM      6  C   UNL     1      16.670  32.943  31.599  1.00  0.00     0.089 C 
ATOM      7  C   UNL     1      18.134  32.704  31.357  1.00  0.00     0.158 C 
ATOM      8  O   UNL     1      18.916  32.654  32.345  1.00  0.00    -0.295 OA
ENDROOT
BRANCH   5   9
ATOM      9  C   UNL     1      15.449  30.944  30.559  1.00  0.00    -0.077 C 
ATOM     10  C   UNL     1      15.089  30.206  29.495  1.00  0.00     0.008 C 
ATOM     11  C   UNL     1      15.523  30.259  31.901  1.00  0.00     0.039 C 
ENDBRANCH   5   9
TORSDOF 1
ENDMDL
MODEL 6
REMARK VINA RESULT:    -3.915      2.736      3.861
REMARK INTER + INTRA:          -4.360
REMARK INTER:                  -4.140
REMARK INTRA:                  -0.220
REMARK UNBOUND:                -0.216
REMARK SMILES C=C(C)[C@@H]1CC=C(C)C(=O)C1
REMARK SMILES IDX 8 1 7 2 6 3 5 4 4 5 11 6 9 7 10 8 2 9 1 10 3 11
REMARK H PARENT
REMARK Flexibility Score: inf
ROOT
ATOM      1  C   UNL     1      21.246  25.303  28.992  1.00  0.00     0.048 C 
ATOM      2  C   UNL     1      20.315  26.429  28.633  1.00  0.00    -0.012 C 
ATOM      3  C   UNL     1      19.207  26.174  27.922  1.00  0.00    -0.019 C 
ATOM      4  C   UNL     1      18.250  27.255  27.500  1.00  0.00     0.036 C 
ATOM      5  C   UNL     1      18.208  28.455  28.470  1.00  0.00     0.025 C 
ATOM      6  C   UNL     1      19.625  28.923  28.863  1.00  0.00     0.089 C 
ATOM      7  C   UNL     1      20.545  27.782  29.193  1.00  0.00     0.158 C 
ATOM      8  O   UNL     1      21.546  27.999  29.929  1.00  0.00    -0.295 OA
ENDROOT
BRANCH   5   9
ATOM      9  C   UNL     1      17.300  28.212  29.677  1.00  0.00    -0.077 C 
ATOM     10  C   UNL     1      17.546  28.755  30.881  1.00  0.00     0.008 C 
ATOM     11  C   UNL     1      16.081  27.336  29.532  1.00  0.00     0.039 C 
ENDBRANCH   5   9
TORSDOF 1
ENDMDL
MODEL 7
REMARK VINA RESULT:    -3.798      1.837      3.995
REMARK INTER + INTRA:          -4.236
REMARK INTER:                  -4.020
REMARK INTRA:                  -0.216
REMARK UNBOUND:                -0.216
REMARK SMILES C=C(C)[C@@H]1CC=C(C)C(=O)C1
REMARK SMILES IDX 8 1 7 2 6 3 5 4 4 5 11 6 9 7 10 8 2 9 1 10 3 11
REMARK H PARENT
REMARK Flexibility Score: inf
ROOT
ATOM      1  C   UNL     1      16.385  32.855  29.098  1.00  0.00     0.048 C 
ATOM      2  C   UNL     1      16.797  31.528  29.673  1.00  0.00    -0.012 C 
ATOM      3  C   UNL     1      16.027  30.448  29.472  1.00  0.00    -0.019 C 
ATOM      4  C   UNL     1      16.360  29.098  30.044  1.00  0.00     0.036 C 
ATOM      5  C   UNL     1      17.875  28.863  30.227  1.00  0.00     0.025 C 
ATOM      6  C   UNL     1      18.565  30.069  30.896  1.00  0.00     0.089 C 
ATOM      7  C   UNL     1      18.121  31.386  30.324  1.00  0.00     0.158 C 
ATOM      8  O   UNL     1      18.878  32.387  30.440  1.00  0.00    -0.295 OA
ENDROOT
BRANCH   5   9
ATOM      9  C   UNL     1      18.566  28.415  28.938  1.00  0.00    -0.077 C 
ATOM     10  C   UNL     1      19.835  28.751  28.650  1.00  0.00     0.008 C 
ATOM     11  C   UNL     1      17.817  27.566  27.942  1.00  0.00     0.039 C 
ENDBRANCH   5   9
TORSDOF 1
ENDMDL
MODEL 8
REMARK VINA RESULT:    -3.791     13.256     14.650
REMARK INTER + INTRA:          -4.228
REMARK INTER:                  -4.071
REMARK INTRA:                  -0.158
REMARK UNBOUND:                -0.216
REMARK SMILES C=C(C)[C@@H]1CC=C(C)C(=O)C1
REMARK SMILES IDX 8 1 7 2 6 3 5 4 4 5 11 6 9 7 10 8 2 9 1 10 3 11
REMARK H PARENT
REMARK Flexibility Score: inf
ROOT
ATOM      1  C   UNL     1      33.221  30.197  27.656  1.00  0.00     0.048 C 
ATOM      2  C   UNL     1      32.365  31.432  27.719  1.00  0.00    -0.012 C 
ATOM      3  C   UNL     1      31.029  31.314  27.771  1.00  0.00    -0.019 C 
ATOM      4  C   UNL     1      30.112  32.505  27.803  1.00  0.00     0.036 C 
ATOM      5  C   UNL     1      30.739  33.748  28.471  1.00  0.00     0.025 C 
ATOM      6  C   UNL     1      32.170  34.012  27.959  1.00  0.00     0.089 C 
ATOM      7  C   UNL     1      33.000  32.761  27.880  1.00  0.00     0.158 C 
ATOM      8  O   UNL     1      34.257  32.860  27.912  1.00  0.00    -0.295 OA
ENDROOT
BRANCH   5   9
ATOM      9  C   UNL     1      30.643  33.714  29.997  1.00  0.00    -0.077 C 
ATOM     10  C   UNL     1      29.504  33.405  30.638  1.00  0.00     0.008 C 
ATOM     11  C   UNL     1      31.858  34.035  30.831  1.00  0.00     0.039 C 
ENDBRANCH   5   9
TORSDOF 1
ENDMDL
MODEL 9
REMARK VINA RESULT:    -1.894      2.509      3.607
REMARK INTER + INTRA:          -2.221
REMARK INTER:                  -2.073
REMARK INTRA:                  -0.148
REMARK UNBOUND:                -0.216
REMARK SMILES C=C(C)[C@@H]1CC=C(C)C(=O)C1
REMARK SMILES IDX 8 1 7 2 6 3 5 4 4 5 11 6 9 7 10 8 2 9 1 10 3 11
REMARK H PARENT
REMARK Flexibility Score: inf
ROOT
ATOM      1  C   UNL     1      19.732  30.770  29.349  1.00  0.00     0.048 C 
ATOM      2  C   UNL     1      18.297  31.215  29.426  1.00  0.00    -0.012 C 
ATOM      3  C   UNL     1      17.335  30.316  29.684  1.00  0.00    -0.019 C 
ATOM      4  C   UNL     1      15.878  30.685  29.743  1.00  0.00     0.036 C 
ATOM      5  C   UNL     1      15.628  32.140  30.196  1.00  0.00     0.025 C 
ATOM      6  C   UNL     1      16.547  33.135  29.459  1.00  0.00     0.089 C 
ATOM      7  C   UNL     1      17.970  32.660  29.371  1.00  0.00     0.158 C 
ATOM      8  O   UNL     1      18.888  33.509  29.210  1.00  0.00    -0.295 OA
ENDROOT
BRANCH   5   9
ATOM      9  C   UNL     1      15.664  32.302  31.716  1.00  0.00    -0.077 C 
ATOM     10  C   UNL     1      16.380  33.267  32.318  1.00  0.00     0.008 C 
ATOM     11  C   UNL     1      14.875  31.359  32.590  1.00  0.00     0.039 C 
ENDBRANCH   5   9
TORSDOF 1
ENDMDL
