MODEL 1
REMARK VINA RESULT:    -5.044      0.000      0.000
REMARK INTER + INTRA:          -6.322
REMARK INTER:                  -6.076
REMARK INTRA:                  -0.247
REMARK UNBOUND:                -0.247
REMARK SMILES C=CCc1ccc(O)c(OC)c1
REMARK SMILES IDX 9 1 7 2 6 3 5 4 4 5 12 6 10 7 11 8 8 9 3 11 2 12 1 13
REMARK H PARENT 8 10
REMARK Flexibility Score: inf
ROOT
ATOM      1  C   UNL     1     169.035 176.812 172.590  1.00  0.00     0.160 A 
ATOM      2  C   UNL     1     168.363 176.052 171.615  1.00  0.00     0.157 A 
ATOM      3  C   UNL     1     167.439 176.664 170.763  1.00  0.00     0.050 A 
ATOM      4  C   UNL     1     167.177 178.031 170.870  1.00  0.00     0.008 A 
ATOM      5  C   UNL     1     167.845 178.806 171.828  1.00  0.00    -0.040 A 
ATOM      6  C   UNL     1     168.767 178.192 172.691  1.00  0.00     0.054 A 
ENDROOT
BRANCH   1   7
ATOM      7  O   UNL     1     169.952 176.169 173.436  1.00  0.00    -0.493 OA
ATOM      8  C   UNL     1     169.618 175.572 174.684  1.00  0.00     0.278 C 
ENDBRANCH   1   7
BRANCH   2   9
ATOM      9  O   UNL     1     168.598 174.684 171.480  1.00  0.00    -0.504 OA
ATOM     10  H   UNL     1     169.468 174.254 171.771  1.00  0.00     0.293 HD
ENDBRANCH   2   9
BRANCH   5  11
ATOM     11  C   UNL     1     167.538 180.274 171.960  1.00  0.00     0.062 C 
BRANCH  11  12
ATOM     12  C   UNL     1     166.118 180.484 172.404  1.00  0.00    -0.030 C 
ATOM     13  C   UNL     1     165.654 179.962 173.543  1.00  0.00     0.004 C 
ENDBRANCH  11  12
ENDBRANCH   5  11
TORSDOF 4
ENDMDL
MODEL 2
REMARK VINA RESULT:    -5.043      1.735      3.197
REMARK INTER + INTRA:          -6.322
REMARK INTER:                  -6.135
REMARK INTRA:                  -0.187
REMARK UNBOUND:                -0.247
REMARK SMILES C=CCc1ccc(O)c(OC)c1
REMARK SMILES IDX 9 1 7 2 6 3 5 4 4 5 12 6 10 7 11 8 8 9 3 11 2 12 1 13
REMARK H PARENT 8 10
REMARK Flexibility Score: inf
ROOT
ATOM      1  C   UNL     1     168.627 177.716 172.715  1.00  0.00     0.160 A 
ATOM      2  C   UNL     1     167.817 178.596 173.455  1.00  0.00     0.157 A 
ATOM      3  C   UNL     1     166.906 179.430 172.800  1.00  0.00     0.050 A 
ATOM      4  C   UNL     1     166.792 179.395 171.409  1.00  0.00     0.008 A 
ATOM      5  C   UNL     1     167.582 178.516 170.656  1.00  0.00    -0.040 A 
ATOM      6  C   UNL     1     168.505 177.684 171.311  1.00  0.00     0.054 A 
ENDROOT
BRANCH   1   7
ATOM      7  O   UNL     1     169.537 176.895 173.400  1.00  0.00    -0.493 OA
ATOM      8  C   UNL     1     169.412 175.482 173.529  1.00  0.00     0.278 C 
ENDBRANCH   1   7
BRANCH   2   9
ATOM      9  O   UNL     1     167.905 178.659 174.846  1.00  0.00    -0.504 OA
ATOM     10  H   UNL     1     168.107 179.522 175.337  1.00  0.00     0.293 HD
ENDBRANCH   2   9
BRANCH   5  11
ATOM     11  C   UNL     1     167.477 178.502 169.154  1.00  0.00     0.062 C 
BRANCH  11  12
ATOM     12  C   UNL     1     166.761 177.268 168.682  1.00  0.00    -0.030 C 
ATOM     13  C   UNL     1     165.640 176.839 169.268  1.00  0.00     0.004 C 
ENDBRANCH  11  12
ENDBRANCH   5  11
TORSDOF 4
ENDMDL
MODEL 3
REMARK VINA RESULT:    -5.038     13.272     15.468
REMARK INTER + INTRA:          -6.315
REMARK INTER:                  -6.137
REMARK INTRA:                  -0.178
REMARK UNBOUND:                -0.247
REMARK SMILES C=CCc1ccc(O)c(OC)c1
REMARK SMILES IDX 9 1 7 2 6 3 5 4 4 5 12 6 10 7 11 8 8 9 3 11 2 12 1 13
REMARK H PARENT 8 10
REMARK Flexibility Score: inf
ROOT
ATOM      1  C   UNL     1     180.836 171.903 172.633  1.00  0.00     0.160 A 
ATOM      2  C   UNL     1     181.546 170.947 173.382  1.00  0.00     0.157 A 
ATOM      3  C   UNL     1     182.405 170.051 172.740  1.00  0.00     0.050 A 
ATOM      4  C   UNL     1     182.568 170.097 171.354  1.00  0.00     0.008 A 
ATOM      5  C   UNL     1     181.877 171.050 170.593  1.00  0.00    -0.040 A 
ATOM      6  C   UNL     1     181.005 171.946 171.234  1.00  0.00     0.054 A 
ENDROOT
BRANCH   1   7
ATOM      7  O   UNL     1     179.975 172.786 173.304  1.00  0.00    -0.493 OA
ATOM      8  C   UNL     1     180.133 174.201 173.336  1.00  0.00     0.278 C 
ENDBRANCH   1   7
BRANCH   2   9
ATOM      9  O   UNL     1     181.408 170.871 174.768  1.00  0.00    -0.504 OA
ATOM     10  H   UNL     1     181.862 171.526 175.394  1.00  0.00     0.293 HD
ENDBRANCH   2   9
BRANCH   5  11
ATOM     11  C   UNL     1     182.031 171.078 169.096  1.00  0.00     0.062 C 
BRANCH  11  12
ATOM     12  C   UNL     1     182.817 172.284 168.664  1.00  0.00    -0.030 C 
ATOM     13  C   UNL     1     183.927 172.664 169.303  1.00  0.00     0.004 C 
ENDBRANCH  11  12
ENDBRANCH   5  11
TORSDOF 4
ENDMDL
MODEL 4
REMARK VINA RESULT:    -5.013     12.868     15.240
REMARK INTER + INTRA:          -6.285
REMARK INTER:                  -6.022
REMARK INTRA:                  -0.263
REMARK UNBOUND:                -0.247
REMARK SMILES C=CCc1ccc(O)c(OC)c1
REMARK SMILES IDX 9 1 7 2 6 3 5 4 4 5 12 6 10 7 11 8 8 9 3 11 2 12 1 13
REMARK H PARENT 8 10
REMARK Flexibility Score: inf
ROOT
ATOM      1  C   UNL     1     180.414 172.820 172.702  1.00  0.00     0.160 A 
ATOM      2  C   UNL     1     181.033 173.539 171.663  1.00  0.00     0.157 A 
ATOM      3  C   UNL     1     181.901 172.887 170.781  1.00  0.00     0.050 A 
ATOM      4  C   UNL     1     182.157 171.522 170.922  1.00  0.00     0.008 A 
ATOM      5  C   UNL     1     181.541 170.789 171.944  1.00  0.00    -0.040 A 
ATOM      6  C   UNL     1     180.676 171.442 172.838  1.00  0.00     0.054 A 
ENDROOT
BRANCH   1   7
ATOM      7  O   UNL     1     179.553 173.502 173.577  1.00  0.00    -0.493 OA
ATOM      8  C   UNL     1     179.969 174.166 174.766  1.00  0.00     0.278 C 
ENDBRANCH   1   7
BRANCH   2   9
ATOM      9  O   UNL     1     180.801 174.903 171.492  1.00  0.00    -0.504 OA
ATOM     10  H   UNL     1     180.297 175.271 170.694  1.00  0.00     0.293 HD
ENDBRANCH   2   9
BRANCH   5  11
ATOM     11  C   UNL     1     181.843 169.323 172.111  1.00  0.00     0.062 C 
BRANCH  11  12
ATOM     12  C   UNL     1     183.298 169.112 172.421  1.00  0.00    -0.030 C 
ATOM     13  C   UNL     1     183.854 169.581 173.542  1.00  0.00     0.004 C 
ENDBRANCH  11  12
ENDBRANCH   5  11
TORSDOF 4
ENDMDL
MODEL 5
REMARK VINA RESULT:    -5.004      2.337      4.323
REMARK INTER + INTRA:          -6.275
REMARK INTER:                  -6.094
REMARK INTRA:                  -0.181
REMARK UNBOUND:                -0.247
REMARK SMILES C=CCc1ccc(O)c(OC)c1
REMARK SMILES IDX 9 1 7 2 6 3 5 4 4 5 12 6 10 7 11 8 8 9 3 11 2 12 1 13
REMARK H PARENT 8 10
REMARK Flexibility Score: inf
ROOT
ATOM      1  C   UNL     1     167.116 178.806 172.556  1.00  0.00     0.160 A 
ATOM      2  C   UNL     1     168.049 178.387 173.523  1.00  0.00     0.157 A 
ATOM      3  C   UNL     1     169.165 177.638 173.141  1.00  0.00     0.050 A 
ATOM      4  C   UNL     1     169.365 177.300 171.801  1.00  0.00     0.008 A 
ATOM      5  C   UNL     1     168.452 177.717 170.823  1.00  0.00    -0.040 A 
ATOM      6  C   UNL     1     167.324 178.463 171.205  1.00  0.00     0.054 A 
ENDROOT
BRANCH   1   7
ATOM      7  O   UNL     1     166.001 179.552 172.970  1.00  0.00    -0.493 OA
ATOM      8  C   UNL     1     165.718 180.883 172.549  1.00  0.00     0.278 C 
ENDBRANCH   1   7
BRANCH   2   9
ATOM      9  O   UNL     1     167.881 178.705 174.871  1.00  0.00    -0.504 OA
ATOM     10  H   UNL     1     166.968 178.862 175.280  1.00  0.00     0.293 HD
ENDBRANCH   2   9
BRANCH   5  11
ATOM     11  C   UNL     1     168.655 177.326 169.384  1.00  0.00     0.062 C 
BRANCH  11  12
ATOM     12  C   UNL     1     167.634 177.990 168.502  1.00  0.00    -0.030 C 
ATOM     13  C   UNL     1     166.720 177.284 167.831  1.00  0.00     0.004 C 
ENDBRANCH  11  12
ENDBRANCH   5  11
TORSDOF 4
ENDMDL
MODEL 6
REMARK VINA RESULT:    -4.981      2.862      4.326
REMARK INTER + INTRA:          -6.247
REMARK INTER:                  -5.990
REMARK INTRA:                  -0.257
REMARK UNBOUND:                -0.247
REMARK SMILES C=CCc1ccc(O)c(OC)c1
REMARK SMILES IDX 9 1 7 2 6 3 5 4 4 5 12 6 10 7 11 8 8 9 3 11 2 12 1 13
REMARK H PARENT 8 10
REMARK Flexibility Score: inf
ROOT
ATOM      1  C   UNL     1     167.792 177.370 168.653  1.00  0.00     0.160 A 
ATOM      2  C   UNL     1     166.404 177.138 168.649  1.00  0.00     0.157 A 
ATOM      3  C   UNL     1     165.751 176.768 169.828  1.00  0.00     0.050 A 
ATOM      4  C   UNL     1     166.468 176.629 171.018  1.00  0.00     0.008 A 
ATOM      5  C   UNL     1     167.849 176.867 171.044  1.00  0.00    -0.040 A 
ATOM      6  C   UNL     1     168.509 177.229 169.858  1.00  0.00     0.054 A 
ENDROOT
BRANCH   1   7
ATOM      7  O   UNL     1     168.421 177.734 167.452  1.00  0.00    -0.493 OA
ATOM      8  C   UNL     1     169.382 176.934 166.769  1.00  0.00     0.278 C 
ENDBRANCH   1   7
BRANCH   2   9
ATOM      9  O   UNL     1     165.656 177.267 167.478  1.00  0.00    -0.504 OA
ATOM     10  H   UNL     1     164.699 176.940 167.409  1.00  0.00     0.293 HD
ENDBRANCH   2   9
BRANCH   5  11
ATOM     11  C   UNL     1     168.623 176.687 172.322  1.00  0.00     0.062 C 
BRANCH  11  12
ATOM     12  C   UNL     1     169.105 178.011 172.844  1.00  0.00    -0.030 C 
ATOM     13  C   UNL     1     168.256 178.994 173.158  1.00  0.00     0.004 C 
ENDBRANCH  11  12
ENDBRANCH   5  11
TORSDOF 4
ENDMDL
MODEL 7
REMARK VINA RESULT:    -4.977     13.788     15.568
REMARK INTER + INTRA:          -6.242
REMARK INTER:                  -6.061
REMARK INTRA:                  -0.181
REMARK UNBOUND:                -0.247
REMARK SMILES C=CCc1ccc(O)c(OC)c1
REMARK SMILES IDX 9 1 7 2 6 3 5 4 4 5 12 6 10 7 11 8 8 9 3 11 2 12 1 13
REMARK H PARENT 8 10
REMARK Flexibility Score: inf
ROOT
ATOM      1  C   UNL     1     182.201 170.553 172.548  1.00  0.00     0.160 A 
ATOM      2  C   UNL     1     181.305 171.104 173.483  1.00  0.00     0.157 A 
ATOM      3  C   UNL     1     180.268 171.938 173.052  1.00  0.00     0.050 A 
ATOM      4  C   UNL     1     180.112 172.227 171.695  1.00  0.00     0.008 A 
ATOM      5  C   UNL     1     180.989 171.678 170.749  1.00  0.00    -0.040 A 
ATOM      6  C   UNL     1     182.037 170.848 171.180  1.00  0.00     0.054 A 
ENDROOT
BRANCH   1   7
ATOM      7  O   UNL     1     183.236 169.725 173.011  1.00  0.00    -0.493 OA
ATOM      8  C   UNL     1     183.623 168.498 172.400  1.00  0.00     0.278 C 
ENDBRANCH   1   7
BRANCH   2   9
ATOM      9  O   UNL     1     181.431 170.838 174.846  1.00  0.00    -0.504 OA
ATOM     10  H   UNL     1     181.106 171.484 175.556  1.00  0.00     0.293 HD
ENDBRANCH   2   9
BRANCH   5  11
ATOM     11  C   UNL     1     180.835 172.016 169.291  1.00  0.00     0.062 C 
BRANCH  11  12
ATOM     12  C   UNL     1     181.974 171.449 168.490  1.00  0.00    -0.030 C 
ATOM     13  C   UNL     1     182.893 172.235 167.922  1.00  0.00     0.004 C 
ENDBRANCH  11  12
ENDBRANCH   5  11
TORSDOF 4
ENDMDL
MODEL 8
REMARK VINA RESULT:    -4.944     13.344     15.145
REMARK INTER + INTRA:          -6.202
REMARK INTER:                  -5.975
REMARK INTRA:                  -0.228
REMARK UNBOUND:                -0.247
REMARK SMILES C=CCc1ccc(O)c(OC)c1
REMARK SMILES IDX 9 1 7 2 6 3 5 4 4 5 12 6 10 7 11 8 8 9 3 11 2 12 1 13
REMARK H PARENT 8 10
REMARK Flexibility Score: inf
ROOT
ATOM      1  C   UNL     1     182.685 171.376 171.222  1.00  0.00     0.160 A 
ATOM      2  C   UNL     1     182.812 170.319 172.142  1.00  0.00     0.157 A 
ATOM      3  C   UNL     1     181.880 170.171 173.173  1.00  0.00     0.050 A 
ATOM      4  C   UNL     1     180.816 171.066 173.298  1.00  0.00     0.008 A 
ATOM      5  C   UNL     1     180.667 172.119 172.384  1.00  0.00    -0.040 A 
ATOM      6  C   UNL     1     181.607 172.276 171.353  1.00  0.00     0.054 A 
ENDROOT
BRANCH   1   7
ATOM      7  O   UNL     1     183.640 171.504 170.201  1.00  0.00    -0.493 OA
ATOM      8  C   UNL     1     183.979 172.730 169.561  1.00  0.00     0.278 C 
ENDBRANCH   1   7
BRANCH   2   9
ATOM      9  O   UNL     1     183.862 169.406 172.049  1.00  0.00    -0.504 OA
ATOM     10  H   UNL     1     184.359 169.240 171.182  1.00  0.00     0.293 HD
ENDBRANCH   2   9
BRANCH   5  11
ATOM     11  C   UNL     1     179.536 173.100 172.540  1.00  0.00     0.062 C 
BRANCH  11  12
ATOM     12  C   UNL     1     179.983 174.312 173.308  1.00  0.00    -0.030 C 
ATOM     13  C   UNL     1     179.928 174.358 174.642  1.00  0.00     0.004 C 
ENDBRANCH  11  12
ENDBRANCH   5  11
TORSDOF 4
ENDMDL
MODEL 9
REMARK VINA RESULT:    -4.857      2.270      4.877
REMARK INTER + INTRA:          -6.098
REMARK INTER:                  -5.879
REMARK INTRA:                  -0.219
REMARK UNBOUND:                -0.247
REMARK SMILES C=CCc1ccc(O)c(OC)c1
REMARK SMILES IDX 9 1 7 2 6 3 5 4 4 5 12 6 10 7 11 8 8 9 3 11 2 12 1 13
REMARK H PARENT 8 10
REMARK Flexibility Score: inf
ROOT
ATOM      1  C   UNL     1     166.979 177.815 171.322  1.00  0.00     0.160 A 
ATOM      2  C   UNL     1     167.253 178.937 172.126  1.00  0.00     0.157 A 
ATOM      3  C   UNL     1     168.225 178.860 173.127  1.00  0.00     0.050 A 
ATOM      4  C   UNL     1     168.932 177.674 173.337  1.00  0.00     0.008 A 
ATOM      5  C   UNL     1     168.680 176.550 172.538  1.00  0.00    -0.040 A 
ATOM      6  C   UNL     1     167.697 176.621 171.537  1.00  0.00     0.054 A 
ENDROOT
BRANCH   1   7
ATOM      7  O   UNL     1     165.993 177.920 170.328  1.00  0.00    -0.493 OA
ATOM      8  C   UNL     1     165.623 176.867 169.443  1.00  0.00     0.278 C 
ENDBRANCH   1   7
BRANCH   2   9
ATOM      9  O   UNL     1     166.567 180.138 171.945  1.00  0.00    -0.504 OA
ATOM     10  H   UNL     1     167.034 180.990 171.659  1.00  0.00     0.293 HD
ENDBRANCH   2   9
BRANCH   5  11
ATOM     11  C   UNL     1     169.422 175.265 172.787  1.00  0.00     0.062 C 
BRANCH  11  12
ATOM     12  C   UNL     1     169.572 175.012 174.261  1.00  0.00    -0.030 C 
ATOM     13  C   UNL     1     170.758 174.730 174.808  1.00  0.00     0.004 C 
ENDBRANCH  11  12
ENDBRANCH   5  11
TORSDOF 4
ENDMDL
