MODEL 1
REMARK VINA RESULT:    -2.211      0.000      0.000
REMARK INTER + INTRA:          -7.193
REMARK INTER:                  -5.830
REMARK INTRA:                  -1.362
REMARK UNBOUND:                -1.362
REMARK SMILES CCCCCCCCCCCCCCCCCCCCCCCCCCCCCC(=O)[O-]
REMARK SMILES IDX 16 1 17 2 18 3 19 4 20 5 21 6 22 7 23 8 24 9 25 10 26 11
REMARK SMILES IDX 27 12 28 13 29 14 30 15 31 16 32 17 15 18 14 19 13 20 12 21
REMARK SMILES IDX 11 22 10 23 9 24 8 25 7 26 6 27 5 28 4 29 3 30 2 31 1 32
REMARK H PARENT
REMARK Flexibility Score: inf
ROOT
ATOM      1  C   UNL     1       3.608 -11.007   5.900  1.00  0.00     0.000 C 
ENDROOT
BRANCH   1   2
ATOM      2  C   UNL     1       2.324 -10.195   6.140  1.00  0.00     0.000 C 
BRANCH   2   3
ATOM      3  C   UNL     1       1.044 -11.061   6.193  1.00  0.00     0.000 C 
BRANCH   3   4
ATOM      4  C   UNL     1      -0.202 -10.280   6.646  1.00  0.00     0.000 C 
BRANCH   4   5
ATOM      5  C   UNL     1      -0.659 -10.683   8.060  1.00  0.00     0.000 C 
BRANCH   5   6
ATOM      6  C   UNL     1      -0.454  -9.551   9.081  1.00  0.00     0.000 C 
BRANCH   6   7
ATOM      7  C   UNL     1       0.941  -9.566   9.747  1.00  0.00     0.000 C 
BRANCH   7   8
ATOM      8  C   UNL     1       1.708 -10.883   9.529  1.00  0.00     0.000 C 
BRANCH   8   9
ATOM      9  C   UNL     1       3.137 -10.893  10.103  1.00  0.00     0.000 C 
BRANCH   9  10
ATOM     10  C   UNL     1       4.161 -10.045   9.319  1.00  0.00     0.000 C 
BRANCH  10  11
ATOM     11  C   UNL     1       5.539  -9.894   9.992  1.00  0.00     0.000 C 
BRANCH  11  12
ATOM     12  C   UNL     1       6.476 -11.111   9.848  1.00  0.00     0.000 C 
BRANCH  12  13
ATOM     13  C   UNL     1       7.460 -11.040   8.663  1.00  0.00     0.006 C 
BRANCH  13  14
ATOM     14  C   UNL     1       8.941 -11.124   9.063  1.00  0.00     0.053 C 
BRANCH  14  15
ATOM     15  C   UNL     1       9.728  -9.954   8.560  1.00  0.00     0.041 C 
ATOM     16  O   UNL     1      10.093  -9.907   7.355  1.00  0.00    -0.550 OA
ATOM     17  O   UNL     1      10.028  -8.898   9.412  1.00  0.00    -0.550 OA
ENDBRANCH  14  15
ENDBRANCH  13  14
ENDBRANCH  12  13
ENDBRANCH  11  12
ENDBRANCH  10  11
ENDBRANCH   9  10
ENDBRANCH   8   9
ENDBRANCH   7   8
ENDBRANCH   6   7
ENDBRANCH   5   6
ENDBRANCH   4   5
ENDBRANCH   3   4
ENDBRANCH   2   3
ENDBRANCH   1   2
BRANCH   1  18
ATOM     18  C   UNL     1       4.776 -10.137   5.410  1.00  0.00     0.000 C 
BRANCH  18  19
ATOM     19  C   UNL     1       4.411  -9.294   4.178  1.00  0.00     0.000 C 
BRANCH  19  20
ATOM     20  C   UNL     1       5.628  -8.577   3.563  1.00  0.00     0.000 C 
BRANCH  20  21
ATOM     21  C   UNL     1       6.424  -7.776   4.615  1.00  0.00     0.000 C 
BRANCH  21  22
ATOM     22  C   UNL     1       6.418  -8.417   6.017  1.00  0.00     0.000 C 
BRANCH  22  23
ATOM     23  C   UNL     1       6.266  -7.419   7.178  1.00  0.00     0.000 C 
BRANCH  23  24
ATOM     24  C   UNL     1       7.404  -7.537   8.207  1.00  0.00    -0.000 C 
BRANCH  24  25
ATOM     25  C   UNL     1       7.847  -6.168   8.746  1.00  0.00    -0.000 C 
BRANCH  25  26
ATOM     26  C   UNL     1       6.655  -5.277   9.138  1.00  0.00    -0.000 C 
BRANCH  26  27
ATOM     27  C   UNL     1       7.088  -4.067   9.993  1.00  0.00    -0.000 C 
BRANCH  27  28
ATOM     28  C   UNL     1       7.678  -2.909   9.167  1.00  0.00    -0.000 C 
BRANCH  28  29
ATOM     29  C   UNL     1       7.895  -1.634   9.993  1.00  0.00    -0.000 C 
BRANCH  29  30
ATOM     30  C   UNL     1       7.256  -0.417   9.309  1.00  0.00    -0.000 C 
BRANCH  30  31
ATOM     31  C   UNL     1       8.229   0.767   9.184  1.00  0.00    -0.003 C 
ATOM     32  C   UNL     1       7.622   1.957   8.441  1.00  0.00     0.004 C 
ENDBRANCH  30  31
ENDBRANCH  29  30
ENDBRANCH  28  29
ENDBRANCH  27  28
ENDBRANCH  26  27
ENDBRANCH  25  26
ENDBRANCH  24  25
ENDBRANCH  23  24
ENDBRANCH  22  23
ENDBRANCH  21  22
ENDBRANCH  20  21
ENDBRANCH  19  20
ENDBRANCH  18  19
ENDBRANCH   1  18
TORSDOF 28
ENDMDL
MODEL 2
REMARK VINA RESULT:    -1.815      3.528      9.547
REMARK INTER + INTRA:          -6.149
REMARK INTER:                  -4.689
REMARK INTRA:                  -1.460
REMARK UNBOUND:                -1.362
REMARK SMILES CCCCCCCCCCCCCCCCCCCCCCCCCCCCCC(=O)[O-]
REMARK SMILES IDX 16 1 17 2 18 3 19 4 20 5 21 6 22 7 23 8 24 9 25 10 26 11
REMARK SMILES IDX 27 12 28 13 29 14 30 15 31 16 32 17 15 18 14 19 13 20 12 21
REMARK SMILES IDX 11 22 10 23 9 24 8 25 7 26 6 27 5 28 4 29 3 30 2 31 1 32
REMARK H PARENT
REMARK Flexibility Score: inf
ROOT
ATOM      1  C   UNL     1       7.296  -6.899   7.030  1.00  0.00     0.000 C 
ENDROOT
BRANCH   1   2
ATOM      2  C   UNL     1       8.453  -7.359   7.934  1.00  0.00     0.000 C 
BRANCH   2   3
ATOM      3  C   UNL     1       9.715  -6.473   7.824  1.00  0.00     0.000 C 
BRANCH   3   4
ATOM      4  C   UNL     1       9.510  -5.048   8.366  1.00  0.00     0.000 C 
BRANCH   4   5
ATOM      5  C   UNL     1       8.370  -4.977   9.400  1.00  0.00     0.000 C 
BRANCH   5   6
ATOM      6  C   UNL     1       7.333  -3.898   9.048  1.00  0.00     0.000 C 
BRANCH   6   7
ATOM      7  C   UNL     1       7.436  -2.633   9.931  1.00  0.00     0.000 C 
BRANCH   7   8
ATOM      8  C   UNL     1       8.107  -1.443   9.220  1.00  0.00     0.000 C 
BRANCH   8   9
ATOM      9  C   UNL     1       9.264  -0.798  10.006  1.00  0.00     0.000 C 
BRANCH   9  10
ATOM     10  C   UNL     1       9.196   0.740  10.121  1.00  0.00     0.000 C 
BRANCH  10  11
ATOM     11  C   UNL     1       9.391   1.505   8.798  1.00  0.00     0.000 C 
BRANCH  11  12
ATOM     12  C   UNL     1       8.997   2.995   8.839  1.00  0.00     0.000 C 
BRANCH  12  13
ATOM     13  C   UNL     1       8.186   3.421  10.079  1.00  0.00     0.006 C 
BRANCH  13  14
ATOM     14  C   UNL     1       6.702   3.704   9.799  1.00  0.00     0.053 C 
BRANCH  14  15
ATOM     15  C   UNL     1       6.112   2.717   8.840  1.00  0.00     0.041 C 
ATOM     16  O   UNL     1       5.909   3.044   7.639  1.00  0.00    -0.550 OA
ATOM     17  O   UNL     1       5.819   1.427   9.261  1.00  0.00    -0.550 OA
ENDBRANCH  14  15
ENDBRANCH  13  14
ENDBRANCH  12  13
ENDBRANCH  11  12
ENDBRANCH  10  11
ENDBRANCH   9  10
ENDBRANCH   8   9
ENDBRANCH   7   8
ENDBRANCH   6   7
ENDBRANCH   5   6
ENDBRANCH   4   5
ENDBRANCH   3   4
ENDBRANCH   2   3
ENDBRANCH   1   2
BRANCH   1  18
ATOM     18  C   UNL     1       6.714  -8.043   6.185  1.00  0.00     0.000 C 
BRANCH  18  19
ATOM     19  C   UNL     1       6.690  -7.716   4.683  1.00  0.00     0.000 C 
BRANCH  19  20
ATOM     20  C   UNL     1       6.222  -8.904   3.822  1.00  0.00     0.000 C 
BRANCH  20  21
ATOM     21  C   UNL     1       4.834  -8.658   3.192  1.00  0.00     0.000 C 
BRANCH  21  22
ATOM     22  C   UNL     1       4.127  -9.947   2.729  1.00  0.00     0.000 C 
BRANCH  22  23
ATOM     23  C   UNL     1       4.078 -11.065   3.785  1.00  0.00     0.000 C 
BRANCH  23  24
ATOM     24  C   UNL     1       3.568 -10.566   5.148  1.00  0.00    -0.000 C 
BRANCH  24  25
ATOM     25  C   UNL     1       4.688 -10.481   6.196  1.00  0.00    -0.000 C 
BRANCH  25  26
ATOM     26  C   UNL     1       4.171 -10.027   7.573  1.00  0.00    -0.000 C 
BRANCH  26  27
ATOM     27  C   UNL     1       2.693 -10.411   7.796  1.00  0.00    -0.000 C 
BRANCH  27  28
ATOM     28  C   UNL     1       1.733  -9.209   7.763  1.00  0.00    -0.000 C 
BRANCH  28  29
ATOM     29  C   UNL     1       2.392  -7.903   8.228  1.00  0.00    -0.000 C 
BRANCH  29  30
ATOM     30  C   UNL     1       2.801  -7.984   9.705  1.00  0.00    -0.000 C 
BRANCH  30  31
ATOM     31  C   UNL     1       3.728  -6.832  10.125  1.00  0.00    -0.003 C 
ATOM     32  C   UNL     1       5.169  -7.030   9.653  1.00  0.00     0.004 C 
ENDBRANCH  30  31
ENDBRANCH  29  30
ENDBRANCH  28  29
ENDBRANCH  27  28
ENDBRANCH  26  27
ENDBRANCH  25  26
ENDBRANCH  24  25
ENDBRANCH  23  24
ENDBRANCH  22  23
ENDBRANCH  21  22
ENDBRANCH  20  21
ENDBRANCH  19  20
ENDBRANCH  18  19
ENDBRANCH   1  18
TORSDOF 28
ENDMDL
MODEL 3
REMARK VINA RESULT:    -1.089      1.762      4.647
REMARK INTER + INTRA:          -4.234
REMARK INTER:                  -1.706
REMARK INTRA:                  -2.528
REMARK UNBOUND:                -1.362
REMARK SMILES CCCCCCCCCCCCCCCCCCCCCCCCCCCCCC(=O)[O-]
REMARK SMILES IDX 16 1 17 2 18 3 19 4 20 5 21 6 22 7 23 8 24 9 25 10 26 11
REMARK SMILES IDX 27 12 28 13 29 14 30 15 31 16 32 17 15 18 14 19 13 20 12 21
REMARK SMILES IDX 11 22 10 23 9 24 8 25 7 26 6 27 5 28 4 29 3 30 2 31 1 32
REMARK H PARENT
REMARK Flexibility Score: inf
ROOT
ATOM      1  C   UNL     1       2.224  -9.858   6.869  1.00  0.00     0.000 C 
ENDROOT
BRANCH   1   2
ATOM      2  C   UNL     1       3.056 -10.963   6.195  1.00  0.00     0.000 C 
BRANCH   2   3
ATOM      3  C   UNL     1       4.473 -11.123   6.792  1.00  0.00     0.000 C 
BRANCH   3   4
ATOM      4  C   UNL     1       5.547 -10.325   6.034  1.00  0.00     0.000 C 
BRANCH   4   5
ATOM      5  C   UNL     1       5.300 -10.315   4.514  1.00  0.00     0.000 C 
BRANCH   5   6
ATOM      6  C   UNL     1       5.678  -8.969   3.873  1.00  0.00     0.000 C 
BRANCH   6   7
ATOM      7  C   UNL     1       5.621  -7.779   4.859  1.00  0.00     0.000 C 
BRANCH   7   8
ATOM      8  C   UNL     1       7.008  -7.313   5.337  1.00  0.00     0.000 C 
BRANCH   8   9
ATOM      9  C   UNL     1       8.191  -7.949   4.583  1.00  0.00     0.000 C 
BRANCH   9  10
ATOM     10  C   UNL     1       9.342  -8.451   5.481  1.00  0.00     0.000 C 
BRANCH  10  11
ATOM     11  C   UNL     1       8.918  -8.927   6.885  1.00  0.00     0.000 C 
BRANCH  11  12
ATOM     12  C   UNL     1       9.939  -8.648   8.007  1.00  0.00     0.000 C 
BRANCH  12  13
ATOM     13  C   UNL     1       9.482  -9.061   9.421  1.00  0.00     0.006 C 
BRANCH  13  14
ATOM     14  C   UNL     1       8.016  -8.726   9.736  1.00  0.00     0.053 C 
BRANCH  14  15
ATOM     15  C   UNL     1       7.097  -9.866   9.421  1.00  0.00     0.041 C 
ATOM     16  O   UNL     1       7.513 -10.847   8.748  1.00  0.00    -0.550 OA
ATOM     17  O   UNL     1       5.793  -9.861   9.900  1.00  0.00    -0.550 OA
ENDBRANCH  14  15
ENDBRANCH  13  14
ENDBRANCH  12  13
ENDBRANCH  11  12
ENDBRANCH  10  11
ENDBRANCH   9  10
ENDBRANCH   8   9
ENDBRANCH   7   8
ENDBRANCH   6   7
ENDBRANCH   5   6
ENDBRANCH   4   5
ENDBRANCH   3   4
ENDBRANCH   2   3
ENDBRANCH   1   2
BRANCH   1  18
ATOM     18  C   UNL     1       2.013 -10.107   8.371  1.00  0.00     0.000 C 
BRANCH  18  19
ATOM     19  C   UNL     1       0.767  -9.392   8.920  1.00  0.00     0.000 C 
BRANCH  19  20
ATOM     20  C   UNL     1       1.110  -8.324   9.975  1.00  0.00     0.000 C 
BRANCH  20  21
ATOM     21  C   UNL     1       2.610  -7.961   9.971  1.00  0.00     0.000 C 
BRANCH  21  22
ATOM     22  C   UNL     1       2.902  -6.542   9.442  1.00  0.00     0.000 C 
BRANCH  22  23
ATOM     23  C   UNL     1       4.084  -5.834  10.125  1.00  0.00     0.000 C 
BRANCH  23  24
ATOM     24  C   UNL     1       5.432  -6.510   9.820  1.00  0.00    -0.000 C 
BRANCH  24  25
ATOM     25  C   UNL     1       6.621  -5.556  10.011  1.00  0.00    -0.000 C 
BRANCH  25  26
ATOM     26  C   UNL     1       7.263  -5.142   8.674  1.00  0.00    -0.000 C 
BRANCH  26  27
ATOM     27  C   UNL     1       7.969  -3.773   8.767  1.00  0.00    -0.000 C 
BRANCH  27  28
ATOM     28  C   UNL     1       7.287  -2.792   9.738  1.00  0.00    -0.000 C 
BRANCH  28  29
ATOM     29  C   UNL     1       8.057  -1.474   9.897  1.00  0.00    -0.000 C 
BRANCH  29  30
ATOM     30  C   UNL     1       7.468  -0.377   8.999  1.00  0.00    -0.000 C 
BRANCH  30  31
ATOM     31  C   UNL     1       8.054   1.012   9.301  1.00  0.00    -0.003 C 
ATOM     32  C   UNL     1       7.360   2.130   8.524  1.00  0.00     0.004 C 
ENDBRANCH  30  31
ENDBRANCH  29  30
ENDBRANCH  28  29
ENDBRANCH  27  28
ENDBRANCH  26  27
ENDBRANCH  25  26
ENDBRANCH  24  25
ENDBRANCH  23  24
ENDBRANCH  22  23
ENDBRANCH  21  22
ENDBRANCH  20  21
ENDBRANCH  19  20
ENDBRANCH  18  19
ENDBRANCH   1  18
TORSDOF 28
ENDMDL
MODEL 4
REMARK VINA RESULT:    -0.611      3.058      7.981
REMARK INTER + INTRA:          -2.973
REMARK INTER:                  -2.803
REMARK INTRA:                  -0.169
REMARK UNBOUND:                -1.362
REMARK SMILES CCCCCCCCCCCCCCCCCCCCCCCCCCCCCC(=O)[O-]
REMARK SMILES IDX 16 1 17 2 18 3 19 4 20 5 21 6 22 7 23 8 24 9 25 10 26 11
REMARK SMILES IDX 27 12 28 13 29 14 30 15 31 16 32 17 15 18 14 19 13 20 12 21
REMARK SMILES IDX 11 22 10 23 9 24 8 25 7 26 6 27 5 28 4 29 3 30 2 31 1 32
REMARK H PARENT
REMARK Flexibility Score: inf
ROOT
ATOM      1  C   UNL     1       4.426  -9.518   6.999  1.00  0.00     0.000 C 
ENDROOT
BRANCH   1   2
ATOM      2  C   UNL     1       5.264  -9.975   8.206  1.00  0.00     0.000 C 
BRANCH   2   3
ATOM      3  C   UNL     1       6.757  -9.589   8.106  1.00  0.00     0.000 C 
BRANCH   3   4
ATOM      4  C   UNL     1       7.646 -10.319   9.127  1.00  0.00     0.000 C 
BRANCH   4   5
ATOM      5  C   UNL     1       9.145 -10.069   8.880  1.00  0.00     0.000 C 
BRANCH   5   6
ATOM      6  C   UNL     1       9.385  -8.996   7.805  1.00  0.00     0.000 C 
BRANCH   6   7
ATOM      7  C   UNL     1       9.194  -7.551   8.321  1.00  0.00     0.000 C 
BRANCH   7   8
ATOM      8  C   UNL     1       7.720  -7.174   8.553  1.00  0.00     0.000 C 
BRANCH   8   9
ATOM      9  C   UNL     1       7.419  -5.668   8.435  1.00  0.00     0.000 C 
BRANCH   9  10
ATOM     10  C   UNL     1       8.595  -4.737   8.802  1.00  0.00     0.000 C 
BRANCH  10  11
ATOM     11  C   UNL     1       8.284  -3.229   8.730  1.00  0.00     0.000 C 
BRANCH  11  12
ATOM     12  C   UNL     1       7.370  -2.695   9.852  1.00  0.00     0.000 C 
BRANCH  12  13
ATOM     13  C   UNL     1       6.935  -1.224   9.693  1.00  0.00     0.006 C 
BRANCH  13  14
ATOM     14  C   UNL     1       8.077  -0.206   9.839  1.00  0.00     0.053 C 
BRANCH  14  15
ATOM     15  C   UNL     1       7.860   1.009   8.991  1.00  0.00     0.041 C 
ATOM     16  O   UNL     1       8.605   2.017   9.126  1.00  0.00    -0.550 OA
ATOM     17  O   UNL     1       6.858   1.018   8.029  1.00  0.00    -0.550 OA
ENDBRANCH  14  15
ENDBRANCH  13  14
ENDBRANCH  12  13
ENDBRANCH  11  12
ENDBRANCH  10  11
ENDBRANCH   9  10
ENDBRANCH   8   9
ENDBRANCH   7   8
ENDBRANCH   6   7
ENDBRANCH   5   6
ENDBRANCH   4   5
ENDBRANCH   3   4
ENDBRANCH   2   3
ENDBRANCH   1   2
BRANCH   1  18
ATOM     18  C   UNL     1       5.281  -8.883   5.890  1.00  0.00     0.000 C 
BRANCH  18  19
ATOM     19  C   UNL     1       4.575  -8.883   4.525  1.00  0.00     0.000 C 
BRANCH  19  20
ATOM     20  C   UNL     1       4.724 -10.222   3.778  1.00  0.00     0.000 C 
BRANCH  20  21
ATOM     21  C   UNL     1       3.472 -11.114   3.926  1.00  0.00     0.000 C 
BRANCH  21  22
ATOM     22  C   UNL     1       2.448 -10.579   4.947  1.00  0.00     0.000 C 
BRANCH  22  23
ATOM     23  C   UNL     1       1.011 -11.088   4.739  1.00  0.00     0.000 C 
BRANCH  23  24
ATOM     24  C   UNL     1       0.205 -11.124   6.049  1.00  0.00    -0.000 C 
BRANCH  24  25
ATOM     25  C   UNL     1       0.729 -10.117   7.085  1.00  0.00    -0.000 C 
BRANCH  25  26
ATOM     26  C   UNL     1      -0.333  -9.754   8.140  1.00  0.00    -0.000 C 
BRANCH  26  27
ATOM     27  C   UNL     1       0.295  -9.447   9.516  1.00  0.00    -0.000 C 
BRANCH  27  28
ATOM     28  C   UNL     1       0.141  -7.978   9.949  1.00  0.00    -0.000 C 
BRANCH  28  29
ATOM     29  C   UNL     1       1.487  -7.259  10.120  1.00  0.00    -0.000 C 
BRANCH  29  30
ATOM     30  C   UNL     1       2.181  -7.056   8.765  1.00  0.00    -0.000 C 
BRANCH  30  31
ATOM     31  C   UNL     1       3.696  -7.306   8.836  1.00  0.00    -0.003 C 
ATOM     32  C   UNL     1       4.398  -6.409   9.856  1.00  0.00     0.004 C 
ENDBRANCH  30  31
ENDBRANCH  29  30
ENDBRANCH  28  29
ENDBRANCH  27  28
ENDBRANCH  26  27
ENDBRANCH  25  26
ENDBRANCH  24  25
ENDBRANCH  23  24
ENDBRANCH  22  23
ENDBRANCH  21  22
ENDBRANCH  20  21
ENDBRANCH  19  20
ENDBRANCH  18  19
ENDBRANCH   1  18
TORSDOF 28
ENDMDL
MODEL 5
REMARK VINA RESULT:    -0.063      1.866      3.326
REMARK INTER + INTRA:          -1.529
REMARK INTER:                  -0.641
REMARK INTRA:                  -0.889
REMARK UNBOUND:                -1.362
REMARK SMILES CCCCCCCCCCCCCCCCCCCCCCCCCCCCCC(=O)[O-]
REMARK SMILES IDX 16 1 17 2 18 3 19 4 20 5 21 6 22 7 23 8 24 9 25 10 26 11
REMARK SMILES IDX 27 12 28 13 29 14 30 15 31 16 32 17 15 18 14 19 13 20 12 21
REMARK SMILES IDX 11 22 10 23 9 24 8 25 7 26 6 27 5 28 4 29 3 30 2 31 1 32
REMARK H PARENT
REMARK Flexibility Score: inf
ROOT
ATOM      1  C   UNL     1       4.883 -10.519   5.580  1.00  0.00     0.000 C 
ENDROOT
BRANCH   1   2
ATOM      2  C   UNL     1       4.366 -10.901   6.977  1.00  0.00     0.000 C 
BRANCH   2   3
ATOM      3  C   UNL     1       2.830 -10.790   7.121  1.00  0.00     0.000 C 
BRANCH   3   4
ATOM      4  C   UNL     1       2.326 -11.119   8.537  1.00  0.00     0.000 C 
BRANCH   4   5
ATOM      5  C   UNL     1       0.984 -10.432   8.851  1.00  0.00     0.000 C 
BRANCH   5   6
ATOM      6  C   UNL     1       0.986  -8.945   8.458  1.00  0.00     0.000 C 
BRANCH   6   7
ATOM      7  C   UNL     1       1.141  -7.989   9.664  1.00  0.00     0.000 C 
BRANCH   7   8
ATOM      8  C   UNL     1       2.600  -7.818  10.125  1.00  0.00     0.000 C 
BRANCH   8   9
ATOM      9  C   UNL     1       3.113  -6.366  10.098  1.00  0.00     0.000 C 
BRANCH   9  10
ATOM     10  C   UNL     1       4.619  -6.212   9.798  1.00  0.00     0.000 C 
BRANCH  10  11
ATOM     11  C   UNL     1       5.459  -7.490   9.987  1.00  0.00     0.000 C 
BRANCH  11  12
ATOM     12  C   UNL     1       5.504  -8.431   8.766  1.00  0.00     0.000 C 
BRANCH  12  13
ATOM     13  C   UNL     1       5.137  -9.899   9.059  1.00  0.00     0.006 C 
BRANCH  13  14
ATOM     14  C   UNL     1       6.102 -10.614  10.018  1.00  0.00     0.053 C 
BRANCH  14  15
ATOM     15  C   UNL     1       7.455 -10.815   9.409  1.00  0.00     0.041 C 
ATOM     16  O   UNL     1       8.490 -10.735  10.124  1.00  0.00    -0.550 OA
ATOM     17  O   UNL     1       7.573 -11.125   8.060  1.00  0.00    -0.550 OA
ENDBRANCH  14  15
ENDBRANCH  13  14
ENDBRANCH  12  13
ENDBRANCH  11  12
ENDBRANCH  10  11
ENDBRANCH   9  10
ENDBRANCH   8   9
ENDBRANCH   7   8
ENDBRANCH   6   7
ENDBRANCH   5   6
ENDBRANCH   4   5
ENDBRANCH   3   4
ENDBRANCH   2   3
ENDBRANCH   1   2
BRANCH   1  18
ATOM     18  C   UNL     1       3.747 -10.209   4.591  1.00  0.00     0.000 C 
BRANCH  18  19
ATOM     19  C   UNL     1       4.251 -10.022   3.151  1.00  0.00     0.000 C 
BRANCH  19  20
ATOM     20  C   UNL     1       4.090  -8.575   2.648  1.00  0.00     0.000 C 
BRANCH  20  21
ATOM     21  C   UNL     1       5.390  -7.756   2.803  1.00  0.00     0.000 C 
BRANCH  21  22
ATOM     22  C   UNL     1       6.162  -8.061   4.102  1.00  0.00     0.000 C 
BRANCH  22  23
ATOM     23  C   UNL     1       7.629  -7.598   4.099  1.00  0.00     0.000 C 
BRANCH  23  24
ATOM     24  C   UNL     1       8.187  -7.400   5.519  1.00  0.00    -0.000 C 
BRANCH  24  25
ATOM     25  C   UNL     1       8.382  -8.732   6.260  1.00  0.00    -0.000 C 
BRANCH  25  26
ATOM     26  C   UNL     1       9.716  -8.786   7.028  1.00  0.00    -0.000 C 
BRANCH  26  27
ATOM     27  C   UNL     1       9.924  -7.545   7.922  1.00  0.00    -0.000 C 
BRANCH  27  28
ATOM     28  C   UNL     1       9.054  -7.548   9.192  1.00  0.00    -0.000 C 
BRANCH  28  29
ATOM     29  C   UNL     1       9.116  -6.222   9.964  1.00  0.00    -0.000 C 
BRANCH  29  30
ATOM     30  C   UNL     1       8.791  -5.034   9.048  1.00  0.00    -0.000 C 
BRANCH  30  31
ATOM     31  C   UNL     1       7.595  -4.210   9.554  1.00  0.00    -0.003 C 
ATOM     32  C   UNL     1       7.850  -2.704   9.506  1.00  0.00     0.004 C 
ENDBRANCH  30  31
ENDBRANCH  29  30
ENDBRANCH  28  29
ENDBRANCH  27  28
ENDBRANCH  26  27
ENDBRANCH  25  26
ENDBRANCH  24  25
ENDBRANCH  23  24
ENDBRANCH  22  23
ENDBRANCH  21  22
ENDBRANCH  20  21
ENDBRANCH  19  20
ENDBRANCH  18  19
ENDBRANCH   1  18
TORSDOF 28
ENDMDL
MODEL 6
REMARK VINA RESULT:     0.008      2.784      7.107
REMARK INTER + INTRA:          -1.340
REMARK INTER:                  -2.017
REMARK INTRA:                   0.677
REMARK UNBOUND:                -1.362
REMARK SMILES CCCCCCCCCCCCCCCCCCCCCCCCCCCCCC(=O)[O-]
REMARK SMILES IDX 16 1 17 2 18 3 19 4 20 5 21 6 22 7 23 8 24 9 25 10 26 11
REMARK SMILES IDX 27 12 28 13 29 14 30 15 31 16 32 17 15 18 14 19 13 20 12 21
REMARK SMILES IDX 11 22 10 23 9 24 8 25 7 26 6 27 5 28 4 29 3 30 2 31 1 32
REMARK H PARENT
REMARK Flexibility Score: inf
ROOT
ATOM      1  C   UNL     1       2.250  -9.247   6.364  1.00  0.00     0.000 C 
ENDROOT
BRANCH   1   2
ATOM      2  C   UNL     1       3.025 -10.286   5.535  1.00  0.00     0.000 C 
BRANCH   2   3
ATOM      3  C   UNL     1       4.542 -10.308   5.832  1.00  0.00     0.000 C 
BRANCH   3   4
ATOM      4  C   UNL     1       5.411 -10.151   4.572  1.00  0.00     0.000 C 
BRANCH   4   5
ATOM      5  C   UNL     1       5.396  -8.710   4.030  1.00  0.00     0.000 C 
BRANCH   5   6
ATOM      6  C   UNL     1       6.274  -7.766   4.868  1.00  0.00     0.000 C 
BRANCH   6   7
ATOM      7  C   UNL     1       5.805  -7.627   6.335  1.00  0.00     0.000 C 
BRANCH   7   8
ATOM      8  C   UNL     1       6.947  -7.296   7.314  1.00  0.00     0.000 C 
BRANCH   8   9
ATOM      9  C   UNL     1       6.543  -6.373   8.479  1.00  0.00     0.000 C 
BRANCH   9  10
ATOM     10  C   UNL     1       7.417  -5.112   8.644  1.00  0.00     0.000 C 
BRANCH  10  11
ATOM     11  C   UNL     1       7.378  -4.467  10.043  1.00  0.00     0.000 C 
BRANCH  11  12
ATOM     12  C   UNL     1       6.754  -3.058  10.098  1.00  0.00     0.000 C 
BRANCH  12  13
ATOM     13  C   UNL     1       7.727  -1.901   9.794  1.00  0.00     0.006 C 
BRANCH  13  14
ATOM     14  C   UNL     1       7.076  -0.509   9.790  1.00  0.00     0.053 C 
BRANCH  14  15
ATOM     15  C   UNL     1       7.793   0.445   8.885  1.00  0.00     0.041 C 
ATOM     16  O   UNL     1       7.210   0.919   7.874  1.00  0.00    -0.550 OA
ATOM     17  O   UNL     1       9.093   0.839   9.178  1.00  0.00    -0.550 OA
ENDBRANCH  14  15
ENDBRANCH  13  14
ENDBRANCH  12  13
ENDBRANCH  11  12
ENDBRANCH  10  11
ENDBRANCH   9  10
ENDBRANCH   8   9
ENDBRANCH   7   8
ENDBRANCH   6   7
ENDBRANCH   5   6
ENDBRANCH   4   5
ENDBRANCH   3   4
ENDBRANCH   2   3
ENDBRANCH   1   2
BRANCH   1  18
ATOM     18  C   UNL     1       0.734  -9.502   6.368  1.00  0.00     0.000 C 
BRANCH  18  19
ATOM     19  C   UNL     1       0.138  -9.504   7.785  1.00  0.00     0.000 C 
BRANCH  19  20
ATOM     20  C   UNL     1       0.528 -10.756   8.594  1.00  0.00     0.000 C 
BRANCH  20  21
ATOM     21  C   UNL     1       2.016 -11.125   8.416  1.00  0.00     0.000 C 
BRANCH  21  22
ATOM     22  C   UNL     1       2.985  -9.986   8.793  1.00  0.00     0.000 C 
BRANCH  22  23
ATOM     23  C   UNL     1       3.739 -10.198  10.117  1.00  0.00     0.000 C 
BRANCH  23  24
ATOM     24  C   UNL     1       5.091 -10.904   9.919  1.00  0.00    -0.000 C 
BRANCH  24  25
ATOM     25  C   UNL     1       6.052 -10.089   9.041  1.00  0.00    -0.000 C 
BRANCH  25  26
ATOM     26  C   UNL     1       7.052 -10.979   8.280  1.00  0.00    -0.000 C 
BRANCH  26  27
ATOM     27  C   UNL     1       8.442 -10.322   8.158  1.00  0.00    -0.000 C 
BRANCH  27  28
ATOM     28  C   UNL     1       9.453 -10.821   9.206  1.00  0.00    -0.000 C 
BRANCH  28  29
ATOM     29  C   UNL     1      10.082  -9.682  10.022  1.00  0.00    -0.000 C 
BRANCH  29  30
ATOM     30  C   UNL     1      10.121  -8.379   9.213  1.00  0.00    -0.000 C 
BRANCH  30  31
ATOM     31  C   UNL     1       9.820  -7.141  10.074  1.00  0.00    -0.003 C 
ATOM     32  C   UNL     1      10.103  -5.828   9.343  1.00  0.00     0.004 C 
ENDBRANCH  30  31
ENDBRANCH  29  30
ENDBRANCH  28  29
ENDBRANCH  27  28
ENDBRANCH  26  27
ENDBRANCH  25  26
ENDBRANCH  24  25
ENDBRANCH  23  24
ENDBRANCH  22  23
ENDBRANCH  21  22
ENDBRANCH  20  21
ENDBRANCH  19  20
ENDBRANCH  18  19
ENDBRANCH   1  18
TORSDOF 28
ENDMDL
MODEL 7
REMARK VINA RESULT:     0.105      4.028      7.733
REMARK INTER + INTRA:          -1.085
REMARK INTER:                  -1.658
REMARK INTRA:                   0.573
REMARK UNBOUND:                -1.362
REMARK SMILES CCCCCCCCCCCCCCCCCCCCCCCCCCCCCC(=O)[O-]
REMARK SMILES IDX 16 1 17 2 18 3 19 4 20 5 21 6 22 7 23 8 24 9 25 10 26 11
REMARK SMILES IDX 27 12 28 13 29 14 30 15 31 16 32 17 15 18 14 19 13 20 12 21
REMARK SMILES IDX 11 22 10 23 9 24 8 25 7 26 6 27 5 28 4 29 3 30 2 31 1 32
REMARK H PARENT
REMARK Flexibility Score: inf
ROOT
ATOM      1  C   UNL     1       3.608  -8.148   8.663  1.00  0.00     0.000 C 
ENDROOT
BRANCH   1   2
ATOM      2  C   UNL     1       4.711  -8.190   7.591  1.00  0.00     0.000 C 
BRANCH   2   3
ATOM      3  C   UNL     1       4.289  -8.925   6.297  1.00  0.00     0.000 C 
BRANCH   3   4
ATOM      4  C   UNL     1       5.421  -9.761   5.675  1.00  0.00     0.000 C 
BRANCH   4   5
ATOM      5  C   UNL     1       4.943 -10.573   4.457  1.00  0.00     0.000 C 
BRANCH   5   6
ATOM      6  C   UNL     1       3.474 -10.281   4.104  1.00  0.00     0.000 C 
BRANCH   6   7
ATOM      7  C   UNL     1       2.464 -11.057   4.980  1.00  0.00     0.000 C 
BRANCH   7   8
ATOM      8  C   UNL     1       1.932 -10.239   6.171  1.00  0.00     0.000 C 
BRANCH   8   9
ATOM      9  C   UNL     1       2.003 -10.965   7.528  1.00  0.00     0.000 C 
BRANCH   9  10
ATOM     10  C   UNL     1       1.346 -10.213   8.705  1.00  0.00     0.000 C 
BRANCH  10  11
ATOM     11  C   UNL     1       0.794 -11.111   9.829  1.00  0.00     0.000 C 
BRANCH  11  12
ATOM     12  C   UNL     1      -0.710 -10.940  10.124  1.00  0.00     0.000 C 
BRANCH  12  13
ATOM     13  C   UNL     1      -1.424  -9.870   9.274  1.00  0.00     0.006 C 
BRANCH  13  14
ATOM     14  C   UNL     1      -2.919 -10.139   9.041  1.00  0.00     0.053 C 
BRANCH  14  15
ATOM     15  C   UNL     1      -3.780  -9.041   9.584  1.00  0.00     0.041 C 
ATOM     16  O   UNL     1      -3.263  -7.950   9.947  1.00  0.00    -0.550 OA
ATOM     17  O   UNL     1      -5.157  -9.208   9.658  1.00  0.00    -0.550 OA
ENDBRANCH  14  15
ENDBRANCH  13  14
ENDBRANCH  12  13
ENDBRANCH  11  12
ENDBRANCH  10  11
ENDBRANCH   9  10
ENDBRANCH   8   9
ENDBRANCH   7   8
ENDBRANCH   6   7
ENDBRANCH   5   6
ENDBRANCH   4   5
ENDBRANCH   3   4
ENDBRANCH   2   3
ENDBRANCH   1   2
BRANCH   1  18
ATOM     18  C   UNL     1       3.331  -6.725   9.173  1.00  0.00     0.000 C 
BRANCH  18  19
ATOM     19  C   UNL     1       4.553  -5.802   9.043  1.00  0.00     0.000 C 
BRANCH  19  20
ATOM     20  C   UNL     1       5.682  -6.166  10.027  1.00  0.00     0.000 C 
BRANCH  20  21
ATOM     21  C   UNL     1       6.766  -5.070  10.102  1.00  0.00     0.000 C 
BRANCH  21  22
ATOM     22  C   UNL     1       7.231  -4.564   8.722  1.00  0.00     0.000 C 
BRANCH  22  23
ATOM     23  C   UNL     1       8.641  -5.024   8.313  1.00  0.00     0.000 C 
BRANCH  23  24
ATOM     24  C   UNL     1       8.613  -6.238   7.369  1.00  0.00    -0.000 C 
BRANCH  24  25
ATOM     25  C   UNL     1       8.608  -7.572   8.133  1.00  0.00    -0.000 C 
BRANCH  25  26
ATOM     26  C   UNL     1      10.025  -8.140   8.331  1.00  0.00    -0.000 C 
BRANCH  26  27
ATOM     27  C   UNL     1      10.102  -9.644   7.993  1.00  0.00    -0.000 C 
BRANCH  27  28
ATOM     28  C   UNL     1       9.017 -10.487   8.686  1.00  0.00    -0.000 C 
BRANCH  28  29
ATOM     29  C   UNL     1       7.638  -9.812   8.680  1.00  0.00    -0.000 C 
BRANCH  29  30
ATOM     30  C   UNL     1       6.957  -9.932  10.050  1.00  0.00    -0.000 C 
BRANCH  30  31
ATOM     31  C   UNL     1       5.989 -11.125  10.125  1.00  0.00    -0.003 C 
ATOM     32  C   UNL     1       4.611 -10.806   9.544  1.00  0.00     0.004 C 
ENDBRANCH  30  31
ENDBRANCH  29  30
ENDBRANCH  28  29
ENDBRANCH  27  28
ENDBRANCH  26  27
ENDBRANCH  25  26
ENDBRANCH  24  25
ENDBRANCH  23  24
ENDBRANCH  22  23
ENDBRANCH  21  22
ENDBRANCH  20  21
ENDBRANCH  19  20
ENDBRANCH  18  19
ENDBRANCH   1  18
TORSDOF 28
ENDMDL
