MODEL 1
REMARK VINA RESULT:    -5.069      0.000      0.000
REMARK INTER + INTRA:          -7.214
REMARK INTER:                  -6.254
REMARK INTRA:                  -0.960
REMARK UNBOUND:                -0.960
REMARK SMILES CC(C)=CCC[C@@H](C)c1ccc(C)cc1
REMARK SMILES IDX 6 1 7 2 8 3 9 4 13 5 12 6 11 7 14 8 10 9 15 10 5 11 4 12
REMARK SMILES IDX 2 13 1 14 3 15
REMARK H PARENT
REMARK Flexibility Score: inf
ROOT
ATOM      1  C   UNL     1      26.704  30.243  34.409  1.00  0.00     0.012 C 
ENDROOT
BRANCH   1   2
ATOM      2  C   UNL     1      26.980  31.690  33.938  1.00  0.00     0.016 C 
ATOM      3  C   UNL     1      26.951  32.697  35.098  1.00  0.00     0.013 C 
BRANCH   2   4
ATOM      4  C   UNL     1      28.311  31.764  33.209  1.00  0.00    -0.045 A 
ATOM      5  C   UNL     1      32.074  31.976  31.099  1.00  0.00     0.044 C 
ATOM      6  C   UNL     1      30.776  31.876  31.846  1.00  0.00    -0.051 A 
ATOM      7  C   UNL     1      29.669  31.251  31.255  1.00  0.00     0.004 A 
ATOM      8  C   UNL     1      30.640  32.467  33.110  1.00  0.00     0.004 A 
ATOM      9  C   UNL     1      28.448  31.188  31.933  1.00  0.00     0.004 A 
ATOM     10  C   UNL     1      29.420  32.406  33.790  1.00  0.00     0.004 A 
ENDBRANCH   2   4
ENDBRANCH   1   2
BRANCH   1  11
ATOM     11  C   UNL     1      27.987  29.409  34.547  1.00  0.00     0.028 C 
BRANCH  11  12
ATOM     12  C   UNL     1      28.557  29.511  35.942  1.00  0.00    -0.028 C 
ATOM     13  C   UNL     1      29.882  29.468  36.199  1.00  0.00    -0.080 C 
ATOM     14  C   UNL     1      30.383  29.573  37.616  1.00  0.00     0.039 C 
ATOM     15  C   UNL     1      30.899  29.317  35.094  1.00  0.00     0.039 C 
ENDBRANCH  11  12
ENDBRANCH   1  11
TORSDOF 4
ENDMDL
MODEL 2
REMARK VINA RESULT:    -4.796     11.087     13.706
REMARK INTER + INTRA:          -6.878
REMARK INTER:                  -5.960
REMARK INTRA:                  -0.917
REMARK UNBOUND:                -0.960
REMARK SMILES CC(C)=CCC[C@@H](C)c1ccc(C)cc1
REMARK SMILES IDX 6 1 7 2 8 3 9 4 13 5 12 6 11 7 14 8 10 9 15 10 5 11 4 12
REMARK SMILES IDX 2 13 1 14 3 15
REMARK H PARENT
REMARK Flexibility Score: inf
ROOT
ATOM      1  C   UNL     1      23.117  39.377  45.211  1.00  0.00     0.012 C 
ENDROOT
BRANCH   1   2
ATOM      2  C   UNL     1      23.310  39.656  43.702  1.00  0.00     0.016 C 
ATOM      3  C   UNL     1      23.261  41.157  43.375  1.00  0.00     0.013 C 
BRANCH   2   4
ATOM      4  C   UNL     1      24.617  39.054  43.216  1.00  0.00    -0.045 A 
ATOM      5  C   UNL     1      28.314  37.302  41.827  1.00  0.00     0.044 C 
ATOM      6  C   UNL     1      27.044  37.919  42.336  1.00  0.00    -0.051 A 
ATOM      7  C   UNL     1      26.094  37.130  43.001  1.00  0.00     0.004 A 
ATOM      8  C   UNL     1      26.766  39.271  42.091  1.00  0.00     0.004 A 
ATOM      9  C   UNL     1      24.893  37.694  43.444  1.00  0.00     0.004 A 
ATOM     10  C   UNL     1      25.566  39.836  42.532  1.00  0.00     0.004 A 
ENDBRANCH   2   4
ENDBRANCH   1   2
BRANCH   1  11
ATOM     11  C   UNL     1      21.710  38.858  45.542  1.00  0.00     0.028 C 
BRANCH  11  12
ATOM     12  C   UNL     1      21.344  37.679  44.672  1.00  0.00    -0.028 C 
ATOM     13  C   UNL     1      20.392  37.740  43.716  1.00  0.00    -0.080 C 
ATOM     14  C   UNL     1      20.075  36.524  42.884  1.00  0.00     0.039 C 
ATOM     15  C   UNL     1      19.619  39.008  43.447  1.00  0.00     0.039 C 
ENDBRANCH  11  12
ENDBRANCH   1  11
TORSDOF 4
ENDMDL
MODEL 3
REMARK VINA RESULT:    -4.789     10.024     12.492
REMARK INTER + INTRA:          -6.869
REMARK INTER:                  -5.699
REMARK INTRA:                  -1.170
REMARK UNBOUND:                -0.960
REMARK SMILES CC(C)=CCC[C@@H](C)c1ccc(C)cc1
REMARK SMILES IDX 6 1 7 2 8 3 9 4 13 5 12 6 11 7 14 8 10 9 15 10 5 11 4 12
REMARK SMILES IDX 2 13 1 14 3 15
REMARK H PARENT
REMARK Flexibility Score: inf
ROOT
ATOM      1  C   UNL     1      26.059  34.989  42.183  1.00  0.00     0.012 C 
ENDROOT
BRANCH   1   2
ATOM      2  C   UNL     1      25.188  34.769  43.442  1.00  0.00     0.016 C 
ATOM      3  C   UNL     1      25.943  35.097  44.739  1.00  0.00     0.013 C 
BRANCH   2   4
ATOM      4  C   UNL     1      23.914  35.591  43.352  1.00  0.00    -0.045 A 
ATOM      5  C   UNL     1      20.266  37.893  43.107  1.00  0.00     0.044 C 
ATOM      6  C   UNL     1      21.540  37.102  43.163  1.00  0.00    -0.051 A 
ATOM      7  C   UNL     1      21.539  35.739  42.833  1.00  0.00     0.004 A 
ATOM      8  C   UNL     1      22.725  37.701  43.612  1.00  0.00     0.004 A 
ATOM      9  C   UNL     1      22.718  34.991  42.920  1.00  0.00     0.004 A 
ATOM     10  C   UNL     1      23.904  36.955  43.700  1.00  0.00     0.004 A 
ENDBRANCH   2   4
ENDBRANCH   1   2
BRANCH   1  11
ATOM     11  C   UNL     1      27.304  35.844  42.466  1.00  0.00     0.028 C 
BRANCH  11  12
ATOM     12  C   UNL     1      27.250  37.151  41.711  1.00  0.00    -0.028 C 
ATOM     13  C   UNL     1      27.260  38.355  42.324  1.00  0.00    -0.080 C 
ATOM     14  C   UNL     1      27.202  39.621  41.509  1.00  0.00     0.039 C 
ATOM     15  C   UNL     1      27.328  38.477  43.826  1.00  0.00     0.039 C 
ENDBRANCH  11  12
ENDBRANCH   1  11
TORSDOF 4
ENDMDL
MODEL 4
REMARK VINA RESULT:    -4.767     12.997     14.797
REMARK INTER + INTRA:          -6.841
REMARK INTER:                  -5.433
REMARK INTRA:                  -1.408
REMARK UNBOUND:                -0.960
REMARK SMILES CC(C)=CCC[C@@H](C)c1ccc(C)cc1
REMARK SMILES IDX 6 1 7 2 8 3 9 4 13 5 12 6 11 7 14 8 10 9 15 10 5 11 4 12
REMARK SMILES IDX 2 13 1 14 3 15
REMARK H PARENT
REMARK Flexibility Score: inf
ROOT
ATOM      1  C   UNL     1      23.750  35.977  44.747  1.00  0.00     0.012 C 
ENDROOT
BRANCH   1   2
ATOM      2  C   UNL     1      22.540  36.426  45.599  1.00  0.00     0.016 C 
ATOM      3  C   UNL     1      22.965  37.232  46.837  1.00  0.00     0.013 C 
BRANCH   2   4
ATOM      4  C   UNL     1      21.569  37.233  44.754  1.00  0.00    -0.045 A 
ATOM      5  C   UNL     1      18.784  39.490  42.344  1.00  0.00     0.044 C 
ATOM      6  C   UNL     1      19.775  38.716  43.163  1.00  0.00    -0.051 A 
ATOM      7  C   UNL     1      20.060  37.380  42.849  1.00  0.00     0.004 A 
ATOM      8  C   UNL     1      20.370  39.301  44.290  1.00  0.00     0.004 A 
ATOM      9  C   UNL     1      20.955  36.646  43.634  1.00  0.00     0.004 A 
ATOM     10  C   UNL     1      21.265  38.568  45.076  1.00  0.00     0.004 A 
ENDBRANCH   2   4
ENDBRANCH   1   2
BRANCH   1  11
ATOM     11  C   UNL     1      24.882  37.015  44.730  1.00  0.00     0.028 C 
BRANCH  11  12
ATOM     12  C   UNL     1      24.712  37.988  43.587  1.00  0.00    -0.028 C 
ATOM     13  C   UNL     1      24.645  39.325  43.765  1.00  0.00    -0.080 C 
ATOM     14  C   UNL     1      24.473  40.240  42.580  1.00  0.00     0.039 C 
ATOM     15  C   UNL     1      24.739  39.947  45.137  1.00  0.00     0.039 C 
ENDBRANCH  11  12
ENDBRANCH   1  11
TORSDOF 4
ENDMDL
MODEL 5
REMARK VINA RESULT:    -4.756     12.012     14.978
REMARK INTER + INTRA:          -6.829
REMARK INTER:                  -5.447
REMARK INTRA:                  -1.382
REMARK UNBOUND:                -0.960
REMARK SMILES CC(C)=CCC[C@@H](C)c1ccc(C)cc1
REMARK SMILES IDX 6 1 7 2 8 3 9 4 13 5 12 6 11 7 14 8 10 9 15 10 5 11 4 12
REMARK SMILES IDX 2 13 1 14 3 15
REMARK H PARENT
REMARK Flexibility Score: inf
ROOT
ATOM      1  C   UNL     1      20.931  37.079  42.624  1.00  0.00     0.012 C 
ENDROOT
BRANCH   1   2
ATOM      2  C   UNL     1      21.951  36.274  43.463  1.00  0.00     0.016 C 
ATOM      3  C   UNL     1      22.705  35.233  42.622  1.00  0.00     0.013 C 
BRANCH   2   4
ATOM      4  C   UNL     1      22.931  37.212  44.145  1.00  0.00    -0.045 A 
ATOM      5  C   UNL     1      25.736  39.847  46.108  1.00  0.00     0.044 C 
ATOM      6  C   UNL     1      24.738  38.951  45.434  1.00  0.00    -0.051 A 
ATOM      7  C   UNL     1      24.180  37.868  46.129  1.00  0.00     0.004 A 
ATOM      8  C   UNL     1      24.410  39.146  44.085  1.00  0.00     0.004 A 
ATOM      9  C   UNL     1      23.279  37.010  45.492  1.00  0.00     0.004 A 
ATOM     10  C   UNL     1      23.509  38.289  43.447  1.00  0.00     0.004 A 
ENDBRANCH   2   4
ENDBRANCH   1   2
BRANCH   1  11
ATOM     11  C   UNL     1      19.850  37.748  43.487  1.00  0.00     0.028 C 
BRANCH  11  12
ATOM     12  C   UNL     1      19.749  39.224  43.188  1.00  0.00    -0.028 C 
ATOM     13  C   UNL     1      20.191  40.178  44.036  1.00  0.00    -0.080 C 
ATOM     14  C   UNL     1      20.057  41.634  43.675  1.00  0.00     0.039 C 
ATOM     15  C   UNL     1      20.827  39.827  45.359  1.00  0.00     0.039 C 
ENDBRANCH  11  12
ENDBRANCH   1  11
TORSDOF 4
ENDMDL
MODEL 6
REMARK VINA RESULT:    -4.716     12.391     14.700
REMARK INTER + INTRA:          -6.779
REMARK INTER:                  -5.322
REMARK INTRA:                  -1.457
REMARK UNBOUND:                -0.960
REMARK SMILES CC(C)=CCC[C@@H](C)c1ccc(C)cc1
REMARK SMILES IDX 6 1 7 2 8 3 9 4 13 5 12 6 11 7 14 8 10 9 15 10 5 11 4 12
REMARK SMILES IDX 2 13 1 14 3 15
REMARK H PARENT
REMARK Flexibility Score: inf
ROOT
ATOM      1  C   UNL     1      20.980  40.612  44.563  1.00  0.00     0.012 C 
ENDROOT
BRANCH   1   2
ATOM      2  C   UNL     1      20.083  39.415  44.170  1.00  0.00     0.016 C 
ATOM      3  C   UNL     1      19.349  39.647  42.841  1.00  0.00     0.013 C 
BRANCH   2   4
ATOM      4  C   UNL     1      20.905  38.139  44.102  1.00  0.00    -0.045 A 
ATOM      5  C   UNL     1      23.250  34.519  43.866  1.00  0.00     0.044 C 
ATOM      6  C   UNL     1      22.411  35.760  43.959  1.00  0.00    -0.051 A 
ATOM      7  C   UNL     1      21.686  36.205  42.845  1.00  0.00     0.004 A 
ATOM      8  C   UNL     1      22.402  36.521  45.136  1.00  0.00     0.004 A 
ATOM      9  C   UNL     1      20.933  37.382  42.917  1.00  0.00     0.004 A 
ATOM     10  C   UNL     1      21.650  37.697  45.211  1.00  0.00     0.004 A 
ENDBRANCH   2   4
ENDBRANCH   1   2
BRANCH   1  11
ATOM     11  C   UNL     1      22.210  40.755  43.654  1.00  0.00     0.028 C 
BRANCH  11  12
ATOM     12  C   UNL     1      23.490  40.656  44.450  1.00  0.00    -0.028 C 
ATOM     13  C   UNL     1      24.481  39.791  44.142  1.00  0.00    -0.080 C 
ATOM     14  C   UNL     1      25.732  39.742  44.980  1.00  0.00     0.039 C 
ATOM     15  C   UNL     1      24.376  38.853  42.964  1.00  0.00     0.039 C 
ENDBRANCH  11  12
ENDBRANCH   1  11
TORSDOF 4
ENDMDL
MODEL 7
REMARK VINA RESULT:    -4.715     10.503     13.326
REMARK INTER + INTRA:          -6.778
REMARK INTER:                  -6.054
REMARK INTRA:                  -0.724
REMARK UNBOUND:                -0.960
REMARK SMILES CC(C)=CCC[C@@H](C)c1ccc(C)cc1
REMARK SMILES IDX 6 1 7 2 8 3 9 4 13 5 12 6 11 7 14 8 10 9 15 10 5 11 4 12
REMARK SMILES IDX 2 13 1 14 3 15
REMARK H PARENT
REMARK Flexibility Score: inf
ROOT
ATOM      1  C   UNL     1      23.260  35.427  44.099  1.00  0.00     0.012 C 
ENDROOT
BRANCH   1   2
ATOM      2  C   UNL     1      22.382  35.897  42.916  1.00  0.00     0.016 C 
ATOM      3  C   UNL     1      21.255  34.904  42.594  1.00  0.00     0.013 C 
BRANCH   2   4
ATOM      4  C   UNL     1      21.805  37.274  43.199  1.00  0.00    -0.045 A 
ATOM      5  C   UNL     1      20.201  41.206  43.988  1.00  0.00     0.044 C 
ATOM      6  C   UNL     1      20.756  39.833  43.744  1.00  0.00    -0.051 A 
ATOM      7  C   UNL     1      22.142  39.625  43.736  1.00  0.00     0.004 A 
ATOM      8  C   UNL     1      19.897  38.764  43.455  1.00  0.00     0.004 A 
ATOM      9  C   UNL     1      22.663  38.354  43.473  1.00  0.00     0.004 A 
ATOM     10  C   UNL     1      20.416  37.493  43.191  1.00  0.00     0.004 A 
ENDBRANCH   2   4
ENDBRANCH   1   2
BRANCH   1  11
ATOM     11  C   UNL     1      24.574  34.777  43.641  1.00  0.00     0.028 C 
BRANCH  11  12
ATOM     12  C   UNL     1      25.241  35.596  42.562  1.00  0.00    -0.028 C 
ATOM     13  C   UNL     1      26.582  35.715  42.453  1.00  0.00    -0.080 C 
ATOM     14  C   UNL     1      27.181  36.551  41.352  1.00  0.00     0.039 C 
ATOM     15  C   UNL     1      27.518  35.026  43.415  1.00  0.00     0.039 C 
ENDBRANCH  11  12
ENDBRANCH   1  11
TORSDOF 4
ENDMDL
MODEL 8
REMARK VINA RESULT:    -4.588     10.010     12.333
REMARK INTER + INTRA:          -6.622
REMARK INTER:                  -5.185
REMARK INTRA:                  -1.437
REMARK UNBOUND:                -0.960
REMARK SMILES CC(C)=CCC[C@@H](C)c1ccc(C)cc1
REMARK SMILES IDX 6 1 7 2 8 3 9 4 13 5 12 6 11 7 14 8 10 9 15 10 5 11 4 12
REMARK SMILES IDX 2 13 1 14 3 15
REMARK H PARENT
REMARK Flexibility Score: inf
ROOT
ATOM      1  C   UNL     1      28.921  36.365  42.375  1.00  0.00     0.012 C 
ENDROOT
BRANCH   1   2
ATOM      2  C   UNL     1      28.550  35.186  43.304  1.00  0.00     0.016 C 
ATOM      3  C   UNL     1      29.220  35.297  44.683  1.00  0.00     0.013 C 
BRANCH   2   4
ATOM      4  C   UNL     1      27.042  35.089  43.457  1.00  0.00    -0.045 A 
ATOM      5  C   UNL     1      22.755  34.840  43.926  1.00  0.00     0.044 C 
ATOM      6  C   UNL     1      24.246  34.896  43.766  1.00  0.00    -0.051 A 
ATOM      7  C   UNL     1      25.067  35.117  44.881  1.00  0.00     0.004 A 
ATOM      8  C   UNL     1      24.825  34.796  42.493  1.00  0.00     0.004 A 
ATOM      9  C   UNL     1      26.454  35.206  44.730  1.00  0.00     0.004 A 
ATOM     10  C   UNL     1      26.212  34.885  42.340  1.00  0.00     0.004 A 
ENDBRANCH   2   4
ENDBRANCH   1   2
BRANCH   1  11
ATOM     11  C   UNL     1      28.751  37.733  43.054  1.00  0.00     0.028 C 
BRANCH  11  12
ATOM     12  C   UNL     1      27.553  38.470  42.504  1.00  0.00    -0.028 C 
ATOM     13  C   UNL     1      26.596  39.007  43.291  1.00  0.00    -0.080 C 
ATOM     14  C   UNL     1      25.425  39.728  42.676  1.00  0.00     0.039 C 
ATOM     15  C   UNL     1      26.660  38.907  44.796  1.00  0.00     0.039 C 
ENDBRANCH  11  12
ENDBRANCH   1  11
TORSDOF 4
ENDMDL
MODEL 9
REMARK VINA RESULT:    -4.577     11.020     13.876
REMARK INTER + INTRA:          -6.607
REMARK INTER:                  -5.602
REMARK INTRA:                  -1.005
REMARK UNBOUND:                -0.960
REMARK SMILES CC(C)=CCC[C@@H](C)c1ccc(C)cc1
REMARK SMILES IDX 6 1 7 2 8 3 9 4 13 5 12 6 11 7 14 8 10 9 15 10 5 11 4 12
REMARK SMILES IDX 2 13 1 14 3 15
REMARK H PARENT
REMARK Flexibility Score: inf
ROOT
ATOM      1  C   UNL     1      23.751  36.224  44.718  1.00  0.00     0.012 C 
ENDROOT
BRANCH   1   2
ATOM      2  C   UNL     1      23.001  36.558  43.408  1.00  0.00     0.016 C 
ATOM      3  C   UNL     1      22.046  35.434  42.978  1.00  0.00     0.013 C 
BRANCH   2   4
ATOM      4  C   UNL     1      22.242  37.867  43.552  1.00  0.00    -0.045 A 
ATOM      5  C   UNL     1      20.062  41.569  43.993  1.00  0.00     0.044 C 
ATOM      6  C   UNL     1      20.812  40.283  43.810  1.00  0.00    -0.051 A 
ATOM      7  C   UNL     1      20.178  39.056  44.054  1.00  0.00     0.004 A 
ATOM      8  C   UNL     1      22.170  40.299  43.461  1.00  0.00     0.004 A 
ATOM      9  C   UNL     1      20.885  37.857  43.919  1.00  0.00     0.004 A 
ATOM     10  C   UNL     1      22.878  39.101  43.326  1.00  0.00     0.004 A 
ENDBRANCH   2   4
ENDBRANCH   1   2
BRANCH   1  11
ATOM     11  C   UNL     1      25.201  36.729  44.717  1.00  0.00     0.028 C 
BRANCH  11  12
ATOM     12  C   UNL     1      25.896  36.390  43.420  1.00  0.00    -0.028 C 
ATOM     13  C   UNL     1      26.550  37.308  42.675  1.00  0.00    -0.080 C 
ATOM     14  C   UNL     1      27.220  36.901  41.388  1.00  0.00     0.039 C 
ATOM     15  C   UNL     1      26.635  38.754  43.096  1.00  0.00     0.039 C 
ENDBRANCH  11  12
ENDBRANCH   1  11
TORSDOF 4
ENDMDL
