MODEL 1
REMARK VINA RESULT:    -5.203      0.000      0.000
REMARK INTER + INTRA:          -7.153
REMARK INTER:                  -6.572
REMARK INTRA:                  -0.581
REMARK UNBOUND:                -0.581
REMARK SMILES CC(C)=CCCC(C)=CCO
REMARK SMILES IDX 7 1 9 2 8 3 6 4 5 5 4 6 1 7 2 8 3 9 10 10 11 11
REMARK H PARENT 11 12
REMARK Flexibility Score: inf
ROOT
ATOM      1  C   UNL     1      18.420  -3.792 -27.685  1.00  0.00    -0.075 C 
ATOM      2  C   UNL     1      18.044  -5.013 -28.128  1.00  0.00    -0.000 C 
ATOM      3  C   UNL     1      17.777  -3.157 -26.475  1.00  0.00     0.039 C 
ENDROOT
BRANCH   1   4
ATOM      4  C   UNL     1      19.503  -3.040 -28.428  1.00  0.00     0.034 C 
BRANCH   4   5
ATOM      5  C   UNL     1      20.891  -3.572 -28.053  1.00  0.00     0.032 C 
BRANCH   5   6
ATOM      6  C   UNL     1      21.635  -2.571 -27.205  1.00  0.00    -0.028 C 
ATOM      7  C   UNL     1      22.496  -1.551 -25.141  1.00  0.00     0.039 C 
ATOM      8  C   UNL     1      21.756  -2.649 -25.861  1.00  0.00    -0.080 C 
ATOM      9  C   UNL     1      21.187  -3.804 -25.071  1.00  0.00     0.039 C 
ENDBRANCH   5   6
ENDBRANCH   4   5
ENDBRANCH   1   4
BRANCH   2  10
ATOM     10  C   UNL     1      16.977  -5.850 -27.476  1.00  0.00     0.183 C 
BRANCH  10  11
ATOM     11  O   UNL     1      16.473  -6.778 -28.396  1.00  0.00    -0.392 OA
ATOM     12  H   UNL     1      16.606  -6.375 -29.294  1.00  0.00     0.210 HD
ENDBRANCH  10  11
ENDBRANCH   2  10
TORSDOF 5
ENDMDL
MODEL 2
REMARK VINA RESULT:    -5.186     11.831     14.484
REMARK INTER + INTRA:          -7.131
REMARK INTER:                  -6.630
REMARK INTRA:                  -0.501
REMARK UNBOUND:                -0.581
REMARK SMILES CC(C)=CCCC(C)=CCO
REMARK SMILES IDX 7 1 9 2 8 3 6 4 5 5 4 6 1 7 2 8 3 9 10 10 11 11
REMARK H PARENT 11 12
REMARK Flexibility Score: inf
ROOT
ATOM      1  C   UNL     1      27.519  -1.333 -16.393  1.00  0.00    -0.075 C 
ATOM      2  C   UNL     1      26.193  -1.206 -16.164  1.00  0.00    -0.000 C 
ATOM      3  C   UNL     1      28.065  -1.546 -17.786  1.00  0.00     0.039 C 
ENDROOT
BRANCH   1   4
ATOM      4  C   UNL     1      28.478  -1.272 -15.225  1.00  0.00     0.034 C 
BRANCH   4   5
ATOM      5  C   UNL     1      29.304   0.019 -15.264  1.00  0.00     0.032 C 
BRANCH   5   6
ATOM      6  C   UNL     1      30.777  -0.293 -15.355  1.00  0.00    -0.028 C 
ATOM      7  C   UNL     1      32.998  -0.441 -16.399  1.00  0.00     0.039 C 
ATOM      8  C   UNL     1      31.546  -0.037 -16.437  1.00  0.00    -0.080 C 
ATOM      9  C   UNL     1      30.998   0.649 -17.666  1.00  0.00     0.039 C 
ENDBRANCH   5   6
ENDBRANCH   4   5
ENDBRANCH   1   4
BRANCH   2  10
ATOM     10  C   UNL     1      25.147  -1.256 -17.244  1.00  0.00     0.183 C 
BRANCH  10  11
ATOM     11  O   UNL     1      24.706  -2.574 -17.418  1.00  0.00    -0.392 OA
ATOM     12  H   UNL     1      25.209  -2.932 -18.195  1.00  0.00     0.210 HD
ENDBRANCH  10  11
ENDBRANCH   2  10
TORSDOF 5
ENDMDL
MODEL 3
REMARK VINA RESULT:    -5.178     10.827     12.612
REMARK INTER + INTRA:          -7.121
REMARK INTER:                  -6.664
REMARK INTRA:                  -0.457
REMARK UNBOUND:                -0.581
REMARK SMILES CC(C)=CCCC(C)=CCO
REMARK SMILES IDX 7 1 9 2 8 3 6 4 5 5 4 6 1 7 2 8 3 9 10 10 11 11
REMARK H PARENT 11 12
REMARK Flexibility Score: inf
ROOT
ATOM      1  C   UNL     1      20.582   1.264 -16.718  1.00  0.00    -0.075 C 
ATOM      2  C   UNL     1      21.785   0.757 -16.366  1.00  0.00    -0.000 C 
ATOM      3  C   UNL     1      20.257   1.603 -18.154  1.00  0.00     0.039 C 
ENDROOT
BRANCH   1   4
ATOM      4  C   UNL     1      19.543   1.509 -15.647  1.00  0.00     0.034 C 
BRANCH   4   5
ATOM      5  C   UNL     1      18.743   0.232 -15.362  1.00  0.00     0.032 C 
BRANCH   5   6
ATOM      6  C   UNL     1      17.263   0.524 -15.335  1.00  0.00    -0.028 C 
ATOM      7  C   UNL     1      14.998   0.816 -16.243  1.00  0.00     0.039 C 
ATOM      8  C   UNL     1      16.452   0.457 -16.414  1.00  0.00    -0.080 C 
ATOM      9  C   UNL     1      16.956   0.020 -17.769  1.00  0.00     0.039 C 
ENDBRANCH   5   6
ENDBRANCH   4   5
ENDBRANCH   1   4
BRANCH   2  10
ATOM     10  C   UNL     1      22.896   0.478 -17.341  1.00  0.00     0.183 C 
BRANCH  10  11
ATOM     11  O   UNL     1      24.134   0.594 -16.696  1.00  0.00    -0.392 OA
ATOM     12  H   UNL     1      24.814   0.276 -17.345  1.00  0.00     0.210 HD
ENDBRANCH  10  11
ENDBRANCH   2  10
TORSDOF 5
ENDMDL
MODEL 4
REMARK VINA RESULT:    -5.173      3.071      5.430
REMARK INTER + INTRA:          -7.116
REMARK INTER:                  -6.674
REMARK INTRA:                  -0.441
REMARK UNBOUND:                -0.581
REMARK SMILES CC(C)=CCCC(C)=CCO
REMARK SMILES IDX 7 1 9 2 8 3 6 4 5 5 4 6 1 7 2 8 3 9 10 10 11 11
REMARK H PARENT 11 12
REMARK Flexibility Score: inf
ROOT
ATOM      1  C   UNL     1      21.424  -3.067 -27.101  1.00  0.00    -0.075 C 
ATOM      2  C   UNL     1      22.443  -2.211 -27.339  1.00  0.00    -0.000 C 
ATOM      3  C   UNL     1      21.160  -3.617 -25.719  1.00  0.00     0.039 C 
ENDROOT
BRANCH   1   4
ATOM      4  C   UNL     1      20.534  -3.492 -28.248  1.00  0.00     0.034 C 
BRANCH   4   5
ATOM      5  C   UNL     1      19.060  -3.223 -27.923  1.00  0.00     0.032 C 
BRANCH   5   6
ATOM      6  C   UNL     1      18.225  -4.454 -28.175  1.00  0.00    -0.028 C 
ATOM      7  C   UNL     1      16.883  -6.433 -27.605  1.00  0.00     0.039 C 
ATOM      8  C   UNL     1      17.659  -5.205 -27.204  1.00  0.00    -0.080 C 
ATOM      9  C   UNL     1      17.771  -4.840 -25.742  1.00  0.00     0.039 C 
ENDBRANCH   5   6
ENDBRANCH   4   5
ENDBRANCH   1   4
BRANCH   2  10
ATOM     10  C   UNL     1      23.394  -1.724 -26.281  1.00  0.00     0.183 C 
BRANCH  10  11
ATOM     11  O   UNL     1      24.714  -1.954 -26.687  1.00  0.00    -0.392 OA
ATOM     12  H   UNL     1      25.089  -1.065 -26.923  1.00  0.00     0.210 HD
ENDBRANCH  10  11
ENDBRANCH   2  10
TORSDOF 5
ENDMDL
MODEL 5
REMARK VINA RESULT:    -5.102      2.610      4.999
REMARK INTER + INTRA:          -7.025
REMARK INTER:                  -6.544
REMARK INTRA:                  -0.481
REMARK UNBOUND:                -0.581
REMARK SMILES CC(C)=CCCC(C)=CCO
REMARK SMILES IDX 7 1 9 2 8 3 6 4 5 5 4 6 1 7 2 8 3 9 10 10 11 11
REMARK H PARENT 11 12
REMARK Flexibility Score: inf
ROOT
ATOM      1  C   UNL     1      21.479  -3.151 -27.060  1.00  0.00    -0.075 C 
ATOM      2  C   UNL     1      21.321  -3.756 -25.862  1.00  0.00    -0.000 C 
ATOM      3  C   UNL     1      22.481  -2.037 -27.257  1.00  0.00     0.039 C 
ENDROOT
BRANCH   1   4
ATOM      4  C   UNL     1      20.625  -3.592 -28.228  1.00  0.00     0.034 C 
BRANCH   4   5
ATOM      5  C   UNL     1      19.150  -3.252 -27.982  1.00  0.00     0.032 C 
BRANCH   5   6
ATOM      6  C   UNL     1      18.279  -4.464 -28.204  1.00  0.00    -0.028 C 
ATOM      7  C   UNL     1      16.874  -6.384 -27.587  1.00  0.00     0.039 C 
ATOM      8  C   UNL     1      17.685  -5.169 -27.216  1.00  0.00    -0.080 C 
ATOM      9  C   UNL     1      17.800  -4.767 -25.764  1.00  0.00     0.039 C 
ENDBRANCH   5   6
ENDBRANCH   4   5
ENDBRANCH   1   4
BRANCH   2  10
ATOM     10  C   UNL     1      22.108  -3.399 -24.630  1.00  0.00     0.183 C 
BRANCH  10  11
ATOM     11  O   UNL     1      22.882  -4.495 -24.227  1.00  0.00    -0.392 OA
ATOM     12  H   UNL     1      22.298  -5.292 -24.321  1.00  0.00     0.210 HD
ENDBRANCH  10  11
ENDBRANCH   2  10
TORSDOF 5
ENDMDL
MODEL 6
REMARK VINA RESULT:    -5.064      9.997     12.080
REMARK INTER + INTRA:          -6.977
REMARK INTER:                  -6.505
REMARK INTRA:                  -0.472
REMARK UNBOUND:                -0.581
REMARK SMILES CC(C)=CCCC(C)=CCO
REMARK SMILES IDX 7 1 9 2 8 3 6 4 5 5 4 6 1 7 2 8 3 9 10 10 11 11
REMARK H PARENT 11 12
REMARK Flexibility Score: inf
ROOT
ATOM      1  C   UNL     1      20.596   1.274 -16.749  1.00  0.00    -0.075 C 
ATOM      2  C   UNL     1      20.262   1.481 -18.043  1.00  0.00    -0.000 C 
ATOM      3  C   UNL     1      21.978   0.807 -16.353  1.00  0.00     0.039 C 
ENDROOT
BRANCH   1   4
ATOM      4  C   UNL     1      19.557   1.502 -15.674  1.00  0.00     0.034 C 
BRANCH   4   5
ATOM      5  C   UNL     1      18.760   0.220 -15.406  1.00  0.00     0.032 C 
BRANCH   5   6
ATOM      6  C   UNL     1      17.284   0.517 -15.318  1.00  0.00    -0.028 C 
ATOM      7  C   UNL     1      14.989   0.843 -16.137  1.00  0.00     0.039 C 
ATOM      8  C   UNL     1      16.434   0.482 -16.369  1.00  0.00    -0.080 C 
ATOM      9  C   UNL     1      16.887   0.079 -17.752  1.00  0.00     0.039 C 
ENDBRANCH   5   6
ENDBRANCH   4   5
ENDBRANCH   1   4
BRANCH   2  10
ATOM     10  C   UNL     1      21.208   1.282 -19.195  1.00  0.00     0.183 C 
BRANCH  10  11
ATOM     11  O   UNL     1      21.093  -0.026 -19.683  1.00  0.00    -0.392 OA
ATOM     12  H   UNL     1      20.531  -0.515 -19.028  1.00  0.00     0.210 HD
ENDBRANCH  10  11
ENDBRANCH   2  10
TORSDOF 5
ENDMDL
MODEL 7
REMARK VINA RESULT:    -4.974     10.516     11.778
REMARK INTER + INTRA:          -6.864
REMARK INTER:                  -6.480
REMARK INTRA:                  -0.384
REMARK UNBOUND:                -0.581
REMARK SMILES CC(C)=CCCC(C)=CCO
REMARK SMILES IDX 7 1 9 2 8 3 6 4 5 5 4 6 1 7 2 8 3 9 10 10 11 11
REMARK H PARENT 11 12
REMARK Flexibility Score: inf
ROOT
ATOM      1  C   UNL     1      18.245   0.897 -16.408  1.00  0.00    -0.075 C 
ATOM      2  C   UNL     1      17.089   0.548 -15.801  1.00  0.00    -0.000 C 
ATOM      3  C   UNL     1      18.323   1.101 -17.904  1.00  0.00     0.039 C 
ENDROOT
BRANCH   1   4
ATOM      4  C   UNL     1      19.494   1.075 -15.572  1.00  0.00     0.034 C 
BRANCH   4   5
ATOM      5  C   UNL     1      20.608   1.738 -16.391  1.00  0.00     0.032 C 
BRANCH   5   6
ATOM      6  C   UNL     1      21.957   1.185 -16.003  1.00  0.00    -0.028 C 
ATOM      7  C   UNL     1      24.102   0.027 -16.314  1.00  0.00     0.039 C 
ATOM      8  C   UNL     1      22.802   0.564 -16.855  1.00  0.00    -0.080 C 
ATOM      9  C   UNL     1      22.487   0.410 -18.325  1.00  0.00     0.039 C 
ENDBRANCH   5   6
ENDBRANCH   4   5
ENDBRANCH   1   4
BRANCH   2  10
ATOM     10  C   UNL     1      15.789   0.338 -16.528  1.00  0.00     0.183 C 
BRANCH  10  11
ATOM     11  O   UNL     1      14.969   1.462 -16.368  1.00  0.00    -0.392 OA
ATOM     12  H   UNL     1      15.280   1.914 -15.541  1.00  0.00     0.210 HD
ENDBRANCH  10  11
ENDBRANCH   2  10
TORSDOF 5
ENDMDL
MODEL 8
REMARK VINA RESULT:    -4.869     10.973     12.690
REMARK INTER + INTRA:          -6.731
REMARK INTER:                  -6.463
REMARK INTRA:                  -0.269
REMARK UNBOUND:                -0.581
REMARK SMILES CC(C)=CCCC(C)=CCO
REMARK SMILES IDX 7 1 9 2 8 3 6 4 5 5 4 6 1 7 2 8 3 9 10 10 11 11
REMARK H PARENT 11 12
REMARK Flexibility Score: inf
ROOT
ATOM      1  C   UNL     1      23.222   0.510 -16.773  1.00  0.00    -0.075 C 
ATOM      2  C   UNL     1      24.166  -0.148 -16.064  1.00  0.00    -0.000 C 
ATOM      3  C   UNL     1      23.018   0.253 -18.248  1.00  0.00     0.039 C 
ENDROOT
BRANCH   1   4
ATOM      4  C   UNL     1      22.358   1.537 -16.075  1.00  0.00     0.034 C 
BRANCH   4   5
ATOM      5  C   UNL     1      20.988   1.648 -16.754  1.00  0.00     0.032 C 
BRANCH   5   6
ATOM      6  C   UNL     1      19.909   1.064 -15.877  1.00  0.00    -0.028 C 
ATOM      7  C   UNL     1      17.625   0.455 -15.202  1.00  0.00     0.039 C 
ATOM      8  C   UNL     1      18.596   1.037 -16.198  1.00  0.00    -0.080 C 
ATOM      9  C   UNL     1      18.083   1.556 -17.520  1.00  0.00     0.039 C 
ENDBRANCH   5   6
ENDBRANCH   4   5
ENDBRANCH   1   4
BRANCH   2  10
ATOM     10  C   UNL     1      25.086  -1.184 -16.651  1.00  0.00     0.183 C 
BRANCH  10  11
ATOM     11  O   UNL     1      25.726  -1.888 -15.623  1.00  0.00    -0.392 OA
ATOM     12  H   UNL     1      25.431  -1.464 -14.775  1.00  0.00     0.210 HD
ENDBRANCH  10  11
ENDBRANCH   2  10
TORSDOF 5
ENDMDL
MODEL 9
REMARK VINA RESULT:    -4.833     12.586     15.536
REMARK INTER + INTRA:          -6.686
REMARK INTER:                  -6.216
REMARK INTRA:                  -0.470
REMARK UNBOUND:                -0.581
REMARK SMILES CC(C)=CCCC(C)=CCO
REMARK SMILES IDX 7 1 9 2 8 3 6 4 5 5 4 6 1 7 2 8 3 9 10 10 11 11
REMARK H PARENT 11 12
REMARK Flexibility Score: inf
ROOT
ATOM      1  C   UNL     1      30.256  -0.039 -16.287  1.00  0.00    -0.075 C 
ATOM      2  C   UNL     1      31.482  -0.272 -15.765  1.00  0.00    -0.000 C 
ATOM      3  C   UNL     1      30.073   0.337 -17.739  1.00  0.00     0.039 C 
ENDROOT
BRANCH   1   4
ATOM      4  C   UNL     1      29.041  -0.144 -15.392  1.00  0.00     0.034 C 
BRANCH   4   5
ATOM      5  C   UNL     1      28.306  -1.469 -15.626  1.00  0.00     0.032 C 
BRANCH   5   6
ATOM      6  C   UNL     1      26.887  -1.220 -16.072  1.00  0.00    -0.028 C 
ATOM      7  C   UNL     1      24.965  -1.217 -17.604  1.00  0.00     0.039 C 
ATOM      8  C   UNL     1      26.396  -1.566 -17.283  1.00  0.00    -0.080 C 
ATOM      9  C   UNL     1      27.230  -2.300 -18.306  1.00  0.00     0.039 C 
ENDBRANCH   5   6
ENDBRANCH   4   5
ENDBRANCH   1   4
BRANCH   2  10
ATOM     10  C   UNL     1      32.759  -0.191 -16.555  1.00  0.00     0.183 C 
BRANCH  10  11
ATOM     11  O   UNL     1      33.806  -0.767 -15.825  1.00  0.00    -0.392 OA
ATOM     12  H   UNL     1      34.580  -0.152 -15.922  1.00  0.00     0.210 HD
ENDBRANCH  10  11
ENDBRANCH   2  10
TORSDOF 5
ENDMDL
