MODEL 1
REMARK VINA RESULT:    -3.018      0.000      0.000
REMARK INTER + INTRA:          -4.376
REMARK INTER:                  -4.076
REMARK INTRA:                  -0.300
REMARK UNBOUND:                -0.300
REMARK SMILES CCCCCCCC(=O)[O-]
REMARK SMILES IDX 5 1 6 2 7 3 8 4 9 5 10 6 4 7 3 8 2 9 1 10
REMARK H PARENT
REMARK Flexibility Score: inf
ROOT
ATOM      1  C   UNL     1      33.346  37.749   0.853  1.00  0.00     0.000 C 
ENDROOT
BRANCH   1   2
ATOM      2  C   UNL     1      33.896  37.348  -0.524  1.00  0.00     0.006 C 
BRANCH   2   3
ATOM      3  C   UNL     1      33.149  36.149  -1.122  1.00  0.00     0.053 C 
BRANCH   3   4
ATOM      4  C   UNL     1      32.600  36.457  -2.481  1.00  0.00     0.041 C 
ATOM      5  O   UNL     1      32.863  37.556  -3.036  1.00  0.00    -0.550 OA
ATOM      6  O   UNL     1      31.770  35.545  -3.121  1.00  0.00    -0.550 OA
ENDBRANCH   3   4
ENDBRANCH   2   3
ENDBRANCH   1   2
BRANCH   1   7
ATOM      7  C   UNL     1      33.426  36.579   1.840  1.00  0.00     0.000 C 
BRANCH   7   8
ATOM      8  C   UNL     1      34.773  36.573   2.578  1.00  0.00    -0.000 C 
BRANCH   8   9
ATOM      9  C   UNL     1      35.125  37.943   3.177  1.00  0.00    -0.003 C 
ATOM     10  C   UNL     1      34.539  38.146   4.573  1.00  0.00     0.004 C 
ENDBRANCH   8   9
ENDBRANCH   7   8
ENDBRANCH   1   7
TORSDOF 6
ENDMDL
MODEL 2
REMARK VINA RESULT:    -3.014      1.512      2.213
REMARK INTER + INTRA:          -4.371
REMARK INTER:                  -3.901
REMARK INTRA:                  -0.470
REMARK UNBOUND:                -0.300
REMARK SMILES CCCCCCCC(=O)[O-]
REMARK SMILES IDX 5 1 6 2 7 3 8 4 9 5 10 6 4 7 3 8 2 9 1 10
REMARK H PARENT
REMARK Flexibility Score: inf
ROOT
ATOM      1  C   UNL     1      34.546  38.729  -1.027  1.00  0.00     0.000 C 
ENDROOT
BRANCH   1   2
ATOM      2  C   UNL     1      33.106  38.537  -1.525  1.00  0.00     0.006 C 
BRANCH   2   3
ATOM      3  C   UNL     1      33.022  37.552  -2.698  1.00  0.00     0.053 C 
BRANCH   3   4
ATOM      4  C   UNL     1      32.496  36.218  -2.268  1.00  0.00     0.041 C 
ATOM      5  O   UNL     1      32.743  35.782  -1.113  1.00  0.00    -0.550 OA
ATOM      6  O   UNL     1      31.760  35.440  -3.153  1.00  0.00    -0.550 OA
ENDBRANCH   3   4
ENDBRANCH   2   3
ENDBRANCH   1   2
BRANCH   1   7
ATOM      7  C   UNL     1      34.640  38.498   0.485  1.00  0.00     0.000 C 
BRANCH   7   8
ATOM      8  C   UNL     1      33.243  38.413   1.117  1.00  0.00    -0.000 C 
BRANCH   8   9
ATOM      9  C   UNL     1      33.108  37.238   2.098  1.00  0.00    -0.003 C 
ATOM     10  C   UNL     1      34.420  36.482   2.299  1.00  0.00     0.004 C 
ENDBRANCH   8   9
ENDBRANCH   7   8
ENDBRANCH   1   7
TORSDOF 6
ENDMDL
MODEL 3
REMARK VINA RESULT:    -3.009      2.527      4.830
REMARK INTER + INTRA:          -4.365
REMARK INTER:                  -3.935
REMARK INTRA:                  -0.430
REMARK UNBOUND:                -0.300
REMARK SMILES CCCCCCCC(=O)[O-]
REMARK SMILES IDX 5 1 6 2 7 3 8 4 9 5 10 6 4 7 3 8 2 9 1 10
REMARK H PARENT
REMARK Flexibility Score: inf
ROOT
ATOM      1  C   UNL     1      34.674  38.165  -0.206  1.00  0.00     0.000 C 
ENDROOT
BRANCH   1   2
ATOM      2  C   UNL     1      34.652  38.361   1.317  1.00  0.00     0.006 C 
BRANCH   2   3
ATOM      3  C   UNL     1      34.622  37.027   2.074  1.00  0.00     0.053 C 
BRANCH   3   4
ATOM      4  C   UNL     1      33.306  36.329   1.921  1.00  0.00     0.041 C 
ATOM      5  O   UNL     1      33.256  35.177   1.414  1.00  0.00    -0.550 OA
ATOM      6  O   UNL     1      32.132  36.962   2.307  1.00  0.00    -0.550 OA
ENDBRANCH   3   4
ENDBRANCH   2   3
ENDBRANCH   1   2
BRANCH   1   7
ATOM      7  C   UNL     1      33.457  38.827  -0.863  1.00  0.00     0.000 C 
BRANCH   7   8
ATOM      8  C   UNL     1      32.949  37.992  -2.048  1.00  0.00    -0.000 C 
BRANCH   8   9
ATOM      9  C   UNL     1      33.080  36.481  -1.805  1.00  0.00    -0.003 C 
ATOM     10  C   UNL     1      32.151  35.656  -2.694  1.00  0.00     0.004 C 
ENDBRANCH   8   9
ENDBRANCH   7   8
ENDBRANCH   1   7
TORSDOF 6
ENDMDL
MODEL 4
REMARK VINA RESULT:    -2.829      5.058      7.029
REMARK INTER + INTRA:          -4.122
REMARK INTER:                  -3.900
REMARK INTRA:                  -0.222
REMARK UNBOUND:                -0.300
REMARK SMILES CCCCCCCC(=O)[O-]
REMARK SMILES IDX 5 1 6 2 7 3 8 4 9 5 10 6 4 7 3 8 2 9 1 10
REMARK H PARENT
REMARK Flexibility Score: inf
ROOT
ATOM      1  C   UNL     1      33.976  38.179   3.803  1.00  0.00     0.000 C 
ENDROOT
BRANCH   1   2
ATOM      2  C   UNL     1      34.671  38.967   4.923  1.00  0.00     0.006 C 
BRANCH   2   3
ATOM      3  C   UNL     1      34.818  38.145   6.210  1.00  0.00     0.053 C 
BRANCH   3   4
ATOM      4  C   UNL     1      33.903  38.633   7.290  1.00  0.00     0.041 C 
ATOM      5  O   UNL     1      34.343  38.820   8.455  1.00  0.00    -0.550 OA
ATOM      6  O   UNL     1      32.558  38.851   7.020  1.00  0.00    -0.550 OA
ENDBRANCH   3   4
ENDBRANCH   2   3
ENDBRANCH   1   2
BRANCH   1   7
ATOM      7  C   UNL     1      35.001  37.466   2.914  1.00  0.00     0.000 C 
BRANCH   7   8
ATOM      8  C   UNL     1      34.422  36.162   2.343  1.00  0.00    -0.000 C 
BRANCH   8   9
ATOM      9  C   UNL     1      33.102  36.382   1.589  1.00  0.00    -0.003 C 
ATOM     10  C   UNL     1      32.434  35.074   1.171  1.00  0.00     0.004 C 
ENDBRANCH   8   9
ENDBRANCH   7   8
ENDBRANCH   1   7
TORSDOF 6
ENDMDL
MODEL 5
REMARK VINA RESULT:    -2.687      3.305      5.302
REMARK INTER + INTRA:          -3.929
REMARK INTER:                  -3.576
REMARK INTRA:                  -0.354
REMARK UNBOUND:                -0.300
REMARK SMILES CCCCCCCC(=O)[O-]
REMARK SMILES IDX 5 1 6 2 7 3 8 4 9 5 10 6 4 7 3 8 2 9 1 10
REMARK H PARENT
REMARK Flexibility Score: inf
ROOT
ATOM      1  C   UNL     1      33.315  36.491  -0.053  1.00  0.00     0.000 C 
ENDROOT
BRANCH   1   2
ATOM      2  C   UNL     1      33.261  36.083   1.427  1.00  0.00     0.006 C 
BRANCH   2   3
ATOM      3  C   UNL     1      34.311  36.818   2.271  1.00  0.00     0.053 C 
BRANCH   3   4
ATOM      4  C   UNL     1      33.681  37.796   3.214  1.00  0.00     0.041 C 
ATOM      5  O   UNL     1      34.167  37.972   4.362  1.00  0.00    -0.550 OA
ATOM      6  O   UNL     1      32.537  38.490   2.838  1.00  0.00    -0.550 OA
ENDBRANCH   3   4
ENDBRANCH   2   3
ENDBRANCH   1   2
BRANCH   1   7
ATOM      7  C   UNL     1      34.475  37.457  -0.316  1.00  0.00     0.000 C 
BRANCH   7   8
ATOM      8  C   UNL     1      33.974  38.754  -0.970  1.00  0.00    -0.000 C 
BRANCH   8   9
ATOM      9  C   UNL     1      32.908  38.499  -2.046  1.00  0.00    -0.003 C 
ATOM     10  C   UNL     1      33.484  38.497  -3.461  1.00  0.00     0.004 C 
ENDBRANCH   8   9
ENDBRANCH   7   8
ENDBRANCH   1   7
TORSDOF 6
ENDMDL
MODEL 6
REMARK VINA RESULT:    -2.636      2.747      4.288
REMARK INTER + INTRA:          -3.862
REMARK INTER:                  -3.744
REMARK INTRA:                  -0.118
REMARK UNBOUND:                -0.300
REMARK SMILES CCCCCCCC(=O)[O-]
REMARK SMILES IDX 5 1 6 2 7 3 8 4 9 5 10 6 4 7 3 8 2 9 1 10
REMARK H PARENT
REMARK Flexibility Score: inf
ROOT
ATOM      1  C   UNL     1      34.367  38.376   4.366  1.00  0.00     0.000 C 
ENDROOT
BRANCH   1   2
ATOM      2  C   UNL     1      34.309  37.218   3.359  1.00  0.00     0.006 C 
BRANCH   2   3
ATOM      3  C   UNL     1      33.305  37.478   2.228  1.00  0.00     0.053 C 
BRANCH   3   4
ATOM      4  C   UNL     1      33.296  36.367   1.224  1.00  0.00     0.041 C 
ATOM      5  O   UNL     1      32.697  35.289   1.479  1.00  0.00    -0.550 OA
ATOM      6  O   UNL     1      33.977  36.508   0.022  1.00  0.00    -0.550 OA
ENDBRANCH   3   4
ENDBRANCH   2   3
ENDBRANCH   1   2
BRANCH   1   7
ATOM      7  C   UNL     1      35.125  37.966   5.633  1.00  0.00     0.000 C 
BRANCH   7   8
ATOM      8  C   UNL     1      34.980  39.032   6.730  1.00  0.00    -0.000 C 
BRANCH   8   9
ATOM      9  C   UNL     1      34.788  38.420   8.126  1.00  0.00    -0.003 C 
ATOM     10  C   UNL     1      33.436  38.771   8.745  1.00  0.00     0.004 C 
ENDBRANCH   8   9
ENDBRANCH   7   8
ENDBRANCH   1   7
TORSDOF 6
ENDMDL
MODEL 7
REMARK VINA RESULT:    -2.596      1.520      2.262
REMARK INTER + INTRA:          -3.807
REMARK INTER:                  -3.400
REMARK INTRA:                  -0.407
REMARK UNBOUND:                -0.300
REMARK SMILES CCCCCCCC(=O)[O-]
REMARK SMILES IDX 5 1 6 2 7 3 8 4 9 5 10 6 4 7 3 8 2 9 1 10
REMARK H PARENT
REMARK Flexibility Score: inf
ROOT
ATOM      1  C   UNL     1      34.179  38.652   0.785  1.00  0.00     0.000 C 
ENDROOT
BRANCH   1   2
ATOM      2  C   UNL     1      34.386  38.589  -0.736  1.00  0.00     0.006 C 
BRANCH   2   3
ATOM      3  C   UNL     1      33.069  38.728  -1.509  1.00  0.00     0.053 C 
BRANCH   3   4
ATOM      4  C   UNL     1      32.953  37.707  -2.599  1.00  0.00     0.041 C 
ATOM      5  O   UNL     1      33.205  38.023  -3.791  1.00  0.00    -0.550 OA
ATOM      6  O   UNL     1      32.533  36.416  -2.304  1.00  0.00    -0.550 OA
ENDBRANCH   3   4
ENDBRANCH   2   3
ENDBRANCH   1   2
BRANCH   1   7
ATOM      7  C   UNL     1      35.125  37.689   1.510  1.00  0.00     0.000 C 
BRANCH   7   8
ATOM      8  C   UNL     1      34.338  36.680   2.361  1.00  0.00    -0.000 C 
BRANCH   8   9
ATOM      9  C   UNL     1      32.859  36.590   1.953  1.00  0.00    -0.003 C 
ATOM     10  C   UNL     1      32.528  35.296   1.212  1.00  0.00     0.004 C 
ENDBRANCH   8   9
ENDBRANCH   7   8
ENDBRANCH   1   7
TORSDOF 6
ENDMDL
MODEL 8
REMARK VINA RESULT:    -2.313     22.267     23.203
REMARK INTER + INTRA:          -3.425
REMARK INTER:                  -3.195
REMARK INTRA:                  -0.230
REMARK UNBOUND:                -0.300
REMARK SMILES CCCCCCCC(=O)[O-]
REMARK SMILES IDX 5 1 6 2 7 3 8 4 9 5 10 6 4 7 3 8 2 9 1 10
REMARK H PARENT
REMARK Flexibility Score: inf
ROOT
ATOM      1  C   UNL     1      15.875  25.836  13.811  1.00  0.00     0.000 C 
ENDROOT
BRANCH   1   2
ATOM      2  C   UNL     1      15.143  26.602  12.698  1.00  0.00     0.006 C 
BRANCH   2   3
ATOM      3  C   UNL     1      14.950  25.751  11.437  1.00  0.00     0.053 C 
BRANCH   3   4
ATOM      4  C   UNL     1      15.019  26.579  10.191  1.00  0.00     0.041 C 
ATOM      5  O   UNL     1      14.876  26.038   9.062  1.00  0.00    -0.550 OA
ATOM      6  O   UNL     1      15.274  27.942  10.272  1.00  0.00    -0.550 OA
ENDBRANCH   3   4
ENDBRANCH   2   3
ENDBRANCH   1   2
BRANCH   1   7
ATOM      7  C   UNL     1      17.304  26.359  13.989  1.00  0.00     0.000 C 
BRANCH   7   8
ATOM      8  C   UNL     1      17.665  27.364  12.885  1.00  0.00    -0.000 C 
BRANCH   8   9
ATOM      9  C   UNL     1      18.488  26.728  11.754  1.00  0.00    -0.003 C 
ATOM     10  C   UNL     1      19.768  27.503  11.446  1.00  0.00     0.004 C 
ENDBRANCH   8   9
ENDBRANCH   7   8
ENDBRANCH   1   7
TORSDOF 6
ENDMDL
MODEL 9
REMARK VINA RESULT:    -2.285      1.585      2.241
REMARK INTER + INTRA:          -3.387
REMARK INTER:                  -3.197
REMARK INTRA:                  -0.190
REMARK UNBOUND:                -0.300
REMARK SMILES CCCCCCCC(=O)[O-]
REMARK SMILES IDX 5 1 6 2 7 3 8 4 9 5 10 6 4 7 3 8 2 9 1 10
REMARK H PARENT
REMARK Flexibility Score: inf
ROOT
ATOM      1  C   UNL     1      34.308  38.994   1.980  1.00  0.00     0.000 C 
ENDROOT
BRANCH   1   2
ATOM      2  C   UNL     1      33.260  38.595   0.930  1.00  0.00     0.006 C 
BRANCH   2   3
ATOM      3  C   UNL     1      33.901  38.122  -0.382  1.00  0.00     0.053 C 
BRANCH   3   4
ATOM      4  C   UNL     1      33.319  36.823  -0.849  1.00  0.00     0.041 C 
ATOM      5  O   UNL     1      33.228  35.849  -0.057  1.00  0.00    -0.550 OA
ATOM      6  O   UNL     1      32.908  36.678  -2.168  1.00  0.00    -0.550 OA
ENDBRANCH   3   4
ENDBRANCH   2   3
ENDBRANCH   1   2
BRANCH   1   7
ATOM      7  C   UNL     1      33.926  38.466   3.367  1.00  0.00     0.000 C 
BRANCH   7   8
ATOM      8  C   UNL     1      35.124  37.786   4.046  1.00  0.00    -0.000 C 
BRANCH   8   9
ATOM      9  C   UNL     1      35.088  37.917   5.577  1.00  0.00    -0.003 C 
ATOM     10  C   UNL     1      33.911  38.756   6.071  1.00  0.00     0.004 C 
ENDBRANCH   8   9
ENDBRANCH   7   8
ENDBRANCH   1   7
TORSDOF 6
ENDMDL
