MODEL 1
REMARK VINA RESULT:    -4.100      0.000      0.000
REMARK INTER + INTRA:          -5.205
REMARK INTER:                  -5.778
REMARK INTRA:                   0.573
REMARK UNBOUND:                 0.573
REMARK SMILES CC1=CCC(=C(C)C)C(=O)CC(C)=CCC1
REMARK SMILES IDX 12 1 14 2 13 3 15 4 16 5 2 6 1 7 3 8 11 10 9 11 10 12 5 13
REMARK SMILES IDX 6 14 7 15 8 16 4 17
REMARK H PARENT
REMARK Flexibility Score: 60.00
ROOT
ATOM      1  C   UNL     1      -8.559  74.728  22.382  1.00  0.00    -0.070 C 
ATOM      2  C   UNL     1      -9.750  74.843  23.016  1.00  0.00    -0.027 C 
ATOM      3  C   UNL     1      -8.563  74.616  20.879  1.00  0.00     0.039 C 
ENDROOT
BRANCH   2   4
ATOM      4  C   UNL     1      -9.931  75.026  24.506  1.00  0.00     0.032 C 
BRANCH   4   5
ATOM      5  C   UNL     1     -10.185  73.687  25.214  1.00  0.00     0.034 C 
BRANCH   5   6
ATOM      6  C   UNL     1      -9.135  73.345  26.262  1.00  0.00    -0.077 C 
ATOM      7  C   UNL     1      -9.270  73.929  27.645  1.00  0.00     0.039 C 
ATOM      8  C   UNL     1      -8.086  72.523  26.024  1.00  0.00    -0.023 CG0
ATOM      9  G   UNL     1      -7.747  71.900  24.690  1.00  0.00     0.000 G0
ENDBRANCH   5   6
ENDBRANCH   4   5
ENDBRANCH   2   4
BRANCH   1  10
ATOM     10  C   UNL     1      -7.233  74.704  23.117  1.00  0.00     0.111 C 
BRANCH  10  11
ATOM     11  C   UNL     1      -6.543  73.380  22.944  1.00  0.00     0.163 C 
ATOM     12  O   UNL     1      -6.002  73.105  21.839  1.00  0.00    -0.294 OA
BRANCH  11  13
ATOM     13  C   UNL     1      -6.466  72.399  24.055  1.00  0.00    -0.002 C 
ATOM     14  C   UNL     1      -5.257  71.960  24.502  1.00  0.00    -0.069 C 
ATOM     15  C   UNL     1      -5.159  70.922  25.596  1.00  0.00     0.039 C 
ATOM     16  C   UNL     1      -3.968  72.525  23.949  1.00  0.00     0.039 C 
BRANCH  13  17
ATOM     17  C   UNL     1      -7.757  71.890  24.689  1.00  0.00     0.066 CG0
ATOM     18  G   UNL     1      -8.076  72.534  26.018  1.00  0.00     0.000 G0
ENDBRANCH  13  17
ENDBRANCH  11  13
ENDBRANCH  10  11
ENDBRANCH   1  10
TORSDOF 0
ENDMDL
MODEL 2
REMARK VINA RESULT:    -3.821      1.896      3.843
REMARK INTER + INTRA:          -4.812
REMARK INTER:                  -5.100
REMARK INTRA:                   0.288
REMARK UNBOUND:                 0.573
REMARK SMILES CC1=CCC(=C(C)C)C(=O)CC(C)=CCC1
REMARK SMILES IDX 12 1 14 2 13 3 15 4 16 5 2 6 1 7 3 8 11 10 9 11 10 12 5 13
REMARK SMILES IDX 6 14 7 15 8 16 4 17
REMARK H PARENT
REMARK Flexibility Score: 60.00
ROOT
ATOM      1  C   UNL     1      -9.447  73.373  25.779  1.00  0.00    -0.070 C 
ATOM      2  C   UNL     1      -9.660  74.562  25.169  1.00  0.00    -0.027 C 
ATOM      3  C   UNL     1      -9.821  73.245  27.233  1.00  0.00     0.039 C 
ENDROOT
BRANCH   2   4
ATOM      4  C   UNL     1      -9.403  74.851  23.707  1.00  0.00     0.032 C 
BRANCH   4   5
ATOM      5  C   UNL     1      -7.913  75.099  23.432  1.00  0.00     0.034 C 
BRANCH   5   6
ATOM      6  C   UNL     1      -7.377  74.324  22.237  1.00  0.00    -0.077 C 
ATOM      7  C   UNL     1      -7.974  74.581  20.876  1.00  0.00     0.039 C 
ATOM      8  C   UNL     1      -6.373  73.421  22.324  1.00  0.00    -0.023 CG0
ATOM      9  G   UNL     1      -5.700  72.980  23.603  1.00  0.00     0.000 G0
ENDBRANCH   5   6
ENDBRANCH   4   5
ENDBRANCH   2   4
BRANCH   1  10
ATOM     10  C   UNL     1      -8.848  72.175  25.067  1.00  0.00     0.111 C 
BRANCH  10  11
ATOM     11  C   UNL     1      -7.379  72.051  25.358  1.00  0.00     0.163 C 
ATOM     12  O   UNL     1      -6.975  72.159  26.547  1.00  0.00    -0.294 OA
BRANCH  11  13
ATOM     13  C   UNL     1      -6.398  71.782  24.277  1.00  0.00    -0.002 C 
ATOM     14  C   UNL     1      -6.127  70.503  23.898  1.00  0.00    -0.069 C 
ATOM     15  C   UNL     1      -5.093  70.205  22.837  1.00  0.00     0.039 C 
ATOM     16  C   UNL     1      -6.881  69.335  24.494  1.00  0.00     0.039 C 
BRANCH  13  17
ATOM     17  C   UNL     1      -5.698  72.955  23.599  1.00  0.00     0.066 CG0
ATOM     18  G   UNL     1      -6.375  73.414  22.328  1.00  0.00     0.000 G0
ENDBRANCH  13  17
ENDBRANCH  11  13
ENDBRANCH  10  11
ENDBRANCH   1  10
TORSDOF 0
ENDMDL
MODEL 3
REMARK VINA RESULT:    -3.675      3.682      6.456
REMARK INTER + INTRA:          -4.606
REMARK INTER:                  -4.837
REMARK INTRA:                   0.231
REMARK UNBOUND:                 0.573
REMARK SMILES CC1=CCC(=C(C)C)C(=O)CC(C)=CCC1
REMARK SMILES IDX 12 1 14 2 13 3 15 4 16 5 2 6 1 7 3 8 11 10 9 11 10 12 5 13
REMARK SMILES IDX 6 14 7 15 8 16 4 17
REMARK H PARENT
REMARK Flexibility Score: 60.00
ROOT
ATOM      1  C   UNL     1      -4.496  67.667  27.413  1.00  0.00    -0.070 C 
ATOM      2  C   UNL     1      -5.348  66.720  26.955  1.00  0.00    -0.027 C 
ATOM      3  C   UNL     1      -4.056  67.590  28.852  1.00  0.00     0.039 C 
ENDROOT
BRANCH   2   4
ATOM      4  C   UNL     1      -5.844  66.607  25.531  1.00  0.00     0.032 C 
BRANCH   4   5
ATOM      5  C   UNL     1      -7.022  67.555  25.265  1.00  0.00     0.034 C 
BRANCH   5   6
ATOM      6  C   UNL     1      -6.871  68.369  23.986  1.00  0.00    -0.077 C 
ATOM      7  C   UNL     1      -6.878  67.648  22.661  1.00  0.00     0.039 C 
ATOM      8  C   UNL     1      -6.748  69.716  23.971  1.00  0.00    -0.023 CG0
ATOM      9  G   UNL     1      -6.652  70.600  25.192  1.00  0.00     0.000 G0
ENDBRANCH   5   6
ENDBRANCH   4   5
ENDBRANCH   2   4
BRANCH   1  10
ATOM     10  C   UNL     1      -3.974  68.796  26.545  1.00  0.00     0.111 C 
BRANCH  10  11
ATOM     11  C   UNL     1      -4.725  70.071  26.806  1.00  0.00     0.163 C 
ATOM     12  O   UNL     1      -4.888  70.460  27.994  1.00  0.00    -0.294 OA
BRANCH  11  13
ATOM     13  C   UNL     1      -5.261  70.893  25.692  1.00  0.00    -0.002 C 
ATOM     14  C   UNL     1      -4.495  71.867  25.127  1.00  0.00    -0.069 C 
ATOM     15  C   UNL     1      -5.040  72.750  24.028  1.00  0.00     0.039 C 
ATOM     16  C   UNL     1      -3.058  72.075  25.550  1.00  0.00     0.039 C 
BRANCH  13  17
ATOM     17  C   UNL     1      -6.677  70.632  25.189  1.00  0.00     0.066 CG0
ATOM     18  G   UNL     1      -6.735  69.733  23.976  1.00  0.00     0.000 G0
ENDBRANCH  13  17
ENDBRANCH  11  13
ENDBRANCH  10  11
ENDBRANCH   1  10
TORSDOF 0
ENDMDL
MODEL 4
REMARK VINA RESULT:    -3.393      3.341      6.404
REMARK INTER + INTRA:          -4.208
REMARK INTER:                  -4.926
REMARK INTRA:                   0.718
REMARK UNBOUND:                 0.573
REMARK SMILES CC1=CCC(=C(C)C)C(=O)CC(C)=CCC1
REMARK SMILES IDX 12 1 14 2 13 3 15 4 16 5 2 6 1 7 3 8 11 10 9 11 10 12 5 13
REMARK SMILES IDX 6 14 7 15 8 16 4 17
REMARK H PARENT
REMARK Flexibility Score: 60.00
ROOT
ATOM      1  C   UNL     1      -4.222  69.049  26.925  1.00  0.00    -0.070 C 
ATOM      2  C   UNL     1      -4.773  67.820  27.069  1.00  0.00    -0.027 C 
ATOM      3  C   UNL     1      -4.222  69.970  28.117  1.00  0.00     0.039 C 
ENDROOT
BRANCH   2   4
ATOM      4  C   UNL     1      -4.806  66.749  26.003  1.00  0.00     0.032 C 
BRANCH   4   5
ATOM      5  C   UNL     1      -6.243  66.321  25.674  1.00  0.00     0.034 C 
BRANCH   5   6
ATOM      6  C   UNL     1      -6.707  66.757  24.291  1.00  0.00    -0.077 C 
ATOM      7  C   UNL     1      -6.692  65.751  23.167  1.00  0.00     0.039 C 
ATOM      8  C   UNL     1      -7.154  68.004  24.015  1.00  0.00    -0.023 CG0
ATOM      9  G   UNL     1      -7.178  69.161  24.987  1.00  0.00     0.000 G0
ENDBRANCH   5   6
ENDBRANCH   4   5
ENDBRANCH   2   4
BRANCH   1  10
ATOM     10  C   UNL     1      -3.612  69.532  25.623  1.00  0.00     0.111 C 
BRANCH  10  11
ATOM     11  C   UNL     1      -4.646  69.597  24.534  1.00  0.00     0.163 C 
ATOM     12  O   UNL     1      -4.362  69.157  23.387  1.00  0.00    -0.294 OA
BRANCH  11  13
ATOM     13  C   UNL     1      -6.001  70.148  24.787  1.00  0.00    -0.002 C 
ATOM     14  C   UNL     1      -6.195  71.494  24.851  1.00  0.00    -0.069 C 
ATOM     15  C   UNL     1      -7.556  72.073  25.160  1.00  0.00     0.039 C 
ATOM     16  C   UNL     1      -5.064  72.460  24.576  1.00  0.00     0.039 C 
BRANCH  13  17
ATOM     17  C   UNL     1      -7.171  69.187  24.972  1.00  0.00     0.066 CG0
ATOM     18  G   UNL     1      -7.154  68.017  24.016  1.00  0.00     0.000 G0
ENDBRANCH  13  17
ENDBRANCH  11  13
ENDBRANCH  10  11
ENDBRANCH   1  10
TORSDOF 0
ENDMDL
MODEL 5
REMARK VINA RESULT:    -3.391      3.544      6.331
REMARK INTER + INTRA:          -4.205
REMARK INTER:                  -4.499
REMARK INTRA:                   0.294
REMARK UNBOUND:                 0.573
REMARK SMILES CC1=CCC(=C(C)C)C(=O)CC(C)=CCC1
REMARK SMILES IDX 12 1 14 2 13 3 15 4 16 5 2 6 1 7 3 8 11 10 9 11 10 12 5 13
REMARK SMILES IDX 6 14 7 15 8 16 4 17
REMARK H PARENT
REMARK Flexibility Score: 60.00
ROOT
ATOM      1  C   UNL     1      -6.762  66.829  24.879  1.00  0.00    -0.070 C 
ATOM      2  C   UNL     1      -6.066  66.129  25.805  1.00  0.00    -0.027 C 
ATOM      3  C   UNL     1      -7.271  66.091  23.668  1.00  0.00     0.039 C 
ENDROOT
BRANCH   2   4
ATOM      4  C   UNL     1      -5.534  66.691  27.105  1.00  0.00     0.032 C 
BRANCH   4   5
ATOM      5  C   UNL     1      -4.145  67.319  26.924  1.00  0.00     0.034 C 
BRANCH   5   6
ATOM      6  C   UNL     1      -4.036  68.728  27.490  1.00  0.00    -0.077 C 
ATOM      7  C   UNL     1      -4.045  68.913  28.987  1.00  0.00     0.039 C 
ATOM      8  C   UNL     1      -3.911  69.833  26.719  1.00  0.00    -0.023 CG0
ATOM      9  G   UNL     1      -3.950  69.855  25.208  1.00  0.00     0.000 G0
ENDBRANCH   5   6
ENDBRANCH   4   5
ENDBRANCH   2   4
BRANCH   1  10
ATOM     10  C   UNL     1      -7.043  68.314  25.006  1.00  0.00     0.111 C 
BRANCH  10  11
ATOM     11  C   UNL     1      -6.161  69.112  24.088  1.00  0.00     0.163 C 
ATOM     12  O   UNL     1      -6.167  68.861  22.853  1.00  0.00    -0.294 OA
BRANCH  11  13
ATOM     13  C   UNL     1      -5.300  70.206  24.603  1.00  0.00    -0.002 C 
ATOM     14  C   UNL     1      -5.720  71.499  24.539  1.00  0.00    -0.069 C 
ATOM     15  C   UNL     1      -4.836  72.632  25.009  1.00  0.00     0.039 C 
ATOM     16  C   UNL     1      -7.101  71.848  24.033  1.00  0.00     0.039 C 
BRANCH  13  17
ATOM     17  C   UNL     1      -3.941  69.862  25.205  1.00  0.00     0.066 CG0
ATOM     18  G   UNL     1      -3.934  69.838  26.716  1.00  0.00     0.000 G0
ENDBRANCH  13  17
ENDBRANCH  11  13
ENDBRANCH  10  11
ENDBRANCH   1  10
TORSDOF 0
ENDMDL
MODEL 6
REMARK VINA RESULT:    -3.304      3.844      6.521
REMARK INTER + INTRA:          -4.083
REMARK INTER:                  -4.619
REMARK INTRA:                   0.536
REMARK UNBOUND:                 0.573
REMARK SMILES CC1=CCC(=C(C)C)C(=O)CC(C)=CCC1
REMARK SMILES IDX 12 1 14 2 13 3 15 4 16 5 2 6 1 7 3 8 11 10 9 11 10 12 5 13
REMARK SMILES IDX 6 14 7 15 8 16 4 17
REMARK H PARENT
REMARK Flexibility Score: 60.00
ROOT
ATOM      1  C   UNL     1      -6.896  67.215  24.702  1.00  0.00    -0.070 C 
ATOM      2  C   UNL     1      -6.741  66.696  23.461  1.00  0.00    -0.027 C 
ATOM      3  C   UNL     1      -6.557  66.342  25.883  1.00  0.00     0.039 C 
ENDROOT
BRANCH   2   4
ATOM      4  C   UNL     1      -6.974  67.445  22.168  1.00  0.00     0.032 C 
BRANCH   4   5
ATOM      5  C   UNL     1      -5.662  67.679  21.405  1.00  0.00     0.034 C 
BRANCH   5   6
ATOM      6  C   UNL     1      -4.490  68.043  22.307  1.00  0.00    -0.077 C 
ATOM      7  C   UNL     1      -3.421  67.011  22.563  1.00  0.00     0.039 C 
ATOM      8  C   UNL     1      -4.343  69.259  22.882  1.00  0.00    -0.023 CG0
ATOM      9  G   UNL     1      -5.339  70.393  22.799  1.00  0.00     0.000 G0
ENDBRANCH   5   6
ENDBRANCH   4   5
ENDBRANCH   2   4
BRANCH   1  10
ATOM     10  C   UNL     1      -7.396  68.625  24.951  1.00  0.00     0.111 C 
BRANCH  10  11
ATOM     11  C   UNL     1      -6.251  69.590  25.082  1.00  0.00     0.163 C 
ATOM     12  O   UNL     1      -5.426  69.444  26.023  1.00  0.00    -0.294 OA
BRANCH  11  13
ATOM     13  C   UNL     1      -6.060  70.698  24.112  1.00  0.00    -0.002 C 
ATOM     14  C   UNL     1      -6.522  71.946  24.395  1.00  0.00    -0.069 C 
ATOM     15  C   UNL     1      -6.384  73.075  23.399  1.00  0.00     0.039 C 
ATOM     16  C   UNL     1      -7.154  72.261  25.733  1.00  0.00     0.039 C 
BRANCH  13  17
ATOM     17  C   UNL     1      -5.340  70.418  22.797  1.00  0.00     0.066 CG0
ATOM     18  G   UNL     1      -4.351  69.278  22.876  1.00  0.00     0.000 G0
ENDBRANCH  13  17
ENDBRANCH  11  13
ENDBRANCH  10  11
ENDBRANCH   1  10
TORSDOF 0
ENDMDL
MODEL 7
REMARK VINA RESULT:    -3.249      4.275      6.264
REMARK INTER + INTRA:          -4.006
REMARK INTER:                  -4.470
REMARK INTRA:                   0.465
REMARK UNBOUND:                 0.573
REMARK SMILES CC1=CCC(=C(C)C)C(=O)CC(C)=CCC1
REMARK SMILES IDX 12 1 14 2 13 3 15 4 16 5 2 6 1 7 3 8 11 10 9 11 10 12 5 13
REMARK SMILES IDX 6 14 7 15 8 16 4 17
REMARK H PARENT
REMARK Flexibility Score: 60.00
ROOT
ATOM      1  C   UNL     1      -5.666  71.103  25.215  1.00  0.00    -0.070 C 
ATOM      2  C   UNL     1      -6.425  70.312  24.421  1.00  0.00    -0.027 C 
ATOM      3  C   UNL     1      -5.040  72.329  24.604  1.00  0.00     0.039 C 
ENDROOT
BRANCH   2   4
ATOM      4  C   UNL     1      -7.176  69.081  24.878  1.00  0.00     0.032 C 
BRANCH   4   5
ATOM      5  C   UNL     1      -6.770  67.839  24.073  1.00  0.00     0.034 C 
BRANCH   5   6
ATOM      6  C   UNL     1      -5.264  67.628  23.997  1.00  0.00    -0.077 C 
ATOM      7  C   UNL     1      -4.595  67.639  22.645  1.00  0.00     0.039 C 
ATOM      8  C   UNL     1      -4.481  67.448  25.086  1.00  0.00    -0.023 CG0
ATOM      9  G   UNL     1      -4.975  67.338  26.510  1.00  0.00     0.000 G0
ENDBRANCH   5   6
ENDBRANCH   4   5
ENDBRANCH   2   4
BRANCH   1  10
ATOM     10  C   UNL     1      -5.419  70.806  26.682  1.00  0.00     0.111 C 
BRANCH  10  11
ATOM     11  C   UNL     1      -4.281  69.840  26.854  1.00  0.00     0.163 C 
ATOM     12  O   UNL     1      -3.117  70.191  26.520  1.00  0.00    -0.294 OA
BRANCH  11  13
ATOM     13  C   UNL     1      -4.495  68.488  27.430  1.00  0.00    -0.002 C 
ATOM     14  C   UNL     1      -4.262  68.260  28.751  1.00  0.00    -0.069 C 
ATOM     15  C   UNL     1      -4.424  66.879  29.345  1.00  0.00     0.039 C 
ATOM     16  C   UNL     1      -3.873  69.386  29.682  1.00  0.00     0.039 C 
BRANCH  13  17
ATOM     17  C   UNL     1      -4.979  67.362  26.522  1.00  0.00     0.066 CG0
ATOM     18  G   UNL     1      -4.479  67.470  25.100  1.00  0.00     0.000 G0
ENDBRANCH  13  17
ENDBRANCH  11  13
ENDBRANCH  10  11
ENDBRANCH   1  10
TORSDOF 0
ENDMDL
MODEL 8
REMARK VINA RESULT:    -3.247     10.503     12.664
REMARK INTER + INTRA:          -4.003
REMARK INTER:                  -4.446
REMARK INTRA:                   0.444
REMARK UNBOUND:                 0.573
REMARK SMILES CC1=CCC(=C(C)C)C(=O)CC(C)=CCC1
REMARK SMILES IDX 12 1 14 2 13 3 15 4 16 5 2 6 1 7 3 8 11 10 9 11 10 12 5 13
REMARK SMILES IDX 6 14 7 15 8 16 4 17
REMARK H PARENT
REMARK Flexibility Score: 60.00
ROOT
ATOM      1  C   UNL     1      -5.546  70.051  37.265  1.00  0.00    -0.070 C 
ATOM      2  C   UNL     1      -6.892  69.963  37.384  1.00  0.00    -0.027 C 
ATOM      3  C   UNL     1      -4.724  70.092  38.527  1.00  0.00     0.039 C 
ENDROOT
BRANCH   2   4
ATOM      4  C   UNL     1      -7.863  69.851  36.231  1.00  0.00     0.032 C 
BRANCH   4   5
ATOM      5  C   UNL     1      -8.668  68.545  36.293  1.00  0.00     0.034 C 
BRANCH   5   6
ATOM      6  C   UNL     1      -7.800  67.301  36.425  1.00  0.00    -0.077 C 
ATOM      7  C   UNL     1      -7.955  66.432  37.648  1.00  0.00     0.039 C 
ATOM      8  C   UNL     1      -6.902  66.917  35.489  1.00  0.00    -0.023 CG0
ATOM      9  G   UNL     1      -6.558  67.690  34.236  1.00  0.00     0.000 G0
ENDBRANCH   5   6
ENDBRANCH   4   5
ENDBRANCH   2   4
BRANCH   1  10
ATOM     10  C   UNL     1      -4.838  70.115  35.925  1.00  0.00     0.111 C 
BRANCH  10  11
ATOM     11  C   UNL     1      -4.498  68.739  35.427  1.00  0.00     0.163 C 
ATOM     12  O   UNL     1      -3.693  68.026  36.085  1.00  0.00    -0.294 OA
BRANCH  11  13
ATOM     13  C   UNL     1      -5.108  68.193  34.189  1.00  0.00    -0.002 C 
ATOM     14  C   UNL     1      -4.391  68.145  33.033  1.00  0.00    -0.069 C 
ATOM     15  C   UNL     1      -5.012  67.643  31.749  1.00  0.00     0.039 C 
ATOM     16  C   UNL     1      -2.936  68.555  32.998  1.00  0.00     0.039 C 
BRANCH  13  17
ATOM     17  C   UNL     1      -6.547  67.686  34.230  1.00  0.00     0.066 CG0
ATOM     18  G   UNL     1      -6.882  66.910  35.482  1.00  0.00     0.000 G0
ENDBRANCH  13  17
ENDBRANCH  11  13
ENDBRANCH  10  11
ENDBRANCH   1  10
TORSDOF 0
ENDMDL
MODEL 9
REMARK VINA RESULT:    -3.245     12.292     14.315
REMARK INTER + INTRA:          -4.000
REMARK INTER:                  -4.445
REMARK INTRA:                   0.445
REMARK UNBOUND:                 0.573
REMARK SMILES CC1=CCC(=C(C)C)C(=O)CC(C)=CCC1
REMARK SMILES IDX 12 1 14 2 13 3 15 4 16 5 2 6 1 7 3 8 11 10 9 11 10 12 5 13
REMARK SMILES IDX 6 14 7 15 8 16 4 17
REMARK H PARENT
REMARK Flexibility Score: 60.00
ROOT
ATOM      1  C   UNL     1      -5.775  68.543  34.953  1.00  0.00    -0.070 C 
ATOM      2  C   UNL     1      -7.116  68.356  34.982  1.00  0.00    -0.027 C 
ATOM      3  C   UNL     1      -4.989  67.867  33.860  1.00  0.00     0.039 C 
ENDROOT
BRANCH   2   4
ATOM      4  C   UNL     1      -8.065  69.003  35.965  1.00  0.00     0.032 C 
BRANCH   4   5
ATOM      5  C   UNL     1      -8.837  67.956  36.781  1.00  0.00     0.034 C 
BRANCH   5   6
ATOM      6  C   UNL     1      -7.960  66.826  37.305  1.00  0.00    -0.077 C 
ATOM      7  C   UNL     1      -8.213  65.423  36.814  1.00  0.00     0.039 C 
ATOM      8  C   UNL     1      -6.946  67.015  38.180  1.00  0.00    -0.023 CG0
ATOM      9  G   UNL     1      -6.587  68.330  38.833  1.00  0.00     0.000 G0
ENDBRANCH   5   6
ENDBRANCH   4   5
ENDBRANCH   2   4
BRANCH   1  10
ATOM     10  C   UNL     1      -5.039  69.395  35.969  1.00  0.00     0.111 C 
BRANCH  10  11
ATOM     11  C   UNL     1      -4.609  68.574  37.152  1.00  0.00     0.163 C 
ATOM     12  O   UNL     1      -3.746  67.670  36.996  1.00  0.00    -0.294 OA
BRANCH  11  13
ATOM     13  C   UNL     1      -5.165  68.823  38.507  1.00  0.00    -0.002 C 
ATOM     14  C   UNL     1      -4.427  69.481  39.442  1.00  0.00    -0.069 C 
ATOM     15  C   UNL     1      -4.955  69.697  40.842  1.00  0.00     0.039 C 
ATOM     16  C   UNL     1      -3.071  70.057  39.104  1.00  0.00     0.039 C 
BRANCH  13  17
ATOM     17  C   UNL     1      -6.571  68.331  38.835  1.00  0.00     0.066 CG0
ATOM     18  G   UNL     1      -6.926  67.019  38.173  1.00  0.00     0.000 G0
ENDBRANCH  13  17
ENDBRANCH  11  13
ENDBRANCH  10  11
ENDBRANCH   1  10
TORSDOF 0
ENDMDL
