MODEL 1
REMARK VINA RESULT:    -3.865      0.000      0.000
REMARK INTER + INTRA:          -9.073
REMARK INTER:                  -6.801
REMARK INTRA:                  -2.272
REMARK UNBOUND:                -2.272
REMARK SMILES CCCCCCC=CCCCCCCCC(=O)[O-]
REMARK SMILES IDX 10 1 11 2 12 3 13 4 14 5 15 6 16 7 17 8 18 9 9 10 8 11 7 12
REMARK SMILES IDX 6 13 5 14 4 15 3 16 2 17 1 18
REMARK H PARENT
REMARK Flexibility Score: inf
ROOT
ATOM      1  C   UNL     1      77.289 -74.096  -2.134  1.00  0.00     0.004 C 
ENDROOT
BRANCH   1   2
ATOM      2  C   UNL     1      77.518 -73.333  -3.446  1.00  0.00     0.000 C 
BRANCH   2   3
ATOM      3  C   UNL     1      76.288 -72.496  -3.818  1.00  0.00     0.000 C 
BRANCH   3   4
ATOM      4  C   UNL     1      75.044 -72.882  -3.002  1.00  0.00     0.000 C 
BRANCH   4   5
ATOM      5  C   UNL     1      74.457 -71.687  -2.232  1.00  0.00     0.006 C 
BRANCH   5   6
ATOM      6  C   UNL     1      74.094 -72.045  -0.783  1.00  0.00     0.053 C 
BRANCH   6   7
ATOM      7  C   UNL     1      73.400 -70.926  -0.070  1.00  0.00     0.041 C 
ATOM      8  O   UNL     1      74.035 -69.891   0.265  1.00  0.00    -0.550 OA
ATOM      9  O   UNL     1      72.071 -71.064   0.309  1.00  0.00    -0.550 OA
ENDBRANCH   6   7
ENDBRANCH   5   6
ENDBRANCH   4   5
ENDBRANCH   3   4
ENDBRANCH   2   3
ENDBRANCH   1   2
BRANCH   1  10
ATOM     10  C   UNL     1      78.252 -75.282  -1.981  1.00  0.00     0.027 C 
BRANCH  10  11
ATOM     11  C   UNL     1      77.887 -76.137  -0.789  1.00  0.00    -0.031 C 
ATOM     12  C   UNL     1      77.591 -77.449  -0.834  1.00  0.00    -0.031 C 
BRANCH  12  13
ATOM     13  C   UNL     1      77.631 -78.309  -2.070  1.00  0.00     0.027 C 
BRANCH  13  14
ATOM     14  C   UNL     1      76.221 -78.502  -2.653  1.00  0.00     0.004 C 
BRANCH  14  15
ATOM     15  C   UNL     1      75.848 -77.440  -3.698  1.00  0.00     0.000 C 
BRANCH  15  16
ATOM     16  C   UNL     1      74.680 -76.521  -3.299  1.00  0.00    -0.000 C 
BRANCH  16  17
ATOM     17  C   UNL     1      74.022 -76.928  -1.972  1.00  0.00    -0.003 C 
ATOM     18  C   UNL     1      74.180 -75.834  -0.920  1.00  0.00     0.004 C 
ENDBRANCH  16  17
ENDBRANCH  15  16
ENDBRANCH  14  15
ENDBRANCH  13  14
ENDBRANCH  12  13
ENDBRANCH  10  11
ENDBRANCH   1  10
TORSDOF 13
ENDMDL
MODEL 2
REMARK VINA RESULT:    -3.829      4.013      6.373
REMARK INTER + INTRA:          -9.010
REMARK INTER:                  -6.574
REMARK INTRA:                  -2.436
REMARK UNBOUND:                -2.272
REMARK SMILES CCCCCCC=CCCCCCCCC(=O)[O-]
REMARK SMILES IDX 10 1 11 2 12 3 13 4 14 5 15 6 16 7 17 8 18 9 9 10 8 11 7 12
REMARK SMILES IDX 6 13 5 14 4 15 3 16 2 17 1 18
REMARK H PARENT
REMARK Flexibility Score: inf
ROOT
ATOM      1  C   UNL     1      77.315 -73.922  -3.655  1.00  0.00     0.004 C 
ENDROOT
BRANCH   1   2
ATOM      2  C   UNL     1      77.906 -73.891  -2.239  1.00  0.00     0.000 C 
BRANCH   2   3
ATOM      3  C   UNL     1      78.289 -75.299  -1.771  1.00  0.00     0.000 C 
BRANCH   3   4
ATOM      4  C   UNL     1      78.329 -76.313  -2.925  1.00  0.00     0.000 C 
BRANCH   4   5
ATOM      5  C   UNL     1      79.015 -77.630  -2.522  1.00  0.00     0.006 C 
BRANCH   5   6
ATOM      6  C   UNL     1      78.428 -78.228  -1.236  1.00  0.00     0.053 C 
BRANCH   6   7
ATOM      7  C   UNL     1      78.994 -79.576  -0.916  1.00  0.00     0.041 C 
ATOM      8  O   UNL     1      79.379 -80.343  -1.839  1.00  0.00    -0.550 OA
ATOM      9  O   UNL     1      79.013 -80.028   0.398  1.00  0.00    -0.550 OA
ENDBRANCH   6   7
ENDBRANCH   5   6
ENDBRANCH   4   5
ENDBRANCH   3   4
ENDBRANCH   2   3
ENDBRANCH   1   2
BRANCH   1  10
ATOM     10  C   UNL     1      76.428 -72.700  -3.937  1.00  0.00     0.027 C 
BRANCH  10  11
ATOM     11  C   UNL     1      74.975 -73.092  -4.070  1.00  0.00    -0.031 C 
ATOM     12  C   UNL     1      74.029 -72.907  -3.131  1.00  0.00    -0.031 C 
BRANCH  12  13
ATOM     13  C   UNL     1      74.240 -72.218  -1.807  1.00  0.00     0.027 C 
BRANCH  13  14
ATOM     14  C   UNL     1      74.709 -73.216  -0.736  1.00  0.00     0.004 C 
BRANCH  14  15
ATOM     15  C   UNL     1      74.067 -74.604  -0.879  1.00  0.00     0.000 C 
BRANCH  15  16
ATOM     16  C   UNL     1      74.929 -75.773  -0.368  1.00  0.00    -0.000 C 
BRANCH  16  17
ATOM     17  C   UNL     1      74.914 -76.985  -1.310  1.00  0.00    -0.003 C 
ATOM     18  C   UNL     1      74.640 -76.561  -2.750  1.00  0.00     0.004 C 
ENDBRANCH  16  17
ENDBRANCH  15  16
ENDBRANCH  14  15
ENDBRANCH  13  14
ENDBRANCH  12  13
ENDBRANCH  10  11
ENDBRANCH   1  10
TORSDOF 13
ENDMDL
MODEL 3
REMARK VINA RESULT:    -3.628      4.052      7.069
REMARK INTER + INTRA:          -8.657
REMARK INTER:                  -7.514
REMARK INTRA:                  -1.142
REMARK UNBOUND:                -2.272
REMARK SMILES CCCCCCC=CCCCCCCCC(=O)[O-]
REMARK SMILES IDX 10 1 11 2 12 3 13 4 14 5 15 6 16 7 17 8 18 9 9 10 8 11 7 12
REMARK SMILES IDX 6 13 5 14 4 15 3 16 2 17 1 18
REMARK H PARENT
REMARK Flexibility Score: inf
ROOT
ATOM      1  C   UNL     1      77.511 -73.945  -2.377  1.00  0.00     0.004 C 
ENDROOT
BRANCH   1   2
ATOM      2  C   UNL     1      76.616 -74.650  -1.349  1.00  0.00     0.000 C 
BRANCH   2   3
ATOM      3  C   UNL     1      77.058 -76.103  -1.138  1.00  0.00     0.000 C 
BRANCH   3   4
ATOM      4  C   UNL     1      78.529 -76.332  -1.516  1.00  0.00     0.000 C 
BRANCH   4   5
ATOM      5  C   UNL     1      78.794 -77.772  -1.988  1.00  0.00     0.006 C 
BRANCH   5   6
ATOM      6  C   UNL     1      77.653 -78.730  -1.617  1.00  0.00     0.053 C 
BRANCH   6   7
ATOM      7  C   UNL     1      78.136 -79.950  -0.898  1.00  0.00     0.041 C 
ATOM      8  O   UNL     1      77.789 -81.099  -1.283  1.00  0.00    -0.550 OA
ATOM      9  O   UNL     1      78.896 -79.820   0.258  1.00  0.00    -0.550 OA
ENDBRANCH   6   7
ENDBRANCH   5   6
ENDBRANCH   4   5
ENDBRANCH   3   4
ENDBRANCH   2   3
ENDBRANCH   1   2
BRANCH   1  10
ATOM     10  C   UNL     1      76.766 -73.654  -3.688  1.00  0.00     0.027 C 
BRANCH  10  11
ATOM     11  C   UNL     1      76.330 -72.210  -3.765  1.00  0.00    -0.031 C 
ATOM     12  C   UNL     1      75.056 -71.778  -3.721  1.00  0.00    -0.031 C 
BRANCH  12  13
ATOM     13  C   UNL     1      73.846 -72.654  -3.526  1.00  0.00     0.027 C 
BRANCH  13  14
ATOM     14  C   UNL     1      73.553 -72.865  -2.031  1.00  0.00     0.004 C 
BRANCH  14  15
ATOM     15  C   UNL     1      74.136 -71.759  -1.139  1.00  0.00     0.000 C 
BRANCH  15  16
ATOM     16  C   UNL     1      73.108 -71.027  -0.258  1.00  0.00    -0.000 C 
BRANCH  16  17
ATOM     17  C   UNL     1      73.709 -69.835   0.501  1.00  0.00    -0.003 C 
ATOM     18  C   UNL     1      72.665 -69.165   1.391  1.00  0.00     0.004 C 
ENDBRANCH  16  17
ENDBRANCH  15  16
ENDBRANCH  14  15
ENDBRANCH  13  14
ENDBRANCH  12  13
ENDBRANCH  10  11
ENDBRANCH   1  10
TORSDOF 13
ENDMDL
MODEL 4
REMARK VINA RESULT:    -3.625      3.477      5.775
REMARK INTER + INTRA:          -8.651
REMARK INTER:                  -6.330
REMARK INTRA:                  -2.321
REMARK UNBOUND:                -2.272
REMARK SMILES CCCCCCC=CCCCCCCCC(=O)[O-]
REMARK SMILES IDX 10 1 11 2 12 3 13 4 14 5 15 6 16 7 17 8 18 9 9 10 8 11 7 12
REMARK SMILES IDX 6 13 5 14 4 15 3 16 2 17 1 18
REMARK H PARENT
REMARK Flexibility Score: inf
ROOT
ATOM      1  C   UNL     1      76.824 -72.674  -3.684  1.00  0.00     0.004 C 
ENDROOT
BRANCH   1   2
ATOM      2  C   UNL     1      76.393 -74.099  -4.056  1.00  0.00     0.000 C 
BRANCH   2   3
ATOM      3  C   UNL     1      77.433 -75.127  -3.593  1.00  0.00     0.000 C 
BRANCH   3   4
ATOM      4  C   UNL     1      77.749 -75.009  -2.094  1.00  0.00     0.000 C 
BRANCH   4   5
ATOM      5  C   UNL     1      78.810 -76.027  -1.640  1.00  0.00     0.006 C 
BRANCH   5   6
ATOM      6  C   UNL     1      78.688 -77.369  -2.375  1.00  0.00     0.053 C 
BRANCH   6   7
ATOM      7  C   UNL     1      77.991 -78.413  -1.559  1.00  0.00     0.041 C 
ATOM      8  O   UNL     1      78.342 -78.632  -0.369  1.00  0.00    -0.550 OA
ATOM      9  O   UNL     1      77.014 -79.211  -2.140  1.00  0.00    -0.550 OA
ENDBRANCH   6   7
ENDBRANCH   5   6
ENDBRANCH   4   5
ENDBRANCH   3   4
ENDBRANCH   2   3
ENDBRANCH   1   2
BRANCH   1  10
ATOM     10  C   UNL     1      75.673 -71.666  -3.832  1.00  0.00     0.027 C 
BRANCH  10  11
ATOM     11  C   UNL     1      74.331 -72.331  -3.636  1.00  0.00    -0.031 C 
ATOM     12  C   UNL     1      73.773 -72.623  -2.447  1.00  0.00    -0.031 C 
BRANCH  12  13
ATOM     13  C   UNL     1      74.360 -72.281  -1.102  1.00  0.00     0.027 C 
BRANCH  13  14
ATOM     14  C   UNL     1      74.894 -73.539  -0.398  1.00  0.00     0.004 C 
BRANCH  14  15
ATOM     15  C   UNL     1      73.973 -74.758  -0.556  1.00  0.00     0.000 C 
BRANCH  15  16
ATOM     16  C   UNL     1      74.692 -76.119  -0.554  1.00  0.00    -0.000 C 
BRANCH  16  17
ATOM     17  C   UNL     1      74.470 -76.916  -1.848  1.00  0.00    -0.003 C 
ATOM     18  C   UNL     1      73.442 -76.234  -2.747  1.00  0.00     0.004 C 
ENDBRANCH  16  17
ENDBRANCH  15  16
ENDBRANCH  14  15
ENDBRANCH  13  14
ENDBRANCH  12  13
ENDBRANCH  10  11
ENDBRANCH   1  10
TORSDOF 13
ENDMDL
MODEL 5
REMARK VINA RESULT:    -3.619      1.241      2.220
REMARK INTER + INTRA:          -8.641
REMARK INTER:                  -6.655
REMARK INTRA:                  -1.986
REMARK UNBOUND:                -2.272
REMARK SMILES CCCCCCC=CCCCCCCCC(=O)[O-]
REMARK SMILES IDX 10 1 11 2 12 3 13 4 14 5 15 6 16 7 17 8 18 9 9 10 8 11 7 12
REMARK SMILES IDX 6 13 5 14 4 15 3 16 2 17 1 18
REMARK H PARENT
REMARK Flexibility Score: inf
ROOT
ATOM      1  C   UNL     1      76.051 -72.442  -3.744  1.00  0.00     0.004 C 
ENDROOT
BRANCH   1   2
ATOM      2  C   UNL     1      74.902 -73.459  -3.778  1.00  0.00     0.000 C 
BRANCH   2   3
ATOM      3  C   UNL     1      73.958 -73.263  -2.586  1.00  0.00     0.000 C 
BRANCH   3   4
ATOM      4  C   UNL     1      74.406 -72.122  -1.661  1.00  0.00     0.000 C 
BRANCH   4   5
ATOM      5  C   UNL     1      73.272 -71.636  -0.741  1.00  0.00     0.006 C 
BRANCH   5   6
ATOM      6  C   UNL     1      73.713 -70.487   0.177  1.00  0.00     0.053 C 
BRANCH   6   7
ATOM      7  C   UNL     1      72.614 -70.012   1.075  1.00  0.00     0.041 C 
ATOM      8  O   UNL     1      72.549 -68.802   1.419  1.00  0.00    -0.550 OA
ATOM      9  O   UNL     1      71.713 -70.923   1.611  1.00  0.00    -0.550 OA
ENDBRANCH   6   7
ENDBRANCH   5   6
ENDBRANCH   4   5
ENDBRANCH   3   4
ENDBRANCH   2   3
ENDBRANCH   1   2
BRANCH   1  10
ATOM     10  C   UNL     1      77.427 -73.125  -3.727  1.00  0.00     0.027 C 
BRANCH  10  11
ATOM     11  C   UNL     1      77.678 -73.824  -2.411  1.00  0.00    -0.031 C 
ATOM     12  C   UNL     1      77.723 -75.157  -2.234  1.00  0.00    -0.031 C 
BRANCH  12  13
ATOM     13  C   UNL     1      77.591 -76.186  -3.326  1.00  0.00     0.027 C 
BRANCH  13  14
ATOM     14  C   UNL     1      76.246 -76.924  -3.229  1.00  0.00     0.004 C 
BRANCH  14  15
ATOM     15  C   UNL     1      75.930 -77.422  -1.811  1.00  0.00     0.000 C 
BRANCH  15  16
ATOM     16  C   UNL     1      74.584 -76.942  -1.240  1.00  0.00    -0.000 C 
BRANCH  16  17
ATOM     17  C   UNL     1      74.745 -75.948  -0.080  1.00  0.00    -0.003 C 
ATOM     18  C   UNL     1      73.390 -75.420   0.385  1.00  0.00     0.004 C 
ENDBRANCH  16  17
ENDBRANCH  15  16
ENDBRANCH  14  15
ENDBRANCH  13  14
ENDBRANCH  12  13
ENDBRANCH  10  11
ENDBRANCH   1  10
TORSDOF 13
ENDMDL
MODEL 6
REMARK VINA RESULT:    -3.580      3.345      5.755
REMARK INTER + INTRA:          -8.572
REMARK INTER:                  -7.281
REMARK INTRA:                  -1.291
REMARK UNBOUND:                -2.272
REMARK SMILES CCCCCCC=CCCCCCCCC(=O)[O-]
REMARK SMILES IDX 10 1 11 2 12 3 13 4 14 5 15 6 16 7 17 8 18 9 9 10 8 11 7 12
REMARK SMILES IDX 6 13 5 14 4 15 3 16 2 17 1 18
REMARK H PARENT
REMARK Flexibility Score: inf
ROOT
ATOM      1  C   UNL     1      74.933 -73.703  -0.608  1.00  0.00     0.004 C 
ENDROOT
BRANCH   1   2
ATOM      2  C   UNL     1      74.099 -74.947  -0.940  1.00  0.00     0.000 C 
BRANCH   2   3
ATOM      3  C   UNL     1      72.992 -75.160   0.099  1.00  0.00     0.000 C 
BRANCH   3   4
ATOM      4  C   UNL     1      73.341 -76.259   1.115  1.00  0.00     0.000 C 
BRANCH   4   5
ATOM      5  C   UNL     1      72.342 -76.313   2.284  1.00  0.00     0.006 C 
BRANCH   5   6
ATOM      6  C   UNL     1      72.634 -77.467   3.253  1.00  0.00     0.053 C 
BRANCH   6   7
ATOM      7  C   UNL     1      73.332 -77.013   4.497  1.00  0.00     0.041 C 
ATOM      8  O   UNL     1      72.793 -76.166   5.258  1.00  0.00    -0.550 OA
ATOM      9  O   UNL     1      74.621 -77.454   4.770  1.00  0.00    -0.550 OA
ENDBRANCH   6   7
ENDBRANCH   5   6
ENDBRANCH   4   5
ENDBRANCH   3   4
ENDBRANCH   2   3
ENDBRANCH   1   2
BRANCH   1  10
ATOM     10  C   UNL     1      74.446 -72.461  -1.371  1.00  0.00     0.027 C 
BRANCH  10  11
ATOM     11  C   UNL     1      74.112 -72.793  -2.807  1.00  0.00    -0.031 C 
ATOM     12  C   UNL     1      74.983 -72.779  -3.832  1.00  0.00    -0.031 C 
BRANCH  12  13
ATOM     13  C   UNL     1      76.458 -72.490  -3.718  1.00  0.00     0.027 C 
BRANCH  13  14
ATOM     14  C   UNL     1      77.271 -73.793  -3.647  1.00  0.00     0.004 C 
BRANCH  14  15
ATOM     15  C   UNL     1      77.916 -74.029  -2.273  1.00  0.00     0.000 C 
BRANCH  15  16
ATOM     16  C   UNL     1      78.363 -75.478  -2.008  1.00  0.00    -0.000 C 
BRANCH  16  17
ATOM     17  C   UNL     1      77.690 -76.096  -0.773  1.00  0.00    -0.003 C 
ATOM     18  C   UNL     1      77.734 -77.621  -0.827  1.00  0.00     0.004 C 
ENDBRANCH  16  17
ENDBRANCH  15  16
ENDBRANCH  14  15
ENDBRANCH  13  14
ENDBRANCH  12  13
ENDBRANCH  10  11
ENDBRANCH   1  10
TORSDOF 13
ENDMDL
MODEL 7
REMARK VINA RESULT:    -3.558      1.135      2.508
REMARK INTER + INTRA:          -8.533
REMARK INTER:                  -6.348
REMARK INTRA:                  -2.185
REMARK UNBOUND:                -2.272
REMARK SMILES CCCCCCC=CCCCCCCCC(=O)[O-]
REMARK SMILES IDX 10 1 11 2 12 3 13 4 14 5 15 6 16 7 17 8 18 9 9 10 8 11 7 12
REMARK SMILES IDX 6 13 5 14 4 15 3 16 2 17 1 18
REMARK H PARENT
REMARK Flexibility Score: inf
ROOT
ATOM      1  C   UNL     1      77.396 -73.425  -2.701  1.00  0.00     0.004 C 
ENDROOT
BRANCH   1   2
ATOM      2  C   UNL     1      76.782 -72.653  -3.877  1.00  0.00     0.000 C 
BRANCH   2   3
ATOM      3  C   UNL     1      75.590 -71.807  -3.417  1.00  0.00     0.000 C 
BRANCH   3   4
ATOM      4  C   UNL     1      74.244 -72.513  -3.641  1.00  0.00     0.000 C 
BRANCH   4   5
ATOM      5  C   UNL     1      73.587 -72.951  -2.321  1.00  0.00     0.006 C 
BRANCH   5   6
ATOM      6  C   UNL     1      74.285 -72.353  -1.091  1.00  0.00     0.053 C 
BRANCH   6   7
ATOM      7  C   UNL     1      73.491 -71.255  -0.454  1.00  0.00     0.041 C 
ATOM      8  O   UNL     1      74.057 -70.196  -0.072  1.00  0.00    -0.550 OA
ATOM      9  O   UNL     1      72.138 -71.437  -0.194  1.00  0.00    -0.550 OA
ENDBRANCH   6   7
ENDBRANCH   5   6
ENDBRANCH   4   5
ENDBRANCH   3   4
ENDBRANCH   2   3
ENDBRANCH   1   2
BRANCH   1  10
ATOM     10  C   UNL     1      77.650 -74.900  -3.048  1.00  0.00     0.027 C 
BRANCH  10  11
ATOM     11  C   UNL     1      76.646 -75.409  -4.056  1.00  0.00    -0.031 C 
ATOM     12  C   UNL     1      75.514 -76.074  -3.760  1.00  0.00    -0.031 C 
BRANCH  12  13
ATOM     13  C   UNL     1      75.018 -76.374  -2.369  1.00  0.00     0.027 C 
BRANCH  13  14
ATOM     14  C   UNL     1      74.972 -77.889  -2.115  1.00  0.00     0.004 C 
BRANCH  14  15
ATOM     15  C   UNL     1      75.719 -78.704  -3.181  1.00  0.00     0.000 C 
BRANCH  15  16
ATOM     16  C   UNL     1      76.913 -79.520  -2.654  1.00  0.00    -0.000 C 
BRANCH  16  17
ATOM     17  C   UNL     1      78.253 -78.782  -2.794  1.00  0.00    -0.003 C 
ATOM     18  C   UNL     1      78.631 -78.075  -1.496  1.00  0.00     0.004 C 
ENDBRANCH  16  17
ENDBRANCH  15  16
ENDBRANCH  14  15
ENDBRANCH  13  14
ENDBRANCH  12  13
ENDBRANCH  10  11
ENDBRANCH   1  10
TORSDOF 13
ENDMDL
MODEL 8
REMARK VINA RESULT:    -3.509      2.389      4.527
REMARK INTER + INTRA:          -8.447
REMARK INTER:                  -6.222
REMARK INTRA:                  -2.225
REMARK UNBOUND:                -2.272
REMARK SMILES CCCCCCC=CCCCCCCCC(=O)[O-]
REMARK SMILES IDX 10 1 11 2 12 3 13 4 14 5 15 6 16 7 17 8 18 9 9 10 8 11 7 12
REMARK SMILES IDX 6 13 5 14 4 15 3 16 2 17 1 18
REMARK H PARENT
REMARK Flexibility Score: inf
ROOT
ATOM      1  C   UNL     1      74.505 -71.994  -2.423  1.00  0.00     0.004 C 
ENDROOT
BRANCH   1   2
ATOM      2  C   UNL     1      73.638 -72.963  -1.609  1.00  0.00     0.000 C 
BRANCH   2   3
ATOM      3  C   UNL     1      73.368 -74.252  -2.394  1.00  0.00     0.000 C 
BRANCH   3   4
ATOM      4  C   UNL     1      73.232 -75.480  -1.482  1.00  0.00     0.000 C 
BRANCH   4   5
ATOM      5  C   UNL     1      73.517 -75.148  -0.007  1.00  0.00     0.006 C 
BRANCH   5   6
ATOM      6  C   UNL     1      73.753 -76.404   0.843  1.00  0.00     0.053 C 
BRANCH   6   7
ATOM      7  C   UNL     1      72.939 -76.411   2.099  1.00  0.00     0.041 C 
ATOM      8  O   UNL     1      72.181 -75.444   2.374  1.00  0.00    -0.550 OA
ATOM      9  O   UNL     1      73.088 -77.444   3.017  1.00  0.00    -0.550 OA
ENDBRANCH   6   7
ENDBRANCH   5   6
ENDBRANCH   4   5
ENDBRANCH   3   4
ENDBRANCH   2   3
ENDBRANCH   1   2
BRANCH   1  10
ATOM     10  C   UNL     1      75.070 -72.650  -3.692  1.00  0.00     0.027 C 
BRANCH  10  11
ATOM     11  C   UNL     1      76.573 -72.512  -3.761  1.00  0.00    -0.031 C 
ATOM     12  C   UNL     1      77.460 -73.421  -3.318  1.00  0.00    -0.031 C 
BRANCH  12  13
ATOM     13  C   UNL     1      77.111 -74.765  -2.732  1.00  0.00     0.027 C 
BRANCH  13  14
ATOM     14  C   UNL     1      76.928 -74.671  -1.209  1.00  0.00     0.004 C 
BRANCH  14  15
ATOM     15  C   UNL     1      77.180 -76.003  -0.486  1.00  0.00     0.000 C 
BRANCH  15  16
ATOM     16  C   UNL     1      78.082 -76.992  -1.246  1.00  0.00    -0.000 C 
BRANCH  16  17
ATOM     17  C   UNL     1      77.409 -78.351  -1.489  1.00  0.00    -0.003 C 
ATOM     18  C   UNL     1      75.904 -78.194  -1.685  1.00  0.00     0.004 C 
ENDBRANCH  16  17
ENDBRANCH  15  16
ENDBRANCH  14  15
ENDBRANCH  13  14
ENDBRANCH  12  13
ENDBRANCH  10  11
ENDBRANCH   1  10
TORSDOF 13
ENDMDL
