MODEL 1
REMARK VINA RESULT:    74.192      0.000      0.000
REMARK INTER + INTRA:         110.323
REMARK INTER:                 104.553
REMARK INTRA:                   5.770
REMARK UNBOUND:                 5.770
REMARK SMILES COc1c(O[C@@H]2O[C@H](C(=O)[O-])[C@H](O)[C@H](O)[C@@H]2O)cc(O)c2c(=O)cc(-c3ccccc3)oc12
REMARK SMILES IDX 5 1 6 2 8 3 12 4 7 5 14 6 16 7 9 8 10 9 11 10 13 11 15 13
REMARK SMILES IDX 17 15 4 17 3 18 18 19 33 20 19 21 21 22 32 23 22 24 25 25
REMARK SMILES IDX 24 26 23 27 2 28 1 29 20 30 26 32 27 33 31 34 28 35 30 36
REMARK SMILES IDX 29 37
REMARK H PARENT 13 12 15 14 17 16 20 31
REMARK Flexibility Score: inf
ROOT
ATOM      1  O   UNL     1      12.517  97.525  -2.663  1.00  0.00    -0.458 OA
ENDROOT
BRANCH   1   2
ATOM      2  C   UNL     1      11.627  96.419  -2.487  1.00  0.00     0.339 C 
ATOM      3  C   UNL     1      10.248  95.993  -0.600  1.00  0.00     0.199 C 
ATOM      4  C   UNL     1      11.468  95.906   0.346  1.00  0.00     0.180 C 
ATOM      5  O   UNL     1      10.524  96.855  -1.685  1.00  0.00    -0.328 OA
ATOM      6  C   UNL     1      12.748  95.440  -0.414  1.00  0.00     0.181 C 
ATOM      7  C   UNL     1      12.453  95.229  -1.917  1.00  0.00     0.214 C 
BRANCH   3   8
ATOM      8  C   UNL     1       9.042  96.479   0.148  1.00  0.00     0.073 C 
ATOM      9  O   UNL     1       8.659  97.670   0.006  1.00  0.00    -0.547 OA
ATOM     10  O   UNL     1       8.282  95.599   0.917  1.00  0.00    -0.547 OA
ENDBRANCH   3   8
BRANCH   4  11
ATOM     11  O   UNL     1      11.695  97.164   0.943  1.00  0.00    -0.387 OA
ATOM     12  H   UNL     1      10.974  97.326   1.601  1.00  0.00     0.211 HD
ENDBRANCH   4  11
BRANCH   6  13
ATOM     13  O   UNL     1      13.774  96.391  -0.246  1.00  0.00    -0.387 OA
ATOM     14  H   UNL     1      13.347  97.243   0.018  1.00  0.00     0.211 HD
ENDBRANCH   6  13
BRANCH   7  15
ATOM     15  O   UNL     1      13.625  95.016  -2.673  1.00  0.00    -0.384 OA
ATOM     16  H   UNL     1      14.198  95.829  -2.593  1.00  0.00     0.211 HD
ENDBRANCH   7  15
ENDBRANCH   1   2
BRANCH   1  17
ATOM     17  C   UNL     1      12.661  98.619  -1.793  1.00  0.00     0.172 A 
ATOM     18  C   UNL     1      12.735  99.953  -2.250  1.00  0.00     0.205 A 
ATOM     19  C   UNL     1      12.844  98.348  -0.435  1.00  0.00     0.097 A 
ATOM     20  C   UNL     1      13.008 100.990  -1.344  1.00  0.00     0.188 A 
ATOM     21  C   UNL     1      13.103  99.380   0.482  1.00  0.00     0.134 A 
ATOM     22  C   UNL     1      13.204 100.717   0.027  1.00  0.00     0.111 A 
ATOM     23  O   UNL     1      13.095 102.236  -1.802  1.00  0.00    -0.452 OA
ATOM     24  C   UNL     1      13.494 101.803   0.873  1.00  0.00     0.197 A 
ATOM     25  C   UNL     1      13.359 103.285  -1.030  1.00  0.00     0.138 A 
ATOM     26  C   UNL     1      13.576 103.084   0.348  1.00  0.00     0.100 A 
ATOM     27  O   UNL     1      13.686 101.639   2.106  1.00  0.00    -0.289 OA
BRANCH  18  28
ATOM     28  O   UNL     1      12.576 100.265  -3.598  1.00  0.00    -0.490 OA
ATOM     29  C   UNL     1      12.907  99.326  -4.622  1.00  0.00     0.278 C 
ENDBRANCH  18  28
BRANCH  21  30
ATOM     30  O   UNL     1      13.261  99.071   1.834  1.00  0.00    -0.507 OA
ATOM     31  H   UNL     1      13.071  99.748   2.565  1.00  0.00     0.293 HD
ENDBRANCH  21  30
BRANCH  25  32
ATOM     32  C   UNL     1      13.420 104.629  -1.678  1.00  0.00     0.017 A 
ATOM     33  C   UNL     1      12.293 105.483  -1.758  1.00  0.00     0.012 A 
ATOM     34  C   UNL     1      14.629 105.054  -2.268  1.00  0.00     0.012 A 
ATOM     35  C   UNL     1      12.382 106.718  -2.400  1.00  0.00     0.001 A 
ATOM     36  C   UNL     1      14.713 106.288  -2.903  1.00  0.00     0.001 A 
ATOM     37  C   UNL     1      13.587 107.125  -2.978  1.00  0.00     0.000 A 
ENDBRANCH  25  32
ENDBRANCH   1  17
TORSDOF 9
ENDMDL
MODEL 2
REMARK VINA RESULT:    75.518      3.146      5.469
REMARK INTER + INTRA:         112.192
REMARK INTER:                 106.256
REMARK INTRA:                   5.936
REMARK UNBOUND:                 5.770
REMARK SMILES COc1c(O[C@@H]2O[C@H](C(=O)[O-])[C@H](O)[C@H](O)[C@@H]2O)cc(O)c2c(=O)cc(-c3ccccc3)oc12
REMARK SMILES IDX 5 1 6 2 8 3 12 4 7 5 14 6 16 7 9 8 10 9 11 10 13 11 15 13
REMARK SMILES IDX 17 15 4 17 3 18 18 19 33 20 19 21 21 22 32 23 22 24 25 25
REMARK SMILES IDX 24 26 23 27 2 28 1 29 20 30 26 32 27 33 31 34 28 35 30 36
REMARK SMILES IDX 29 37
REMARK H PARENT 13 12 15 14 17 16 20 31
REMARK Flexibility Score: inf
ROOT
ATOM      1  O   UNL     1      12.022  97.483  -0.086  1.00  0.00    -0.458 OA
ENDROOT
BRANCH   1   2
ATOM      2  C   UNL     1      10.626  97.790  -0.139  1.00  0.00     0.339 C 
ATOM      3  C   UNL     1       8.844  96.428   0.644  1.00  0.00     0.199 C 
ATOM      4  C   UNL     1       9.217  95.282  -0.324  1.00  0.00     0.180 C 
ATOM      5  O   UNL     1       9.991  97.178   0.989  1.00  0.00    -0.328 OA
ATOM      6  C   UNL     1       9.926  95.821  -1.604  1.00  0.00     0.181 C 
ATOM      7  C   UNL     1      10.095  97.357  -1.536  1.00  0.00     0.214 C 
BRANCH   3   8
ATOM      8  C   UNL     1       8.198  95.878   1.881  1.00  0.00     0.073 C 
ATOM      9  O   UNL     1       7.384  94.923   1.786  1.00  0.00    -0.547 OA
ATOM     10  O   UNL     1       8.568  96.344   3.142  1.00  0.00    -0.547 OA
ENDBRANCH   3   8
BRANCH   4  11
ATOM     11  O   UNL     1      10.056  94.359   0.337  1.00  0.00    -0.387 OA
ATOM     12  H   UNL     1      10.962  94.433  -0.055  1.00  0.00     0.211 HD
ENDBRANCH   4  11
BRANCH   6  13
ATOM     13  O   UNL     1      11.181  95.198  -1.752  1.00  0.00    -0.387 OA
ATOM     14  H   UNL     1      11.789  95.596  -1.082  1.00  0.00     0.211 HD
ENDBRANCH   6  13
BRANCH   7  15
ATOM     15  O   UNL     1      10.917  97.856  -2.568  1.00  0.00    -0.384 OA
ATOM     16  H   UNL     1      11.692  98.325  -2.149  1.00  0.00     0.211 HD
ENDBRANCH   7  15
ENDBRANCH   1   2
BRANCH   1  17
ATOM     17  C   UNL     1      12.830  97.106  -1.172  1.00  0.00     0.172 A 
ATOM     18  C   UNL     1      13.050  97.946  -2.286  1.00  0.00     0.205 A 
ATOM     19  C   UNL     1      13.341  95.807  -1.181  1.00  0.00     0.097 A 
ATOM     20  C   UNL     1      13.761  97.464  -3.397  1.00  0.00     0.188 A 
ATOM     21  C   UNL     1      14.066  95.320  -2.281  1.00  0.00     0.134 A 
ATOM     22  C   UNL     1      14.268  96.147  -3.413  1.00  0.00     0.111 A 
ATOM     23  O   UNL     1      13.935  98.266  -4.444  1.00  0.00    -0.452 OA
ATOM     24  C   UNL     1      14.952  95.726  -4.567  1.00  0.00     0.197 A 
ATOM     25  C   UNL     1      14.584  97.903  -5.546  1.00  0.00     0.138 A 
ATOM     26  C   UNL     1      15.107  96.598  -5.634  1.00  0.00     0.100 A 
ATOM     27  O   UNL     1      15.429  94.564  -4.658  1.00  0.00    -0.289 OA
BRANCH  18  28
ATOM     28  O   UNL     1      12.543  99.243  -2.326  1.00  0.00    -0.490 OA
ATOM     29  C   UNL     1      13.072 100.272  -1.490  1.00  0.00     0.278 C 
ENDBRANCH  18  28
BRANCH  21  30
ATOM     30  O   UNL     1      14.576  94.021  -2.244  1.00  0.00    -0.507 OA
ATOM     31  H   UNL     1      14.496  93.437  -1.419  1.00  0.00     0.293 HD
ENDBRANCH  21  30
BRANCH  25  32
ATOM     32  C   UNL     1      14.711  98.909  -6.642  1.00  0.00     0.017 A 
ATOM     33  C   UNL     1      13.818 100.000  -6.775  1.00  0.00     0.012 A 
ATOM     34  C   UNL     1      15.729  98.752  -7.606  1.00  0.00     0.012 A 
ATOM     35  C   UNL     1      13.951 100.902  -7.832  1.00  0.00     0.001 A 
ATOM     36  C   UNL     1      15.859  99.656  -8.655  1.00  0.00     0.001 A 
ATOM     37  C   UNL     1      14.965 100.733  -8.777  1.00  0.00     0.000 A 
ENDBRANCH  25  32
ENDBRANCH   1  17
TORSDOF 9
ENDMDL
MODEL 3
REMARK VINA RESULT:    75.570      4.285      7.704
REMARK INTER + INTRA:         112.264
REMARK INTER:                 111.275
REMARK INTRA:                   0.990
REMARK UNBOUND:                 5.770
REMARK SMILES COc1c(O[C@@H]2O[C@H](C(=O)[O-])[C@H](O)[C@H](O)[C@@H]2O)cc(O)c2c(=O)cc(-c3ccccc3)oc12
REMARK SMILES IDX 5 1 6 2 8 3 12 4 7 5 14 6 16 7 9 8 10 9 11 10 13 11 15 13
REMARK SMILES IDX 17 15 4 17 3 18 18 19 33 20 19 21 21 22 32 23 22 24 25 25
REMARK SMILES IDX 24 26 23 27 2 28 1 29 20 30 26 32 27 33 31 34 28 35 30 36
REMARK SMILES IDX 29 37
REMARK H PARENT 13 12 15 14 17 16 20 31
REMARK Flexibility Score: inf
ROOT
ATOM      1  O   UNL     1      12.217  95.180  -1.215  1.00  0.00    -0.458 OA
ENDROOT
BRANCH   1   2
ATOM      2  C   UNL     1      11.492  96.232  -1.859  1.00  0.00     0.339 C 
ATOM      3  C   UNL     1      11.899  98.564  -1.658  1.00  0.00     0.199 C 
ATOM      4  C   UNL     1      11.641  98.538  -0.134  1.00  0.00     0.180 C 
ATOM      5  O   UNL     1      12.396  97.316  -2.098  1.00  0.00    -0.328 OA
ATOM      6  C   UNL     1      10.665  97.388   0.261  1.00  0.00     0.181 C 
ATOM      7  C   UNL     1      10.251  96.563  -0.980  1.00  0.00     0.214 C 
BRANCH   3   8
ATOM      8  C   UNL     1      12.869  99.654  -2.005  1.00  0.00     0.073 C 
ATOM      9  O   UNL     1      13.537  99.579  -3.069  1.00  0.00    -0.547 OA
ATOM     10  O   UNL     1      12.964 100.798  -1.213  1.00  0.00    -0.547 OA
ENDBRANCH   3   8
BRANCH   4  11
ATOM     11  O   UNL     1      12.866  98.384   0.551  1.00  0.00    -0.387 OA
ATOM     12  H   UNL     1      12.672  98.002   1.443  1.00  0.00     0.211 HD
ENDBRANCH   4  11
BRANCH   6  13
ATOM     13  O   UNL     1      11.274  96.554   1.220  1.00  0.00    -0.387 OA
ATOM     14  H   UNL     1      11.282  95.637   0.852  1.00  0.00     0.211 HD
ENDBRANCH   6  13
BRANCH   7  15
ATOM     15  O   UNL     1       9.544  95.391  -0.639  1.00  0.00    -0.384 OA
ATOM     16  H   UNL     1       9.382  95.401   0.346  1.00  0.00     0.211 HD
ENDBRANCH   7  15
ENDBRANCH   1   2
BRANCH   1  17
ATOM     17  C   UNL     1      13.420  94.608  -1.661  1.00  0.00     0.172 A 
ATOM     18  C   UNL     1      14.668  95.254  -1.527  1.00  0.00     0.205 A 
ATOM     19  C   UNL     1      13.344  93.399  -2.357  1.00  0.00     0.097 A 
ATOM     20  C   UNL     1      15.815  94.690  -2.107  1.00  0.00     0.188 A 
ATOM     21  C   UNL     1      14.489  92.819  -2.929  1.00  0.00     0.134 A 
ATOM     22  C   UNL     1      15.739  93.474  -2.821  1.00  0.00     0.111 A 
ATOM     23  O   UNL     1      16.976  95.329  -1.986  1.00  0.00    -0.452 OA
ATOM     24  C   UNL     1      16.925  92.979  -3.392  1.00  0.00     0.197 A 
ATOM     25  C   UNL     1      18.116  94.885  -2.506  1.00  0.00     0.138 A 
ATOM     26  C   UNL     1      18.111  93.682  -3.241  1.00  0.00     0.100 A 
ATOM     27  O   UNL     1      16.936  91.904  -4.047  1.00  0.00    -0.289 OA
BRANCH  18  28
ATOM     28  O   UNL     1      14.785  96.469  -0.855  1.00  0.00    -0.490 OA
ATOM     29  C   UNL     1      14.278  96.638   0.469  1.00  0.00     0.278 C 
ENDBRANCH  18  28
BRANCH  21  30
ATOM     30  O   UNL     1      14.375  91.601  -3.601  1.00  0.00    -0.507 OA
ATOM     31  H   UNL     1      15.189  91.056  -3.865  1.00  0.00     0.293 HD
ENDBRANCH  21  30
BRANCH  25  32
ATOM     32  C   UNL     1      19.346  95.702  -2.287  1.00  0.00     0.017 A 
ATOM     33  C   UNL     1      19.306  96.983  -1.687  1.00  0.00     0.012 A 
ATOM     34  C   UNL     1      20.590  95.203  -2.726  1.00  0.00     0.012 A 
ATOM     35  C   UNL     1      20.474  97.730  -1.527  1.00  0.00     0.001 A 
ATOM     36  C   UNL     1      21.752  95.951  -2.562  1.00  0.00     0.001 A 
ATOM     37  C   UNL     1      21.699  97.222  -1.967  1.00  0.00     0.000 A 
ENDBRANCH  25  32
ENDBRANCH   1  17
TORSDOF 9
ENDMDL
MODEL 4
REMARK VINA RESULT:    75.585      3.958      7.731
REMARK INTER + INTRA:         112.286
REMARK INTER:                 110.770
REMARK INTRA:                   1.516
REMARK UNBOUND:                 5.770
REMARK SMILES COc1c(O[C@@H]2O[C@H](C(=O)[O-])[C@H](O)[C@H](O)[C@@H]2O)cc(O)c2c(=O)cc(-c3ccccc3)oc12
REMARK SMILES IDX 5 1 6 2 8 3 12 4 7 5 14 6 16 7 9 8 10 9 11 10 13 11 15 13
REMARK SMILES IDX 17 15 4 17 3 18 18 19 33 20 19 21 21 22 32 23 22 24 25 25
REMARK SMILES IDX 24 26 23 27 2 28 1 29 20 30 26 32 27 33 31 34 28 35 30 36
REMARK SMILES IDX 29 37
REMARK H PARENT 13 12 15 14 17 16 20 31
REMARK Flexibility Score: inf
ROOT
ATOM      1  O   UNL     1      14.694  94.939  -3.873  1.00  0.00    -0.458 OA
ENDROOT
BRANCH   1   2
ATOM      2  C   UNL     1      16.025  94.463  -3.650  1.00  0.00     0.339 C 
ATOM      3  C   UNL     1      16.880  92.322  -4.223  1.00  0.00     0.199 C 
ATOM      4  C   UNL     1      15.853  91.604  -3.319  1.00  0.00     0.180 C 
ATOM      5  O   UNL     1      16.353  93.545  -4.698  1.00  0.00    -0.328 OA
ATOM      6  C   UNL     1      15.407  92.509  -2.129  1.00  0.00     0.181 C 
ATOM      7  C   UNL     1      16.090  93.894  -2.202  1.00  0.00     0.214 C 
BRANCH   3   8
ATOM      8  C   UNL     1      17.262  91.445  -5.379  1.00  0.00     0.073 C 
ATOM      9  O   UNL     1      17.869  91.941  -6.363  1.00  0.00    -0.547 OA
ATOM     10  O   UNL     1      17.042  90.069  -5.328  1.00  0.00    -0.547 OA
ENDBRANCH   3   8
BRANCH   4  11
ATOM     11  O   UNL     1      14.728  91.230  -4.084  1.00  0.00    -0.387 OA
ATOM     12  H   UNL     1      14.255  90.506  -3.602  1.00  0.00     0.211 HD
ENDBRANCH   4  11
BRANCH   6  13
ATOM     13  O   UNL     1      14.006  92.653  -2.139  1.00  0.00    -0.387 OA
ATOM     14  H   UNL     1      13.809  93.617  -2.240  1.00  0.00     0.211 HD
ENDBRANCH   6  13
BRANCH   7  15
ATOM     15  O   UNL     1      15.555  94.810  -1.272  1.00  0.00    -0.384 OA
ATOM     16  H   UNL     1      15.633  94.410  -0.361  1.00  0.00     0.211 HD
ENDBRANCH   7  15
ENDBRANCH   1   2
BRANCH   1  17
ATOM     17  C   UNL     1      14.002  95.868  -3.080  1.00  0.00     0.172 A 
ATOM     18  C   UNL     1      12.873  95.519  -2.307  1.00  0.00     0.205 A 
ATOM     19  C   UNL     1      14.396  97.206  -3.153  1.00  0.00     0.097 A 
ATOM     20  C   UNL     1      12.147  96.517  -1.636  1.00  0.00     0.188 A 
ATOM     21  C   UNL     1      13.686  98.210  -2.474  1.00  0.00     0.134 A 
ATOM     22  C   UNL     1      12.537  97.871  -1.718  1.00  0.00     0.111 A 
ATOM     23  O   UNL     1      11.074  96.166  -0.932  1.00  0.00    -0.452 OA
ATOM     24  C   UNL     1      11.751  98.818  -1.037  1.00  0.00     0.197 A 
ATOM     25  C   UNL     1      10.314  97.034  -0.271  1.00  0.00     0.138 A 
ATOM     26  C   UNL     1      10.640  98.405  -0.319  1.00  0.00     0.100 A 
ATOM     27  O   UNL     1      12.033 100.045  -1.067  1.00  0.00    -0.289 OA
BRANCH  18  28
ATOM     28  O   UNL     1      12.435  94.200  -2.220  1.00  0.00    -0.490 OA
ATOM     29  C   UNL     1      11.044  93.879  -2.205  1.00  0.00     0.278 C 
ENDBRANCH  18  28
BRANCH  21  30
ATOM     30  O   UNL     1      14.122  99.533  -2.557  1.00  0.00    -0.507 OA
ATOM     31  H   UNL     1      13.972 100.196  -1.805  1.00  0.00     0.293 HD
ENDBRANCH  21  30
BRANCH  25  32
ATOM     32  C   UNL     1       9.142  96.500   0.484  1.00  0.00     0.017 A 
ATOM     33  C   UNL     1       8.215  97.346   1.141  1.00  0.00     0.012 A 
ATOM     34  C   UNL     1       8.966  95.104   0.583  1.00  0.00     0.012 A 
ATOM     35  C   UNL     1       7.149  96.807   1.862  1.00  0.00     0.001 A 
ATOM     36  C   UNL     1       7.900  94.572   1.301  1.00  0.00     0.001 A 
ATOM     37  C   UNL     1       6.989  95.422   1.950  1.00  0.00     0.000 A 
ENDBRANCH  25  32
ENDBRANCH   1  17
TORSDOF 9
ENDMDL
MODEL 5
REMARK VINA RESULT:    76.330      3.180      5.967
REMARK INTER + INTRA:         113.335
REMARK INTER:                 113.361
REMARK INTRA:                  -0.026
REMARK UNBOUND:                 5.770
REMARK SMILES COc1c(O[C@@H]2O[C@H](C(=O)[O-])[C@H](O)[C@H](O)[C@@H]2O)cc(O)c2c(=O)cc(-c3ccccc3)oc12
REMARK SMILES IDX 5 1 6 2 8 3 12 4 7 5 14 6 16 7 9 8 10 9 11 10 13 11 15 13
REMARK SMILES IDX 17 15 4 17 3 18 18 19 33 20 19 21 21 22 32 23 22 24 25 25
REMARK SMILES IDX 24 26 23 27 2 28 1 29 20 30 26 32 27 33 31 34 28 35 30 36
REMARK SMILES IDX 29 37
REMARK H PARENT 13 12 15 14 17 16 20 31
REMARK Flexibility Score: inf
ROOT
ATOM      1  O   UNL     1      14.070  94.340  -3.738  1.00  0.00    -0.458 OA
ENDROOT
BRANCH   1   2
ATOM      2  C   UNL     1      15.468  94.151  -3.498  1.00  0.00     0.339 C 
ATOM      3  C   UNL     1      16.774  92.271  -4.133  1.00  0.00     0.199 C 
ATOM      4  C   UNL     1      15.910  91.309  -3.284  1.00  0.00     0.180 C 
ATOM      5  O   UNL     1      16.004  93.371  -4.572  1.00  0.00    -0.328 OA
ATOM      6  C   UNL     1      15.259  92.044  -2.072  1.00  0.00     0.181 C 
ATOM      7  C   UNL     1      15.629  93.545  -2.073  1.00  0.00     0.214 C 
BRANCH   3   8
ATOM      8  C   UNL     1      17.356  91.547  -5.311  1.00  0.00     0.073 C 
ATOM      9  O   UNL     1      17.680  92.194  -6.341  1.00  0.00    -0.547 OA
ATOM     10  O   UNL     1      17.636  90.184  -5.239  1.00  0.00    -0.547 OA
ENDBRANCH   3   8
BRANCH   4  11
ATOM     11  O   UNL     1      14.906  90.737  -4.094  1.00  0.00    -0.387 OA
ATOM     12  H   UNL     1      14.415  90.071  -3.550  1.00  0.00     0.211 HD
ENDBRANCH   4  11
BRANCH   6  13
ATOM     13  O   UNL     1      13.860  91.885  -2.114  1.00  0.00    -0.387 OA
ATOM     14  H   UNL     1      13.511  92.519  -2.788  1.00  0.00     0.211 HD
ENDBRANCH   6  13
BRANCH   7  15
ATOM     15  O   UNL     1      14.893  94.283  -1.122  1.00  0.00    -0.384 OA
ATOM     16  H   UNL     1      15.463  95.039  -0.806  1.00  0.00     0.211 HD
ENDBRANCH   7  15
ENDBRANCH   1   2
BRANCH   1  17
ATOM     17  C   UNL     1      13.203  95.153  -2.990  1.00  0.00     0.172 A 
ATOM     18  C   UNL     1      13.462  96.519  -2.744  1.00  0.00     0.205 A 
ATOM     19  C   UNL     1      12.101  94.544  -2.385  1.00  0.00     0.097 A 
ATOM     20  C   UNL     1      12.624  97.247  -1.882  1.00  0.00     0.188 A 
ATOM     21  C   UNL     1      11.249  95.267  -1.534  1.00  0.00     0.134 A 
ATOM     22  C   UNL     1      11.517  96.630  -1.262  1.00  0.00     0.111 A 
ATOM     23  O   UNL     1      12.902  98.527  -1.649  1.00  0.00    -0.452 OA
ATOM     24  C   UNL     1      10.735  97.415  -0.396  1.00  0.00     0.197 A 
ATOM     25  C   UNL     1      12.179  99.299  -0.843  1.00  0.00     0.138 A 
ATOM     26  C   UNL     1      11.065  98.745  -0.182  1.00  0.00     0.100 A 
ATOM     27  O   UNL     1       9.734  96.935   0.198  1.00  0.00    -0.289 OA
BRANCH  18  28
ATOM     28  O   UNL     1      14.559  97.162  -3.312  1.00  0.00    -0.490 OA
ATOM     29  C   UNL     1      14.519  97.654  -4.652  1.00  0.00     0.278 C 
ENDBRANCH  18  28
BRANCH  21  30
ATOM     30  O   UNL     1      10.148  94.627  -0.964  1.00  0.00    -0.507 OA
ATOM     31  H   UNL     1       9.198  94.934  -1.140  1.00  0.00     0.293 HD
ENDBRANCH  21  30
BRANCH  25  32
ATOM     32  C   UNL     1      12.602 100.722  -0.678  1.00  0.00     0.017 A 
ATOM     33  C   UNL     1      11.881 101.636   0.128  1.00  0.00     0.012 A 
ATOM     34  C   UNL     1      13.735 101.188  -1.376  1.00  0.00     0.012 A 
ATOM     35  C   UNL     1      12.291 102.966   0.233  1.00  0.00     0.001 A 
ATOM     36  C   UNL     1      14.141 102.514  -1.265  1.00  0.00     0.001 A 
ATOM     37  C   UNL     1      13.416 103.412  -0.465  1.00  0.00     0.000 A 
ENDBRANCH  25  32
ENDBRANCH   1  17
TORSDOF 9
ENDMDL
MODEL 6
REMARK VINA RESULT:    76.480      3.447      9.552
REMARK INTER + INTRA:         113.547
REMARK INTER:                 111.586
REMARK INTRA:                   1.961
REMARK UNBOUND:                 5.770
REMARK SMILES COc1c(O[C@@H]2O[C@H](C(=O)[O-])[C@H](O)[C@H](O)[C@@H]2O)cc(O)c2c(=O)cc(-c3ccccc3)oc12
REMARK SMILES IDX 5 1 6 2 8 3 12 4 7 5 14 6 16 7 9 8 10 9 11 10 13 11 15 13
REMARK SMILES IDX 17 15 4 17 3 18 18 19 33 20 19 21 21 22 32 23 22 24 25 25
REMARK SMILES IDX 24 26 23 27 2 28 1 29 20 30 26 32 27 33 31 34 28 35 30 36
REMARK SMILES IDX 29 37
REMARK H PARENT 13 12 15 14 17 16 20 31
REMARK Flexibility Score: inf
ROOT
ATOM      1  O   UNL     1      10.810  97.507  -0.770  1.00  0.00    -0.458 OA
ENDROOT
BRANCH   1   2
ATOM      2  C   UNL     1      12.133  97.891  -0.384  1.00  0.00     0.339 C 
ATOM      3  C   UNL     1      13.246  99.912  -0.953  1.00  0.00     0.199 C 
ATOM      4  C   UNL     1      13.154  99.605  -2.466  1.00  0.00     0.180 C 
ATOM      5  O   UNL     1      12.166  99.317  -0.262  1.00  0.00    -0.328 OA
ATOM      6  C   UNL     1      13.107  98.070  -2.736  1.00  0.00     0.181 C 
ATOM      7  C   UNL     1      13.127  97.274  -1.410  1.00  0.00     0.214 C 
BRANCH   3   8
ATOM      8  C   UNL     1      13.251 101.394  -0.721  1.00  0.00     0.073 C 
ATOM      9  O   UNL     1      14.035 102.124  -1.381  1.00  0.00    -0.547 OA
ATOM     10  O   UNL     1      12.328 101.980   0.144  1.00  0.00    -0.547 OA
ENDBRANCH   3   8
BRANCH   4  11
ATOM     11  O   UNL     1      12.006 100.223  -3.005  1.00  0.00    -0.387 OA
ATOM     12  H   UNL     1      11.715  99.697  -3.792  1.00  0.00     0.211 HD
ENDBRANCH   4  11
BRANCH   6  13
ATOM     13  O   UNL     1      11.953  97.752  -3.479  1.00  0.00    -0.387 OA
ATOM     14  H   UNL     1      12.242  97.223  -4.263  1.00  0.00     0.211 HD
ENDBRANCH   6  13
BRANCH   7  15
ATOM     15  O   UNL     1      12.871  95.900  -1.601  1.00  0.00    -0.384 OA
ATOM     16  H   UNL     1      13.746  95.420  -1.619  1.00  0.00     0.211 HD
ENDBRANCH   7  15
ENDBRANCH   1   2
BRANCH   1  17
ATOM     17  C   UNL     1       9.861  96.867   0.045  1.00  0.00     0.172 A 
ATOM     18  C   UNL     1      10.013  95.537   0.492  1.00  0.00     0.205 A 
ATOM     19  C   UNL     1       8.679  97.555   0.327  1.00  0.00     0.097 A 
ATOM     20  C   UNL     1       8.972  94.911   1.196  1.00  0.00     0.188 A 
ATOM     21  C   UNL     1       7.637  96.943   1.044  1.00  0.00     0.134 A 
ATOM     22  C   UNL     1       7.772  95.600   1.472  1.00  0.00     0.111 A 
ATOM     23  O   UNL     1       9.130  93.649   1.587  1.00  0.00    -0.452 OA
ATOM     24  C   UNL     1       6.765  94.903   2.164  1.00  0.00     0.197 A 
ATOM     25  C   UNL     1       8.202  92.964   2.250  1.00  0.00     0.138 A 
ATOM     26  C   UNL     1       6.975  93.588   2.549  1.00  0.00     0.100 A 
ATOM     27  O   UNL     1       5.664  95.449   2.443  1.00  0.00    -0.289 OA
BRANCH  18  28
ATOM     28  O   UNL     1      11.169  94.809   0.217  1.00  0.00    -0.490 OA
ATOM     29  C   UNL     1      11.620  94.608  -1.122  1.00  0.00     0.278 C 
ENDBRANCH  18  28
BRANCH  21  30
ATOM     30  O   UNL     1       6.478  97.669   1.322  1.00  0.00    -0.507 OA
ATOM     31  H   UNL     1       6.208  98.479   0.773  1.00  0.00     0.293 HD
ENDBRANCH  21  30
BRANCH  25  32
ATOM     32  C   UNL     1       8.517  91.556   2.632  1.00  0.00     0.017 A 
ATOM     33  C   UNL     1       7.517  90.644   3.050  1.00  0.00     0.012 A 
ATOM     34  C   UNL     1       9.859  91.122   2.616  1.00  0.00     0.012 A 
ATOM     35  C   UNL     1       7.855  89.344   3.429  1.00  0.00     0.001 A 
ATOM     36  C   UNL     1      10.190  89.824   2.992  1.00  0.00     0.001 A 
ATOM     37  C   UNL     1       9.189  88.930   3.407  1.00  0.00     0.000 A 
ENDBRANCH  25  32
ENDBRANCH   1  17
TORSDOF 9
ENDMDL
