MODEL 1
REMARK VINA RESULT:    -4.743      0.000      0.000
REMARK INTER + INTRA:          -5.897
REMARK INTER:                  -5.852
REMARK INTRA:                  -0.044
REMARK UNBOUND:                -0.044
REMARK SMILES CCCCCC(=O)[O-]
REMARK SMILES IDX 4 1 5 2 6 3 7 4 8 5 3 6 2 7 1 8
REMARK H PARENT
REMARK Flexibility Score: inf
ROOT
ATOM      1  C   UNL     1     -22.024 -20.816  30.246  1.00  0.00     0.006 C 
ENDROOT
BRANCH   1   2
ATOM      2  C   UNL     1     -21.230 -19.666  30.878  1.00  0.00     0.053 C 
BRANCH   2   3
ATOM      3  C   UNL     1     -20.351 -19.017  29.857  1.00  0.00     0.041 C 
ATOM      4  O   UNL     1     -19.181 -18.663  30.162  1.00  0.00    -0.550 OA
ATOM      5  O   UNL     1     -20.805 -18.845  28.556  1.00  0.00    -0.550 OA
ENDBRANCH   2   3
ENDBRANCH   1   2
BRANCH   1   6
ATOM      6  C   UNL     1     -22.017 -22.086  31.113  1.00  0.00     0.000 C 
BRANCH   6   7
ATOM      7  C   UNL     1     -22.093 -23.372  30.276  1.00  0.00    -0.003 C 
ATOM      8  C   UNL     1     -23.011 -24.399  30.934  1.00  0.00     0.004 C 
ENDBRANCH   6   7
ENDBRANCH   1   6
TORSDOF 4
ENDMDL
MODEL 2
REMARK VINA RESULT:    -4.710      3.949      5.621
REMARK INTER + INTRA:          -5.855
REMARK INTER:                  -5.812
REMARK INTRA:                  -0.043
REMARK UNBOUND:                -0.044
REMARK SMILES CCCCCC(=O)[O-]
REMARK SMILES IDX 4 1 5 2 6 3 7 4 8 5 3 6 2 7 1 8
REMARK H PARENT
REMARK Flexibility Score: inf
ROOT
ATOM      1  C   UNL     1     -22.245 -23.466  30.274  1.00  0.00     0.006 C 
ENDROOT
BRANCH   1   2
ATOM      2  C   UNL     1     -23.046 -24.600  30.927  1.00  0.00     0.053 C 
BRANCH   2   3
ATOM      3  C   UNL     1     -23.866 -25.317  29.901  1.00  0.00     0.041 C 
ATOM      4  O   UNL     1     -23.343 -25.686  28.816  1.00  0.00    -0.550 OA
ATOM      5  O   UNL     1     -25.196 -25.621  30.163  1.00  0.00    -0.550 OA
ENDBRANCH   2   3
ENDBRANCH   1   2
BRANCH   1   6
ATOM      6  C   UNL     1     -22.209 -22.195  31.136  1.00  0.00     0.000 C 
BRANCH   6   7
ATOM      7  C   UNL     1     -22.048 -20.918  30.299  1.00  0.00    -0.003 C 
ATOM      8  C   UNL     1     -21.162 -19.901  31.014  1.00  0.00     0.004 C 
ENDBRANCH   6   7
ENDBRANCH   1   6
TORSDOF 4
ENDMDL
MODEL 3
REMARK VINA RESULT:    -4.695      1.688      2.568
REMARK INTER + INTRA:          -5.838
REMARK INTER:                  -5.734
REMARK INTRA:                  -0.104
REMARK UNBOUND:                -0.044
REMARK SMILES CCCCCC(=O)[O-]
REMARK SMILES IDX 4 1 5 2 6 3 7 4 8 5 3 6 2 7 1 8
REMARK H PARENT
REMARK Flexibility Score: inf
ROOT
ATOM      1  C   UNL     1     -22.197 -23.313  30.416  1.00  0.00     0.006 C 
ENDROOT
BRANCH   1   2
ATOM      2  C   UNL     1     -22.171 -22.055  31.293  1.00  0.00     0.053 C 
BRANCH   2   3
ATOM      3  C   UNL     1     -22.012 -20.832  30.447  1.00  0.00     0.041 C 
ATOM      4  O   UNL     1     -21.498 -19.789  30.932  1.00  0.00    -0.550 OA
ATOM      5  O   UNL     1     -22.386 -20.857  29.110  1.00  0.00    -0.550 OA
ENDBRANCH   2   3
ENDBRANCH   1   2
BRANCH   1   6
ATOM      6  C   UNL     1     -23.101 -24.416  30.990  1.00  0.00     0.000 C 
BRANCH   6   7
ATOM      7  C   UNL     1     -23.628 -25.369  29.908  1.00  0.00    -0.003 C 
ATOM      8  C   UNL     1     -23.151 -24.943  28.522  1.00  0.00     0.004 C 
ENDBRANCH   6   7
ENDBRANCH   1   6
TORSDOF 4
ENDMDL
MODEL 4
REMARK VINA RESULT:    -4.684      4.912      6.474
REMARK INTER + INTRA:          -5.824
REMARK INTER:                  -5.767
REMARK INTRA:                  -0.057
REMARK UNBOUND:                -0.044
REMARK SMILES CCCCCC(=O)[O-]
REMARK SMILES IDX 4 1 5 2 6 3 7 4 8 5 3 6 2 7 1 8
REMARK H PARENT
REMARK Flexibility Score: inf
ROOT
ATOM      1  C   UNL     1     -23.130 -24.632  30.511  1.00  0.00     0.006 C 
ENDROOT
BRANCH   1   2
ATOM      2  C   UNL     1     -23.514 -25.253  29.163  1.00  0.00     0.053 C 
BRANCH   2   3
ATOM      3  C   UNL     1     -24.275 -26.524  29.371  1.00  0.00     0.041 C 
ATOM      4  O   UNL     1     -24.678 -27.191  28.382  1.00  0.00    -0.550 OA
ATOM      5  O   UNL     1     -24.497 -26.999  30.658  1.00  0.00    -0.550 OA
ENDBRANCH   2   3
ENDBRANCH   1   2
BRANCH   1   6
ATOM      6  C   UNL     1     -22.097 -23.503  30.369  1.00  0.00     0.000 C 
BRANCH   6   7
ATOM      7  C   UNL     1     -22.363 -22.335  31.330  1.00  0.00    -0.003 C 
ATOM      8  C   UNL     1     -21.995 -21.001  30.687  1.00  0.00     0.004 C 
ENDBRANCH   6   7
ENDBRANCH   1   6
TORSDOF 4
ENDMDL
MODEL 5
REMARK VINA RESULT:    -4.662      1.076      1.832
REMARK INTER + INTRA:          -5.797
REMARK INTER:                  -5.741
REMARK INTRA:                  -0.056
REMARK UNBOUND:                -0.044
REMARK SMILES CCCCCC(=O)[O-]
REMARK SMILES IDX 4 1 5 2 6 3 7 4 8 5 3 6 2 7 1 8
REMARK H PARENT
REMARK Flexibility Score: inf
ROOT
ATOM      1  C   UNL     1     -21.222 -19.737  30.518  1.00  0.00     0.006 C 
ENDROOT
BRANCH   1   2
ATOM      2  C   UNL     1     -20.883 -19.105  29.162  1.00  0.00     0.053 C 
BRANCH   2   3
ATOM      3  C   UNL     1     -20.103 -17.843  29.355  1.00  0.00     0.041 C 
ATOM      4  O   UNL     1     -19.755 -17.155  28.359  1.00  0.00    -0.550 OA
ATOM      5  O   UNL     1     -19.803 -17.399  30.637  1.00  0.00    -0.550 OA
ENDBRANCH   2   3
ENDBRANCH   1   2
BRANCH   1   6
ATOM      6  C   UNL     1     -22.240 -20.882  30.399  1.00  0.00     0.000 C 
BRANCH   6   7
ATOM      7  C   UNL     1     -21.962 -22.024  31.386  1.00  0.00    -0.003 C 
ATOM      8  C   UNL     1     -22.324 -23.376  30.777  1.00  0.00     0.004 C 
ENDBRANCH   6   7
ENDBRANCH   1   6
TORSDOF 4
ENDMDL
MODEL 6
REMARK VINA RESULT:    -4.597      1.961      3.021
REMARK INTER + INTRA:          -5.717
REMARK INTER:                  -5.587
REMARK INTRA:                  -0.129
REMARK UNBOUND:                -0.044
REMARK SMILES CCCCCC(=O)[O-]
REMARK SMILES IDX 4 1 5 2 6 3 7 4 8 5 3 6 2 7 1 8
REMARK H PARENT
REMARK Flexibility Score: inf
ROOT
ATOM      1  C   UNL     1     -20.734 -18.366  28.899  1.00  0.00     0.006 C 
ENDROOT
BRANCH   1   2
ATOM      2  C   UNL     1     -19.229 -18.211  29.149  1.00  0.00     0.053 C 
BRANCH   2   3
ATOM      3  C   UNL     1     -18.982 -17.270  30.286  1.00  0.00     0.041 C 
ATOM      4  O   UNL     1     -19.400 -17.549  31.441  1.00  0.00    -0.550 OA
ATOM      5  O   UNL     1     -18.249 -16.108  30.081  1.00  0.00    -0.550 OA
ENDBRANCH   2   3
ENDBRANCH   1   2
BRANCH   1   6
ATOM      6  C   UNL     1     -21.224 -19.807  29.114  1.00  0.00     0.000 C 
BRANCH   6   7
ATOM      7  C   UNL     1     -21.584 -20.096  30.578  1.00  0.00    -0.003 C 
ATOM      8  C   UNL     1     -22.097 -21.524  30.744  1.00  0.00     0.004 C 
ENDBRANCH   6   7
ENDBRANCH   1   6
TORSDOF 4
ENDMDL
MODEL 7
REMARK VINA RESULT:    -4.499      2.924      4.600
REMARK INTER + INTRA:          -5.596
REMARK INTER:                  -5.441
REMARK INTRA:                  -0.155
REMARK UNBOUND:                -0.044
REMARK SMILES CCCCCC(=O)[O-]
REMARK SMILES IDX 4 1 5 2 6 3 7 4 8 5 3 6 2 7 1 8
REMARK H PARENT
REMARK Flexibility Score: inf
ROOT
ATOM      1  C   UNL     1     -22.269 -20.756  29.084  1.00  0.00     0.006 C 
ENDROOT
BRANCH   1   2
ATOM      2  C   UNL     1     -22.142 -22.108  28.370  1.00  0.00     0.053 C 
BRANCH   2   3
ATOM      3  C   UNL     1     -22.304 -23.230  29.346  1.00  0.00     0.041 C 
ATOM      4  O   UNL     1     -22.695 -24.361  28.952  1.00  0.00    -0.550 OA
ATOM      5  O   UNL     1     -21.977 -23.043  30.683  1.00  0.00    -0.550 OA
ENDBRANCH   2   3
ENDBRANCH   1   2
BRANCH   1   6
ATOM      6  C   UNL     1     -21.248 -19.724  28.580  1.00  0.00     0.000 C 
BRANCH   6   7
ATOM      7  C   UNL     1     -20.631 -18.899  29.719  1.00  0.00    -0.003 C 
ATOM      8  C   UNL     1     -20.963 -19.509  31.078  1.00  0.00     0.004 C 
ENDBRANCH   6   7
ENDBRANCH   1   6
TORSDOF 4
ENDMDL
MODEL 8
REMARK VINA RESULT:    -4.471      2.840      4.731
REMARK INTER + INTRA:          -5.560
REMARK INTER:                  -5.475
REMARK INTRA:                  -0.085
REMARK UNBOUND:                -0.044
REMARK SMILES CCCCCC(=O)[O-]
REMARK SMILES IDX 4 1 5 2 6 3 7 4 8 5 3 6 2 7 1 8
REMARK H PARENT
REMARK Flexibility Score: inf
ROOT
ATOM      1  C   UNL     1     -21.061 -20.411  31.275  1.00  0.00     0.006 C 
ENDROOT
BRANCH   1   2
ATOM      2  C   UNL     1     -22.101 -21.115  30.395  1.00  0.00     0.053 C 
BRANCH   2   3
ATOM      3  C   UNL     1     -22.417 -22.470  30.944  1.00  0.00     0.041 C 
ATOM      4  O   UNL     1     -21.928 -23.501  30.411  1.00  0.00    -0.550 OA
ATOM      5  O   UNL     1     -23.214 -22.594  32.076  1.00  0.00    -0.550 OA
ENDBRANCH   2   3
ENDBRANCH   1   2
BRANCH   1   6
ATOM      6  C   UNL     1     -20.683 -19.019  30.744  1.00  0.00     0.000 C 
BRANCH   6   7
ATOM      7  C   UNL     1     -20.611 -18.972  29.211  1.00  0.00    -0.003 C 
ATOM      8  C   UNL     1     -20.238 -17.574  28.723  1.00  0.00     0.004 C 
ENDBRANCH   6   7
ENDBRANCH   1   6
TORSDOF 4
ENDMDL
MODEL 9
REMARK VINA RESULT:    -4.392      4.791      6.384
REMARK INTER + INTRA:          -5.464
REMARK INTER:                  -5.435
REMARK INTRA:                  -0.029
REMARK UNBOUND:                -0.044
REMARK SMILES CCCCCC(=O)[O-]
REMARK SMILES IDX 4 1 5 2 6 3 7 4 8 5 3 6 2 7 1 8
REMARK H PARENT
REMARK Flexibility Score: inf
ROOT
ATOM      1  C   UNL     1     -23.870 -26.626  28.990  1.00  0.00     0.006 C 
ENDROOT
BRANCH   1   2
ATOM      2  C   UNL     1     -23.494 -25.141  28.905  1.00  0.00     0.053 C 
BRANCH   2   3
ATOM      3  C   UNL     1     -23.092 -24.627  30.252  1.00  0.00     0.041 C 
ATOM      4  O   UNL     1     -22.473 -23.535  30.354  1.00  0.00    -0.550 OA
ATOM      5  O   UNL     1     -23.443 -25.329  31.398  1.00  0.00    -0.550 OA
ENDBRANCH   2   3
ENDBRANCH   1   2
BRANCH   1   6
ATOM      6  C   UNL     1     -25.388 -26.847  29.081  1.00  0.00     0.000 C 
BRANCH   6   7
ATOM      7  C   UNL     1     -25.915 -27.779  27.981  1.00  0.00    -0.003 C 
ATOM      8  C   UNL     1     -26.809 -28.869  28.568  1.00  0.00     0.004 C 
ENDBRANCH   6   7
ENDBRANCH   1   6
TORSDOF 4
ENDMDL
