MODEL 1
REMARK VINA RESULT:    -4.638      0.000      0.000
REMARK INTER + INTRA:          -5.878
REMARK INTER:                  -5.722
REMARK INTRA:                  -0.156
REMARK UNBOUND:                -0.156
REMARK SMILES CCCCCC(=O)[O-]
REMARK SMILES IDX 4 1 5 2 6 3 7 4 8 5 3 6 2 7 1 8
REMARK H PARENT
REMARK Flexibility Score: inf
ROOT
ATOM      1  C   UNL     1      23.105  56.724  32.870  1.00  0.00     0.006 C 
ENDROOT
BRANCH   1   2
ATOM      2  C   UNL     1      24.302  57.394  32.188  1.00  0.00     0.053 C 
BRANCH   2   3
ATOM      3  C   UNL     1      24.608  58.707  32.837  1.00  0.00     0.041 C 
ATOM      4  O   UNL     1      25.196  59.612  32.187  1.00  0.00    -0.550 OA
ATOM      5  O   UNL     1      24.289  58.913  34.172  1.00  0.00    -0.550 OA
ENDBRANCH   2   3
ENDBRANCH   1   2
BRANCH   1   6
ATOM      6  C   UNL     1      21.868  56.751  31.959  1.00  0.00     0.000 C 
BRANCH   6   7
ATOM      7  C   UNL     1      20.628  57.322  32.664  1.00  0.00    -0.003 C 
ATOM      8  C   UNL     1      20.980  58.349  33.740  1.00  0.00     0.004 C 
ENDBRANCH   6   7
ENDBRANCH   1   6
TORSDOF 4
ENDMDL
MODEL 2
REMARK VINA RESULT:    -4.614      2.099      3.101
REMARK INTER + INTRA:          -5.849
REMARK INTER:                  -5.757
REMARK INTRA:                  -0.092
REMARK UNBOUND:                -0.156
REMARK SMILES CCCCCC(=O)[O-]
REMARK SMILES IDX 4 1 5 2 6 3 7 4 8 5 3 6 2 7 1 8
REMARK H PARENT
REMARK Flexibility Score: inf
ROOT
ATOM      1  C   UNL     1      22.158  58.015  34.538  1.00  0.00     0.006 C 
ENDROOT
BRANCH   1   2
ATOM      2  C   UNL     1      22.065  58.671  35.920  1.00  0.00     0.053 C 
BRANCH   2   3
ATOM      3  C   UNL     1      23.179  59.650  36.111  1.00  0.00     0.041 C 
ATOM      4  O   UNL     1      24.240  59.543  35.439  1.00  0.00    -0.550 OA
ATOM      5  O   UNL     1      23.067  60.653  37.065  1.00  0.00    -0.550 OA
ENDBRANCH   2   3
ENDBRANCH   1   2
BRANCH   1   6
ATOM      6  C   UNL     1      20.945  58.385  33.672  1.00  0.00     0.000 C 
BRANCH   6   7
ATOM      7  C   UNL     1      20.634  57.324  32.606  1.00  0.00    -0.003 C 
ATOM      8  C   UNL     1      21.893  56.656  32.052  1.00  0.00     0.004 C 
ENDBRANCH   6   7
ENDBRANCH   1   6
TORSDOF 4
ENDMDL
MODEL 3
REMARK VINA RESULT:    -4.427      1.276      2.088
REMARK INTER + INTRA:          -5.618
REMARK INTER:                  -5.388
REMARK INTRA:                  -0.230
REMARK UNBOUND:                -0.156
REMARK SMILES CCCCCC(=O)[O-]
REMARK SMILES IDX 4 1 5 2 6 3 7 4 8 5 3 6 2 7 1 8
REMARK H PARENT
REMARK Flexibility Score: inf
ROOT
ATOM      1  C   UNL     1      22.959  57.665  34.548  1.00  0.00     0.006 C 
ENDROOT
BRANCH   1   2
ATOM      2  C   UNL     1      24.114  58.637  34.282  1.00  0.00     0.053 C 
BRANCH   2   3
ATOM      3  C   UNL     1      24.572  58.530  32.863  1.00  0.00     0.041 C 
ATOM      4  O   UNL     1      24.439  57.446  32.234  1.00  0.00    -0.550 OA
ATOM      5  O   UNL     1      25.192  59.610  32.249  1.00  0.00    -0.550 OA
ENDBRANCH   2   3
ENDBRANCH   1   2
BRANCH   1   6
ATOM      6  C   UNL     1      21.630  58.419  34.696  1.00  0.00     0.000 C 
BRANCH   6   7
ATOM      7  C   UNL     1      20.784  58.382  33.414  1.00  0.00    -0.003 C 
ATOM      8  C   UNL     1      20.962  57.084  32.626  1.00  0.00     0.004 C 
ENDBRANCH   6   7
ENDBRANCH   1   6
TORSDOF 4
ENDMDL
MODEL 4
REMARK VINA RESULT:    -4.352      2.160      3.182
REMARK INTER + INTRA:          -5.526
REMARK INTER:                  -5.364
REMARK INTRA:                  -0.162
REMARK UNBOUND:                -0.156
REMARK SMILES CCCCCC(=O)[O-]
REMARK SMILES IDX 4 1 5 2 6 3 7 4 8 5 3 6 2 7 1 8
REMARK H PARENT
REMARK Flexibility Score: inf
ROOT
ATOM      1  C   UNL     1      22.610  57.521  34.766  1.00  0.00     0.006 C 
ENDROOT
BRANCH   1   2
ATOM      2  C   UNL     1      22.116  58.643  35.685  1.00  0.00     0.053 C 
BRANCH   2   3
ATOM      3  C   UNL     1      23.218  59.615  35.966  1.00  0.00     0.041 C 
ATOM      4  O   UNL     1      24.302  59.545  35.327  1.00  0.00    -0.550 OA
ATOM      5  O   UNL     1      23.069  60.565  36.967  1.00  0.00    -0.550 OA
ENDBRANCH   2   3
ENDBRANCH   1   2
BRANCH   1   6
ATOM      6  C   UNL     1      22.069  57.700  33.340  1.00  0.00     0.000 C 
BRANCH   6   7
ATOM      7  C   UNL     1      22.998  57.099  32.275  1.00  0.00    -0.003 C 
ATOM      8  C   UNL     1      24.366  57.780  32.230  1.00  0.00     0.004 C 
ENDBRANCH   6   7
ENDBRANCH   1   6
TORSDOF 4
ENDMDL
MODEL 5
REMARK VINA RESULT:    -4.342      2.252      3.096
REMARK INTER + INTRA:          -5.513
REMARK INTER:                  -5.339
REMARK INTRA:                  -0.174
REMARK UNBOUND:                -0.156
REMARK SMILES CCCCCC(=O)[O-]
REMARK SMILES IDX 4 1 5 2 6 3 7 4 8 5 3 6 2 7 1 8
REMARK H PARENT
REMARK Flexibility Score: inf
ROOT
ATOM      1  C   UNL     1      24.068  58.941  33.310  1.00  0.00     0.006 C 
ENDROOT
BRANCH   1   2
ATOM      2  C   UNL     1      23.962  58.330  34.711  1.00  0.00     0.053 C 
BRANCH   2   3
ATOM      3  C   UNL     1      22.893  59.014  35.502  1.00  0.00     0.041 C 
ATOM      4  O   UNL     1      21.685  58.696  35.342  1.00  0.00    -0.550 OA
ATOM      5  O   UNL     1      23.225  60.036  36.381  1.00  0.00    -0.550 OA
ENDBRANCH   2   3
ENDBRANCH   1   2
BRANCH   1   6
ATOM      6  C   UNL     1      24.189  57.846  32.241  1.00  0.00     0.000 C 
BRANCH   6   7
ATOM      7  C   UNL     1      23.336  56.609  32.563  1.00  0.00    -0.003 C 
ATOM      8  C   UNL     1      22.038  56.559  31.757  1.00  0.00     0.004 C 
ENDBRANCH   6   7
ENDBRANCH   1   6
TORSDOF 4
ENDMDL
MODEL 6
REMARK VINA RESULT:    -4.268      2.626      3.614
REMARK INTER + INTRA:          -5.422
REMARK INTER:                  -5.233
REMARK INTRA:                  -0.189
REMARK UNBOUND:                -0.156
REMARK SMILES CCCCCC(=O)[O-]
REMARK SMILES IDX 4 1 5 2 6 3 7 4 8 5 3 6 2 7 1 8
REMARK H PARENT
REMARK Flexibility Score: inf
ROOT
ATOM      1  C   UNL     1      23.990  56.740  32.336  1.00  0.00     0.006 C 
ENDROOT
BRANCH   1   2
ATOM      2  C   UNL     1      22.577  56.815  31.747  1.00  0.00     0.053 C 
BRANCH   2   3
ATOM      3  C   UNL     1      21.561  56.407  32.766  1.00  0.00     0.041 C 
ATOM      4  O   UNL     1      21.592  55.250  33.263  1.00  0.00    -0.550 OA
ATOM      5  O   UNL     1      20.551  57.287  33.132  1.00  0.00    -0.550 OA
ENDBRANCH   2   3
ENDBRANCH   1   2
BRANCH   1   6
ATOM      6  C   UNL     1      24.695  58.101  32.246  1.00  0.00     0.000 C 
BRANCH   6   7
ATOM      7  C   UNL     1      24.014  59.178  33.104  1.00  0.00    -0.003 C 
ATOM      8  C   UNL     1      23.914  58.784  34.578  1.00  0.00     0.004 C 
ENDBRANCH   6   7
ENDBRANCH   1   6
TORSDOF 4
ENDMDL
MODEL 7
REMARK VINA RESULT:    -4.240      2.441      3.794
REMARK INTER + INTRA:          -5.387
REMARK INTER:                  -5.189
REMARK INTRA:                  -0.198
REMARK UNBOUND:                -0.156
REMARK SMILES CCCCCC(=O)[O-]
REMARK SMILES IDX 4 1 5 2 6 3 7 4 8 5 3 6 2 7 1 8
REMARK H PARENT
REMARK Flexibility Score: inf
ROOT
ATOM      1  C   UNL     1      21.841  58.162  34.336  1.00  0.00     0.006 C 
ENDROOT
BRANCH   1   2
ATOM      2  C   UNL     1      21.143  57.766  33.031  1.00  0.00     0.053 C 
BRANCH   2   3
ATOM      3  C   UNL     1      21.620  56.427  32.565  1.00  0.00     0.041 C 
ATOM      4  O   UNL     1      22.190  56.312  31.448  1.00  0.00    -0.550 OA
ATOM      5  O   UNL     1      21.392  55.299  33.342  1.00  0.00    -0.550 OA
ENDBRANCH   2   3
ENDBRANCH   1   2
BRANCH   1   6
ATOM      6  C   UNL     1      23.361  57.972  34.225  1.00  0.00     0.000 C 
BRANCH   6   7
ATOM      7  C   UNL     1      24.022  59.019  33.317  1.00  0.00    -0.003 C 
ATOM      8  C   UNL     1      24.972  58.399  32.293  1.00  0.00     0.004 C 
ENDBRANCH   6   7
ENDBRANCH   1   6
TORSDOF 4
ENDMDL
MODEL 8
REMARK VINA RESULT:    -4.126      2.246      2.806
REMARK INTER + INTRA:          -5.247
REMARK INTER:                  -5.098
REMARK INTRA:                  -0.148
REMARK UNBOUND:                -0.156
REMARK SMILES CCCCCC(=O)[O-]
REMARK SMILES IDX 4 1 5 2 6 3 7 4 8 5 3 6 2 7 1 8
REMARK H PARENT
REMARK Flexibility Score: inf
ROOT
ATOM      1  C   UNL     1      23.189  58.103  34.663  1.00  0.00     0.006 C 
ENDROOT
BRANCH   1   2
ATOM      2  C   UNL     1      23.342  58.485  33.187  1.00  0.00     0.053 C 
BRANCH   2   3
ATOM      3  C   UNL     1      24.522  59.385  32.998  1.00  0.00     0.041 C 
ATOM      4  O   UNL     1      25.239  59.281  31.967  1.00  0.00    -0.550 OA
ATOM      5  O   UNL     1      24.860  60.305  33.981  1.00  0.00    -0.550 OA
ENDBRANCH   2   3
ENDBRANCH   1   2
BRANCH   1   6
ATOM      6  C   UNL     1      21.836  58.574  35.215  1.00  0.00     0.000 C 
BRANCH   6   7
ATOM      7  C   UNL     1      21.864  58.799  36.735  1.00  0.00    -0.003 C 
ATOM      8  C   UNL     1      22.895  59.845  37.158  1.00  0.00     0.004 C 
ENDBRANCH   6   7
ENDBRANCH   1   6
TORSDOF 4
ENDMDL
MODEL 9
REMARK VINA RESULT:    -4.095      2.396      3.627
REMARK INTER + INTRA:          -5.208
REMARK INTER:                  -5.092
REMARK INTRA:                  -0.116
REMARK UNBOUND:                -0.156
REMARK SMILES CCCCCC(=O)[O-]
REMARK SMILES IDX 4 1 5 2 6 3 7 4 8 5 3 6 2 7 1 8
REMARK H PARENT
REMARK Flexibility Score: inf
ROOT
ATOM      1  C   UNL     1      23.752  58.199  34.546  1.00  0.00     0.006 C 
ENDROOT
BRANCH   1   2
ATOM      2  C   UNL     1      22.374  58.505  35.140  1.00  0.00     0.053 C 
BRANCH   2   3
ATOM      3  C   UNL     1      22.512  59.166  36.475  1.00  0.00     0.041 C 
ATOM      4  O   UNL     1      23.201  60.214  36.594  1.00  0.00    -0.550 OA
ATOM      5  O   UNL     1      21.923  58.598  37.597  1.00  0.00    -0.550 OA
ENDBRANCH   2   3
ENDBRANCH   1   2
BRANCH   1   6
ATOM      6  C   UNL     1      23.771  58.468  33.034  1.00  0.00     0.000 C 
BRANCH   6   7
ATOM      7  C   UNL     1      23.849  57.176  32.206  1.00  0.00    -0.003 C 
ATOM      8  C   UNL     1      22.471  56.620  31.847  1.00  0.00     0.004 C 
ENDBRANCH   6   7
ENDBRANCH   1   6
TORSDOF 4
ENDMDL
