MODEL 1
REMARK VINA RESULT:    -4.231      0.000      0.000
REMARK INTER + INTRA:          -5.540
REMARK INTER:                  -5.963
REMARK INTRA:                   0.423
REMARK UNBOUND:                 0.423
REMARK SMILES CC1=CCC(=C(C)C)C(=O)CC(C)=CCC1
REMARK SMILES IDX 12 1 14 2 13 3 15 4 16 5 2 6 1 7 3 8 11 10 9 11 10 12 5 13
REMARK SMILES IDX 6 14 7 15 8 16 4 17
REMARK H PARENT
REMARK Flexibility Score: 60.00
ROOT
ATOM      1  C   UNL     1     -25.943  17.185 -30.670  1.00  0.00    -0.070 C 
ATOM      2  C   UNL     1     -27.101  17.328 -31.366  1.00  0.00    -0.027 C 
ATOM      3  C   UNL     1     -25.497  15.796 -30.286  1.00  0.00     0.039 C 
ENDROOT
BRANCH   2   4
ATOM      4  C   UNL     1     -27.747  18.638 -31.751  1.00  0.00     0.032 C 
BRANCH   4   5
ATOM      5  C   UNL     1     -27.562  18.993 -33.233  1.00  0.00     0.034 C 
BRANCH   5   6
ATOM      6  C   UNL     1     -27.312  20.481 -33.388  1.00  0.00    -0.077 C 
ATOM      7  C   UNL     1     -28.498  21.410 -33.367  1.00  0.00     0.039 C 
ATOM      8  C   UNL     1     -26.075  21.025 -33.465  1.00  0.00    -0.023 CG0
ATOM      9  G   UNL     1     -24.774  20.257 -33.515  1.00  0.00     0.000 G0
ENDBRANCH   5   6
ENDBRANCH   4   5
ENDBRANCH   2   4
BRANCH   1  10
ATOM     10  C   UNL     1     -24.975  18.323 -30.370  1.00  0.00     0.111 C 
BRANCH  10  11
ATOM     11  C   UNL     1     -24.103  18.708 -31.537  1.00  0.00     0.163 C 
ATOM     12  O   UNL     1     -23.368  17.813 -32.039  1.00  0.00    -0.294 OA
BRANCH  11  13
ATOM     13  C   UNL     1     -24.123  20.079 -32.148  1.00  0.00    -0.002 C 
ATOM     14  C   UNL     1     -23.626  21.157 -31.464  1.00  0.00    -0.069 C 
ATOM     15  C   UNL     1     -23.723  22.563 -32.015  1.00  0.00     0.039 C 
ATOM     16  C   UNL     1     -22.906  20.999 -30.142  1.00  0.00     0.039 C 
BRANCH  13  17
ATOM     17  C   UNL     1     -24.762  20.260 -33.524  1.00  0.00     0.066 CG0
ATOM     18  G   UNL     1     -26.056  21.037 -33.453  1.00  0.00     0.000 G0
ENDBRANCH  13  17
ENDBRANCH  11  13
ENDBRANCH  10  11
ENDBRANCH   1  10
TORSDOF 0
ENDMDL
MODEL 2
REMARK VINA RESULT:    -4.010     11.102     12.976
REMARK INTER + INTRA:          -5.229
REMARK INTER:                  -5.461
REMARK INTRA:                   0.232
REMARK UNBOUND:                 0.423
REMARK SMILES CC1=CCC(=C(C)C)C(=O)CC(C)=CCC1
REMARK SMILES IDX 12 1 14 2 13 3 15 4 16 5 2 6 1 7 3 8 11 10 9 11 10 12 5 13
REMARK SMILES IDX 6 14 7 15 8 16 4 17
REMARK H PARENT
REMARK Flexibility Score: 60.00
ROOT
ATOM      1  C   UNL     1     -12.506  14.700 -30.697  1.00  0.00    -0.070 C 
ATOM      2  C   UNL     1     -13.263  15.167 -31.724  1.00  0.00    -0.027 C 
ATOM      3  C   UNL     1     -11.166  15.343 -30.436  1.00  0.00     0.039 C 
ENDROOT
BRANCH   2   4
ATOM      4  C   UNL     1     -14.579  14.589 -32.189  1.00  0.00     0.032 C 
BRANCH   4   5
ATOM      5  C   UNL     1     -15.756  14.945 -31.271  1.00  0.00     0.034 C 
BRANCH   5   6
ATOM      6  C   UNL     1     -16.573  13.705 -30.961  1.00  0.00    -0.077 C 
ATOM      7  C   UNL     1     -17.086  12.882 -32.115  1.00  0.00     0.039 C 
ATOM      8  C   UNL     1     -16.799  13.255 -29.705  1.00  0.00    -0.023 CG0
ATOM      9  G   UNL     1     -16.379  13.948 -28.430  1.00  0.00     0.000 G0
ENDBRANCH   5   6
ENDBRANCH   4   5
ENDBRANCH   2   4
BRANCH   1  10
ATOM     10  C   UNL     1     -12.976  13.660 -29.687  1.00  0.00     0.111 C 
BRANCH  10  11
ATOM     11  C   UNL     1     -13.786  14.232 -28.552  1.00  0.00     0.163 C 
ATOM     12  O   UNL     1     -13.470  15.377 -28.127  1.00  0.00    -0.294 OA
BRANCH  11  13
ATOM     13  C   UNL     1     -14.970  13.522 -27.963  1.00  0.00    -0.002 C 
ATOM     14  C   UNL     1     -14.798  12.488 -27.081  1.00  0.00    -0.069 C 
ATOM     15  C   UNL     1     -15.970  11.693 -26.548  1.00  0.00     0.039 C 
ATOM     16  C   UNL     1     -13.431  12.113 -26.551  1.00  0.00     0.039 C 
BRANCH  13  17
ATOM     17  C   UNL     1     -16.371  13.938 -28.408  1.00  0.00     0.066 CG0
ATOM     18  G   UNL     1     -16.780  13.266 -29.698  1.00  0.00     0.000 G0
ENDBRANCH  13  17
ENDBRANCH  11  13
ENDBRANCH  10  11
ENDBRANCH   1  10
TORSDOF 0
ENDMDL
MODEL 3
REMARK VINA RESULT:    -3.898      1.506      3.776
REMARK INTER + INTRA:          -5.071
REMARK INTER:                  -6.086
REMARK INTRA:                   1.015
REMARK UNBOUND:                 0.423
REMARK SMILES CC1=CCC(=C(C)C)C(=O)CC(C)=CCC1
REMARK SMILES IDX 12 1 14 2 13 3 15 4 16 5 2 6 1 7 3 8 11 10 9 11 10 12 5 13
REMARK SMILES IDX 6 14 7 15 8 16 4 17
REMARK H PARENT
REMARK Flexibility Score: 60.00
ROOT
ATOM      1  C   UNL     1     -24.437  17.882 -30.885  1.00  0.00    -0.070 C 
ATOM      2  C   UNL     1     -23.269  18.560 -30.738  1.00  0.00    -0.027 C 
ATOM      3  C   UNL     1     -24.383  16.422 -31.263  1.00  0.00     0.039 C 
ENDROOT
BRANCH   2   4
ATOM      4  C   UNL     1     -23.132  20.038 -30.458  1.00  0.00     0.032 C 
BRANCH   4   5
ATOM      5  C   UNL     1     -22.829  20.868 -31.713  1.00  0.00     0.034 C 
BRANCH   5   6
ATOM      6  C   UNL     1     -23.999  21.777 -32.036  1.00  0.00    -0.077 C 
ATOM      7  C   UNL     1     -23.924  23.219 -31.603  1.00  0.00     0.039 C 
ATOM      8  C   UNL     1     -25.072  21.382 -32.761  1.00  0.00    -0.023 CG0
ATOM      9  G   UNL     1     -25.330  19.982 -33.266  1.00  0.00     0.000 G0
ENDBRANCH   5   6
ENDBRANCH   4   5
ENDBRANCH   2   4
BRANCH   1  10
ATOM     10  C   UNL     1     -25.810  18.453 -30.554  1.00  0.00     0.111 C 
BRANCH  10  11
ATOM     11  C   UNL     1     -26.773  18.442 -31.713  1.00  0.00     0.163 C 
ATOM     12  O   UNL     1     -27.695  17.581 -31.700  1.00  0.00    -0.294 OA
BRANCH  11  13
ATOM     13  C   UNL     1     -26.707  19.440 -32.832  1.00  0.00    -0.002 C 
ATOM     14  C   UNL     1     -27.844  19.833 -33.487  1.00  0.00    -0.069 C 
ATOM     15  C   UNL     1     -27.794  20.762 -34.681  1.00  0.00     0.039 C 
ATOM     16  C   UNL     1     -29.219  19.401 -33.026  1.00  0.00     0.039 C 
BRANCH  13  17
ATOM     17  C   UNL     1     -25.340  19.968 -33.265  1.00  0.00     0.066 CG0
ATOM     18  G   UNL     1     -25.091  21.374 -32.771  1.00  0.00     0.000 G0
ENDBRANCH  13  17
ENDBRANCH  11  13
ENDBRANCH  10  11
ENDBRANCH   1  10
TORSDOF 0
ENDMDL
MODEL 4
REMARK VINA RESULT:    -3.888     11.566     13.959
REMARK INTER + INTRA:          -5.057
REMARK INTER:                  -5.231
REMARK INTRA:                   0.174
REMARK UNBOUND:                 0.423
REMARK SMILES CC1=CCC(=C(C)C)C(=O)CC(C)=CCC1
REMARK SMILES IDX 12 1 14 2 13 3 15 4 16 5 2 6 1 7 3 8 11 10 9 11 10 12 5 13
REMARK SMILES IDX 6 14 7 15 8 16 4 17
REMARK H PARENT
REMARK Flexibility Score: 60.00
ROOT
ATOM      1  C   UNL     1     -13.973  14.798 -30.883  1.00  0.00    -0.070 C 
ATOM      2  C   UNL     1     -12.726  14.904 -30.354  1.00  0.00    -0.027 C 
ATOM      3  C   UNL     1     -14.142  14.953 -32.374  1.00  0.00     0.039 C 
ENDROOT
BRANCH   2   4
ATOM      4  C   UNL     1     -12.381  14.872 -28.884  1.00  0.00     0.032 C 
BRANCH   4   5
ATOM      5  C   UNL     1     -12.234  13.449 -28.326  1.00  0.00     0.034 C 
BRANCH   5   6
ATOM      6  C   UNL     1     -13.073  13.289 -27.073  1.00  0.00    -0.077 C 
ATOM      7  C   UNL     1     -12.737  14.141 -25.876  1.00  0.00     0.039 C 
ATOM      8  C   UNL     1     -14.154  12.478 -26.997  1.00  0.00    -0.023 CG0
ATOM      9  G   UNL     1     -14.634  11.543 -28.082  1.00  0.00     0.000 G0
ENDBRANCH   5   6
ENDBRANCH   4   5
ENDBRANCH   2   4
BRANCH   1  10
ATOM     10  C   UNL     1     -15.209  14.387 -30.092  1.00  0.00     0.111 C 
BRANCH  10  11
ATOM     11  C   UNL     1     -15.487  12.906 -30.117  1.00  0.00     0.163 C 
ATOM     12  O   UNL     1     -15.400  12.313 -31.228  1.00  0.00    -0.294 OA
BRANCH  11  13
ATOM     13  C   UNL     1     -15.799  12.118 -28.879  1.00  0.00    -0.002 C 
ATOM     14  C   UNL     1     -17.092  11.971 -28.451  1.00  0.00    -0.069 C 
ATOM     15  C   UNL     1     -17.426  11.266 -27.154  1.00  0.00     0.039 C 
ATOM     16  C   UNL     1     -18.264  12.461 -29.273  1.00  0.00     0.039 C 
BRANCH  13  17
ATOM     17  C   UNL     1     -14.643  11.530 -28.072  1.00  0.00     0.066 CG0
ATOM     18  G   UNL     1     -14.149  12.483 -27.009  1.00  0.00     0.000 G0
ENDBRANCH  13  17
ENDBRANCH  11  13
ENDBRANCH  10  11
ENDBRANCH   1  10
TORSDOF 0
ENDMDL
MODEL 5
REMARK VINA RESULT:    -3.834     10.604     12.383
REMARK INTER + INTRA:          -4.980
REMARK INTER:                  -5.349
REMARK INTRA:                   0.369
REMARK UNBOUND:                 0.423
REMARK SMILES CC1=CCC(=C(C)C)C(=O)CC(C)=CCC1
REMARK SMILES IDX 12 1 14 2 13 3 15 4 16 5 2 6 1 7 3 8 11 10 9 11 10 12 5 13
REMARK SMILES IDX 6 14 7 15 8 16 4 17
REMARK H PARENT
REMARK Flexibility Score: 60.00
ROOT
ATOM      1  C   UNL     1     -14.984  14.561 -31.899  1.00  0.00    -0.070 C 
ATOM      2  C   UNL     1     -15.933  13.809 -32.515  1.00  0.00    -0.027 C 
ATOM      3  C   UNL     1     -13.623  14.674 -32.539  1.00  0.00     0.039 C 
ENDROOT
BRANCH   2   4
ATOM      4  C   UNL     1     -17.312  13.507 -31.978  1.00  0.00     0.032 C 
BRANCH   4   5
ATOM      5  C   UNL     1     -17.482  12.048 -31.530  1.00  0.00     0.034 C 
BRANCH   5   6
ATOM      6  C   UNL     1     -17.737  11.985 -30.036  1.00  0.00    -0.077 C 
ATOM      7  C   UNL     1     -19.164  11.894 -29.559  1.00  0.00     0.039 C 
ATOM      8  C   UNL     1     -16.749  11.926 -29.113  1.00  0.00    -0.023 CG0
ATOM      9  G   UNL     1     -15.268  12.019 -29.397  1.00  0.00     0.000 G0
ENDBRANCH   5   6
ENDBRANCH   4   5
ENDBRANCH   2   4
BRANCH   1  10
ATOM     10  C   UNL     1     -15.238  15.425 -30.670  1.00  0.00     0.111 C 
BRANCH  10  11
ATOM     11  C   UNL     1     -15.496  14.637 -29.411  1.00  0.00     0.163 C 
ATOM     12  O   UNL     1     -16.453  15.005 -28.676  1.00  0.00    -0.294 OA
BRANCH  11  13
ATOM     13  C   UNL     1     -14.702  13.418 -29.041  1.00  0.00    -0.002 C 
ATOM     14  C   UNL     1     -13.476  13.536 -28.443  1.00  0.00    -0.069 C 
ATOM     15  C   UNL     1     -12.613  12.328 -28.149  1.00  0.00     0.039 C 
ATOM     16  C   UNL     1     -12.932  14.876 -27.997  1.00  0.00     0.039 C 
BRANCH  13  17
ATOM     17  C   UNL     1     -15.263  12.041 -29.395  1.00  0.00     0.066 CG0
ATOM     18  G   UNL     1     -16.740  11.936 -29.095  1.00  0.00     0.000 G0
ENDBRANCH  13  17
ENDBRANCH  11  13
ENDBRANCH  10  11
ENDBRANCH   1  10
TORSDOF 0
ENDMDL
MODEL 6
REMARK VINA RESULT:    -3.738     10.742     12.430
REMARK INTER + INTRA:          -4.844
REMARK INTER:                  -4.993
REMARK INTRA:                   0.148
REMARK UNBOUND:                 0.423
REMARK SMILES CC1=CCC(=C(C)C)C(=O)CC(C)=CCC1
REMARK SMILES IDX 12 1 14 2 13 3 15 4 16 5 2 6 1 7 3 8 11 10 9 11 10 12 5 13
REMARK SMILES IDX 6 14 7 15 8 16 4 17
REMARK H PARENT
REMARK Flexibility Score: 60.00
ROOT
ATOM      1  C   UNL     1     -16.805  11.504 -26.723  1.00  0.00    -0.070 C 
ATOM      2  C   UNL     1     -17.753  10.876 -27.465  1.00  0.00    -0.027 C 
ATOM      3  C   UNL     1     -16.381  10.883 -25.415  1.00  0.00     0.039 C 
ENDROOT
BRANCH   2   4
ATOM      4  C   UNL     1     -18.365  11.395 -28.745  1.00  0.00     0.032 C 
BRANCH   4   5
ATOM      5  C   UNL     1     -17.488  11.148 -29.980  1.00  0.00     0.034 C 
BRANCH   5   6
ATOM      6  C   UNL     1     -17.315  12.434 -30.765  1.00  0.00    -0.077 C 
ATOM      7  C   UNL     1     -18.548  13.117 -31.299  1.00  0.00     0.039 C 
ATOM      8  C   UNL     1     -16.119  13.043 -30.945  1.00  0.00    -0.023 CG0
ATOM      9  G   UNL     1     -14.779  12.507 -30.499  1.00  0.00     0.000 G0
ENDBRANCH   5   6
ENDBRANCH   4   5
ENDBRANCH   2   4
BRANCH   1  10
ATOM     10  C   UNL     1     -16.024  12.728 -27.185  1.00  0.00     0.111 C 
BRANCH  10  11
ATOM     11  C   UNL     1     -14.738  12.399 -27.899  1.00  0.00     0.163 C 
ATOM     12  O   UNL     1     -14.027  11.469 -27.426  1.00  0.00    -0.294 OA
BRANCH  11  13
ATOM     13  C   UNL     1     -14.311  13.089 -29.162  1.00  0.00    -0.002 C 
ATOM     14  C   UNL     1     -13.573  14.241 -29.115  1.00  0.00    -0.069 C 
ATOM     15  C   UNL     1     -13.214  15.009 -30.369  1.00  0.00     0.039 C 
ATOM     16  C   UNL     1     -13.031  14.788 -27.812  1.00  0.00     0.039 C 
BRANCH  13  17
ATOM     17  C   UNL     1     -14.765  12.512 -30.502  1.00  0.00     0.066 CG0
ATOM     18  G   UNL     1     -16.124  13.028 -30.912  1.00  0.00     0.000 G0
ENDBRANCH  13  17
ENDBRANCH  11  13
ENDBRANCH  10  11
ENDBRANCH   1  10
TORSDOF 0
ENDMDL
MODEL 7
REMARK VINA RESULT:    -3.667     11.314     13.468
REMARK INTER + INTRA:          -4.746
REMARK INTER:                  -5.263
REMARK INTRA:                   0.518
REMARK UNBOUND:                 0.423
REMARK SMILES CC1=CCC(=C(C)C)C(=O)CC(C)=CCC1
REMARK SMILES IDX 12 1 14 2 13 3 15 4 16 5 2 6 1 7 3 8 11 10 9 11 10 12 5 13
REMARK SMILES IDX 6 14 7 15 8 16 4 17
REMARK H PARENT
REMARK Flexibility Score: 60.00
ROOT
ATOM      1  C   UNL     1     -14.848  15.242 -30.974  1.00  0.00    -0.070 C 
ATOM      2  C   UNL     1     -13.525  15.189 -31.279  1.00  0.00    -0.027 C 
ATOM      3  C   UNL     1     -15.348  16.381 -30.120  1.00  0.00     0.039 C 
ENDROOT
BRANCH   2   4
ATOM      4  C   UNL     1     -12.835  14.081 -32.037  1.00  0.00     0.032 C 
BRANCH   4   5
ATOM      5  C   UNL     1     -12.420  12.902 -31.145  1.00  0.00     0.034 C 
BRANCH   5   6
ATOM      6  C   UNL     1     -12.357  13.339 -29.694  1.00  0.00    -0.077 C 
ATOM      7  C   UNL     1     -11.266  14.294 -29.283  1.00  0.00     0.039 C 
ATOM      8  C   UNL     1     -13.275  12.979 -28.766  1.00  0.00    -0.023 CG0
ATOM      9  G   UNL     1     -14.424  12.023 -28.986  1.00  0.00     0.000 G0
ENDBRANCH   5   6
ENDBRANCH   4   5
ENDBRANCH   2   4
BRANCH   1  10
ATOM     10  C   UNL     1     -15.902  14.308 -31.556  1.00  0.00     0.111 C 
BRANCH  10  11
ATOM     11  C   UNL     1     -15.932  12.945 -30.914  1.00  0.00     0.163 C 
ATOM     12  O   UNL     1     -16.116  11.948 -31.665  1.00  0.00    -0.294 OA
BRANCH  11  13
ATOM     13  C   UNL     1     -15.696  12.734 -29.446  1.00  0.00    -0.002 C 
ATOM     14  C   UNL     1     -16.577  13.222 -28.519  1.00  0.00    -0.069 C 
ATOM     15  C   UNL     1     -16.314  13.109 -27.033  1.00  0.00     0.039 C 
ATOM     16  C   UNL     1     -17.890  13.858 -28.924  1.00  0.00     0.039 C 
BRANCH  13  17
ATOM     17  C   UNL     1     -14.423  12.014 -29.004  1.00  0.00     0.066 CG0
ATOM     18  G   UNL     1     -13.288  12.976 -28.741  1.00  0.00     0.000 G0
ENDBRANCH  13  17
ENDBRANCH  11  13
ENDBRANCH  10  11
ENDBRANCH   1  10
TORSDOF 0
ENDMDL
MODEL 8
REMARK VINA RESULT:    -3.656     11.487     13.192
REMARK INTER + INTRA:          -4.730
REMARK INTER:                  -4.941
REMARK INTRA:                   0.210
REMARK UNBOUND:                 0.423
REMARK SMILES CC1=CCC(=C(C)C)C(=O)CC(C)=CCC1
REMARK SMILES IDX 12 1 14 2 13 3 15 4 16 5 2 6 1 7 3 8 11 10 9 11 10 12 5 13
REMARK SMILES IDX 6 14 7 15 8 16 4 17
REMARK H PARENT
REMARK Flexibility Score: 60.00
ROOT
ATOM      1  C   UNL     1     -16.193  14.032 -31.163  1.00  0.00    -0.070 C 
ATOM      2  C   UNL     1     -17.008  12.987 -30.864  1.00  0.00    -0.027 C 
ATOM      3  C   UNL     1     -15.826  14.274 -32.606  1.00  0.00     0.039 C 
ENDROOT
BRANCH   2   4
ATOM      4  C   UNL     1     -17.403  12.538 -29.478  1.00  0.00     0.032 C 
BRANCH   4   5
ATOM      5  C   UNL     1     -16.525  11.403 -28.933  1.00  0.00     0.034 C 
BRANCH   5   6
ATOM      6  C   UNL     1     -15.562  11.939 -27.891  1.00  0.00    -0.077 C 
ATOM      7  C   UNL     1     -16.021  11.997 -26.457  1.00  0.00     0.039 C 
ATOM      8  C   UNL     1     -14.285  12.295 -28.168  1.00  0.00    -0.023 CG0
ATOM      9  G   UNL     1     -13.653  12.318 -29.540  1.00  0.00     0.000 G0
ENDBRANCH   5   6
ENDBRANCH   4   5
ENDBRANCH   2   4
BRANCH   1  10
ATOM     10  C   UNL     1     -15.732  15.077 -30.154  1.00  0.00     0.111 C 
BRANCH  10  11
ATOM     11  C   UNL     1     -14.358  14.819 -29.592  1.00  0.00     0.163 C 
ATOM     12  O   UNL     1     -13.978  15.532 -28.622  1.00  0.00    -0.294 OA
BRANCH  11  13
ATOM     13  C   UNL     1     -13.466  13.724 -30.100  1.00  0.00    -0.002 C 
ATOM     14  C   UNL     1     -12.530  13.977 -31.067  1.00  0.00    -0.069 C 
ATOM     15  C   UNL     1     -11.686  12.873 -31.667  1.00  0.00     0.039 C 
ATOM     16  C   UNL     1     -12.250  15.381 -31.558  1.00  0.00     0.039 C 
BRANCH  13  17
ATOM     17  C   UNL     1     -13.660  12.309 -29.559  1.00  0.00     0.066 CG0
ATOM     18  G   UNL     1     -14.283  12.307 -28.182  1.00  0.00     0.000 G0
ENDBRANCH  13  17
ENDBRANCH  11  13
ENDBRANCH  10  11
ENDBRANCH   1  10
TORSDOF 0
ENDMDL
MODEL 9
REMARK VINA RESULT:    -3.524     10.777     12.655
REMARK INTER + INTRA:          -4.544
REMARK INTER:                  -4.786
REMARK INTRA:                   0.242
REMARK UNBOUND:                 0.423
REMARK SMILES CC1=CCC(=C(C)C)C(=O)CC(C)=CCC1
REMARK SMILES IDX 12 1 14 2 13 3 15 4 16 5 2 6 1 7 3 8 11 10 9 11 10 12 5 13
REMARK SMILES IDX 6 14 7 15 8 16 4 17
REMARK H PARENT
REMARK Flexibility Score: 60.00
ROOT
ATOM      1  C   UNL     1     -17.424  13.049 -30.847  1.00  0.00    -0.070 C 
ATOM      2  C   UNL     1     -17.990  12.894 -29.622  1.00  0.00    -0.027 C 
ATOM      3  C   UNL     1     -18.300  13.471 -32.000  1.00  0.00     0.039 C 
ENDROOT
BRANCH   2   4
ATOM      4  C   UNL     1     -17.293  12.389 -28.381  1.00  0.00     0.032 C 
BRANCH   4   5
ATOM      5  C   UNL     1     -16.558  13.492 -27.607  1.00  0.00     0.034 C 
BRANCH   5   6
ATOM      6  C   UNL     1     -15.108  13.104 -27.390  1.00  0.00    -0.077 C 
ATOM      7  C   UNL     1     -14.812  11.903 -26.529  1.00  0.00     0.039 C 
ATOM      8  C   UNL     1     -14.070  13.730 -27.992  1.00  0.00    -0.023 CG0
ATOM      9  G   UNL     1     -14.168  14.954 -28.872  1.00  0.00     0.000 G0
ENDBRANCH   5   6
ENDBRANCH   4   5
ENDBRANCH   2   4
BRANCH   1  10
ATOM     10  C   UNL     1     -15.926  12.968 -31.118  1.00  0.00     0.111 C 
BRANCH  10  11
ATOM     11  C   UNL     1     -15.240  14.309 -31.162  1.00  0.00     0.163 C 
ATOM     12  O   UNL     1     -15.769  15.215 -31.864  1.00  0.00    -0.294 OA
BRANCH  11  13
ATOM     13  C   UNL     1     -14.003  14.614 -30.367  1.00  0.00    -0.002 C 
ATOM     14  C   UNL     1     -12.764  14.537 -30.945  1.00  0.00    -0.069 C 
ATOM     15  C   UNL     1     -11.497  14.743 -30.142  1.00  0.00     0.039 C 
ATOM     16  C   UNL     1     -12.590  14.290 -32.427  1.00  0.00     0.039 C 
BRANCH  13  17
ATOM     17  C   UNL     1     -14.149  14.958 -28.886  1.00  0.00     0.066 CG0
ATOM     18  G   UNL     1     -14.068  13.731 -28.007  1.00  0.00     0.000 G0
ENDBRANCH  13  17
ENDBRANCH  11  13
ENDBRANCH  10  11
ENDBRANCH   1  10
TORSDOF 0
ENDMDL
