MODEL 1
REMARK VINA RESULT:    -4.016      0.000      0.000
REMARK INTER + INTRA:          -5.359
REMARK INTER:                  -5.190
REMARK INTRA:                  -0.169
REMARK UNBOUND:                -0.169
REMARK SMILES CCCCCC(=O)OC
REMARK SMILES IDX 4 1 3 2 2 3 1 4 5 5 6 6 7 7 8 8 9 9
REMARK H PARENT
REMARK Flexibility Score: inf
ROOT
ATOM      1  C   UNL     1     179.720 179.202 172.312  1.00  0.00     0.012 C 
ENDROOT
BRANCH   1   2
ATOM      2  C   UNL     1     180.754 178.626 171.328  1.00  0.00     0.000 C 
BRANCH   2   3
ATOM      3  C   UNL     1     181.595 177.501 171.949  1.00  0.00    -0.003 C 
ATOM      4  C   UNL     1     181.825 177.695 173.447  1.00  0.00     0.004 C 
ENDBRANCH   2   3
ENDBRANCH   1   2
BRANCH   1   5
ATOM      5  C   UNL     1     178.391 178.437 172.268  1.00  0.00     0.123 C 
BRANCH   5   6
ATOM      6  C   UNL     1     177.459 179.004 171.242  1.00  0.00     0.305 C 
ATOM      7  O   UNL     1     177.476 178.553 170.063  1.00  0.00    -0.252 OA
BRANCH   6   8
ATOM      8  O   UNL     1     176.607 180.055 171.591  1.00  0.00    -0.469 OA
ATOM      9  C   UNL     1     176.017 180.166 172.881  1.00  0.00     0.282 C 
ENDBRANCH   6   8
ENDBRANCH   5   6
ENDBRANCH   1   5
TORSDOF 5
ENDMDL
MODEL 2
REMARK VINA RESULT:    -3.975      1.901      4.452
REMARK INTER + INTRA:          -5.306
REMARK INTER:                  -5.133
REMARK INTRA:                  -0.172
REMARK UNBOUND:                -0.169
REMARK SMILES CCCCCC(=O)OC
REMARK SMILES IDX 4 1 3 2 2 3 1 4 5 5 6 6 7 7 8 8 9 9
REMARK H PARENT
REMARK Flexibility Score: inf
ROOT
ATOM      1  C   UNL     1     178.340 178.250 172.310  1.00  0.00     0.012 C 
ENDROOT
BRANCH   1   2
ATOM      2  C   UNL     1     177.305 178.759 171.291  1.00  0.00     0.000 C 
BRANCH   2   3
ATOM      3  C   UNL     1     176.711 180.121 171.686  1.00  0.00    -0.003 C 
ATOM      4  C   UNL     1     176.019 180.089 173.048  1.00  0.00     0.004 C 
ENDBRANCH   2   3
ENDBRANCH   1   2
BRANCH   1   5
ATOM      5  C   UNL     1     179.581 179.150 172.373  1.00  0.00     0.123 C 
BRANCH   5   6
ATOM      6  C   UNL     1     180.609 178.746 171.361  1.00  0.00     0.305 C 
ATOM      7  O   UNL     1     180.567 179.233 170.198  1.00  0.00    -0.252 OA
BRANCH   6   8
ATOM      8  O   UNL     1     181.582 177.804 171.706  1.00  0.00    -0.469 OA
ATOM      9  C   UNL     1     181.849 177.438 173.055  1.00  0.00     0.282 C 
ENDBRANCH   6   8
ENDBRANCH   5   6
ENDBRANCH   1   5
TORSDOF 5
ENDMDL
MODEL 3
REMARK VINA RESULT:    -3.567      2.564      4.598
REMARK INTER + INTRA:          -4.778
REMARK INTER:                  -4.672
REMARK INTRA:                  -0.106
REMARK UNBOUND:                -0.169
REMARK SMILES CCCCCC(=O)OC
REMARK SMILES IDX 4 1 3 2 2 3 1 4 5 5 6 6 7 7 8 8 9 9
REMARK H PARENT
REMARK Flexibility Score: inf
ROOT
ATOM      1  C   UNL     1     179.513 179.540 171.931  1.00  0.00     0.012 C 
ENDROOT
BRANCH   1   2
ATOM      2  C   UNL     1     178.280 178.657 172.195  1.00  0.00     0.000 C 
BRANCH   2   3
ATOM      3  C   UNL     1     176.986 179.272 171.641  1.00  0.00    -0.003 C 
ATOM      4  C   UNL     1     176.296 180.196 172.644  1.00  0.00     0.004 C 
ENDBRANCH   2   3
ENDBRANCH   1   2
BRANCH   1   5
ATOM      5  C   UNL     1     180.706 178.727 171.413  1.00  0.00     0.123 C 
BRANCH   5   6
ATOM      6  C   UNL     1     181.121 177.670 172.390  1.00  0.00     0.305 C 
ATOM      7  O   UNL     1     181.696 178.000 173.464  1.00  0.00    -0.252 OA
BRANCH   6   8
ATOM      8  O   UNL     1     180.900 176.325 172.083  1.00  0.00    -0.469 OA
ATOM      9  C   UNL     1     179.880 175.554 172.709  1.00  0.00     0.282 C 
ENDBRANCH   6   8
ENDBRANCH   5   6
ENDBRANCH   1   5
TORSDOF 5
ENDMDL
MODEL 4
REMARK VINA RESULT:    -3.080      2.521      4.575
REMARK INTER + INTRA:          -4.149
REMARK INTER:                  -4.044
REMARK INTRA:                  -0.105
REMARK UNBOUND:                -0.169
REMARK SMILES CCCCCC(=O)OC
REMARK SMILES IDX 4 1 3 2 2 3 1 4 5 5 6 6 7 7 8 8 9 9
REMARK H PARENT
REMARK Flexibility Score: inf
ROOT
ATOM      1  C   UNL     1     179.333 179.319 172.227  1.00  0.00     0.012 C 
ENDROOT
BRANCH   1   2
ATOM      2  C   UNL     1     177.907 178.820 171.935  1.00  0.00     0.000 C 
BRANCH   2   3
ATOM      3  C   UNL     1     176.845 179.906 172.166  1.00  0.00    -0.003 C 
ATOM      4  C   UNL     1     177.455 181.289 172.390  1.00  0.00     0.004 C 
ENDBRANCH   2   3
ENDBRANCH   1   2
BRANCH   1   5
ATOM      5  C   UNL     1     180.399 178.467 171.525  1.00  0.00     0.123 C 
BRANCH   5   6
ATOM      6  C   UNL     1     180.859 177.334 172.390  1.00  0.00     0.305 C 
ATOM      7  O   UNL     1     180.200 176.258 172.414  1.00  0.00    -0.252 OA
BRANCH   6   8
ATOM      8  O   UNL     1     181.994 177.494 173.189  1.00  0.00    -0.469 OA
ATOM      9  C   UNL     1     181.978 178.240 174.401  1.00  0.00     0.282 C 
ENDBRANCH   6   8
ENDBRANCH   5   6
ENDBRANCH   1   5
TORSDOF 5
ENDMDL
MODEL 5
REMARK VINA RESULT:    -3.039      1.262      1.600
REMARK INTER + INTRA:          -4.097
REMARK INTER:                  -3.933
REMARK INTRA:                  -0.164
REMARK UNBOUND:                -0.169
REMARK SMILES CCCCCC(=O)OC
REMARK SMILES IDX 4 1 3 2 2 3 1 4 5 5 6 6 7 7 8 8 9 9
REMARK H PARENT
REMARK Flexibility Score: inf
ROOT
ATOM      1  C   UNL     1     180.358 178.714 171.122  1.00  0.00     0.012 C 
ENDROOT
BRANCH   1   2
ATOM      2  C   UNL     1     181.680 178.287 171.784  1.00  0.00     0.000 C 
BRANCH   2   3
ATOM      3  C   UNL     1     181.479 177.204 172.856  1.00  0.00    -0.003 C 
ATOM      4  C   UNL     1     180.499 176.116 172.418  1.00  0.00     0.004 C 
ENDBRANCH   2   3
ENDBRANCH   1   2
BRANCH   1   5
ATOM      5  C   UNL     1     179.509 179.600 172.044  1.00  0.00     0.123 C 
BRANCH   5   6
ATOM      6  C   UNL     1     178.098 179.105 172.141  1.00  0.00     0.305 C 
ATOM      7  O   UNL     1     177.840 178.081 172.831  1.00  0.00    -0.252 OA
BRANCH   6   8
ATOM      8  O   UNL     1     177.088 179.763 171.434  1.00  0.00    -0.469 OA
ATOM      9  C   UNL     1     176.328 180.826 171.996  1.00  0.00     0.282 C 
ENDBRANCH   6   8
ENDBRANCH   5   6
ENDBRANCH   1   5
TORSDOF 5
ENDMDL
MODEL 6
REMARK VINA RESULT:    -2.795     14.863     15.756
REMARK INTER + INTRA:          -3.781
REMARK INTER:                  -3.659
REMARK INTRA:                  -0.122
REMARK UNBOUND:                -0.169
REMARK SMILES CCCCCC(=O)OC
REMARK SMILES IDX 4 1 3 2 2 3 1 4 5 5 6 6 7 7 8 8 9 9
REMARK H PARENT
REMARK Flexibility Score: inf
ROOT
ATOM      1  C   UNL     1     172.583 168.914 181.975  1.00  0.00     0.012 C 
ENDROOT
BRANCH   1   2
ATOM      2  C   UNL     1     171.951 169.169 180.595  1.00  0.00     0.000 C 
BRANCH   2   3
ATOM      3  C   UNL     1     171.264 170.541 180.508  1.00  0.00    -0.003 C 
ATOM      4  C   UNL     1     171.337 171.149 179.108  1.00  0.00     0.004 C 
ENDBRANCH   2   3
ENDBRANCH   1   2
BRANCH   1   5
ATOM      5  C   UNL     1     171.550 168.979 183.107  1.00  0.00     0.123 C 
BRANCH   5   6
ATOM      6  C   UNL     1     171.880 170.056 184.095  1.00  0.00     0.305 C 
ATOM      7  O   UNL     1     171.754 169.832 185.330  1.00  0.00    -0.252 OA
BRANCH   6   8
ATOM      8  O   UNL     1     172.288 171.311 183.635  1.00  0.00    -0.469 OA
ATOM      9  C   UNL     1     173.029 172.218 184.442  1.00  0.00     0.282 C 
ENDBRANCH   6   8
ENDBRANCH   5   6
ENDBRANCH   1   5
TORSDOF 5
ENDMDL
MODEL 7
REMARK VINA RESULT:    -2.633      1.402      1.950
REMARK INTER + INTRA:          -3.572
REMARK INTER:                  -3.464
REMARK INTRA:                  -0.108
REMARK UNBOUND:                -0.169
REMARK SMILES CCCCCC(=O)OC
REMARK SMILES IDX 4 1 3 2 2 3 1 4 5 5 6 6 7 7 8 8 9 9
REMARK H PARENT
REMARK Flexibility Score: inf
ROOT
ATOM      1  C   UNL     1     178.905 178.665 171.636  1.00  0.00     0.012 C 
ENDROOT
BRANCH   1   2
ATOM      2  C   UNL     1     179.697 177.630 172.453  1.00  0.00     0.000 C 
BRANCH   2   3
ATOM      3  C   UNL     1     181.217 177.794 172.295  1.00  0.00    -0.003 C 
ATOM      4  C   UNL     1     181.971 177.598 173.610  1.00  0.00     0.004 C 
ENDBRANCH   2   3
ENDBRANCH   1   2
BRANCH   1   5
ATOM      5  C   UNL     1     179.252 180.106 172.034  1.00  0.00     0.123 C 
BRANCH   5   6
ATOM      6  C   UNL     1     178.025 180.953 172.173  1.00  0.00     0.305 C 
ATOM      7  O   UNL     1     178.093 182.063 172.769  1.00  0.00    -0.252 OA
BRANCH   6   8
ATOM      8  O   UNL     1     176.806 180.487 171.671  1.00  0.00    -0.469 OA
ATOM      9  C   UNL     1     175.734 180.085 172.515  1.00  0.00     0.282 C 
ENDBRANCH   6   8
ENDBRANCH   5   6
ENDBRANCH   1   5
TORSDOF 5
ENDMDL
MODEL 8
REMARK VINA RESULT:    -2.445     14.335     15.154
REMARK INTER + INTRA:          -3.329
REMARK INTER:                  -3.239
REMARK INTRA:                  -0.090
REMARK UNBOUND:                -0.169
REMARK SMILES CCCCCC(=O)OC
REMARK SMILES IDX 4 1 3 2 2 3 1 4 5 5 6 6 7 7 8 8 9 9
REMARK H PARENT
REMARK Flexibility Score: inf
ROOT
ATOM      1  C   UNL     1     171.654 170.173 183.633  1.00  0.00     0.012 C 
ENDROOT
BRANCH   1   2
ATOM      2  C   UNL     1     172.922 171.044 183.680  1.00  0.00     0.000 C 
BRANCH   2   3
ATOM      3  C   UNL     1     172.821 172.175 184.715  1.00  0.00    -0.003 C 
ATOM      4  C   UNL     1     172.775 173.561 184.071  1.00  0.00     0.004 C 
ENDBRANCH   2   3
ENDBRANCH   1   2
BRANCH   1   5
ATOM      5  C   UNL     1     171.799 168.990 182.667  1.00  0.00     0.123 C 
BRANCH   5   6
ATOM      6  C   UNL     1     171.970 169.450 181.252  1.00  0.00     0.305 C 
ATOM      7  O   UNL     1     172.810 168.876 180.505  1.00  0.00    -0.252 OA
BRANCH   6   8
ATOM      8  O   UNL     1     171.223 170.534 180.785  1.00  0.00    -0.469 OA
ATOM      9  C   UNL     1     171.303 170.997 179.442  1.00  0.00     0.282 C 
ENDBRANCH   6   8
ENDBRANCH   5   6
ENDBRANCH   1   5
TORSDOF 5
ENDMDL
MODEL 9
REMARK VINA RESULT:    -2.396     14.359     15.329
REMARK INTER + INTRA:          -3.265
REMARK INTER:                  -3.263
REMARK INTRA:                  -0.002
REMARK UNBOUND:                -0.169
REMARK SMILES CCCCCC(=O)OC
REMARK SMILES IDX 4 1 3 2 2 3 1 4 5 5 6 6 7 7 8 8 9 9
REMARK H PARENT
REMARK Flexibility Score: inf
ROOT
ATOM      1  C   UNL     1     184.740 189.106 180.706  1.00  0.00     0.012 C 
ENDROOT
BRANCH   1   2
ATOM      2  C   UNL     1     186.139 188.670 180.236  1.00  0.00     0.000 C 
BRANCH   2   3
ATOM      3  C   UNL     1     186.090 187.479 179.266  1.00  0.00    -0.003 C 
ATOM      4  C   UNL     1     186.940 186.300 179.736  1.00  0.00     0.004 C 
ENDBRANCH   2   3
ENDBRANCH   1   2
BRANCH   1   5
ATOM      5  C   UNL     1     184.623 189.125 182.236  1.00  0.00     0.123 C 
BRANCH   5   6
ATOM      6  C   UNL     1     185.653 188.248 182.880  1.00  0.00     0.305 C 
ATOM      7  O   UNL     1     186.672 188.766 183.414  1.00  0.00    -0.252 OA
BRANCH   6   8
ATOM      8  O   UNL     1     185.491 186.860 182.850  1.00  0.00    -0.469 OA
ATOM      9  C   UNL     1     185.016 186.120 183.968  1.00  0.00     0.282 C 
ENDBRANCH   6   8
ENDBRANCH   5   6
ENDBRANCH   1   5
TORSDOF 5
ENDMDL
