MODEL 1
REMARK VINA RESULT:    -4.896      0.000      0.000
REMARK INTER + INTRA:         -10.276
REMARK INTER:                  -8.616
REMARK INTRA:                  -1.660
REMARK UNBOUND:                -1.660
REMARK SMILES CCCCCCC=CCCCCCCCC(=O)[O-]
REMARK SMILES IDX 10 1 11 2 12 3 13 4 14 5 15 6 16 7 17 8 18 9 9 10 8 11 7 12
REMARK SMILES IDX 6 13 5 14 4 15 3 16 2 17 1 18
REMARK H PARENT
REMARK Flexibility Score: inf
ROOT
ATOM      1  C   UNL     1      42.205  51.446  35.237  1.00  0.00     0.004 C 
ENDROOT
BRANCH   1   2
ATOM      2  C   UNL     1      40.925  52.039  35.846  1.00  0.00     0.000 C 
BRANCH   2   3
ATOM      3  C   UNL     1      39.920  52.417  34.751  1.00  0.00     0.000 C 
BRANCH   3   4
ATOM      4  C   UNL     1      40.268  51.729  33.423  1.00  0.00     0.000 C 
BRANCH   4   5
ATOM      5  C   UNL     1      39.030  51.213  32.668  1.00  0.00     0.006 C 
BRANCH   5   6
ATOM      6  C   UNL     1      39.355  50.207  31.548  1.00  0.00     0.053 C 
BRANCH   6   7
ATOM      7  C   UNL     1      39.050  48.791  31.934  1.00  0.00     0.041 C 
ATOM      8  O   UNL     1      39.945  48.063  32.439  1.00  0.00    -0.550 OA
ATOM      9  O   UNL     1      37.784  48.267  31.707  1.00  0.00    -0.550 OA
ENDBRANCH   6   7
ENDBRANCH   5   6
ENDBRANCH   4   5
ENDBRANCH   3   4
ENDBRANCH   2   3
ENDBRANCH   1   2
BRANCH   1  10
ATOM     10  C   UNL     1      43.434  52.329  35.503  1.00  0.00     0.027 C 
BRANCH  10  11
ATOM     11  C   UNL     1      43.910  53.024  34.251  1.00  0.00    -0.031 C 
ATOM     12  C   UNL     1      43.547  54.265  33.879  1.00  0.00    -0.031 C 
BRANCH  12  13
ATOM     13  C   UNL     1      42.535  55.115  34.604  1.00  0.00     0.027 C 
BRANCH  13  14
ATOM     14  C   UNL     1      43.226  56.033  35.618  1.00  0.00     0.004 C 
BRANCH  14  15
ATOM     15  C   UNL     1      42.944  55.573  37.057  1.00  0.00     0.000 C 
BRANCH  15  16
ATOM     16  C   UNL     1      44.215  55.508  37.918  1.00  0.00    -0.000 C 
BRANCH  16  17
ATOM     17  C   UNL     1      45.432  56.139  37.225  1.00  0.00    -0.003 C 
ATOM     18  C   UNL     1      45.732  57.523  37.793  1.00  0.00     0.004 C 
ENDBRANCH  16  17
ENDBRANCH  15  16
ENDBRANCH  14  15
ENDBRANCH  13  14
ENDBRANCH  12  13
ENDBRANCH  10  11
ENDBRANCH   1  10
TORSDOF 13
ENDMDL
MODEL 2
REMARK VINA RESULT:    -4.893      8.049     10.047
REMARK INTER + INTRA:         -10.271
REMARK INTER:                  -9.192
REMARK INTRA:                  -1.080
REMARK UNBOUND:                -1.660
REMARK SMILES CCCCCCC=CCCCCCCCC(=O)[O-]
REMARK SMILES IDX 10 1 11 2 12 3 13 4 14 5 15 6 16 7 17 8 18 9 9 10 8 11 7 12
REMARK SMILES IDX 6 13 5 14 4 15 3 16 2 17 1 18
REMARK H PARENT
REMARK Flexibility Score: inf
ROOT
ATOM      1  C   UNL     1      51.514  50.387  38.163  1.00  0.00     0.004 C 
ENDROOT
BRANCH   1   2
ATOM      2  C   UNL     1      50.864  51.069  36.949  1.00  0.00     0.000 C 
BRANCH   2   3
ATOM      3  C   UNL     1      49.867  50.129  36.260  1.00  0.00     0.000 C 
BRANCH   3   4
ATOM      4  C   UNL     1      49.140  50.844  35.113  1.00  0.00     0.000 C 
BRANCH   4   5
ATOM      5  C   UNL     1      47.724  50.294  34.860  1.00  0.00     0.006 C 
BRANCH   5   6
ATOM      6  C   UNL     1      47.428  48.970  35.588  1.00  0.00     0.053 C 
BRANCH   6   7
ATOM      7  C   UNL     1      46.990  47.881  34.656  1.00  0.00     0.041 C 
ATOM      8  O   UNL     1      47.664  47.616  33.626  1.00  0.00    -0.550 OA
ATOM      9  O   UNL     1      45.818  47.178  34.910  1.00  0.00    -0.550 OA
ENDBRANCH   6   7
ENDBRANCH   5   6
ENDBRANCH   4   5
ENDBRANCH   3   4
ENDBRANCH   2   3
ENDBRANCH   1   2
BRANCH   1  10
ATOM     10  C   UNL     1      51.421  51.252  39.429  1.00  0.00     0.027 C 
BRANCH  10  11
ATOM     11  C   UNL     1      52.717  51.259  40.202  1.00  0.00    -0.031 C 
ATOM     12  C   UNL     1      52.901  51.880  41.383  1.00  0.00    -0.031 C 
BRANCH  12  13
ATOM     13  C   UNL     1      51.871  52.742  42.066  1.00  0.00     0.027 C 
BRANCH  13  14
ATOM     14  C   UNL     1      51.827  52.445  43.569  1.00  0.00     0.004 C 
BRANCH  14  15
ATOM     15  C   UNL     1      50.476  51.830  43.968  1.00  0.00     0.000 C 
BRANCH  15  16
ATOM     16  C   UNL     1      50.403  50.323  43.678  1.00  0.00    -0.000 C 
BRANCH  16  17
ATOM     17  C   UNL     1      49.512  49.995  42.472  1.00  0.00    -0.003 C 
ATOM     18  C   UNL     1      49.560  48.506  42.142  1.00  0.00     0.004 C 
ENDBRANCH  16  17
ENDBRANCH  15  16
ENDBRANCH  14  15
ENDBRANCH  13  14
ENDBRANCH  12  13
ENDBRANCH  10  11
ENDBRANCH   1  10
TORSDOF 13
ENDMDL
MODEL 3
REMARK VINA RESULT:    -4.855      7.687      9.143
REMARK INTER + INTRA:         -10.204
REMARK INTER:                  -9.273
REMARK INTRA:                  -0.931
REMARK UNBOUND:                -1.660
REMARK SMILES CCCCCCC=CCCCCCCCC(=O)[O-]
REMARK SMILES IDX 10 1 11 2 12 3 13 4 14 5 15 6 16 7 17 8 18 9 9 10 8 11 7 12
REMARK SMILES IDX 6 13 5 14 4 15 3 16 2 17 1 18
REMARK H PARENT
REMARK Flexibility Score: inf
ROOT
ATOM      1  C   UNL     1      49.262  48.990  36.581  1.00  0.00     0.004 C 
ENDROOT
BRANCH   1   2
ATOM      2  C   UNL     1      49.075  50.077  35.511  1.00  0.00     0.000 C 
BRANCH   2   3
ATOM      3  C   UNL     1      47.654  50.042  34.937  1.00  0.00     0.000 C 
BRANCH   3   4
ATOM      4  C   UNL     1      47.167  48.598  34.757  1.00  0.00     0.000 C 
BRANCH   4   5
ATOM      5  C   UNL     1      45.834  48.316  35.473  1.00  0.00     0.006 C 
BRANCH   5   6
ATOM      6  C   UNL     1      45.506  46.818  35.617  1.00  0.00     0.053 C 
BRANCH   6   7
ATOM      7  C   UNL     1      46.628  46.035  36.227  1.00  0.00     0.041 C 
ATOM      8  O   UNL     1      46.965  46.233  37.424  1.00  0.00    -0.550 OA
ATOM      9  O   UNL     1      47.324  45.106  35.463  1.00  0.00    -0.550 OA
ENDBRANCH   6   7
ENDBRANCH   5   6
ENDBRANCH   4   5
ENDBRANCH   3   4
ENDBRANCH   2   3
ENDBRANCH   1   2
BRANCH   1  10
ATOM     10  C   UNL     1      50.537  49.209  37.410  1.00  0.00     0.027 C 
BRANCH  10  11
ATOM     11  C   UNL     1      51.171  50.549  37.128  1.00  0.00    -0.031 C 
ATOM     12  C   UNL     1      51.827  51.292  38.037  1.00  0.00    -0.031 C 
BRANCH  12  13
ATOM     13  C   UNL     1      51.948  50.946  39.500  1.00  0.00     0.027 C 
BRANCH  13  14
ATOM     14  C   UNL     1      51.097  51.893  40.353  1.00  0.00     0.004 C 
BRANCH  14  15
ATOM     15  C   UNL     1      51.459  51.766  41.841  1.00  0.00     0.000 C 
BRANCH  15  16
ATOM     16  C   UNL     1      52.859  52.313  42.158  1.00  0.00    -0.000 C 
BRANCH  16  17
ATOM     17  C   UNL     1      52.820  53.536  43.086  1.00  0.00    -0.003 C 
ATOM     18  C   UNL     1      51.438  53.711  43.708  1.00  0.00     0.004 C 
ENDBRANCH  16  17
ENDBRANCH  15  16
ENDBRANCH  14  15
ENDBRANCH  13  14
ENDBRANCH  12  13
ENDBRANCH  10  11
ENDBRANCH   1  10
TORSDOF 13
ENDMDL
MODEL 4
REMARK VINA RESULT:    -4.846      8.027      9.938
REMARK INTER + INTRA:         -10.188
REMARK INTER:                  -9.195
REMARK INTRA:                  -0.993
REMARK UNBOUND:                -1.660
REMARK SMILES CCCCCCC=CCCCCCCCC(=O)[O-]
REMARK SMILES IDX 10 1 11 2 12 3 13 4 14 5 15 6 16 7 17 8 18 9 9 10 8 11 7 12
REMARK SMILES IDX 6 13 5 14 4 15 3 16 2 17 1 18
REMARK H PARENT
REMARK Flexibility Score: inf
ROOT
ATOM      1  C   UNL     1      46.637  44.197  30.105  1.00  0.00     0.004 C 
ENDROOT
BRANCH   1   2
ATOM      2  C   UNL     1      45.315  44.560  29.411  1.00  0.00     0.000 C 
BRANCH   2   3
ATOM      3  C   UNL     1      45.571  45.329  28.109  1.00  0.00     0.000 C 
BRANCH   3   4
ATOM      4  C   UNL     1      47.060  45.668  27.954  1.00  0.00     0.000 C 
BRANCH   4   5
ATOM      5  C   UNL     1      47.379  47.142  28.263  1.00  0.00     0.006 C 
BRANCH   5   6
ATOM      6  C   UNL     1      48.852  47.525  28.029  1.00  0.00     0.053 C 
BRANCH   6   7
ATOM      7  C   UNL     1      49.624  47.667  29.306  1.00  0.00     0.041 C 
ATOM      8  O   UNL     1      50.744  48.242  29.312  1.00  0.00    -0.550 OA
ATOM      9  O   UNL     1      49.118  47.137  30.487  1.00  0.00    -0.550 OA
ENDBRANCH   6   7
ENDBRANCH   5   6
ENDBRANCH   4   5
ENDBRANCH   3   4
ENDBRANCH   2   3
ENDBRANCH   1   2
BRANCH   1  10
ATOM     10  C   UNL     1      46.617  44.538  31.603  1.00  0.00     0.027 C 
BRANCH  10  11
ATOM     11  C   UNL     1      45.322  44.121  32.258  1.00  0.00    -0.031 C 
ATOM     12  C   UNL     1      44.902  44.550  33.463  1.00  0.00    -0.031 C 
BRANCH  12  13
ATOM     13  C   UNL     1      45.702  45.435  34.384  1.00  0.00     0.027 C 
BRANCH  13  14
ATOM     14  C   UNL     1      44.811  46.515  35.006  1.00  0.00     0.004 C 
BRANCH  14  15
ATOM     15  C   UNL     1      45.659  47.622  35.653  1.00  0.00     0.000 C 
BRANCH  15  16
ATOM     16  C   UNL     1      46.824  48.074  34.759  1.00  0.00    -0.000 C 
BRANCH  16  17
ATOM     17  C   UNL     1      47.738  49.096  35.449  1.00  0.00    -0.003 C 
ATOM     18  C   UNL     1      47.669  50.453  34.753  1.00  0.00     0.004 C 
ENDBRANCH  16  17
ENDBRANCH  15  16
ENDBRANCH  14  15
ENDBRANCH  13  14
ENDBRANCH  12  13
ENDBRANCH  10  11
ENDBRANCH   1  10
TORSDOF 13
ENDMDL
MODEL 5
REMARK VINA RESULT:    -4.826      7.814      9.433
REMARK INTER + INTRA:         -10.153
REMARK INTER:                  -9.126
REMARK INTRA:                  -1.027
REMARK UNBOUND:                -1.660
REMARK SMILES CCCCCCC=CCCCCCCCC(=O)[O-]
REMARK SMILES IDX 10 1 11 2 12 3 13 4 14 5 15 6 16 7 17 8 18 9 9 10 8 11 7 12
REMARK SMILES IDX 6 13 5 14 4 15 3 16 2 17 1 18
REMARK H PARENT
REMARK Flexibility Score: inf
ROOT
ATOM      1  C   UNL     1      51.095  49.935  36.780  1.00  0.00     0.004 C 
ENDROOT
BRANCH   1   2
ATOM      2  C   UNL     1      49.680  49.514  36.357  1.00  0.00     0.000 C 
BRANCH   2   3
ATOM      3  C   UNL     1      49.051  50.560  35.428  1.00  0.00     0.000 C 
BRANCH   3   4
ATOM      4  C   UNL     1      47.831  49.983  34.696  1.00  0.00     0.000 C 
BRANCH   4   5
ATOM      5  C   UNL     1      48.069  48.562  34.152  1.00  0.00     0.006 C 
BRANCH   5   6
ATOM      6  C   UNL     1      46.881  47.606  34.362  1.00  0.00     0.053 C 
BRANCH   6   7
ATOM      7  C   UNL     1      46.274  47.726  35.727  1.00  0.00     0.041 C 
ATOM      8  O   UNL     1      46.909  47.338  36.743  1.00  0.00    -0.550 OA
ATOM      9  O   UNL     1      44.991  48.239  35.874  1.00  0.00    -0.550 OA
ENDBRANCH   6   7
ENDBRANCH   5   6
ENDBRANCH   4   5
ENDBRANCH   3   4
ENDBRANCH   2   3
ENDBRANCH   1   2
BRANCH   1  10
ATOM     10  C   UNL     1      51.285  49.875  38.304  1.00  0.00     0.027 C 
BRANCH  10  11
ATOM     11  C   UNL     1      51.468  51.248  38.903  1.00  0.00    -0.031 C 
ATOM     12  C   UNL     1      51.614  51.496  40.218  1.00  0.00    -0.031 C 
BRANCH  12  13
ATOM     13  C   UNL     1      51.521  50.452  41.302  1.00  0.00     0.027 C 
BRANCH  13  14
ATOM     14  C   UNL     1      50.159  50.516  42.001  1.00  0.00     0.004 C 
BRANCH  14  15
ATOM     15  C   UNL     1      50.326  50.792  43.504  1.00  0.00     0.000 C 
BRANCH  15  16
ATOM     16  C   UNL     1      51.538  51.685  43.811  1.00  0.00    -0.000 C 
BRANCH  16  17
ATOM     17  C   UNL     1      51.164  53.169  43.933  1.00  0.00    -0.003 C 
ATOM     18  C   UNL     1      51.714  53.973  42.758  1.00  0.00     0.004 C 
ENDBRANCH  16  17
ENDBRANCH  15  16
ENDBRANCH  14  15
ENDBRANCH  13  14
ENDBRANCH  12  13
ENDBRANCH  10  11
ENDBRANCH   1  10
TORSDOF 13
ENDMDL
MODEL 6
REMARK VINA RESULT:    -4.814      1.533      2.825
REMARK INTER + INTRA:         -10.133
REMARK INTER:                  -9.395
REMARK INTRA:                  -0.738
REMARK UNBOUND:                -1.660
REMARK SMILES CCCCCCC=CCCCCCCCC(=O)[O-]
REMARK SMILES IDX 10 1 11 2 12 3 13 4 14 5 15 6 16 7 17 8 18 9 9 10 8 11 7 12
REMARK SMILES IDX 6 13 5 14 4 15 3 16 2 17 1 18
REMARK H PARENT
REMARK Flexibility Score: inf
ROOT
ATOM      1  C   UNL     1      43.221  52.905  34.340  1.00  0.00     0.004 C 
ENDROOT
BRANCH   1   2
ATOM      2  C   UNL     1      42.587  51.930  35.343  1.00  0.00     0.000 C 
BRANCH   2   3
ATOM      3  C   UNL     1      41.137  51.612  34.960  1.00  0.00     0.000 C 
BRANCH   3   4
ATOM      4  C   UNL     1      40.844  52.038  33.514  1.00  0.00     0.000 C 
BRANCH   4   5
ATOM      5  C   UNL     1      40.401  50.867  32.617  1.00  0.00     0.006 C 
BRANCH   5   6
ATOM      6  C   UNL     1      39.065  50.230  33.037  1.00  0.00     0.053 C 
BRANCH   6   7
ATOM      7  C   UNL     1      38.811  48.916  32.362  1.00  0.00     0.041 C 
ATOM      8  O   UNL     1      37.689  48.671  31.847  1.00  0.00    -0.550 OA
ATOM      9  O   UNL     1      39.808  47.948  32.328  1.00  0.00    -0.550 OA
ENDBRANCH   6   7
ENDBRANCH   5   6
ENDBRANCH   4   5
ENDBRANCH   3   4
ENDBRANCH   2   3
ENDBRANCH   1   2
BRANCH   1  10
ATOM     10  C   UNL     1      43.701  54.199  35.016  1.00  0.00     0.027 C 
BRANCH  10  11
ATOM     11  C   UNL     1      43.129  54.356  36.404  1.00  0.00    -0.031 C 
ATOM     12  C   UNL     1      43.635  55.165  37.353  1.00  0.00    -0.031 C 
BRANCH  12  13
ATOM     13  C   UNL     1      44.904  55.965  37.209  1.00  0.00     0.027 C 
BRANCH  13  14
ATOM     14  C   UNL     1      45.060  56.949  38.373  1.00  0.00     0.004 C 
BRANCH  14  15
ATOM     15  C   UNL     1      46.176  57.965  38.088  1.00  0.00     0.000 C 
BRANCH  15  16
ATOM     16  C   UNL     1      46.286  59.046  39.175  1.00  0.00    -0.000 C 
BRANCH  16  17
ATOM     17  C   UNL     1      45.790  58.559  40.545  1.00  0.00    -0.003 C 
ATOM     18  C   UNL     1      46.788  58.907  41.646  1.00  0.00     0.004 C 
ENDBRANCH  16  17
ENDBRANCH  15  16
ENDBRANCH  14  15
ENDBRANCH  13  14
ENDBRANCH  12  13
ENDBRANCH  10  11
ENDBRANCH   1  10
TORSDOF 13
ENDMDL
MODEL 7
REMARK VINA RESULT:    -4.798      9.105     12.144
REMARK INTER + INTRA:         -10.104
REMARK INTER:                  -8.832
REMARK INTRA:                  -1.272
REMARK UNBOUND:                -1.660
REMARK SMILES CCCCCCC=CCCCCCCCC(=O)[O-]
REMARK SMILES IDX 10 1 11 2 12 3 13 4 14 5 15 6 16 7 17 8 18 9 9 10 8 11 7 12
REMARK SMILES IDX 6 13 5 14 4 15 3 16 2 17 1 18
REMARK H PARENT
REMARK Flexibility Score: inf
ROOT
ATOM      1  C   UNL     1      50.736  51.023  36.959  1.00  0.00     0.004 C 
ENDROOT
BRANCH   1   2
ATOM      2  C   UNL     1      52.043  50.380  37.444  1.00  0.00     0.000 C 
BRANCH   2   3
ATOM      3  C   UNL     1      52.519  51.022  38.752  1.00  0.00     0.000 C 
BRANCH   3   4
ATOM      4  C   UNL     1      51.471  50.855  39.861  1.00  0.00     0.000 C 
BRANCH   4   5
ATOM      5  C   UNL     1      51.383  52.074  40.798  1.00  0.00     0.006 C 
BRANCH   5   6
ATOM      6  C   UNL     1      51.879  51.798  42.229  1.00  0.00     0.053 C 
BRANCH   6   7
ATOM      7  C   UNL     1      52.081  53.052  43.025  1.00  0.00     0.041 C 
ATOM      8  O   UNL     1      53.167  53.685  42.950  1.00  0.00    -0.550 OA
ATOM      9  O   UNL     1      51.079  53.505  43.874  1.00  0.00    -0.550 OA
ENDBRANCH   6   7
ENDBRANCH   5   6
ENDBRANCH   4   5
ENDBRANCH   3   4
ENDBRANCH   2   3
ENDBRANCH   1   2
BRANCH   1  10
ATOM     10  C   UNL     1      50.037  50.175  35.885  1.00  0.00     0.027 C 
BRANCH  10  11
ATOM     11  C   UNL     1      48.956  50.949  35.171  1.00  0.00    -0.031 C 
ATOM     12  C   UNL     1      47.841  50.404  34.650  1.00  0.00    -0.031 C 
BRANCH  12  13
ATOM     13  C   UNL     1      47.546  48.926  34.615  1.00  0.00     0.027 C 
BRANCH  13  14
ATOM     14  C   UNL     1      46.340  48.593  35.499  1.00  0.00     0.004 C 
BRANCH  14  15
ATOM     15  C   UNL     1      46.647  47.404  36.423  1.00  0.00     0.000 C 
BRANCH  15  16
ATOM     16  C   UNL     1      48.056  46.831  36.202  1.00  0.00    -0.000 C 
BRANCH  16  17
ATOM     17  C   UNL     1      48.728  46.394  37.511  1.00  0.00    -0.003 C 
ATOM     18  C   UNL     1      49.267  47.597  38.281  1.00  0.00     0.004 C 
ENDBRANCH  16  17
ENDBRANCH  15  16
ENDBRANCH  14  15
ENDBRANCH  13  14
ENDBRANCH  12  13
ENDBRANCH  10  11
ENDBRANCH   1  10
TORSDOF 13
ENDMDL
MODEL 8
REMARK VINA RESULT:    -4.798      8.828     12.145
REMARK INTER + INTRA:         -10.104
REMARK INTER:                  -9.448
REMARK INTRA:                  -0.656
REMARK UNBOUND:                -1.660
REMARK SMILES CCCCCCC=CCCCCCCCC(=O)[O-]
REMARK SMILES IDX 10 1 11 2 12 3 13 4 14 5 15 6 16 7 17 8 18 9 9 10 8 11 7 12
REMARK SMILES IDX 6 13 5 14 4 15 3 16 2 17 1 18
REMARK H PARENT
REMARK Flexibility Score: inf
ROOT
ATOM      1  C   UNL     1      51.365  50.465  36.576  1.00  0.00     0.004 C 
ENDROOT
BRANCH   1   2
ATOM      2  C   UNL     1      51.451  51.159  37.943  1.00  0.00     0.000 C 
BRANCH   2   3
ATOM      3  C   UNL     1      52.852  51.010  38.547  1.00  0.00     0.000 C 
BRANCH   3   4
ATOM      4  C   UNL     1      52.823  51.232  40.066  1.00  0.00     0.000 C 
BRANCH   4   5
ATOM      5  C   UNL     1      51.478  51.785  40.570  1.00  0.00     0.006 C 
BRANCH   5   6
ATOM      6  C   UNL     1      50.785  50.889  41.612  1.00  0.00     0.053 C 
BRANCH   6   7
ATOM      7  C   UNL     1      51.087  51.299  43.022  1.00  0.00     0.041 C 
ATOM      8  O   UNL     1      50.152  51.479  43.847  1.00  0.00    -0.550 OA
ATOM      9  O   UNL     1      52.402  51.512  43.417  1.00  0.00    -0.550 OA
ENDBRANCH   6   7
ENDBRANCH   5   6
ENDBRANCH   4   5
ENDBRANCH   3   4
ENDBRANCH   2   3
ENDBRANCH   1   2
BRANCH   1  10
ATOM     10  C   UNL     1      49.966  49.889  36.306  1.00  0.00     0.027 C 
BRANCH  10  11
ATOM     11  C   UNL     1      49.176  50.752  35.353  1.00  0.00    -0.031 C 
ATOM     12  C   UNL     1      48.112  50.332  34.643  1.00  0.00    -0.031 C 
BRANCH  12  13
ATOM     13  C   UNL     1      47.607  48.912  34.616  1.00  0.00     0.027 C 
BRANCH  13  14
ATOM     14  C   UNL     1      46.299  48.787  35.404  1.00  0.00     0.004 C 
BRANCH  14  15
ATOM     15  C   UNL     1      46.075  47.341  35.874  1.00  0.00     0.000 C 
BRANCH  15  16
ATOM     16  C   UNL     1      46.343  46.311  34.766  1.00  0.00    -0.000 C 
BRANCH  16  17
ATOM     17  C   UNL     1      45.072  45.570  34.327  1.00  0.00    -0.003 C 
ATOM     18  C   UNL     1      45.394  44.479  33.310  1.00  0.00     0.004 C 
ENDBRANCH  16  17
ENDBRANCH  15  16
ENDBRANCH  14  15
ENDBRANCH  13  14
ENDBRANCH  12  13
ENDBRANCH  10  11
ENDBRANCH   1  10
TORSDOF 13
ENDMDL
MODEL 9
REMARK VINA RESULT:    -4.795      9.493     12.500
REMARK INTER + INTRA:         -10.099
REMARK INTER:                  -8.964
REMARK INTRA:                  -1.135
REMARK UNBOUND:                -1.660
REMARK SMILES CCCCCCC=CCCCCCCCC(=O)[O-]
REMARK SMILES IDX 10 1 11 2 12 3 13 4 14 5 15 6 16 7 17 8 18 9 9 10 8 11 7 12
REMARK SMILES IDX 6 13 5 14 4 15 3 16 2 17 1 18
REMARK H PARENT
REMARK Flexibility Score: inf
ROOT
ATOM      1  C   UNL     1      51.340  51.047  40.189  1.00  0.00     0.004 C 
ENDROOT
BRANCH   1   2
ATOM      2  C   UNL     1      51.097  49.723  40.930  1.00  0.00     0.000 C 
BRANCH   2   3
ATOM      3  C   UNL     1      49.950  49.861  41.938  1.00  0.00     0.000 C 
BRANCH   3   4
ATOM      4  C   UNL     1      50.332  49.250  43.294  1.00  0.00     0.000 C 
BRANCH   4   5
ATOM      5  C   UNL     1      50.685  50.308  44.355  1.00  0.00     0.006 C 
BRANCH   5   6
ATOM      6  C   UNL     1      50.250  51.737  43.983  1.00  0.00     0.053 C 
BRANCH   6   7
ATOM      7  C   UNL     1      51.411  52.654  43.746  1.00  0.00     0.041 C 
ATOM      8  O   UNL     1      52.506  52.198  43.322  1.00  0.00    -0.550 OA
ATOM      9  O   UNL     1      51.293  54.011  44.022  1.00  0.00    -0.550 OA
ENDBRANCH   6   7
ENDBRANCH   5   6
ENDBRANCH   4   5
ENDBRANCH   3   4
ENDBRANCH   2   3
ENDBRANCH   1   2
BRANCH   1  10
ATOM     10  C   UNL     1      51.603  50.832  38.691  1.00  0.00     0.027 C 
BRANCH  10  11
ATOM     11  C   UNL     1      50.967  49.560  38.184  1.00  0.00    -0.031 C 
ATOM     12  C   UNL     1      50.339  49.438  37.000  1.00  0.00    -0.031 C 
BRANCH  12  13
ATOM     13  C   UNL     1      50.090  50.575  36.041  1.00  0.00     0.027 C 
BRANCH  13  14
ATOM     14  C   UNL     1      48.761  50.381  35.304  1.00  0.00     0.004 C 
BRANCH  14  15
ATOM     15  C   UNL     1      48.058  49.095  35.767  1.00  0.00     0.000 C 
BRANCH  15  16
ATOM     16  C   UNL     1      46.613  48.993  35.255  1.00  0.00    -0.000 C 
BRANCH  16  17
ATOM     17  C   UNL     1      45.893  47.736  35.764  1.00  0.00    -0.003 C 
ATOM     18  C   UNL     1      46.764  46.966  36.752  1.00  0.00     0.004 C 
ENDBRANCH  16  17
ENDBRANCH  15  16
ENDBRANCH  14  15
ENDBRANCH  13  14
ENDBRANCH  12  13
ENDBRANCH  10  11
ENDBRANCH   1  10
TORSDOF 13
ENDMDL
