MODEL 1
REMARK VINA RESULT:    -3.796      0.000      0.000
REMARK INTER + INTRA:          -9.136
REMARK INTER:                  -6.903
REMARK INTRA:                  -2.232
REMARK UNBOUND:                -2.232
REMARK SMILES CCCCCCCCCCCCCCCC(=O)[O-]
REMARK SMILES IDX 9 1 10 2 11 3 12 4 13 5 14 6 15 7 16 8 17 9 18 10 8 11 7 12
REMARK SMILES IDX 6 13 5 14 4 15 3 16 2 17 1 18
REMARK H PARENT
REMARK Flexibility Score: inf
ROOT
ATOM      1  C   UNL     1      22.154  -3.533  -2.344  1.00  0.00     0.000 C 
ENDROOT
BRANCH   1   2
ATOM      2  C   UNL     1      21.348  -3.715  -1.049  1.00  0.00     0.000 C 
BRANCH   2   3
ATOM      3  C   UNL     1      20.925  -2.359  -0.470  1.00  0.00     0.000 C 
BRANCH   3   4
ATOM      4  C   UNL     1      21.286  -1.215  -1.428  1.00  0.00     0.000 C 
BRANCH   4   5
ATOM      5  C   UNL     1      22.062  -0.084  -0.736  1.00  0.00     0.000 C 
BRANCH   5   6
ATOM      6  C   UNL     1      22.319  -0.365   0.752  1.00  0.00     0.006 C 
BRANCH   6   7
ATOM      7  C   UNL     1      23.579   0.357   1.237  1.00  0.00     0.053 C 
BRANCH   7   8
ATOM      8  C   UNL     1      23.999  -0.161   2.576  1.00  0.00     0.041 C 
ATOM      9  O   UNL     1      24.284   0.641   3.504  1.00  0.00    -0.550 OA
ATOM     10  O   UNL     1      24.122  -1.528   2.786  1.00  0.00    -0.550 OA
ENDBRANCH   7   8
ENDBRANCH   6   7
ENDBRANCH   5   6
ENDBRANCH   4   5
ENDBRANCH   3   4
ENDBRANCH   2   3
ENDBRANCH   1   2
BRANCH   1  11
ATOM     11  C   UNL     1      23.589  -4.079  -2.237  1.00  0.00     0.000 C 
BRANCH  11  12
ATOM     12  C   UNL     1      24.267  -3.861  -0.869  1.00  0.00    -0.000 C 
BRANCH  12  13
ATOM     13  C   UNL     1      25.015  -2.522  -0.717  1.00  0.00    -0.000 C 
BRANCH  13  14
ATOM     14  C   UNL     1      25.472  -1.876  -2.041  1.00  0.00    -0.000 C 
BRANCH  14  15
ATOM     15  C   UNL     1      25.539  -0.338  -2.029  1.00  0.00    -0.000 C 
BRANCH  15  16
ATOM     16  C   UNL     1      26.618   0.206  -1.077  1.00  0.00    -0.000 C 
BRANCH  16  17
ATOM     17  C   UNL     1      28.003   0.278  -1.739  1.00  0.00    -0.003 C 
ATOM     18  C   UNL     1      28.945  -0.829  -1.266  1.00  0.00     0.004 C 
ENDBRANCH  16  17
ENDBRANCH  15  16
ENDBRANCH  14  15
ENDBRANCH  13  14
ENDBRANCH  12  13
ENDBRANCH  11  12
ENDBRANCH   1  11
TORSDOF 14
ENDMDL
MODEL 2
REMARK VINA RESULT:    -3.762      1.728      2.537
REMARK INTER + INTRA:          -9.074
REMARK INTER:                  -7.368
REMARK INTRA:                  -1.706
REMARK UNBOUND:                -2.232
REMARK SMILES CCCCCCCCCCCCCCCC(=O)[O-]
REMARK SMILES IDX 9 1 10 2 11 3 12 4 13 5 14 6 15 7 16 8 17 9 18 10 8 11 7 12
REMARK SMILES IDX 6 13 5 14 4 15 3 16 2 17 1 18
REMARK H PARENT
REMARK Flexibility Score: inf
ROOT
ATOM      1  C   UNL     1      21.617  -2.943   0.007  1.00  0.00     0.000 C 
ENDROOT
BRANCH   1   2
ATOM      2  C   UNL     1      21.931  -1.775   0.953  1.00  0.00     0.000 C 
BRANCH   2   3
ATOM      3  C   UNL     1      23.368  -1.869   1.485  1.00  0.00     0.000 C 
BRANCH   3   4
ATOM      4  C   UNL     1      24.029  -0.485   1.530  1.00  0.00     0.000 C 
BRANCH   4   5
ATOM      5  C   UNL     1      23.022   0.646   1.792  1.00  0.00     0.000 C 
BRANCH   5   6
ATOM      6  C   UNL     1      23.163   1.253   3.195  1.00  0.00     0.006 C 
BRANCH   6   7
ATOM      7  C   UNL     1      21.933   0.944   4.053  1.00  0.00     0.053 C 
BRANCH   7   8
ATOM      8  C   UNL     1      22.036  -0.425   4.645  1.00  0.00     0.041 C 
ATOM      9  O   UNL     1      23.117  -0.812   5.162  1.00  0.00    -0.550 OA
ATOM     10  O   UNL     1      20.952  -1.293   4.585  1.00  0.00    -0.550 OA
ENDBRANCH   7   8
ENDBRANCH   6   7
ENDBRANCH   5   6
ENDBRANCH   4   5
ENDBRANCH   3   4
ENDBRANCH   2   3
ENDBRANCH   1   2
BRANCH   1  11
ATOM     11  C   UNL     1      21.728  -2.556  -1.479  1.00  0.00     0.000 C 
BRANCH  11  12
ATOM     12  C   UNL     1      22.627  -3.480  -2.326  1.00  0.00    -0.000 C 
BRANCH  12  13
ATOM     13  C   UNL     1      24.131  -3.139  -2.290  1.00  0.00    -0.000 C 
BRANCH  13  14
ATOM     14  C   UNL     1      24.457  -1.650  -2.058  1.00  0.00    -0.000 C 
BRANCH  14  15
ATOM     15  C   UNL     1      25.957  -1.315  -1.972  1.00  0.00    -0.000 C 
BRANCH  15  16
ATOM     16  C   UNL     1      26.220   0.166  -1.647  1.00  0.00    -0.000 C 
BRANCH  16  17
ATOM     17  C   UNL     1      27.643   0.407  -1.117  1.00  0.00    -0.003 C 
ATOM     18  C   UNL     1      28.706  -0.366  -1.896  1.00  0.00     0.004 C 
ENDBRANCH  16  17
ENDBRANCH  15  16
ENDBRANCH  14  15
ENDBRANCH  13  14
ENDBRANCH  12  13
ENDBRANCH  11  12
ENDBRANCH   1  11
TORSDOF 14
ENDMDL
MODEL 3
REMARK VINA RESULT:    -3.728      2.924      5.026
REMARK INTER + INTRA:          -9.011
REMARK INTER:                  -7.638
REMARK INTRA:                  -1.374
REMARK UNBOUND:                -2.232
REMARK SMILES CCCCCCCCCCCCCCCC(=O)[O-]
REMARK SMILES IDX 9 1 10 2 11 3 12 4 13 5 14 6 15 7 16 8 17 9 18 10 8 11 7 12
REMARK SMILES IDX 6 13 5 14 4 15 3 16 2 17 1 18
REMARK H PARENT
REMARK Flexibility Score: inf
ROOT
ATOM      1  C   UNL     1      26.236  -0.890  -2.022  1.00  0.00     0.000 C 
ENDROOT
BRANCH   1   2
ATOM      2  C   UNL     1      25.447  -0.943  -0.706  1.00  0.00     0.000 C 
BRANCH   2   3
ATOM      3  C   UNL     1      24.758  -2.303  -0.533  1.00  0.00     0.000 C 
BRANCH   3   4
ATOM      4  C   UNL     1      24.544  -2.988  -1.891  1.00  0.00     0.000 C 
BRANCH   4   5
ATOM      5  C   UNL     1      23.062  -3.063  -2.290  1.00  0.00     0.000 C 
BRANCH   5   6
ATOM      6  C   UNL     1      22.260  -1.837  -1.830  1.00  0.00     0.006 C 
BRANCH   6   7
ATOM      7  C   UNL     1      20.942  -2.258  -1.174  1.00  0.00     0.053 C 
BRANCH   7   8
ATOM      8  C   UNL     1      19.831  -1.352  -1.599  1.00  0.00     0.041 C 
ATOM      9  O   UNL     1      18.640  -1.761  -1.585  1.00  0.00    -0.550 OA
ATOM     10  O   UNL     1      20.114  -0.071  -2.057  1.00  0.00    -0.550 OA
ENDBRANCH   7   8
ENDBRANCH   6   7
ENDBRANCH   5   6
ENDBRANCH   4   5
ENDBRANCH   3   4
ENDBRANCH   2   3
ENDBRANCH   1   2
BRANCH   1  11
ATOM     11  C   UNL     1      27.735  -1.184  -1.833  1.00  0.00     0.000 C 
BRANCH  11  12
ATOM     12  C   UNL     1      28.665   0.034  -2.013  1.00  0.00    -0.000 C 
BRANCH  12  13
ATOM     13  C   UNL     1      28.321   1.252  -1.133  1.00  0.00    -0.000 C 
BRANCH  13  14
ATOM     14  C   UNL     1      28.331   2.610  -1.864  1.00  0.00    -0.000 C 
BRANCH  14  15
ATOM     15  C   UNL     1      27.199   3.575  -1.465  1.00  0.00    -0.000 C 
BRANCH  15  16
ATOM     16  C   UNL     1      26.354   3.052  -0.292  1.00  0.00    -0.000 C 
BRANCH  16  17
ATOM     17  C   UNL     1      24.914   2.711  -0.711  1.00  0.00    -0.003 C 
ATOM     18  C   UNL     1      24.558   3.242  -2.099  1.00  0.00     0.004 C 
ENDBRANCH  16  17
ENDBRANCH  15  16
ENDBRANCH  14  15
ENDBRANCH  13  14
ENDBRANCH  12  13
ENDBRANCH  11  12
ENDBRANCH   1  11
TORSDOF 14
ENDMDL
MODEL 4
REMARK VINA RESULT:    -3.719      3.700      6.332
REMARK INTER + INTRA:          -8.995
REMARK INTER:                  -6.742
REMARK INTRA:                  -2.254
REMARK UNBOUND:                -2.232
REMARK SMILES CCCCCCCCCCCCCCCC(=O)[O-]
REMARK SMILES IDX 9 1 10 2 11 3 12 4 13 5 14 6 15 7 16 8 17 9 18 10 8 11 7 12
REMARK SMILES IDX 6 13 5 14 4 15 3 16 2 17 1 18
REMARK H PARENT
REMARK Flexibility Score: inf
ROOT
ATOM      1  C   UNL     1      26.726   2.121  -1.090  1.00  0.00     0.000 C 
ENDROOT
BRANCH   1   2
ATOM      2  C   UNL     1      26.372   2.805   0.238  1.00  0.00     0.000 C 
BRANCH   2   3
ATOM      3  C   UNL     1      27.539   2.716   1.231  1.00  0.00     0.000 C 
BRANCH   3   4
ATOM      4  C   UNL     1      27.034   2.402   2.647  1.00  0.00     0.000 C 
BRANCH   4   5
ATOM      5  C   UNL     1      28.154   1.923   3.583  1.00  0.00     0.000 C 
BRANCH   5   6
ATOM      6  C   UNL     1      28.103   0.410   3.843  1.00  0.00     0.006 C 
BRANCH   6   7
ATOM      7  C   UNL     1      29.163  -0.007   4.867  1.00  0.00     0.053 C 
BRANCH   7   8
ATOM      8  C   UNL     1      29.950  -1.175   4.364  1.00  0.00     0.041 C 
ATOM      9  O   UNL     1      31.122  -1.374   4.777  1.00  0.00    -0.550 OA
ATOM     10  O   UNL     1      29.405  -2.017   3.402  1.00  0.00    -0.550 OA
ENDBRANCH   7   8
ENDBRANCH   6   7
ENDBRANCH   5   6
ENDBRANCH   4   5
ENDBRANCH   3   4
ENDBRANCH   2   3
ENDBRANCH   1   2
BRANCH   1  11
ATOM     11  C   UNL     1      28.188   1.639  -1.143  1.00  0.00     0.000 C 
BRANCH  11  12
ATOM     12  C   UNL     1      28.427   0.385  -2.008  1.00  0.00    -0.000 C 
BRANCH  12  13
ATOM     13  C   UNL     1      28.653  -0.919  -1.217  1.00  0.00    -0.000 C 
BRANCH  13  14
ATOM     14  C   UNL     1      28.155  -0.892   0.242  1.00  0.00    -0.000 C 
BRANCH  14  15
ATOM     15  C   UNL     1      26.858  -1.679   0.505  1.00  0.00    -0.000 C 
BRANCH  15  16
ATOM     16  C   UNL     1      25.894  -0.942   1.451  1.00  0.00    -0.000 C 
BRANCH  16  17
ATOM     17  C   UNL     1      24.656  -0.397   0.721  1.00  0.00    -0.003 C 
ATOM     18  C   UNL     1      23.716   0.377   1.643  1.00  0.00     0.004 C 
ENDBRANCH  16  17
ENDBRANCH  15  16
ENDBRANCH  14  15
ENDBRANCH  13  14
ENDBRANCH  12  13
ENDBRANCH  11  12
ENDBRANCH   1  11
TORSDOF 14
ENDMDL
MODEL 5
REMARK VINA RESULT:    -3.689      3.399      6.128
REMARK INTER + INTRA:          -8.941
REMARK INTER:                  -6.333
REMARK INTRA:                  -2.608
REMARK UNBOUND:                -2.232
REMARK SMILES CCCCCCCCCCCCCCCC(=O)[O-]
REMARK SMILES IDX 9 1 10 2 11 3 12 4 13 5 14 6 15 7 16 8 17 9 18 10 8 11 7 12
REMARK SMILES IDX 6 13 5 14 4 15 3 16 2 17 1 18
REMARK H PARENT
REMARK Flexibility Score: inf
ROOT
ATOM      1  C   UNL     1      26.945   3.423   0.183  1.00  0.00     0.000 C 
ENDROOT
BRANCH   1   2
ATOM      2  C   UNL     1      27.568   2.508   1.247  1.00  0.00     0.000 C 
BRANCH   2   3
ATOM      3  C   UNL     1      26.512   1.573   1.853  1.00  0.00     0.000 C 
BRANCH   3   4
ATOM      4  C   UNL     1      27.160   0.557   2.805  1.00  0.00     0.000 C 
BRANCH   4   5
ATOM      5  C   UNL     1      26.289  -0.691   3.022  1.00  0.00     0.000 C 
BRANCH   5   6
ATOM      6  C   UNL     1      27.053  -1.999   2.768  1.00  0.00     0.006 C 
BRANCH   6   7
ATOM      7  C   UNL     1      28.560  -1.745   2.677  1.00  0.00     0.053 C 
BRANCH   7   8
ATOM      8  C   UNL     1      29.269  -2.370   3.836  1.00  0.00     0.041 C 
ATOM      9  O   UNL     1      28.968  -3.535   4.209  1.00  0.00    -0.550 OA
ATOM     10  O   UNL     1      30.230  -1.650   4.534  1.00  0.00    -0.550 OA
ENDBRANCH   7   8
ENDBRANCH   6   7
ENDBRANCH   5   6
ENDBRANCH   4   5
ENDBRANCH   3   4
ENDBRANCH   2   3
ENDBRANCH   1   2
BRANCH   1  11
ATOM     11  C   UNL     1      27.265   2.974  -1.254  1.00  0.00     0.000 C 
BRANCH  11  12
ATOM     12  C   UNL     1      28.583   2.187  -1.412  1.00  0.00    -0.000 C 
BRANCH  12  13
ATOM     13  C   UNL     1      28.431   0.774  -2.008  1.00  0.00    -0.000 C 
BRANCH  13  14
ATOM     14  C   UNL     1      28.550  -0.380  -0.991  1.00  0.00    -0.000 C 
BRANCH  14  15
ATOM     15  C   UNL     1      27.261  -1.192  -0.770  1.00  0.00    -0.000 C 
BRANCH  15  16
ATOM     16  C   UNL     1      26.074  -0.665  -1.594  1.00  0.00    -0.000 C 
BRANCH  16  17
ATOM     17  C   UNL     1      24.821  -0.429  -0.736  1.00  0.00    -0.003 C 
ATOM     18  C   UNL     1      24.214   0.958  -0.940  1.00  0.00     0.004 C 
ENDBRANCH  16  17
ENDBRANCH  15  16
ENDBRANCH  14  15
ENDBRANCH  13  14
ENDBRANCH  12  13
ENDBRANCH  11  12
ENDBRANCH   1  11
TORSDOF 14
ENDMDL
MODEL 6
REMARK VINA RESULT:    -3.680      2.721      5.360
REMARK INTER + INTRA:          -8.924
REMARK INTER:                  -6.858
REMARK INTRA:                  -2.066
REMARK UNBOUND:                -2.232
REMARK SMILES CCCCCCCCCCCCCCCC(=O)[O-]
REMARK SMILES IDX 9 1 10 2 11 3 12 4 13 5 14 6 15 7 16 8 17 9 18 10 8 11 7 12
REMARK SMILES IDX 6 13 5 14 4 15 3 16 2 17 1 18
REMARK H PARENT
REMARK Flexibility Score: inf
ROOT
ATOM      1  C   UNL     1      28.752  -0.153  -1.537  1.00  0.00     0.000 C 
ENDROOT
BRANCH   1   2
ATOM      2  C   UNL     1      27.819  -1.284  -1.992  1.00  0.00     0.000 C 
BRANCH   2   3
ATOM      3  C   UNL     1      26.364  -0.800  -2.064  1.00  0.00     0.000 C 
BRANCH   3   4
ATOM      4  C   UNL     1      25.388  -1.984  -2.017  1.00  0.00     0.000 C 
BRANCH   4   5
ATOM      5  C   UNL     1      24.691  -2.124  -0.654  1.00  0.00     0.000 C 
BRANCH   5   6
ATOM      6  C   UNL     1      23.299  -1.477  -0.630  1.00  0.00     0.006 C 
BRANCH   6   7
ATOM      7  C   UNL     1      22.420  -2.025  -1.758  1.00  0.00     0.053 C 
BRANCH   7   8
ATOM      8  C   UNL     1      21.284  -2.822  -1.199  1.00  0.00     0.041 C 
ATOM      9  O   UNL     1      21.300  -4.079  -1.264  1.00  0.00    -0.550 OA
ATOM     10  O   UNL     1      20.185  -2.175  -0.649  1.00  0.00    -0.550 OA
ENDBRANCH   7   8
ENDBRANCH   6   7
ENDBRANCH   5   6
ENDBRANCH   4   5
ENDBRANCH   3   4
ENDBRANCH   2   3
ENDBRANCH   1   2
BRANCH   1  11
ATOM     11  C   UNL     1      28.264   1.239  -1.976  1.00  0.00     0.000 C 
BRANCH  11  12
ATOM     12  C   UNL     1      28.679   2.397  -1.044  1.00  0.00    -0.000 C 
BRANCH  12  13
ATOM     13  C   UNL     1      27.973   2.417   0.326  1.00  0.00    -0.000 C 
BRANCH  13  14
ATOM     14  C   UNL     1      26.478   2.040   0.296  1.00  0.00    -0.000 C 
BRANCH  14  15
ATOM     15  C   UNL     1      26.085   0.850   1.190  1.00  0.00    -0.000 C 
BRANCH  15  16
ATOM     16  C   UNL     1      27.280   0.260   1.958  1.00  0.00    -0.000 C 
BRANCH  16  17
ATOM     17  C   UNL     1      27.489  -1.234   1.662  1.00  0.00    -0.003 C 
ATOM     18  C   UNL     1      28.209  -1.968   2.792  1.00  0.00     0.004 C 
ENDBRANCH  16  17
ENDBRANCH  15  16
ENDBRANCH  14  15
ENDBRANCH  13  14
ENDBRANCH  12  13
ENDBRANCH  11  12
ENDBRANCH   1  11
TORSDOF 14
ENDMDL
MODEL 7
REMARK VINA RESULT:    -3.661      2.652      5.027
REMARK INTER + INTRA:          -8.889
REMARK INTER:                  -7.031
REMARK INTRA:                  -1.858
REMARK UNBOUND:                -2.232
REMARK SMILES CCCCCCCCCCCCCCCC(=O)[O-]
REMARK SMILES IDX 9 1 10 2 11 3 12 4 13 5 14 6 15 7 16 8 17 9 18 10 8 11 7 12
REMARK SMILES IDX 6 13 5 14 4 15 3 16 2 17 1 18
REMARK H PARENT
REMARK Flexibility Score: inf
ROOT
ATOM      1  C   UNL     1      23.939  -3.648  -2.529  1.00  0.00     0.000 C 
ENDROOT
BRANCH   1   2
ATOM      2  C   UNL     1      24.583  -2.770  -1.446  1.00  0.00     0.000 C 
BRANCH   2   3
ATOM      3  C   UNL     1      25.335  -1.588  -2.073  1.00  0.00     0.000 C 
BRANCH   3   4
ATOM      4  C   UNL     1      26.534  -1.178  -1.207  1.00  0.00     0.000 C 
BRANCH   4   5
ATOM      5  C   UNL     1      27.850  -1.131  -2.000  1.00  0.00     0.000 C 
BRANCH   5   6
ATOM      6  C   UNL     1      28.549   0.234  -1.908  1.00  0.00     0.006 C 
BRANCH   6   7
ATOM      7  C   UNL     1      27.652   1.264  -1.217  1.00  0.00     0.053 C 
BRANCH   7   8
ATOM      8  C   UNL     1      28.111   2.653  -1.527  1.00  0.00     0.041 C 
ATOM      9  O   UNL     1      27.312   3.488  -2.026  1.00  0.00    -0.550 OA
ATOM     10  O   UNL     1      29.436   3.012  -1.311  1.00  0.00    -0.550 OA
ENDBRANCH   7   8
ENDBRANCH   6   7
ENDBRANCH   5   6
ENDBRANCH   4   5
ENDBRANCH   3   4
ENDBRANCH   2   3
ENDBRANCH   1   2
BRANCH   1  11
ATOM     11  C   UNL     1      22.418  -3.800  -2.350  1.00  0.00     0.000 C 
BRANCH  11  12
ATOM     12  C   UNL     1      21.885  -3.408  -0.956  1.00  0.00    -0.000 C 
BRANCH  12  13
ATOM     13  C   UNL     1      20.878  -2.240  -0.948  1.00  0.00    -0.000 C 
BRANCH  13  14
ATOM     14  C   UNL     1      21.345  -0.970  -1.686  1.00  0.00    -0.000 C 
BRANCH  14  15
ATOM     15  C   UNL     1      21.664   0.233  -0.779  1.00  0.00    -0.000 C 
BRANCH  15  16
ATOM     16  C   UNL     1      22.817  -0.046   0.199  1.00  0.00    -0.000 C 
BRANCH  16  17
ATOM     17  C   UNL     1      23.806   1.127   0.291  1.00  0.00    -0.003 C 
ATOM     18  C   UNL     1      24.056   1.800  -1.058  1.00  0.00     0.004 C 
ENDBRANCH  16  17
ENDBRANCH  15  16
ENDBRANCH  14  15
ENDBRANCH  13  14
ENDBRANCH  12  13
ENDBRANCH  11  12
ENDBRANCH   1  11
TORSDOF 14
ENDMDL
MODEL 8
REMARK VINA RESULT:    -3.659      3.908      6.658
REMARK INTER + INTRA:          -8.885
REMARK INTER:                  -6.991
REMARK INTRA:                  -1.894
REMARK UNBOUND:                -2.232
REMARK SMILES CCCCCCCCCCCCCCCC(=O)[O-]
REMARK SMILES IDX 9 1 10 2 11 3 12 4 13 5 14 6 15 7 16 8 17 9 18 10 8 11 7 12
REMARK SMILES IDX 6 13 5 14 4 15 3 16 2 17 1 18
REMARK H PARENT
REMARK Flexibility Score: inf
ROOT
ATOM      1  C   UNL     1      27.306   1.441   3.573  1.00  0.00     0.000 C 
ENDROOT
BRANCH   1   2
ATOM      2  C   UNL     1      28.581   2.173   4.014  1.00  0.00     0.000 C 
BRANCH   2   3
ATOM      3  C   UNL     1      29.538   1.219   4.743  1.00  0.00     0.000 C 
BRANCH   3   4
ATOM      4  C   UNL     1      28.929  -0.185   4.862  1.00  0.00     0.000 C 
BRANCH   4   5
ATOM      5  C   UNL     1      29.821  -1.272   4.241  1.00  0.00     0.000 C 
BRANCH   5   6
ATOM      6  C   UNL     1      29.048  -2.557   3.909  1.00  0.00     0.006 C 
BRANCH   6   7
ATOM      7  C   UNL     1      28.081  -2.922   5.039  1.00  0.00     0.053 C 
BRANCH   7   8
ATOM      8  C   UNL     1      26.672  -2.948   4.537  1.00  0.00     0.041 C 
ATOM      9  O   UNL     1      25.797  -2.212   5.065  1.00  0.00    -0.550 OA
ATOM     10  O   UNL     1      26.314  -3.821   3.517  1.00  0.00    -0.550 OA
ENDBRANCH   7   8
ENDBRANCH   6   7
ENDBRANCH   5   6
ENDBRANCH   4   5
ENDBRANCH   3   4
ENDBRANCH   2   3
ENDBRANCH   1   2
BRANCH   1  11
ATOM     11  C   UNL     1      26.816   1.881   2.181  1.00  0.00     0.000 C 
BRANCH  11  12
ATOM     12  C   UNL     1      26.191   0.758   1.328  1.00  0.00    -0.000 C 
BRANCH  12  13
ATOM     13  C   UNL     1      26.733  -0.657   1.614  1.00  0.00    -0.000 C 
BRANCH  13  14
ATOM     14  C   UNL     1      27.858  -1.129   0.671  1.00  0.00    -0.000 C 
BRANCH  14  15
ATOM     15  C   UNL     1      28.165  -0.183  -0.505  1.00  0.00    -0.000 C 
BRANCH  15  16
ATOM     16  C   UNL     1      27.960  -0.850  -1.876  1.00  0.00    -0.000 C 
BRANCH  16  17
ATOM     17  C   UNL     1      26.541  -1.414  -2.050  1.00  0.00    -0.003 C 
ATOM     18  C   UNL     1      25.470  -0.325  -2.085  1.00  0.00     0.004 C 
ENDBRANCH  16  17
ENDBRANCH  15  16
ENDBRANCH  14  15
ENDBRANCH  13  14
ENDBRANCH  12  13
ENDBRANCH  11  12
ENDBRANCH   1  11
TORSDOF 14
ENDMDL
MODEL 9
REMARK VINA RESULT:    -3.630      3.137      5.806
REMARK INTER + INTRA:          -8.833
REMARK INTER:                  -6.625
REMARK INTRA:                  -2.208
REMARK UNBOUND:                -2.232
REMARK SMILES CCCCCCCCCCCCCCCC(=O)[O-]
REMARK SMILES IDX 9 1 10 2 11 3 12 4 13 5 14 6 15 7 16 8 17 9 18 10 8 11 7 12
REMARK SMILES IDX 6 13 5 14 4 15 3 16 2 17 1 18
REMARK H PARENT
REMARK Flexibility Score: inf
ROOT
ATOM      1  C   UNL     1      21.310  -0.749   4.204  1.00  0.00     0.000 C 
ENDROOT
BRANCH   1   2
ATOM      2  C   UNL     1      22.647  -0.749   4.960  1.00  0.00     0.000 C 
BRANCH   2   3
ATOM      3  C   UNL     1      23.577   0.351   4.430  1.00  0.00     0.000 C 
BRANCH   3   4
ATOM      4  C   UNL     1      24.991  -0.196   4.185  1.00  0.00     0.000 C 
BRANCH   4   5
ATOM      5  C   UNL     1      25.262  -1.502   4.948  1.00  0.00     0.000 C 
BRANCH   5   6
ATOM      6  C   UNL     1      25.884  -2.590   4.060  1.00  0.00     0.006 C 
BRANCH   6   7
ATOM      7  C   UNL     1      27.030  -2.021   3.219  1.00  0.00     0.053 C 
BRANCH   7   8
ATOM      8  C   UNL     1      28.305  -2.015   4.001  1.00  0.00     0.041 C 
ATOM      9  O   UNL     1      29.051  -3.029   4.003  1.00  0.00    -0.550 OA
ATOM     10  O   UNL     1      28.645  -0.907   4.767  1.00  0.00    -0.550 OA
ENDBRANCH   7   8
ENDBRANCH   6   7
ENDBRANCH   5   6
ENDBRANCH   4   5
ENDBRANCH   3   4
ENDBRANCH   2   3
ENDBRANCH   1   2
BRANCH   1  11
ATOM     11  C   UNL     1      21.487  -0.810   2.676  1.00  0.00     0.000 C 
BRANCH  11  12
ATOM     12  C   UNL     1      22.066  -2.137   2.141  1.00  0.00    -0.000 C 
BRANCH  12  13
ATOM     13  C   UNL     1      23.375  -2.000   1.338  1.00  0.00    -0.000 C 
BRANCH  13  14
ATOM     14  C   UNL     1      23.615  -0.612   0.711  1.00  0.00    -0.000 C 
BRANCH  14  15
ATOM     15  C   UNL     1      23.211  -0.483  -0.769  1.00  0.00    -0.000 C 
BRANCH  15  16
ATOM     16  C   UNL     1      21.709  -0.206  -0.955  1.00  0.00    -0.000 C 
BRANCH  16  17
ATOM     17  C   UNL     1      20.983  -1.359  -1.667  1.00  0.00    -0.003 C 
ATOM     18  C   UNL     1      19.788  -1.887  -0.874  1.00  0.00     0.004 C 
ENDBRANCH  16  17
ENDBRANCH  15  16
ENDBRANCH  14  15
ENDBRANCH  13  14
ENDBRANCH  12  13
ENDBRANCH  11  12
ENDBRANCH   1  11
TORSDOF 14
ENDMDL
