MODEL 1
REMARK VINA RESULT:    11.453      0.000      0.000
REMARK INTER + INTRA:          12.257
REMARK INTER:                  12.458
REMARK INTRA:                  -0.200
REMARK UNBOUND:                -0.200
REMARK SMILES CC1=C2C[C@H](C(C)(C)O)CC[C@]2(C)CCC1
REMARK SMILES IDX 6 1 7 2 8 3 5 4 1 5 2 6 3 7 16 8 4 9 12 10 15 11 11 12 14 13
REMARK SMILES IDX 13 14 10 15 9 16
REMARK H PARENT 9 17
REMARK Flexibility Score: inf
ROOT
ATOM      1  C   UNL     1     -33.090  24.578   6.479  1.00  0.00     0.062 C 
ATOM      2  C   UNL     1     -32.066  24.196   7.578  1.00  0.00     0.042 C 
ATOM      3  C   UNL     1     -33.112  26.121   6.401  1.00  0.00     0.042 C 
ENDROOT
BRANCH   1   4
ATOM      4  C   UNL     1     -34.525  24.020   6.816  1.00  0.00     0.024 C 
ATOM      5  C   UNL     1     -37.220  23.006   3.508  1.00  0.00     0.039 C 
ATOM      6  C   UNL     1     -37.537  22.699   4.955  1.00  0.00    -0.074 C 
ATOM      7  C   UNL     1     -36.605  22.850   5.941  1.00  0.00    -0.065 C 
ATOM      8  C   UNL     1     -38.962  22.279   5.280  1.00  0.00     0.031 C 
ATOM      9  C   UNL     1     -35.172  23.270   5.627  1.00  0.00     0.038 C 
ATOM     10  C   UNL     1     -36.940  22.422   7.370  1.00  0.00    -0.011 C 
ATOM     11  C   UNL     1     -39.120  21.371   6.519  1.00  0.00     0.005 C 
ATOM     12  C   UNL     1     -35.637  22.052   8.125  1.00  0.00     0.011 C 
ATOM     13  C   UNL     1     -37.823  21.152   7.309  1.00  0.00     0.011 C 
ATOM     14  C   UNL     1     -37.680  23.553   8.125  1.00  0.00     0.016 C 
ATOM     15  C   UNL     1     -34.562  23.156   8.115  1.00  0.00     0.008 C 
ENDBRANCH   1   4
BRANCH   1  16
ATOM     16  O   UNL     1     -32.652  24.104   5.226  1.00  0.00    -0.390 OA
ATOM     17  H   UNL     1     -33.341  24.318   4.546  1.00  0.00     0.211 HD
ENDBRANCH   1  16
TORSDOF 2
ENDMDL
