MODEL 1
REMARK VINA RESULT:    -3.432      0.000      0.000
REMARK INTER + INTRA:          -3.501
REMARK INTER:                  -3.733
REMARK INTRA:                   0.232
REMARK UNBOUND:                 0.232
REMARK SMILES COc1cc2ccc(=O)oc2cc1O
REMARK SMILES IDX 3 1 13 2 12 3 11 4 5 5 4 6 6 7 7 8 8 9 9 10 10 11 2 12 1 13
REMARK SMILES IDX 14 14
REMARK H PARENT 14 15
REMARK Flexibility Score: inf
ROOT
ATOM      1  C   UNL     1      11.600  -3.170  10.867  1.00  0.00     0.161 A 
ATOM      2  C   UNL     1      11.221  -1.812  10.867  1.00  0.00     0.161 A 
ATOM      3  C   UNL     1      12.097  -0.837  11.356  1.00  0.00     0.098 A 
ATOM      4  C   UNL     1      13.354  -1.197  11.848  1.00  0.00     0.142 A 
ATOM      5  C   UNL     1      13.741  -2.553  11.852  1.00  0.00     0.022 A 
ATOM      6  C   UNL     1      12.868  -3.534  11.363  1.00  0.00     0.062 A 
ATOM      7  C   UNL     1      15.006  -2.883  12.352  1.00  0.00     0.019 A 
ATOM      8  C   UNL     1      15.840  -1.871  12.826  1.00  0.00     0.094 A 
ATOM      9  C   UNL     1      15.388  -0.548  12.792  1.00  0.00     0.336 A 
ATOM     10  O   UNL     1      16.125   0.380  13.215  1.00  0.00    -0.246 OA
ATOM     11  O   UNL     1      14.180  -0.262  12.311  1.00  0.00    -0.423 OA
ENDROOT
BRANCH   1  12
ATOM     12  O   UNL     1      10.696  -4.123  10.369  1.00  0.00    -0.493 OA
ATOM     13  C   UNL     1      10.170  -4.125   9.046  1.00  0.00     0.278 C 
ENDBRANCH   1  12
BRANCH   2  14
ATOM     14  O   UNL     1       9.975  -1.414  10.384  1.00  0.00    -0.504 OA
ATOM     15  H   UNL     1       9.413  -0.714  10.852  1.00  0.00     0.293 HD
ENDBRANCH   2  14
TORSDOF 2
ENDMDL
MODEL 2
REMARK VINA RESULT:    -2.809      1.395      5.383
REMARK INTER + INTRA:          -2.823
REMARK INTER:                  -2.779
REMARK INTRA:                  -0.044
REMARK UNBOUND:                 0.232
REMARK SMILES COc1cc2ccc(=O)oc2cc1O
REMARK SMILES IDX 3 1 13 2 12 3 11 4 5 5 4 6 6 7 7 8 8 9 9 10 10 11 2 12 1 13
REMARK SMILES IDX 14 14
REMARK H PARENT 14 15
REMARK Flexibility Score: inf
ROOT
ATOM      1  C   UNL     1      14.929  -1.529  12.599  1.00  0.00     0.161 A 
ATOM      2  C   UNL     1      15.018  -2.935  12.621  1.00  0.00     0.161 A 
ATOM      3  C   UNL     1      13.988  -3.715  12.084  1.00  0.00     0.098 A 
ATOM      4  C   UNL     1      12.863  -3.109  11.519  1.00  0.00     0.142 A 
ATOM      5  C   UNL     1      12.764  -1.703  11.493  1.00  0.00     0.022 A 
ATOM      6  C   UNL     1      13.793  -0.917  12.030  1.00  0.00     0.062 A 
ATOM      7  C   UNL     1      11.625  -1.125  10.921  1.00  0.00     0.019 A 
ATOM      8  C   UNL     1      10.629  -1.949  10.399  1.00  0.00     0.094 A 
ATOM      9  C   UNL     1      10.795  -3.336  10.461  1.00  0.00     0.336 A 
ATOM     10  O   UNL     1       9.907  -4.097   9.995  1.00  0.00    -0.246 OA
ATOM     11  O   UNL     1      11.889  -3.859  11.010  1.00  0.00    -0.423 OA
ENDROOT
BRANCH   1  12
ATOM     12  O   UNL     1      15.980  -0.776  13.148  1.00  0.00    -0.493 OA
ATOM     13  C   UNL     1      16.125   0.633  13.008  1.00  0.00     0.278 C 
ENDBRANCH   1  12
BRANCH   2  14
ATOM     14  O   UNL     1      16.125  -3.576  13.176  1.00  0.00    -0.504 OA
ATOM     15  H   UNL     1      17.074  -3.333  12.922  1.00  0.00     0.293 HD
ENDBRANCH   2  14
TORSDOF 2
ENDMDL
MODEL 3
REMARK VINA RESULT:    -2.676      1.390      4.886
REMARK INTER + INTRA:          -2.678
REMARK INTER:                  -2.618
REMARK INTRA:                  -0.061
REMARK UNBOUND:                 0.232
REMARK SMILES COc1cc2ccc(=O)oc2cc1O
REMARK SMILES IDX 3 1 13 2 12 3 11 4 5 5 4 6 6 7 7 8 8 9 9 10 10 11 2 12 1 13
REMARK SMILES IDX 14 14
REMARK H PARENT 14 15
REMARK Flexibility Score: inf
ROOT
ATOM      1  C   UNL     1      14.833  -2.490  12.693  1.00  0.00     0.161 A 
ATOM      2  C   UNL     1      14.516  -1.131  12.493  1.00  0.00     0.161 A 
ATOM      3  C   UNL     1      13.326  -0.773  11.850  1.00  0.00     0.098 A 
ATOM      4  C   UNL     1      12.440  -1.756  11.401  1.00  0.00     0.142 A 
ATOM      5  C   UNL     1      12.749  -3.118  11.597  1.00  0.00     0.022 A 
ATOM      6  C   UNL     1      13.940  -3.482  12.240  1.00  0.00     0.062 A 
ATOM      7  C   UNL     1      11.843  -4.079  11.136  1.00  0.00     0.019 A 
ATOM      8  C   UNL     1      10.670  -3.668  10.503  1.00  0.00     0.094 A 
ATOM      9  C   UNL     1      10.431  -2.298  10.344  1.00  0.00     0.336 A 
ATOM     10  O   UNL     1       9.379  -1.906   9.776  1.00  0.00    -0.246 OA
ATOM     11  O   UNL     1      11.310  -1.405  10.792  1.00  0.00    -0.423 OA
ENDROOT
BRANCH   1  12
ATOM     12  O   UNL     1      16.037  -2.815  13.340  1.00  0.00    -0.493 OA
ATOM     13  C   UNL     1      16.125  -3.435  14.619  1.00  0.00     0.278 C 
ENDBRANCH   1  12
BRANCH   2  14
ATOM     14  O   UNL     1      15.374  -0.122  12.926  1.00  0.00    -0.504 OA
ATOM     15  H   UNL     1      16.367  -0.274  13.056  1.00  0.00     0.293 HD
ENDBRANCH   2  14
TORSDOF 2
ENDMDL
