MODEL 1
REMARK VINA RESULT:    -2.288      0.000      0.000
REMARK INTER + INTRA:         -11.559
REMARK INTER:                  -5.765
REMARK INTRA:                  -5.794
REMARK UNBOUND:                -5.794
REMARK SMILES CCCCCCCCCCCCCCCCCCCCCCCCCCCC(=O)[O-]
REMARK SMILES IDX 15 1 16 2 17 3 18 4 19 5 20 6 21 7 22 8 23 9 24 10 25 11
REMARK SMILES IDX 26 12 27 13 28 14 29 15 30 16 14 17 13 18 12 19 11 20 10 21
REMARK SMILES IDX 9 22 8 23 7 24 6 25 5 26 4 27 3 28 2 29 1 30
REMARK H PARENT
REMARK Flexibility Score: inf
ROOT
ATOM      1  C   UNL     1      57.630 -34.799  25.491  1.00  0.00     0.000 C 
ENDROOT
BRANCH   1   2
ATOM      2  C   UNL     1      56.321 -35.023  26.271  1.00  0.00     0.000 C 
BRANCH   2   3
ATOM      3  C   UNL     1      55.961 -36.509  26.427  1.00  0.00     0.000 C 
BRANCH   3   4
ATOM      4  C   UNL     1      54.444 -36.723  26.315  1.00  0.00     0.000 C 
BRANCH   4   5
ATOM      5  C   UNL     1      53.631 -35.468  26.679  1.00  0.00     0.000 C 
BRANCH   5   6
ATOM      6  C   UNL     1      52.163 -35.483  26.216  1.00  0.00     0.000 C 
BRANCH   6   7
ATOM      7  C   UNL     1      51.912 -36.457  25.052  1.00  0.00     0.000 C 
BRANCH   7   8
ATOM      8  C   UNL     1      50.641 -36.111  24.256  1.00  0.00     0.000 C 
BRANCH   8   9
ATOM      9  C   UNL     1      50.861 -34.970  23.252  1.00  0.00     0.000 C 
BRANCH   9  10
ATOM     10  C   UNL     1      49.957 -33.772  23.578  1.00  0.00     0.000 C 
BRANCH  10  11
ATOM     11  C   UNL     1      50.358 -32.500  22.815  1.00  0.00     0.000 C 
BRANCH  11  12
ATOM     12  C   UNL     1      50.662 -31.317  23.752  1.00  0.00     0.006 C 
BRANCH  12  13
ATOM     13  C   UNL     1      51.360 -30.163  23.020  1.00  0.00     0.053 C 
BRANCH  13  14
ATOM     14  C   UNL     1      51.432 -28.930  23.867  1.00  0.00     0.041 C 
ATOM     15  O   UNL     1      50.724 -28.829  24.903  1.00  0.00    -0.550 OA
ATOM     16  O   UNL     1      52.262 -27.879  23.496  1.00  0.00    -0.550 OA
ENDBRANCH  13  14
ENDBRANCH  12  13
ENDBRANCH  11  12
ENDBRANCH  10  11
ENDBRANCH   9  10
ENDBRANCH   8   9
ENDBRANCH   7   8
ENDBRANCH   6   7
ENDBRANCH   5   6
ENDBRANCH   4   5
ENDBRANCH   3   4
ENDBRANCH   2   3
ENDBRANCH   1   2
BRANCH   1  17
ATOM     17  C   UNL     1      58.131 -36.013  24.687  1.00  0.00     0.000 C 
BRANCH  17  18
ATOM     18  C   UNL     1      57.852 -35.892  23.180  1.00  0.00     0.000 C 
BRANCH  18  19
ATOM     19  C   UNL     1      56.661 -36.752  22.720  1.00  0.00     0.000 C 
BRANCH  19  20
ATOM     20  C   UNL     1      55.532 -35.982  22.007  1.00  0.00     0.000 C 
BRANCH  20  21
ATOM     21  C   UNL     1      54.579 -35.207  22.936  1.00  0.00     0.000 C 
BRANCH  21  22
ATOM     22  C   UNL     1      54.935 -33.720  23.142  1.00  0.00    -0.000 C 
BRANCH  22  23
ATOM     23  C   UNL     1      53.982 -32.945  24.071  1.00  0.00    -0.000 C 
BRANCH  23  24
ATOM     24  C   UNL     1      54.537 -31.613  24.607  1.00  0.00    -0.000 C 
BRANCH  24  25
ATOM     25  C   UNL     1      53.777 -31.073  25.838  1.00  0.00    -0.000 C 
BRANCH  25  26
ATOM     26  C   UNL     1      54.058 -31.889  27.108  1.00  0.00    -0.000 C 
BRANCH  26  27
ATOM     27  C   UNL     1      52.767 -32.130  27.905  1.00  0.00    -0.000 C 
BRANCH  27  28
ATOM     28  C   UNL     1      51.584 -31.302  27.378  1.00  0.00    -0.000 C 
BRANCH  28  29
ATOM     29  C   UNL     1      50.294 -32.127  27.254  1.00  0.00    -0.003 C 
ATOM     30  C   UNL     1      50.275 -33.272  28.261  1.00  0.00     0.004 C 
ENDBRANCH  28  29
ENDBRANCH  27  28
ENDBRANCH  26  27
ENDBRANCH  25  26
ENDBRANCH  24  25
ENDBRANCH  23  24
ENDBRANCH  22  23
ENDBRANCH  21  22
ENDBRANCH  20  21
ENDBRANCH  19  20
ENDBRANCH  18  19
ENDBRANCH  17  18
ENDBRANCH   1  17
TORSDOF 26
ENDMDL
MODEL 2
REMARK VINA RESULT:    -2.233      2.381      6.149
REMARK INTER + INTRA:         -11.420
REMARK INTER:                  -5.741
REMARK INTRA:                  -5.679
REMARK UNBOUND:                -5.794
REMARK SMILES CCCCCCCCCCCCCCCCCCCCCCCCCCCC(=O)[O-]
REMARK SMILES IDX 15 1 16 2 17 3 18 4 19 5 20 6 21 7 22 8 23 9 24 10 25 11
REMARK SMILES IDX 26 12 27 13 28 14 29 15 30 16 14 17 13 18 12 19 11 20 10 21
REMARK SMILES IDX 9 22 8 23 7 24 6 25 5 26 4 27 3 28 2 29 1 30
REMARK H PARENT
REMARK Flexibility Score: inf
ROOT
ATOM      1  C   UNL     1      55.010 -33.140  23.129  1.00  0.00     0.000 C 
ENDROOT
BRANCH   1   2
ATOM      2  C   UNL     1      54.102 -34.327  23.501  1.00  0.00     0.000 C 
BRANCH   2   3
ATOM      3  C   UNL     1      54.515 -35.638  22.815  1.00  0.00     0.000 C 
BRANCH   3   4
ATOM      4  C   UNL     1      55.778 -35.440  21.964  1.00  0.00     0.000 C 
BRANCH   4   5
ATOM      5  C   UNL     1      56.959 -36.312  22.426  1.00  0.00     0.000 C 
BRANCH   5   6
ATOM      6  C   UNL     1      56.833 -36.883  23.850  1.00  0.00     0.000 C 
BRANCH   6   7
ATOM      7  C   UNL     1      57.914 -36.350  24.806  1.00  0.00     0.000 C 
BRANCH   7   8
ATOM      8  C   UNL     1      58.001 -34.814  24.801  1.00  0.00     0.000 C 
BRANCH   8   9
ATOM      9  C   UNL     1      57.918 -34.209  26.211  1.00  0.00     0.000 C 
BRANCH   9  10
ATOM     10  C   UNL     1      57.003 -35.051  27.113  1.00  0.00     0.000 C 
BRANCH  10  11
ATOM     11  C   UNL     1      55.519 -34.679  26.965  1.00  0.00     0.000 C 
BRANCH  11  12
ATOM     12  C   UNL     1      54.578 -35.773  27.498  1.00  0.00     0.006 C 
BRANCH  12  13
ATOM     13  C   UNL     1      53.955 -36.603  26.367  1.00  0.00     0.053 C 
BRANCH  13  14
ATOM     14  C   UNL     1      52.500 -36.298  26.189  1.00  0.00     0.041 C 
ATOM     15  O   UNL     1      51.884 -35.617  27.051  1.00  0.00    -0.550 OA
ATOM     16  O   UNL     1      51.816 -36.790  25.084  1.00  0.00    -0.550 OA
ENDBRANCH  13  14
ENDBRANCH  12  13
ENDBRANCH  11  12
ENDBRANCH  10  11
ENDBRANCH   9  10
ENDBRANCH   8   9
ENDBRANCH   7   8
ENDBRANCH   6   7
ENDBRANCH   5   6
ENDBRANCH   4   5
ENDBRANCH   3   4
ENDBRANCH   2   3
ENDBRANCH   1   2
BRANCH   1  17
ATOM     17  C   UNL     1      55.439 -32.249  24.309  1.00  0.00     0.000 C 
BRANCH  17  18
ATOM     18  C   UNL     1      54.424 -31.136  24.620  1.00  0.00     0.000 C 
BRANCH  18  19
ATOM     19  C   UNL     1      53.873 -31.215  26.056  1.00  0.00     0.000 C 
BRANCH  19  20
ATOM     20  C   UNL     1      52.824 -32.320  26.296  1.00  0.00     0.000 C 
BRANCH  20  21
ATOM     21  C   UNL     1      51.397 -31.817  26.584  1.00  0.00     0.000 C 
BRANCH  21  22
ATOM     22  C   UNL     1      50.326 -32.284  25.577  1.00  0.00    -0.000 C 
BRANCH  22  23
ATOM     23  C   UNL     1      50.870 -33.058  24.361  1.00  0.00    -0.000 C 
BRANCH  23  24
ATOM     24  C   UNL     1      51.147 -32.199  23.114  1.00  0.00    -0.000 C 
BRANCH  24  25
ATOM     25  C   UNL     1      49.911 -31.429  22.601  1.00  0.00    -0.000 C 
BRANCH  25  26
ATOM     26  C   UNL     1      50.056 -29.909  22.760  1.00  0.00    -0.000 C 
BRANCH  26  27
ATOM     27  C   UNL     1      51.444 -29.542  23.306  1.00  0.00    -0.000 C 
BRANCH  27  28
ATOM     28  C   UNL     1      51.370 -28.676  24.574  1.00  0.00    -0.000 C 
BRANCH  28  29
ATOM     29  C   UNL     1      52.654 -27.867  24.813  1.00  0.00    -0.003 C 
ATOM     30  C   UNL     1      53.061 -27.098  23.560  1.00  0.00     0.004 C 
ENDBRANCH  28  29
ENDBRANCH  27  28
ENDBRANCH  26  27
ENDBRANCH  25  26
ENDBRANCH  24  25
ENDBRANCH  23  24
ENDBRANCH  22  23
ENDBRANCH  21  22
ENDBRANCH  20  21
ENDBRANCH  19  20
ENDBRANCH  18  19
ENDBRANCH  17  18
ENDBRANCH   1  17
TORSDOF 26
ENDMDL
MODEL 3
REMARK VINA RESULT:    -2.220      2.067      5.775
REMARK INTER + INTRA:         -11.389
REMARK INTER:                  -5.594
REMARK INTRA:                  -5.795
REMARK UNBOUND:                -5.794
REMARK SMILES CCCCCCCCCCCCCCCCCCCCCCCCCCCC(=O)[O-]
REMARK SMILES IDX 15 1 16 2 17 3 18 4 19 5 20 6 21 7 22 8 23 9 24 10 25 11
REMARK SMILES IDX 26 12 27 13 28 14 29 15 30 16 14 17 13 18 12 19 11 20 10 21
REMARK SMILES IDX 9 22 8 23 7 24 6 25 5 26 4 27 3 28 2 29 1 30
REMARK H PARENT
REMARK Flexibility Score: inf
ROOT
ATOM      1  C   UNL     1      53.612 -32.594  23.894  1.00  0.00     0.000 C 
ENDROOT
BRANCH   1   2
ATOM      2  C   UNL     1      54.771 -33.465  23.375  1.00  0.00     0.000 C 
BRANCH   2   3
ATOM      3  C   UNL     1      54.353 -34.916  23.091  1.00  0.00     0.000 C 
BRANCH   3   4
ATOM      4  C   UNL     1      55.183 -35.514  21.946  1.00  0.00     0.000 C 
BRANCH   4   5
ATOM      5  C   UNL     1      55.887 -36.827  22.335  1.00  0.00     0.000 C 
BRANCH   5   6
ATOM      6  C   UNL     1      57.276 -36.658  22.979  1.00  0.00     0.000 C 
BRANCH   6   7
ATOM      7  C   UNL     1      57.230 -36.678  24.516  1.00  0.00     0.000 C 
BRANCH   7   8
ATOM      8  C   UNL     1      57.794 -35.390  25.140  1.00  0.00     0.000 C 
BRANCH   8   9
ATOM      9  C   UNL     1      58.528 -34.507  24.120  1.00  0.00     0.000 C 
BRANCH   9  10
ATOM     10  C   UNL     1      58.267 -33.019  24.399  1.00  0.00     0.000 C 
BRANCH  10  11
ATOM     11  C   UNL     1      57.478 -32.788  25.697  1.00  0.00     0.000 C 
BRANCH  11  12
ATOM     12  C   UNL     1      57.232 -31.296  25.984  1.00  0.00     0.006 C 
BRANCH  12  13
ATOM     13  C   UNL     1      56.507 -30.595  24.827  1.00  0.00     0.053 C 
BRANCH  13  14
ATOM     14  C   UNL     1      57.240 -29.372  24.370  1.00  0.00     0.041 C 
ATOM     15  O   UNL     1      56.823 -28.227  24.687  1.00  0.00    -0.550 OA
ATOM     16  O   UNL     1      58.368 -29.496  23.569  1.00  0.00    -0.550 OA
ENDBRANCH  13  14
ENDBRANCH  12  13
ENDBRANCH  11  12
ENDBRANCH  10  11
ENDBRANCH   9  10
ENDBRANCH   8   9
ENDBRANCH   7   8
ENDBRANCH   6   7
ENDBRANCH   5   6
ENDBRANCH   4   5
ENDBRANCH   3   4
ENDBRANCH   2   3
ENDBRANCH   1   2
BRANCH   1  17
ATOM     17  C   UNL     1      52.269 -33.326  24.070  1.00  0.00     0.000 C 
BRANCH  17  18
ATOM     18  C   UNL     1      51.064 -32.490  23.607  1.00  0.00     0.000 C 
BRANCH  18  19
ATOM     19  C   UNL     1      51.471 -31.282  22.743  1.00  0.00     0.000 C 
BRANCH  19  20
ATOM     20  C   UNL     1      50.538 -30.059  22.845  1.00  0.00     0.000 C 
BRANCH  20  21
ATOM     21  C   UNL     1      50.963 -28.994  23.874  1.00  0.00     0.000 C 
BRANCH  21  22
ATOM     22  C   UNL     1      52.463 -28.636  23.860  1.00  0.00    -0.000 C 
BRANCH  22  23
ATOM     23  C   UNL     1      53.237 -29.028  25.132  1.00  0.00    -0.000 C 
BRANCH  23  24
ATOM     24  C   UNL     1      52.479 -29.964  26.092  1.00  0.00    -0.000 C 
BRANCH  24  25
ATOM     25  C   UNL     1      53.356 -30.529  27.230  1.00  0.00    -0.000 C 
BRANCH  25  26
ATOM     26  C   UNL     1      53.005 -31.984  27.575  1.00  0.00    -0.000 C 
BRANCH  26  27
ATOM     27  C   UNL     1      54.264 -32.864  27.596  1.00  0.00    -0.000 C 
BRANCH  27  28
ATOM     28  C   UNL     1      53.943 -34.350  27.820  1.00  0.00    -0.000 C 
BRANCH  28  29
ATOM     29  C   UNL     1      54.561 -35.257  26.744  1.00  0.00    -0.003 C 
ATOM     30  C   UNL     1      53.562 -36.310  26.273  1.00  0.00     0.004 C 
ENDBRANCH  28  29
ENDBRANCH  27  28
ENDBRANCH  26  27
ENDBRANCH  25  26
ENDBRANCH  24  25
ENDBRANCH  23  24
ENDBRANCH  22  23
ENDBRANCH  21  22
ENDBRANCH  20  21
ENDBRANCH  19  20
ENDBRANCH  18  19
ENDBRANCH  17  18
ENDBRANCH   1  17
TORSDOF 26
ENDMDL
MODEL 4
REMARK VINA RESULT:    -2.214      1.924      4.512
REMARK INTER + INTRA:         -11.373
REMARK INTER:                  -5.955
REMARK INTRA:                  -5.418
REMARK UNBOUND:                -5.794
REMARK SMILES CCCCCCCCCCCCCCCCCCCCCCCCCCCC(=O)[O-]
REMARK SMILES IDX 15 1 16 2 17 3 18 4 19 5 20 6 21 7 22 8 23 9 24 10 25 11
REMARK SMILES IDX 26 12 27 13 28 14 29 15 30 16 14 17 13 18 12 19 11 20 10 21
REMARK SMILES IDX 9 22 8 23 7 24 6 25 5 26 4 27 3 28 2 29 1 30
REMARK H PARENT
REMARK Flexibility Score: inf
ROOT
ATOM      1  C   UNL     1      54.681 -33.012  26.319  1.00  0.00     0.000 C 
ENDROOT
BRANCH   1   2
ATOM      2  C   UNL     1      53.646 -33.958  26.955  1.00  0.00     0.000 C 
BRANCH   2   3
ATOM      3  C   UNL     1      54.038 -35.439  26.844  1.00  0.00     0.000 C 
BRANCH   3   4
ATOM      4  C   UNL     1      52.963 -36.238  26.093  1.00  0.00     0.000 C 
BRANCH   4   5
ATOM      5  C   UNL     1      51.875 -35.345  25.469  1.00  0.00     0.000 C 
BRANCH   5   6
ATOM      6  C   UNL     1      51.328 -35.830  24.114  1.00  0.00     0.000 C 
BRANCH   6   7
ATOM      7  C   UNL     1      51.171 -34.693  23.090  1.00  0.00     0.000 C 
BRANCH   7   8
ATOM      8  C   UNL     1      51.380 -33.303  23.715  1.00  0.00     0.000 C 
BRANCH   8   9
ATOM      9  C   UNL     1      50.744 -32.177  22.886  1.00  0.00     0.000 C 
BRANCH   9  10
ATOM     10  C   UNL     1      51.486 -30.850  23.106  1.00  0.00     0.000 C 
BRANCH  10  11
ATOM     11  C   UNL     1      52.012 -30.696  24.543  1.00  0.00     0.000 C 
BRANCH  11  12
ATOM     12  C   UNL     1      53.430 -30.098  24.594  1.00  0.00     0.006 C 
BRANCH  12  13
ATOM     13  C   UNL     1      53.521 -28.906  25.557  1.00  0.00     0.053 C 
BRANCH  13  14
ATOM     14  C   UNL     1      53.590 -27.603  24.823  1.00  0.00     0.041 C 
ATOM     15  O   UNL     1      52.655 -26.766  24.925  1.00  0.00    -0.550 OA
ATOM     16  O   UNL     1      54.676 -27.324  24.002  1.00  0.00    -0.550 OA
ENDBRANCH  13  14
ENDBRANCH  12  13
ENDBRANCH  11  12
ENDBRANCH  10  11
ENDBRANCH   9  10
ENDBRANCH   8   9
ENDBRANCH   7   8
ENDBRANCH   6   7
ENDBRANCH   5   6
ENDBRANCH   4   5
ENDBRANCH   3   4
ENDBRANCH   2   3
ENDBRANCH   1   2
BRANCH   1  17
ATOM     17  C   UNL     1      55.568 -33.646  25.232  1.00  0.00     0.000 C 
BRANCH  17  18
ATOM     18  C   UNL     1      55.349 -33.026  23.841  1.00  0.00     0.000 C 
BRANCH  18  19
ATOM     19  C   UNL     1      54.815 -34.040  22.813  1.00  0.00     0.000 C 
BRANCH  19  20
ATOM     20  C   UNL     1      54.993 -35.522  23.198  1.00  0.00     0.000 C 
BRANCH  20  21
ATOM     21  C   UNL     1      55.833 -36.359  22.215  1.00  0.00     0.000 C 
BRANCH  21  22
ATOM     22  C   UNL     1      57.205 -36.813  22.754  1.00  0.00    -0.000 C 
BRANCH  22  23
ATOM     23  C   UNL     1      57.341 -36.794  24.287  1.00  0.00    -0.000 C 
BRANCH  23  24
ATOM     24  C   UNL     1      58.510 -35.947  24.826  1.00  0.00    -0.000 C 
BRANCH  24  25
ATOM     25  C   UNL     1      59.033 -34.899  23.821  1.00  0.00    -0.000 C 
BRANCH  25  26
ATOM     26  C   UNL     1      59.108 -33.489  24.427  1.00  0.00    -0.000 C 
BRANCH  26  27
ATOM     27  C   UNL     1      59.706 -32.490  23.425  1.00  0.00    -0.000 C 
BRANCH  27  28
ATOM     28  C   UNL     1      58.959 -31.147  23.413  1.00  0.00    -0.000 C 
BRANCH  28  29
ATOM     29  C   UNL     1      58.237 -30.859  24.738  1.00  0.00    -0.003 C 
ATOM     30  C   UNL     1      57.166 -29.788  24.560  1.00  0.00     0.004 C 
ENDBRANCH  28  29
ENDBRANCH  27  28
ENDBRANCH  26  27
ENDBRANCH  25  26
ENDBRANCH  24  25
ENDBRANCH  23  24
ENDBRANCH  22  23
ENDBRANCH  21  22
ENDBRANCH  20  21
ENDBRANCH  19  20
ENDBRANCH  18  19
ENDBRANCH  17  18
ENDBRANCH   1  17
TORSDOF 26
ENDMDL
MODEL 5
REMARK VINA RESULT:    -2.171      2.906      6.352
REMARK INTER + INTRA:         -11.264
REMARK INTER:                  -5.951
REMARK INTRA:                  -5.313
REMARK UNBOUND:                -5.794
REMARK SMILES CCCCCCCCCCCCCCCCCCCCCCCCCCCC(=O)[O-]
REMARK SMILES IDX 15 1 16 2 17 3 18 4 19 5 20 6 21 7 22 8 23 9 24 10 25 11
REMARK SMILES IDX 26 12 27 13 28 14 29 15 30 16 14 17 13 18 12 19 11 20 10 21
REMARK SMILES IDX 9 22 8 23 7 24 6 25 5 26 4 27 3 28 2 29 1 30
REMARK H PARENT
REMARK Flexibility Score: inf
ROOT
ATOM      1  C   UNL     1      56.194 -32.535  24.163  1.00  0.00     0.000 C 
ENDROOT
BRANCH   1   2
ATOM      2  C   UNL     1      54.986 -33.072  23.372  1.00  0.00     0.000 C 
BRANCH   2   3
ATOM      3  C   UNL     1      54.462 -34.411  23.912  1.00  0.00     0.000 C 
BRANCH   3   4
ATOM      4  C   UNL     1      54.029 -35.336  22.765  1.00  0.00     0.000 C 
BRANCH   4   5
ATOM      5  C   UNL     1      55.199 -35.763  21.861  1.00  0.00     0.000 C 
BRANCH   5   6
ATOM      6  C   UNL     1      56.260 -36.649  22.538  1.00  0.00     0.000 C 
BRANCH   6   7
ATOM      7  C   UNL     1      57.641 -35.975  22.617  1.00  0.00     0.000 C 
BRANCH   7   8
ATOM      8  C   UNL     1      58.320 -36.178  23.983  1.00  0.00     0.000 C 
BRANCH   8   9
ATOM      9  C   UNL     1      57.339 -36.642  25.070  1.00  0.00     0.000 C 
BRANCH   9  10
ATOM     10  C   UNL     1      57.201 -35.578  26.170  1.00  0.00     0.000 C 
BRANCH  10  11
ATOM     11  C   UNL     1      55.843 -35.640  26.888  1.00  0.00     0.000 C 
BRANCH  11  12
ATOM     12  C   UNL     1      55.504 -34.334  27.630  1.00  0.00     0.006 C 
BRANCH  12  13
ATOM     13  C   UNL     1      56.727 -33.419  27.777  1.00  0.00     0.053 C 
BRANCH  13  14
ATOM     14  C   UNL     1      57.199 -33.345  29.196  1.00  0.00     0.041 C 
ATOM     15  O   UNL     1      58.430 -33.282  29.453  1.00  0.00    -0.550 OA
ATOM     16  O   UNL     1      56.279 -33.375  30.237  1.00  0.00    -0.550 OA
ENDBRANCH  13  14
ENDBRANCH  12  13
ENDBRANCH  11  12
ENDBRANCH  10  11
ENDBRANCH   9  10
ENDBRANCH   8   9
ENDBRANCH   7   8
ENDBRANCH   6   7
ENDBRANCH   5   6
ENDBRANCH   4   5
ENDBRANCH   3   4
ENDBRANCH   2   3
ENDBRANCH   1   2
BRANCH   1  17
ATOM     17  C   UNL     1      55.956 -31.204  24.898  1.00  0.00     0.000 C 
BRANCH  17  18
ATOM     18  C   UNL     1      54.485 -30.755  24.866  1.00  0.00     0.000 C 
BRANCH  18  19
ATOM     19  C   UNL     1      53.781 -30.917  26.226  1.00  0.00     0.000 C 
BRANCH  19  20
ATOM     20  C   UNL     1      52.852 -32.142  26.342  1.00  0.00     0.000 C 
BRANCH  20  21
ATOM     21  C   UNL     1      51.472 -31.983  25.677  1.00  0.00     0.000 C 
BRANCH  21  22
ATOM     22  C   UNL     1      51.176 -32.984  24.541  1.00  0.00    -0.000 C 
BRANCH  22  23
ATOM     23  C   UNL     1      51.200 -32.385  23.123  1.00  0.00    -0.000 C 
BRANCH  23  24
ATOM     24  C   UNL     1      51.448 -30.866  23.063  1.00  0.00    -0.000 C 
BRANCH  24  25
ATOM     25  C   UNL     1      50.220 -30.053  22.601  1.00  0.00    -0.000 C 
BRANCH  25  26
ATOM     26  C   UNL     1      50.138 -28.676  23.276  1.00  0.00    -0.000 C 
BRANCH  26  27
ATOM     27  C   UNL     1      50.585 -28.754  24.743  1.00  0.00    -0.000 C 
BRANCH  27  28
ATOM     28  C   UNL     1      51.815 -27.880  25.033  1.00  0.00    -0.000 C 
BRANCH  28  29
ATOM     29  C   UNL     1      52.039 -26.799  23.964  1.00  0.00    -0.003 C 
ATOM     30  C   UNL     1      53.485 -26.798  23.478  1.00  0.00     0.004 C 
ENDBRANCH  28  29
ENDBRANCH  27  28
ENDBRANCH  26  27
ENDBRANCH  25  26
ENDBRANCH  24  25
ENDBRANCH  23  24
ENDBRANCH  22  23
ENDBRANCH  21  22
ENDBRANCH  20  21
ENDBRANCH  19  20
ENDBRANCH  18  19
ENDBRANCH  17  18
ENDBRANCH   1  17
TORSDOF 26
ENDMDL
MODEL 6
REMARK VINA RESULT:    -2.168      1.913      4.084
REMARK INTER + INTRA:         -11.256
REMARK INTER:                  -6.077
REMARK INTRA:                  -5.179
REMARK UNBOUND:                -5.794
REMARK SMILES CCCCCCCCCCCCCCCCCCCCCCCCCCCC(=O)[O-]
REMARK SMILES IDX 15 1 16 2 17 3 18 4 19 5 20 6 21 7 22 8 23 9 24 10 25 11
REMARK SMILES IDX 26 12 27 13 28 14 29 15 30 16 14 17 13 18 12 19 11 20 10 21
REMARK SMILES IDX 9 22 8 23 7 24 6 25 5 26 4 27 3 28 2 29 1 30
REMARK H PARENT
REMARK Flexibility Score: inf
ROOT
ATOM      1  C   UNL     1      54.081 -34.461  25.294  1.00  0.00     0.000 C 
ENDROOT
BRANCH   1   2
ATOM      2  C   UNL     1      54.266 -35.933  25.709  1.00  0.00     0.000 C 
BRANCH   2   3
ATOM      3  C   UNL     1      53.072 -36.489  26.500  1.00  0.00     0.000 C 
BRANCH   3   4
ATOM      4  C   UNL     1      52.000 -37.051  25.556  1.00  0.00     0.000 C 
BRANCH   4   5
ATOM      5  C   UNL     1      50.734 -36.177  25.493  1.00  0.00     0.000 C 
BRANCH   5   6
ATOM      6  C   UNL     1      50.548 -35.389  24.183  1.00  0.00     0.000 C 
BRANCH   6   7
ATOM      7  C   UNL     1      50.462 -33.870  24.405  1.00  0.00     0.000 C 
BRANCH   7   8
ATOM      8  C   UNL     1      50.427 -33.081  23.084  1.00  0.00     0.000 C 
BRANCH   8   9
ATOM      9  C   UNL     1      51.429 -31.917  23.060  1.00  0.00     0.000 C 
BRANCH   9  10
ATOM     10  C   UNL     1      51.789 -31.477  24.487  1.00  0.00     0.000 C 
BRANCH  10  11
ATOM     11  C   UNL     1      53.133 -30.733  24.557  1.00  0.00     0.000 C 
BRANCH  11  12
ATOM     12  C   UNL     1      52.973 -29.256  24.959  1.00  0.00     0.006 C 
BRANCH  12  13
ATOM     13  C   UNL     1      52.608 -28.367  23.762  1.00  0.00     0.053 C 
BRANCH  13  14
ATOM     14  C   UNL     1      51.165 -27.966  23.786  1.00  0.00     0.041 C 
ATOM     15  O   UNL     1      50.356 -28.460  22.958  1.00  0.00    -0.550 OA
ATOM     16  O   UNL     1      50.720 -27.025  24.706  1.00  0.00    -0.550 OA
ENDBRANCH  13  14
ENDBRANCH  12  13
ENDBRANCH  11  12
ENDBRANCH  10  11
ENDBRANCH   9  10
ENDBRANCH   8   9
ENDBRANCH   7   8
ENDBRANCH   6   7
ENDBRANCH   5   6
ENDBRANCH   4   5
ENDBRANCH   3   4
ENDBRANCH   2   3
ENDBRANCH   1   2
BRANCH   1  17
ATOM     17  C   UNL     1      54.328 -34.164  23.804  1.00  0.00     0.000 C 
BRANCH  17  18
ATOM     18  C   UNL     1      54.043 -35.372  22.896  1.00  0.00     0.000 C 
BRANCH  18  19
ATOM     19  C   UNL     1      55.200 -35.677  21.926  1.00  0.00     0.000 C 
BRANCH  19  20
ATOM     20  C   UNL     1      56.276 -36.638  22.470  1.00  0.00     0.000 C 
BRANCH  20  21
ATOM     21  C   UNL     1      57.546 -35.959  23.016  1.00  0.00     0.000 C 
BRANCH  21  22
ATOM     22  C   UNL     1      57.727 -36.051  24.545  1.00  0.00    -0.000 C 
BRANCH  22  23
ATOM     23  C   UNL     1      57.820 -34.696  25.271  1.00  0.00    -0.000 C 
BRANCH  23  24
ATOM     24  C   UNL     1      58.216 -33.506  24.378  1.00  0.00    -0.000 C 
BRANCH  24  25
ATOM     25  C   UNL     1      57.179 -32.362  24.370  1.00  0.00    -0.000 C 
BRANCH  25  26
ATOM     26  C   UNL     1      56.800 -31.901  25.785  1.00  0.00    -0.000 C 
BRANCH  26  27
ATOM     27  C   UNL     1      56.552 -30.386  25.823  1.00  0.00    -0.000 C 
BRANCH  27  28
ATOM     28  C   UNL     1      56.679 -29.732  24.438  1.00  0.00    -0.000 C 
BRANCH  28  29
ATOM     29  C   UNL     1      57.729 -28.610  24.407  1.00  0.00    -0.003 C 
ATOM     30  C   UNL     1      59.112 -29.161  24.077  1.00  0.00     0.004 C 
ENDBRANCH  28  29
ENDBRANCH  27  28
ENDBRANCH  26  27
ENDBRANCH  25  26
ENDBRANCH  24  25
ENDBRANCH  23  24
ENDBRANCH  22  23
ENDBRANCH  21  22
ENDBRANCH  20  21
ENDBRANCH  19  20
ENDBRANCH  18  19
ENDBRANCH  17  18
ENDBRANCH   1  17
TORSDOF 26
ENDMDL
MODEL 7
REMARK VINA RESULT:    -2.161      2.057      5.253
REMARK INTER + INTRA:         -11.240
REMARK INTER:                  -5.473
REMARK INTRA:                  -5.767
REMARK UNBOUND:                -5.794
REMARK SMILES CCCCCCCCCCCCCCCCCCCCCCCCCCCC(=O)[O-]
REMARK SMILES IDX 15 1 16 2 17 3 18 4 19 5 20 6 21 7 22 8 23 9 24 10 25 11
REMARK SMILES IDX 26 12 27 13 28 14 29 15 30 16 14 17 13 18 12 19 11 20 10 21
REMARK SMILES IDX 9 22 8 23 7 24 6 25 5 26 4 27 3 28 2 29 1 30
REMARK H PARENT
REMARK Flexibility Score: inf
ROOT
ATOM      1  C   UNL     1      55.910 -34.726  27.097  1.00  0.00     0.000 C 
ENDROOT
BRANCH   1   2
ATOM      2  C   UNL     1      56.674 -35.702  26.183  1.00  0.00     0.000 C 
BRANCH   2   3
ATOM      3  C   UNL     1      57.924 -35.075  25.547  1.00  0.00     0.000 C 
BRANCH   3   4
ATOM      4  C   UNL     1      58.098 -35.545  24.095  1.00  0.00     0.000 C 
BRANCH   4   5
ATOM      5  C   UNL     1      56.959 -36.463  23.619  1.00  0.00     0.000 C 
BRANCH   5   6
ATOM      6  C   UNL     1      56.379 -36.122  22.234  1.00  0.00     0.000 C 
BRANCH   6   7
ATOM      7  C   UNL     1      54.880 -35.782  22.279  1.00  0.00     0.000 C 
BRANCH   7   8
ATOM      8  C   UNL     1      54.539 -34.759  23.376  1.00  0.00     0.000 C 
BRANCH   8   9
ATOM      9  C   UNL     1      54.858 -33.315  22.961  1.00  0.00     0.000 C 
BRANCH   9  10
ATOM     10  C   UNL     1      55.127 -32.439  24.194  1.00  0.00     0.000 C 
BRANCH  10  11
ATOM     11  C   UNL     1      56.507 -31.762  24.153  1.00  0.00     0.000 C 
BRANCH  11  12
ATOM     12  C   UNL     1      57.103 -31.546  25.555  1.00  0.00     0.006 C 
BRANCH  12  13
ATOM     13  C   UNL     1      56.687 -30.198  26.159  1.00  0.00     0.053 C 
BRANCH  13  14
ATOM     14  C   UNL     1      57.411 -29.054  25.519  1.00  0.00     0.041 C 
ATOM     15  O   UNL     1      58.648 -28.905  25.698  1.00  0.00    -0.550 OA
ATOM     16  O   UNL     1      56.712 -28.134  24.747  1.00  0.00    -0.550 OA
ENDBRANCH  13  14
ENDBRANCH  12  13
ENDBRANCH  11  12
ENDBRANCH  10  11
ENDBRANCH   9  10
ENDBRANCH   8   9
ENDBRANCH   7   8
ENDBRANCH   6   7
ENDBRANCH   5   6
ENDBRANCH   4   5
ENDBRANCH   3   4
ENDBRANCH   2   3
ENDBRANCH   1   2
BRANCH   1  17
ATOM     17  C   UNL     1      54.375 -34.799  26.996  1.00  0.00     0.000 C 
BRANCH  17  18
ATOM     18  C   UNL     1      53.682 -33.504  27.452  1.00  0.00     0.000 C 
BRANCH  18  19
ATOM     19  C   UNL     1      52.355 -33.246  26.715  1.00  0.00     0.000 C 
BRANCH  19  20
ATOM     20  C   UNL     1      51.863 -31.784  26.742  1.00  0.00     0.000 C 
BRANCH  20  21
ATOM     21  C   UNL     1      52.963 -30.720  26.572  1.00  0.00     0.000 C 
BRANCH  21  22
ATOM     22  C   UNL     1      52.840 -29.853  25.302  1.00  0.00    -0.000 C 
BRANCH  22  23
ATOM     23  C   UNL     1      51.505 -29.991  24.547  1.00  0.00    -0.000 C 
BRANCH  23  24
ATOM     24  C   UNL     1      51.609 -30.649  23.158  1.00  0.00    -0.000 C 
BRANCH  24  25
ATOM     25  C   UNL     1      51.416 -32.181  23.180  1.00  0.00    -0.000 C 
BRANCH  25  26
ATOM     26  C   UNL     1      49.979 -32.598  22.831  1.00  0.00    -0.000 C 
BRANCH  26  27
ATOM     27  C   UNL     1      49.875 -34.120  22.654  1.00  0.00    -0.000 C 
BRANCH  27  28
ATOM     28  C   UNL     1      51.043 -34.872  23.312  1.00  0.00    -0.000 C 
BRANCH  28  29
ATOM     29  C   UNL     1      50.617 -35.637  24.575  1.00  0.00    -0.003 C 
ATOM     30  C   UNL     1      51.722 -36.576  25.047  1.00  0.00     0.004 C 
ENDBRANCH  28  29
ENDBRANCH  27  28
ENDBRANCH  26  27
ENDBRANCH  25  26
ENDBRANCH  24  25
ENDBRANCH  23  24
ENDBRANCH  22  23
ENDBRANCH  21  22
ENDBRANCH  20  21
ENDBRANCH  19  20
ENDBRANCH  18  19
ENDBRANCH  17  18
ENDBRANCH   1  17
TORSDOF 26
ENDMDL
MODEL 8
REMARK VINA RESULT:    -2.124      2.327      6.066
REMARK INTER + INTRA:         -11.146
REMARK INTER:                  -5.727
REMARK INTRA:                  -5.419
REMARK UNBOUND:                -5.794
REMARK SMILES CCCCCCCCCCCCCCCCCCCCCCCCCCCC(=O)[O-]
REMARK SMILES IDX 15 1 16 2 17 3 18 4 19 5 20 6 21 7 22 8 23 9 24 10 25 11
REMARK SMILES IDX 26 12 27 13 28 14 29 15 30 16 14 17 13 18 12 19 11 20 10 21
REMARK SMILES IDX 9 22 8 23 7 24 6 25 5 26 4 27 3 28 2 29 1 30
REMARK H PARENT
REMARK Flexibility Score: inf
ROOT
ATOM      1  C   UNL     1      53.340 -32.149  26.586  1.00  0.00     0.000 C 
ENDROOT
BRANCH   1   2
ATOM      2  C   UNL     1      52.524 -31.374  25.535  1.00  0.00     0.000 C 
BRANCH   2   3
ATOM      3  C   UNL     1      52.916 -31.724  24.091  1.00  0.00     0.000 C 
BRANCH   3   4
ATOM      4  C   UNL     1      51.671 -31.883  23.206  1.00  0.00     0.000 C 
BRANCH   4   5
ATOM      5  C   UNL     1      50.510 -30.965  23.629  1.00  0.00     0.000 C 
BRANCH   5   6
ATOM      6  C   UNL     1      50.420 -29.630  22.868  1.00  0.00     0.000 C 
BRANCH   6   7
ATOM      7  C   UNL     1      49.969 -28.461  23.760  1.00  0.00     0.000 C 
BRANCH   7   8
ATOM      8  C   UNL     1      51.069 -27.402  23.947  1.00  0.00     0.000 C 
BRANCH   8   9
ATOM      9  C   UNL     1      52.469 -27.932  23.602  1.00  0.00     0.000 C 
BRANCH   9  10
ATOM     10  C   UNL     1      53.410 -27.816  24.810  1.00  0.00     0.000 C 
BRANCH  10  11
ATOM     11  C   UNL     1      54.756 -28.523  24.583  1.00  0.00     0.000 C 
BRANCH  11  12
ATOM     12  C   UNL     1      55.423 -28.965  25.898  1.00  0.00     0.006 C 
BRANCH  12  13
ATOM     13  C   UNL     1      55.523 -27.816  26.911  1.00  0.00     0.053 C 
BRANCH  13  14
ATOM     14  C   UNL     1      55.031 -28.224  28.266  1.00  0.00     0.041 C 
ATOM     15  O   UNL     1      54.430 -29.320  28.419  1.00  0.00    -0.550 OA
ATOM     16  O   UNL     1      55.210 -27.380  29.354  1.00  0.00    -0.550 OA
ENDBRANCH  13  14
ENDBRANCH  12  13
ENDBRANCH  11  12
ENDBRANCH  10  11
ENDBRANCH   9  10
ENDBRANCH   8   9
ENDBRANCH   7   8
ENDBRANCH   6   7
ENDBRANCH   5   6
ENDBRANCH   4   5
ENDBRANCH   3   4
ENDBRANCH   2   3
ENDBRANCH   1   2
BRANCH   1  17
ATOM     17  C   UNL     1      52.926 -33.619  26.784  1.00  0.00     0.000 C 
BRANCH  17  18
ATOM     18  C   UNL     1      54.114 -34.593  26.704  1.00  0.00     0.000 C 
BRANCH  18  19
ATOM     19  C   UNL     1      53.921 -35.682  25.633  1.00  0.00     0.000 C 
BRANCH  19  20
ATOM     20  C   UNL     1      52.709 -35.481  24.703  1.00  0.00     0.000 C 
BRANCH  20  21
ATOM     21  C   UNL     1      53.049 -35.315  23.210  1.00  0.00     0.000 C 
BRANCH  21  22
ATOM     22  C   UNL     1      54.506 -34.903  22.915  1.00  0.00    -0.000 C 
BRANCH  22  23
ATOM     23  C   UNL     1      55.304 -35.904  22.058  1.00  0.00    -0.000 C 
BRANCH  23  24
ATOM     24  C   UNL     1      56.787 -36.054  22.446  1.00  0.00    -0.000 C 
BRANCH  24  25
ATOM     25  C   UNL     1      57.010 -36.827  23.764  1.00  0.00    -0.000 C 
BRANCH  25  26
ATOM     26  C   UNL     1      57.528 -35.926  24.894  1.00  0.00    -0.000 C 
BRANCH  26  27
ATOM     27  C   UNL     1      57.847 -34.517  24.374  1.00  0.00    -0.000 C 
BRANCH  27  28
ATOM     28  C   UNL     1      57.845 -33.460  25.489  1.00  0.00    -0.000 C 
BRANCH  28  29
ATOM     29  C   UNL     1      56.711 -32.434  25.330  1.00  0.00    -0.003 C 
ATOM     30  C   UNL     1      56.609 -31.946  23.889  1.00  0.00     0.004 C 
ENDBRANCH  28  29
ENDBRANCH  27  28
ENDBRANCH  26  27
ENDBRANCH  25  26
ENDBRANCH  24  25
ENDBRANCH  23  24
ENDBRANCH  22  23
ENDBRANCH  21  22
ENDBRANCH  20  21
ENDBRANCH  19  20
ENDBRANCH  18  19
ENDBRANCH  17  18
ENDBRANCH   1  17
TORSDOF 26
ENDMDL
MODEL 9
REMARK VINA RESULT:    -2.112      2.869      5.297
REMARK INTER + INTRA:         -11.117
REMARK INTER:                  -5.213
REMARK INTRA:                  -5.904
REMARK UNBOUND:                -5.794
REMARK SMILES CCCCCCCCCCCCCCCCCCCCCCCCCCCC(=O)[O-]
REMARK SMILES IDX 15 1 16 2 17 3 18 4 19 5 20 6 21 7 22 8 23 9 24 10 25 11
REMARK SMILES IDX 26 12 27 13 28 14 29 15 30 16 14 17 13 18 12 19 11 20 10 21
REMARK SMILES IDX 9 22 8 23 7 24 6 25 5 26 4 27 3 28 2 29 1 30
REMARK H PARENT
REMARK Flexibility Score: inf
ROOT
ATOM      1  C   UNL     1      54.348 -34.450  23.400  1.00  0.00     0.000 C 
ENDROOT
BRANCH   1   2
ATOM      2  C   UNL     1      53.723 -35.631  24.167  1.00  0.00     0.000 C 
BRANCH   2   3
ATOM      3  C   UNL     1      52.187 -35.585  24.192  1.00  0.00     0.000 C 
BRANCH   3   4
ATOM      4  C   UNL     1      51.644 -34.680  23.076  1.00  0.00     0.000 C 
BRANCH   4   5
ATOM      5  C   UNL     1      50.315 -33.997  23.447  1.00  0.00     0.000 C 
BRANCH   5   6
ATOM      6  C   UNL     1      50.378 -32.463  23.566  1.00  0.00     0.000 C 
BRANCH   6   7
ATOM      7  C   UNL     1      51.706 -31.877  23.056  1.00  0.00     0.000 C 
BRANCH   7   8
ATOM      8  C   UNL     1      52.356 -30.920  24.070  1.00  0.00     0.000 C 
BRANCH   8   9
ATOM      9  C   UNL     1      53.249 -31.649  25.087  1.00  0.00     0.000 C 
BRANCH   9  10
ATOM     10  C   UNL     1      52.562 -31.728  26.458  1.00  0.00     0.000 C 
BRANCH  10  11
ATOM     11  C   UNL     1      52.404 -33.173  26.960  1.00  0.00     0.000 C 
BRANCH  11  12
ATOM     12  C   UNL     1      53.752 -33.836  27.291  1.00  0.00     0.006 C 
BRANCH  12  13
ATOM     13  C   UNL     1      53.619 -34.904  28.385  1.00  0.00     0.053 C 
BRANCH  13  14
ATOM     14  C   UNL     1      53.522 -36.283  27.808  1.00  0.00     0.041 C 
ATOM     15  O   UNL     1      54.565 -36.919  27.508  1.00  0.00    -0.550 OA
ATOM     16  O   UNL     1      52.276 -36.853  27.576  1.00  0.00    -0.550 OA
ENDBRANCH  13  14
ENDBRANCH  12  13
ENDBRANCH  11  12
ENDBRANCH  10  11
ENDBRANCH   9  10
ENDBRANCH   8   9
ENDBRANCH   7   8
ENDBRANCH   6   7
ENDBRANCH   5   6
ENDBRANCH   4   5
ENDBRANCH   3   4
ENDBRANCH   2   3
ENDBRANCH   1   2
BRANCH   1  17
ATOM     17  C   UNL     1      55.418 -34.836  22.362  1.00  0.00     0.000 C 
BRANCH  17  18
ATOM     18  C   UNL     1      55.654 -36.354  22.279  1.00  0.00     0.000 C 
BRANCH  18  19
ATOM     19  C   UNL     1      57.050 -36.769  22.778  1.00  0.00     0.000 C 
BRANCH  19  20
ATOM     20  C   UNL     1      57.161 -37.006  24.298  1.00  0.00     0.000 C 
BRANCH  20  21
ATOM     21  C   UNL     1      57.895 -35.901  25.081  1.00  0.00     0.000 C 
BRANCH  21  22
ATOM     22  C   UNL     1      56.979 -34.946  25.874  1.00  0.00    -0.000 C 
BRANCH  22  23
ATOM     23  C   UNL     1      57.211 -33.448  25.602  1.00  0.00    -0.000 C 
BRANCH  23  24
ATOM     24  C   UNL     1      57.987 -33.134  24.309  1.00  0.00    -0.000 C 
BRANCH  24  25
ATOM     25  C   UNL     1      57.957 -31.643  23.912  1.00  0.00    -0.000 C 
BRANCH  25  26
ATOM     26  C   UNL     1      56.540 -31.051  23.952  1.00  0.00    -0.000 C 
BRANCH  26  27
ATOM     27  C   UNL     1      56.545 -29.651  24.582  1.00  0.00    -0.000 C 
BRANCH  27  28
ATOM     28  C   UNL     1      56.493 -29.693  26.117  1.00  0.00    -0.000 C 
BRANCH  28  29
ATOM     29  C   UNL     1      55.206 -29.071  26.683  1.00  0.00    -0.003 C 
ATOM     30  C   UNL     1      54.627 -28.038  25.722  1.00  0.00     0.004 C 
ENDBRANCH  28  29
ENDBRANCH  27  28
ENDBRANCH  26  27
ENDBRANCH  25  26
ENDBRANCH  24  25
ENDBRANCH  23  24
ENDBRANCH  22  23
ENDBRANCH  21  22
ENDBRANCH  20  21
ENDBRANCH  19  20
ENDBRANCH  18  19
ENDBRANCH  17  18
ENDBRANCH   1  17
TORSDOF 26
ENDMDL
