MODEL 1
REMARK VINA RESULT:    -3.072      0.000      0.000
REMARK INTER + INTRA:         -13.881
REMARK INTER:                  -8.101
REMARK INTRA:                  -5.780
REMARK UNBOUND:                -5.780
REMARK SMILES CCCCCCCCCCCCCCCCCCCCCCCCCCCCCC(=O)[O-]
REMARK SMILES IDX 16 1 17 2 18 3 19 4 20 5 21 6 22 7 23 8 24 9 25 10 26 11
REMARK SMILES IDX 27 12 28 13 29 14 30 15 31 16 32 17 15 18 14 19 13 20 12 21
REMARK SMILES IDX 11 22 10 23 9 24 8 25 7 26 6 27 5 28 4 29 3 30 2 31 1 32
REMARK H PARENT
REMARK Flexibility Score: inf
ROOT
ATOM      1  C   UNL     1      59.535  27.868  49.255  1.00  0.00     0.000 C 
ENDROOT
BRANCH   1   2
ATOM      2  C   UNL     1      60.629  27.240  50.131  1.00  0.00     0.000 C 
BRANCH   2   3
ATOM      3  C   UNL     1      60.058  26.101  50.991  1.00  0.00     0.000 C 
BRANCH   3   4
ATOM      4  C   UNL     1      58.705  25.586  50.477  1.00  0.00     0.000 C 
BRANCH   4   5
ATOM      5  C   UNL     1      57.819  25.013  51.597  1.00  0.00     0.000 C 
BRANCH   5   6
ATOM      6  C   UNL     1      56.339  25.435  51.460  1.00  0.00     0.000 C 
BRANCH   6   7
ATOM      7  C   UNL     1      55.926  25.854  50.034  1.00  0.00     0.000 C 
BRANCH   7   8
ATOM      8  C   UNL     1      54.470  25.541  49.641  1.00  0.00     0.000 C 
BRANCH   8   9
ATOM      9  C   UNL     1      53.436  26.594  50.082  1.00  0.00     0.000 C 
BRANCH   9  10
ATOM     10  C   UNL     1      54.006  28.022  50.111  1.00  0.00     0.000 C 
BRANCH  10  11
ATOM     11  C   UNL     1      53.583  28.795  51.374  1.00  0.00     0.000 C 
BRANCH  11  12
ATOM     12  C   UNL     1      53.952  28.049  52.670  1.00  0.00     0.000 C 
BRANCH  12  13
ATOM     13  C   UNL     1      53.656  28.872  53.934  1.00  0.00     0.006 C 
BRANCH  13  14
ATOM     14  C   UNL     1      54.893  29.059  54.822  1.00  0.00     0.053 C 
BRANCH  14  15
ATOM     15  C   UNL     1      55.179  30.515  55.017  1.00  0.00     0.041 C 
ATOM     16  O   UNL     1      55.329  30.985  56.176  1.00  0.00    -0.550 OA
ATOM     17  O   UNL     1      55.237  31.365  53.917  1.00  0.00    -0.550 OA
ENDBRANCH  14  15
ENDBRANCH  13  14
ENDBRANCH  12  13
ENDBRANCH  11  12
ENDBRANCH  10  11
ENDBRANCH   9  10
ENDBRANCH   8   9
ENDBRANCH   7   8
ENDBRANCH   6   7
ENDBRANCH   5   6
ENDBRANCH   4   5
ENDBRANCH   3   4
ENDBRANCH   2   3
ENDBRANCH   1   2
BRANCH   1  18
ATOM     18  C   UNL     1      59.015  29.204  49.828  1.00  0.00     0.000 C 
BRANCH  18  19
ATOM     19  C   UNL     1      57.517  29.179  50.170  1.00  0.00     0.000 C 
BRANCH  19  20
ATOM     20  C   UNL     1      57.232  29.610  51.621  1.00  0.00     0.000 C 
BRANCH  20  21
ATOM     21  C   UNL     1      57.752  28.587  52.641  1.00  0.00     0.000 C 
BRANCH  21  22
ATOM     22  C   UNL     1      58.668  29.218  53.713  1.00  0.00     0.000 C 
BRANCH  22  23
ATOM     23  C   UNL     1      60.159  28.979  53.429  1.00  0.00     0.000 C 
BRANCH  23  24
ATOM     24  C   UNL     1      60.841  30.226  52.839  1.00  0.00    -0.000 C 
BRANCH  24  25
ATOM     25  C   UNL     1      62.370  30.107  52.909  1.00  0.00    -0.000 C 
BRANCH  25  26
ATOM     26  C   UNL     1      62.991  29.675  51.572  1.00  0.00    -0.000 C 
BRANCH  26  27
ATOM     27  C   UNL     1      62.445  30.471  50.374  1.00  0.00    -0.000 C 
BRANCH  27  28
ATOM     28  C   UNL     1      63.561  30.916  49.407  1.00  0.00    -0.000 C 
BRANCH  28  29
ATOM     29  C   UNL     1      64.689  29.880  49.230  1.00  0.00    -0.000 C 
BRANCH  29  30
ATOM     30  C   UNL     1      64.545  28.998  47.972  1.00  0.00    -0.000 C 
BRANCH  30  31
ATOM     31  C   UNL     1      64.904  27.521  48.211  1.00  0.00    -0.003 C 
ATOM     32  C   UNL     1      64.275  26.969  49.489  1.00  0.00     0.004 C 
ENDBRANCH  30  31
ENDBRANCH  29  30
ENDBRANCH  28  29
ENDBRANCH  27  28
ENDBRANCH  26  27
ENDBRANCH  25  26
ENDBRANCH  24  25
ENDBRANCH  23  24
ENDBRANCH  22  23
ENDBRANCH  21  22
ENDBRANCH  20  21
ENDBRANCH  19  20
ENDBRANCH  18  19
ENDBRANCH   1  18
TORSDOF 28
ENDMDL
MODEL 2
REMARK VINA RESULT:    -3.047      9.055     11.581
REMARK INTER + INTRA:         -13.815
REMARK INTER:                  -7.672
REMARK INTRA:                  -6.142
REMARK UNBOUND:                -5.780
REMARK SMILES CCCCCCCCCCCCCCCCCCCCCCCCCCCCCC(=O)[O-]
REMARK SMILES IDX 16 1 17 2 18 3 19 4 20 5 21 6 22 7 23 8 24 9 25 10 26 11
REMARK SMILES IDX 27 12 28 13 29 14 30 15 31 16 32 17 15 18 14 19 13 20 12 21
REMARK SMILES IDX 11 22 10 23 9 24 8 25 7 26 6 27 5 28 4 29 3 30 2 31 1 32
REMARK H PARENT
REMARK Flexibility Score: inf
ROOT
ATOM      1  C   UNL     1      64.153  31.632  61.012  1.00  0.00     0.000 C 
ENDROOT
BRANCH   1   2
ATOM      2  C   UNL     1      62.843  31.049  60.462  1.00  0.00     0.000 C 
BRANCH   2   3
ATOM      3  C   UNL     1      61.828  30.817  61.593  1.00  0.00     0.000 C 
BRANCH   3   4
ATOM      4  C   UNL     1      60.390  30.656  61.079  1.00  0.00     0.000 C 
BRANCH   4   5
ATOM      5  C   UNL     1      60.322  30.392  59.564  1.00  0.00     0.000 C 
BRANCH   5   6
ATOM      6  C   UNL     1      59.631  29.053  59.224  1.00  0.00     0.000 C 
BRANCH   6   7
ATOM      7  C   UNL     1      59.419  28.120  60.434  1.00  0.00     0.000 C 
BRANCH   7   8
ATOM      8  C   UNL     1      60.285  26.846  60.456  1.00  0.00     0.000 C 
BRANCH   8   9
ATOM      9  C   UNL     1      61.409  26.841  61.508  1.00  0.00     0.000 C 
BRANCH   9  10
ATOM     10  C   UNL     1      62.751  27.356  60.959  1.00  0.00     0.000 C 
BRANCH  10  11
ATOM     11  C   UNL     1      62.909  27.081  59.452  1.00  0.00     0.000 C 
BRANCH  11  12
ATOM     12  C   UNL     1      63.907  28.043  58.782  1.00  0.00     0.000 C 
BRANCH  12  13
ATOM     13  C   UNL     1      65.357  27.805  59.233  1.00  0.00     0.006 C 
BRANCH  13  14
ATOM     14  C   UNL     1      66.160  29.106  59.360  1.00  0.00     0.053 C 
BRANCH  14  15
ATOM     15  C   UNL     1      67.518  28.940  58.754  1.00  0.00     0.041 C 
ATOM     16  O   UNL     1      68.453  29.726  59.064  1.00  0.00    -0.550 OA
ATOM     17  O   UNL     1      67.742  27.942  57.812  1.00  0.00    -0.550 OA
ENDBRANCH  14  15
ENDBRANCH  13  14
ENDBRANCH  12  13
ENDBRANCH  11  12
ENDBRANCH  10  11
ENDBRANCH   9  10
ENDBRANCH   8   9
ENDBRANCH   7   8
ENDBRANCH   6   7
ENDBRANCH   5   6
ENDBRANCH   4   5
ENDBRANCH   3   4
ENDBRANCH   2   3
ENDBRANCH   1   2
BRANCH   1  18
ATOM     18  C   UNL     1      64.548  32.953  60.318  1.00  0.00     0.000 C 
BRANCH  18  19
ATOM     19  C   UNL     1      64.554  34.163  61.267  1.00  0.00     0.000 C 
BRANCH  19  20
ATOM     20  C   UNL     1      65.146  35.426  60.615  1.00  0.00     0.000 C 
BRANCH  20  21
ATOM     21  C   UNL     1      64.122  36.567  60.529  1.00  0.00     0.000 C 
BRANCH  21  22
ATOM     22  C   UNL     1      62.813  36.260  61.289  1.00  0.00     0.000 C 
BRANCH  22  23
ATOM     23  C   UNL     1      61.570  36.802  60.566  1.00  0.00     0.000 C 
BRANCH  23  24
ATOM     24  C   UNL     1      60.458  35.744  60.459  1.00  0.00    -0.000 C 
BRANCH  24  25
ATOM     25  C   UNL     1      61.042  34.353  60.175  1.00  0.00    -0.000 C 
BRANCH  25  26
ATOM     26  C   UNL     1      60.892  33.938  58.705  1.00  0.00    -0.000 C 
BRANCH  26  27
ATOM     27  C   UNL     1      62.239  33.847  57.967  1.00  0.00    -0.000 C 
BRANCH  27  28
ATOM     28  C   UNL     1      62.641  35.184  57.312  1.00  0.00    -0.000 C 
BRANCH  28  29
ATOM     29  C   UNL     1      64.147  35.306  57.004  1.00  0.00    -0.000 C 
BRANCH  29  30
ATOM     30  C   UNL     1      64.811  33.984  56.565  1.00  0.00    -0.000 C 
BRANCH  30  31
ATOM     31  C   UNL     1      66.166  33.720  57.243  1.00  0.00    -0.003 C 
ATOM     32  C   UNL     1      66.501  32.231  57.313  1.00  0.00     0.004 C 
ENDBRANCH  30  31
ENDBRANCH  29  30
ENDBRANCH  28  29
ENDBRANCH  27  28
ENDBRANCH  26  27
ENDBRANCH  25  26
ENDBRANCH  24  25
ENDBRANCH  23  24
ENDBRANCH  22  23
ENDBRANCH  21  22
ENDBRANCH  20  21
ENDBRANCH  19  20
ENDBRANCH  18  19
ENDBRANCH   1  18
TORSDOF 28
ENDMDL
MODEL 3
REMARK VINA RESULT:    -3.020      7.761     10.994
REMARK INTER + INTRA:         -13.744
REMARK INTER:                  -7.671
REMARK INTRA:                  -6.072
REMARK UNBOUND:                -5.780
REMARK SMILES CCCCCCCCCCCCCCCCCCCCCCCCCCCCCC(=O)[O-]
REMARK SMILES IDX 16 1 17 2 18 3 19 4 20 5 21 6 22 7 23 8 24 9 25 10 26 11
REMARK SMILES IDX 27 12 28 13 29 14 30 15 31 16 32 17 15 18 14 19 13 20 12 21
REMARK SMILES IDX 11 22 10 23 9 24 8 25 7 26 6 27 5 28 4 29 3 30 2 31 1 32
REMARK H PARENT
REMARK Flexibility Score: inf
ROOT
ATOM      1  C   UNL     1      61.042  31.109  61.493  1.00  0.00     0.000 C 
ENDROOT
BRANCH   1   2
ATOM      2  C   UNL     1      60.372  31.502  60.169  1.00  0.00     0.000 C 
BRANCH   2   3
ATOM      3  C   UNL     1      60.778  30.540  59.041  1.00  0.00     0.000 C 
BRANCH   3   4
ATOM      4  C   UNL     1      61.562  31.233  57.918  1.00  0.00     0.000 C 
BRANCH   4   5
ATOM      5  C   UNL     1      61.291  30.621  56.532  1.00  0.00     0.000 C 
BRANCH   5   6
ATOM      6  C   UNL     1      62.556  29.998  55.899  1.00  0.00     0.000 C 
BRANCH   6   7
ATOM      7  C   UNL     1      63.674  29.665  56.908  1.00  0.00     0.000 C 
BRANCH   7   8
ATOM      8  C   UNL     1      63.814  28.177  57.283  1.00  0.00     0.000 C 
BRANCH   8   9
ATOM      9  C   UNL     1      62.484  27.410  57.409  1.00  0.00     0.000 C 
BRANCH   9  10
ATOM     10  C   UNL     1      62.119  27.073  58.865  1.00  0.00     0.000 C 
BRANCH  10  11
ATOM     11  C   UNL     1      63.363  26.937  59.762  1.00  0.00     0.000 C 
BRANCH  11  12
ATOM     12  C   UNL     1      63.169  25.896  60.880  1.00  0.00     0.000 C 
BRANCH  12  13
ATOM     13  C   UNL     1      62.220  26.382  61.987  1.00  0.00     0.006 C 
BRANCH  13  14
ATOM     14  C   UNL     1      61.971  25.318  63.064  1.00  0.00     0.053 C 
BRANCH  14  15
ATOM     15  C   UNL     1      60.518  24.960  63.115  1.00  0.00     0.041 C 
ATOM     16  O   UNL     1      59.676  25.623  62.454  1.00  0.00    -0.550 OA
ATOM     17  O   UNL     1      60.089  23.916  63.928  1.00  0.00    -0.550 OA
ENDBRANCH  14  15
ENDBRANCH  13  14
ENDBRANCH  12  13
ENDBRANCH  11  12
ENDBRANCH  10  11
ENDBRANCH   9  10
ENDBRANCH   8   9
ENDBRANCH   7   8
ENDBRANCH   6   7
ENDBRANCH   5   6
ENDBRANCH   4   5
ENDBRANCH   3   4
ENDBRANCH   2   3
ENDBRANCH   1   2
BRANCH   1  18
ATOM     18  C   UNL     1      62.056  29.957  61.322  1.00  0.00     0.000 C 
BRANCH  18  19
ATOM     19  C   UNL     1      63.506  30.371  61.620  1.00  0.00     0.000 C 
BRANCH  19  20
ATOM     20  C   UNL     1      64.397  30.360  60.364  1.00  0.00     0.000 C 
BRANCH  20  21
ATOM     21  C   UNL     1      64.666  31.776  59.833  1.00  0.00     0.000 C 
BRANCH  21  22
ATOM     22  C   UNL     1      64.405  32.874  60.886  1.00  0.00     0.000 C 
BRANCH  22  23
ATOM     23  C   UNL     1      63.227  33.786  60.509  1.00  0.00     0.000 C 
BRANCH  23  24
ATOM     24  C   UNL     1      63.462  35.242  60.948  1.00  0.00    -0.000 C 
BRANCH  24  25
ATOM     25  C   UNL     1      62.158  36.052  60.900  1.00  0.00    -0.000 C 
BRANCH  25  26
ATOM     26  C   UNL     1      60.946  35.197  60.508  1.00  0.00    -0.000 C 
BRANCH  26  27
ATOM     27  C   UNL     1      60.249  35.695  59.230  1.00  0.00    -0.000 C 
BRANCH  27  28
ATOM     28  C   UNL     1      60.655  34.882  57.984  1.00  0.00    -0.000 C 
BRANCH  28  29
ATOM     29  C   UNL     1      61.967  35.354  57.326  1.00  0.00    -0.000 C 
BRANCH  29  30
ATOM     30  C   UNL     1      62.709  34.255  56.537  1.00  0.00    -0.000 C 
BRANCH  30  31
ATOM     31  C   UNL     1      64.181  34.088  56.949  1.00  0.00    -0.003 C 
ATOM     32  C   UNL     1      64.789  35.387  57.477  1.00  0.00     0.004 C 
ENDBRANCH  30  31
ENDBRANCH  29  30
ENDBRANCH  28  29
ENDBRANCH  27  28
ENDBRANCH  26  27
ENDBRANCH  25  26
ENDBRANCH  24  25
ENDBRANCH  23  24
ENDBRANCH  22  23
ENDBRANCH  21  22
ENDBRANCH  20  21
ENDBRANCH  19  20
ENDBRANCH  18  19
ENDBRANCH   1  18
TORSDOF 28
ENDMDL
MODEL 4
REMARK VINA RESULT:    -2.965      8.688     11.822
REMARK INTER + INTRA:         -13.597
REMARK INTER:                  -8.490
REMARK INTRA:                  -5.107
REMARK UNBOUND:                -5.780
REMARK SMILES CCCCCCCCCCCCCCCCCCCCCCCCCCCCCC(=O)[O-]
REMARK SMILES IDX 16 1 17 2 18 3 19 4 20 5 21 6 22 7 23 8 24 9 25 10 26 11
REMARK SMILES IDX 27 12 28 13 29 14 30 15 31 16 32 17 15 18 14 19 13 20 12 21
REMARK SMILES IDX 11 22 10 23 9 24 8 25 7 26 6 27 5 28 4 29 3 30 2 31 1 32
REMARK H PARENT
REMARK Flexibility Score: inf
ROOT
ATOM      1  C   UNL     1      61.023  31.281  61.144  1.00  0.00     0.000 C 
ENDROOT
BRANCH   1   2
ATOM      2  C   UNL     1      61.779  30.083  61.735  1.00  0.00     0.000 C 
BRANCH   2   3
ATOM      3  C   UNL     1      63.299  30.291  61.640  1.00  0.00     0.000 C 
BRANCH   3   4
ATOM      4  C   UNL     1      63.859  29.979  60.245  1.00  0.00     0.000 C 
BRANCH   4   5
ATOM      5  C   UNL     1      64.873  31.028  59.759  1.00  0.00     0.000 C 
BRANCH   5   6
ATOM      6  C   UNL     1      64.281  31.982  58.697  1.00  0.00     0.000 C 
BRANCH   6   7
ATOM      7  C   UNL     1      64.149  33.447  59.160  1.00  0.00     0.000 C 
BRANCH   7   8
ATOM      8  C   UNL     1      63.843  33.651  60.656  1.00  0.00     0.000 C 
BRANCH   8   9
ATOM      9  C   UNL     1      64.099  35.075  61.185  1.00  0.00     0.000 C 
BRANCH   9  10
ATOM     10  C   UNL     1      63.049  36.092  60.708  1.00  0.00     0.000 C 
BRANCH  10  11
ATOM     11  C   UNL     1      61.616  35.535  60.788  1.00  0.00     0.000 C 
BRANCH  11  12
ATOM     12  C   UNL     1      60.610  36.383  59.990  1.00  0.00     0.000 C 
BRANCH  12  13
ATOM     13  C   UNL     1      60.502  35.950  58.519  1.00  0.00     0.006 C 
BRANCH  13  14
ATOM     14  C   UNL     1      60.213  34.452  58.361  1.00  0.00     0.053 C 
BRANCH  14  15
ATOM     15  C   UNL     1      58.745  34.222  58.177  1.00  0.00     0.041 C 
ATOM     16  O   UNL     1      58.312  33.071  57.902  1.00  0.00    -0.550 OA
ATOM     17  O   UNL     1      57.859  35.289  58.267  1.00  0.00    -0.550 OA
ENDBRANCH  14  15
ENDBRANCH  13  14
ENDBRANCH  12  13
ENDBRANCH  11  12
ENDBRANCH  10  11
ENDBRANCH   9  10
ENDBRANCH   8   9
ENDBRANCH   7   8
ENDBRANCH   6   7
ENDBRANCH   5   6
ENDBRANCH   4   5
ENDBRANCH   3   4
ENDBRANCH   2   3
ENDBRANCH   1   2
BRANCH   1  18
ATOM     18  C   UNL     1      60.316  30.936  59.815  1.00  0.00     0.000 C 
BRANCH  18  19
ATOM     19  C   UNL     1      60.372  29.441  59.465  1.00  0.00     0.000 C 
BRANCH  19  20
ATOM     20  C   UNL     1      58.975  28.796  59.388  1.00  0.00     0.000 C 
BRANCH  20  21
ATOM     21  C   UNL     1      58.344  28.616  60.777  1.00  0.00     0.000 C 
BRANCH  21  22
ATOM     22  C   UNL     1      58.280  27.139  61.223  1.00  0.00     0.000 C 
BRANCH  22  23
ATOM     23  C   UNL     1      58.487  26.161  60.056  1.00  0.00     0.000 C 
BRANCH  23  24
ATOM     24  C   UNL     1      58.583  24.702  60.537  1.00  0.00    -0.000 C 
BRANCH  24  25
ATOM     25  C   UNL     1      59.809  24.000  59.934  1.00  0.00    -0.000 C 
BRANCH  25  26
ATOM     26  C   UNL     1      60.752  24.974  59.213  1.00  0.00    -0.000 C 
BRANCH  26  27
ATOM     27  C   UNL     1      62.153  25.029  59.847  1.00  0.00    -0.000 C 
BRANCH  27  28
ATOM     28  C   UNL     1      62.492  26.427  60.403  1.00  0.00    -0.000 C 
BRANCH  28  29
ATOM     29  C   UNL     1      61.915  26.702  61.806  1.00  0.00    -0.000 C 
BRANCH  29  30
ATOM     30  C   UNL     1      62.069  25.527  62.793  1.00  0.00    -0.000 C 
BRANCH  30  31
ATOM     31  C   UNL     1      60.754  25.123  63.481  1.00  0.00    -0.003 C 
ATOM     32  C   UNL     1      60.714  23.637  63.834  1.00  0.00     0.004 C 
ENDBRANCH  30  31
ENDBRANCH  29  30
ENDBRANCH  28  29
ENDBRANCH  27  28
ENDBRANCH  26  27
ENDBRANCH  25  26
ENDBRANCH  24  25
ENDBRANCH  23  24
ENDBRANCH  22  23
ENDBRANCH  21  22
ENDBRANCH  20  21
ENDBRANCH  19  20
ENDBRANCH  18  19
ENDBRANCH   1  18
TORSDOF 28
ENDMDL
MODEL 5
REMARK VINA RESULT:    -2.963      3.112      5.435
REMARK INTER + INTRA:         -13.594
REMARK INTER:                  -8.036
REMARK INTRA:                  -5.558
REMARK UNBOUND:                -5.780
REMARK SMILES CCCCCCCCCCCCCCCCCCCCCCCCCCCCCC(=O)[O-]
REMARK SMILES IDX 16 1 17 2 18 3 19 4 20 5 21 6 22 7 23 8 24 9 25 10 26 11
REMARK SMILES IDX 27 12 28 13 29 14 30 15 31 16 32 17 15 18 14 19 13 20 12 21
REMARK SMILES IDX 11 22 10 23 9 24 8 25 7 26 6 27 5 28 4 29 3 30 2 31 1 32
REMARK H PARENT
REMARK Flexibility Score: inf
ROOT
ATOM      1  C   UNL     1      57.111  29.347  50.769  1.00  0.00     0.000 C 
ENDROOT
BRANCH   1   2
ATOM      2  C   UNL     1      55.859  29.094  51.621  1.00  0.00     0.000 C 
BRANCH   2   3
ATOM      3  C   UNL     1      54.596  29.058  50.745  1.00  0.00     0.000 C 
BRANCH   3   4
ATOM      4  C   UNL     1      53.746  27.801  50.976  1.00  0.00     0.000 C 
BRANCH   4   5
ATOM      5  C   UNL     1      53.732  26.856  49.762  1.00  0.00     0.000 C 
BRANCH   5   6
ATOM      6  C   UNL     1      54.734  25.688  49.905  1.00  0.00     0.000 C 
BRANCH   6   7
ATOM      7  C   UNL     1      54.832  25.105  51.330  1.00  0.00     0.000 C 
BRANCH   7   8
ATOM      8  C   UNL     1      56.232  25.141  51.971  1.00  0.00     0.000 C 
BRANCH   8   9
ATOM      9  C   UNL     1      56.309  25.869  53.326  1.00  0.00     0.000 C 
BRANCH   9  10
ATOM     10  C   UNL     1      57.704  26.447  53.621  1.00  0.00     0.000 C 
BRANCH  10  11
ATOM     11  C   UNL     1      58.817  25.702  52.861  1.00  0.00     0.000 C 
BRANCH  11  12
ATOM     12  C   UNL     1      60.126  26.510  52.798  1.00  0.00     0.000 C 
BRANCH  12  13
ATOM     13  C   UNL     1      61.189  25.851  51.904  1.00  0.00     0.006 C 
BRANCH  13  14
ATOM     14  C   UNL     1      60.578  25.085  50.724  1.00  0.00     0.053 C 
BRANCH  14  15
ATOM     15  C   UNL     1      60.979  23.643  50.776  1.00  0.00     0.041 C 
ATOM     16  O   UNL     1      62.077  23.271  50.284  1.00  0.00    -0.550 OA
ATOM     17  O   UNL     1      60.118  22.703  51.330  1.00  0.00    -0.550 OA
ENDBRANCH  14  15
ENDBRANCH  13  14
ENDBRANCH  12  13
ENDBRANCH  11  12
ENDBRANCH  10  11
ENDBRANCH   9  10
ENDBRANCH   8   9
ENDBRANCH   7   8
ENDBRANCH   6   7
ENDBRANCH   5   6
ENDBRANCH   4   5
ENDBRANCH   3   4
ENDBRANCH   2   3
ENDBRANCH   1   2
BRANCH   1  18
ATOM     18  C   UNL     1      57.790  28.037  50.314  1.00  0.00     0.000 C 
BRANCH  18  19
ATOM     19  C   UNL     1      59.100  28.266  49.542  1.00  0.00     0.000 C 
BRANCH  19  20
ATOM     20  C   UNL     1      59.864  29.513  50.025  1.00  0.00     0.000 C 
BRANCH  20  21
ATOM     21  C   UNL     1      61.324  29.197  50.378  1.00  0.00     0.000 C 
BRANCH  21  22
ATOM     22  C   UNL     1      62.050  30.381  51.054  1.00  0.00     0.000 C 
BRANCH  22  23
ATOM     23  C   UNL     1      62.248  31.573  50.105  1.00  0.00     0.000 C 
BRANCH  23  24
ATOM     24  C   UNL     1      63.551  31.456  49.296  1.00  0.00    -0.000 C 
BRANCH  24  25
ATOM     25  C   UNL     1      64.644  30.744  50.105  1.00  0.00    -0.000 C 
BRANCH  25  26
ATOM     26  C   UNL     1      65.451  29.748  49.260  1.00  0.00    -0.000 C 
BRANCH  26  27
ATOM     27  C   UNL     1      64.642  29.164  48.089  1.00  0.00    -0.000 C 
BRANCH  27  28
ATOM     28  C   UNL     1      64.024  27.792  48.427  1.00  0.00    -0.000 C 
BRANCH  28  29
ATOM     29  C   UNL     1      64.998  26.817  49.120  1.00  0.00    -0.000 C 
BRANCH  29  30
ATOM     30  C   UNL     1      64.460  26.215  50.434  1.00  0.00    -0.000 C 
BRANCH  30  31
ATOM     31  C   UNL     1      65.146  26.772  51.693  1.00  0.00    -0.003 C 
ATOM     32  C   UNL     1      64.283  27.805  52.417  1.00  0.00     0.004 C 
ENDBRANCH  30  31
ENDBRANCH  29  30
ENDBRANCH  28  29
ENDBRANCH  27  28
ENDBRANCH  26  27
ENDBRANCH  25  26
ENDBRANCH  24  25
ENDBRANCH  23  24
ENDBRANCH  22  23
ENDBRANCH  21  22
ENDBRANCH  20  21
ENDBRANCH  19  20
ENDBRANCH  18  19
ENDBRANCH   1  18
TORSDOF 28
ENDMDL
MODEL 6
REMARK VINA RESULT:    -2.939      2.436      5.125
REMARK INTER + INTRA:         -13.529
REMARK INTER:                  -7.133
REMARK INTRA:                  -6.396
REMARK UNBOUND:                -5.780
REMARK SMILES CCCCCCCCCCCCCCCCCCCCCCCCCCCCCC(=O)[O-]
REMARK SMILES IDX 16 1 17 2 18 3 19 4 20 5 21 6 22 7 23 8 24 9 25 10 26 11
REMARK SMILES IDX 27 12 28 13 29 14 30 15 31 16 32 17 15 18 14 19 13 20 12 21
REMARK SMILES IDX 11 22 10 23 9 24 8 25 7 26 6 27 5 28 4 29 3 30 2 31 1 32
REMARK H PARENT
REMARK Flexibility Score: inf
ROOT
ATOM      1  C   UNL     1      57.625  28.993  50.869  1.00  0.00     0.000 C 
ENDROOT
BRANCH   1   2
ATOM      2  C   UNL     1      56.254  29.654  50.670  1.00  0.00     0.000 C 
BRANCH   2   3
ATOM      3  C   UNL     1      55.136  28.797  51.286  1.00  0.00     0.000 C 
BRANCH   3   4
ATOM      4  C   UNL     1      54.212  28.174  50.230  1.00  0.00     0.000 C 
BRANCH   4   5
ATOM      5  C   UNL     1      54.208  26.636  50.271  1.00  0.00     0.000 C 
BRANCH   5   6
ATOM      6  C   UNL     1      55.623  26.033  50.129  1.00  0.00     0.000 C 
BRANCH   6   7
ATOM      7  C   UNL     1      56.065  25.155  51.318  1.00  0.00     0.000 C 
BRANCH   7   8
ATOM      8  C   UNL     1      56.007  25.828  52.703  1.00  0.00     0.000 C 
BRANCH   8   9
ATOM      9  C   UNL     1      57.366  25.981  53.410  1.00  0.00     0.000 C 
BRANCH   9  10
ATOM     10  C   UNL     1      57.397  27.152  54.407  1.00  0.00     0.000 C 
BRANCH  10  11
ATOM     11  C   UNL     1      58.625  28.059  54.206  1.00  0.00     0.000 C 
BRANCH  11  12
ATOM     12  C   UNL     1      59.845  27.285  53.674  1.00  0.00     0.000 C 
BRANCH  12  13
ATOM     13  C   UNL     1      60.937  27.094  54.739  1.00  0.00     0.006 C 
BRANCH  13  14
ATOM     14  C   UNL     1      62.232  27.845  54.402  1.00  0.00     0.053 C 
BRANCH  14  15
ATOM     15  C   UNL     1      62.359  29.071  55.251  1.00  0.00     0.041 C 
ATOM     16  O   UNL     1      61.386  29.464  55.950  1.00  0.00    -0.550 OA
ATOM     17  O   UNL     1      63.539  29.806  55.239  1.00  0.00    -0.550 OA
ENDBRANCH  14  15
ENDBRANCH  13  14
ENDBRANCH  12  13
ENDBRANCH  11  12
ENDBRANCH  10  11
ENDBRANCH   9  10
ENDBRANCH   8   9
ENDBRANCH   7   8
ENDBRANCH   6   7
ENDBRANCH   5   6
ENDBRANCH   4   5
ENDBRANCH   3   4
ENDBRANCH   2   3
ENDBRANCH   1   2
BRANCH   1  18
ATOM     18  C   UNL     1      58.560  29.194  49.656  1.00  0.00     0.000 C 
BRANCH  18  19
ATOM     19  C   UNL     1      59.515  28.013  49.419  1.00  0.00     0.000 C 
BRANCH  19  20
ATOM     20  C   UNL     1      59.320  26.878  50.442  1.00  0.00     0.000 C 
BRANCH  20  21
ATOM     21  C   UNL     1      59.527  25.492  49.815  1.00  0.00     0.000 C 
BRANCH  21  22
ATOM     22  C   UNL     1      59.515  24.352  50.856  1.00  0.00     0.000 C 
BRANCH  22  23
ATOM     23  C   UNL     1      60.873  24.173  51.553  1.00  0.00     0.000 C 
BRANCH  23  24
ATOM     24  C   UNL     1      61.984  23.791  50.560  1.00  0.00    -0.000 C 
BRANCH  24  25
ATOM     25  C   UNL     1      63.215  24.694  50.731  1.00  0.00    -0.000 C 
BRANCH  25  26
ATOM     26  C   UNL     1      62.856  26.086  51.269  1.00  0.00    -0.000 C 
BRANCH  26  27
ATOM     27  C   UNL     1      63.091  27.205  50.240  1.00  0.00    -0.000 C 
BRANCH  27  28
ATOM     28  C   UNL     1      63.246  28.589  50.903  1.00  0.00    -0.000 C 
BRANCH  28  29
ATOM     29  C   UNL     1      62.943  29.774  49.964  1.00  0.00    -0.000 C 
BRANCH  29  30
ATOM     30  C   UNL     1      61.852  30.731  50.487  1.00  0.00    -0.000 C 
BRANCH  30  31
ATOM     31  C   UNL     1      61.811  30.840  52.020  1.00  0.00    -0.003 C 
ATOM     32  C   UNL     1      60.384  30.842  52.566  1.00  0.00     0.004 C 
ENDBRANCH  30  31
ENDBRANCH  29  30
ENDBRANCH  28  29
ENDBRANCH  27  28
ENDBRANCH  26  27
ENDBRANCH  25  26
ENDBRANCH  24  25
ENDBRANCH  23  24
ENDBRANCH  22  23
ENDBRANCH  21  22
ENDBRANCH  20  21
ENDBRANCH  19  20
ENDBRANCH  18  19
ENDBRANCH   1  18
TORSDOF 28
ENDMDL
MODEL 7
REMARK VINA RESULT:    -2.919      3.482      7.163
REMARK INTER + INTRA:         -13.476
REMARK INTER:                  -7.102
REMARK INTRA:                  -6.374
REMARK UNBOUND:                -5.780
REMARK SMILES CCCCCCCCCCCCCCCCCCCCCCCCCCCCCC(=O)[O-]
REMARK SMILES IDX 16 1 17 2 18 3 19 4 20 5 21 6 22 7 23 8 24 9 25 10 26 11
REMARK SMILES IDX 27 12 28 13 29 14 30 15 31 16 32 17 15 18 14 19 13 20 12 21
REMARK SMILES IDX 11 22 10 23 9 24 8 25 7 26 6 27 5 28 4 29 3 30 2 31 1 32
REMARK H PARENT
REMARK Flexibility Score: inf
ROOT
ATOM      1  C   UNL     1      54.690  29.097  50.485  1.00  0.00     0.000 C 
ENDROOT
BRANCH   1   2
ATOM      2  C   UNL     1      54.573  30.163  51.582  1.00  0.00     0.000 C 
BRANCH   2   3
ATOM      3  C   UNL     1      54.627  29.523  52.979  1.00  0.00     0.000 C 
BRANCH   3   4
ATOM      4  C   UNL     1      55.702  28.433  53.094  1.00  0.00     0.000 C 
BRANCH   4   5
ATOM      5  C   UNL     1      55.336  27.337  54.111  1.00  0.00     0.000 C 
BRANCH   5   6
ATOM      6  C   UNL     1      56.380  27.202  55.242  1.00  0.00     0.000 C 
BRANCH   6   7
ATOM      7  C   UNL     1      57.605  28.128  55.092  1.00  0.00     0.000 C 
BRANCH   7   8
ATOM      8  C   UNL     1      58.963  27.418  54.934  1.00  0.00     0.000 C 
BRANCH   8   9
ATOM      9  C   UNL     1      59.078  26.499  53.704  1.00  0.00     0.000 C 
BRANCH   9  10
ATOM     10  C   UNL     1      60.419  25.749  53.636  1.00  0.00     0.000 C 
BRANCH  10  11
ATOM     11  C   UNL     1      61.441  26.459  52.729  1.00  0.00     0.000 C 
BRANCH  11  12
ATOM     12  C   UNL     1      62.575  25.521  52.277  1.00  0.00     0.000 C 
BRANCH  12  13
ATOM     13  C   UNL     1      62.442  25.094  50.806  1.00  0.00     0.006 C 
BRANCH  13  14
ATOM     14  C   UNL     1      62.625  23.584  50.608  1.00  0.00     0.053 C 
BRANCH  14  15
ATOM     15  C   UNL     1      61.638  22.827  51.441  1.00  0.00     0.041 C 
ATOM     16  O   UNL     1      62.035  21.974  52.279  1.00  0.00    -0.550 OA
ATOM     17  O   UNL     1      60.275  23.033  51.261  1.00  0.00    -0.550 OA
ENDBRANCH  14  15
ENDBRANCH  13  14
ENDBRANCH  12  13
ENDBRANCH  11  12
ENDBRANCH  10  11
ENDBRANCH   9  10
ENDBRANCH   8   9
ENDBRANCH   7   8
ENDBRANCH   6   7
ENDBRANCH   5   6
ENDBRANCH   4   5
ENDBRANCH   3   4
ENDBRANCH   2   3
ENDBRANCH   1   2
BRANCH   1  18
ATOM     18  C   UNL     1      53.336  28.426  50.166  1.00  0.00     0.000 C 
BRANCH  18  19
ATOM     19  C   UNL     1      53.333  26.909  50.417  1.00  0.00     0.000 C 
BRANCH  19  20
ATOM     20  C   UNL     1      54.626  26.225  49.936  1.00  0.00     0.000 C 
BRANCH  20  21
ATOM     21  C   UNL     1      55.126  25.168  50.931  1.00  0.00     0.000 C 
BRANCH  21  22
ATOM     22  C   UNL     1      56.610  25.356  51.315  1.00  0.00     0.000 C 
BRANCH  22  23
ATOM     23  C   UNL     1      57.331  26.365  50.409  1.00  0.00     0.000 C 
BRANCH  23  24
ATOM     24  C   UNL     1      58.732  25.876  50.001  1.00  0.00    -0.000 C 
BRANCH  24  25
ATOM     25  C   UNL     1      59.644  27.054  49.629  1.00  0.00    -0.000 C 
BRANCH  25  26
ATOM     26  C   UNL     1      58.857  28.334  49.315  1.00  0.00    -0.000 C 
BRANCH  26  27
ATOM     27  C   UNL     1      59.339  29.548  50.128  1.00  0.00    -0.000 C 
BRANCH  27  28
ATOM     28  C   UNL     1      58.905  29.475  51.606  1.00  0.00    -0.000 C 
BRANCH  28  29
ATOM     29  C   UNL     1      59.906  30.117  52.587  1.00  0.00    -0.000 C 
BRANCH  29  30
ATOM     30  C   UNL     1      59.286  31.186  53.511  1.00  0.00    -0.000 C 
BRANCH  30  31
ATOM     31  C   UNL     1      57.812  31.494  53.195  1.00  0.00    -0.003 C 
ATOM     32  C   UNL     1      57.035  31.949  54.429  1.00  0.00     0.004 C 
ENDBRANCH  30  31
ENDBRANCH  29  30
ENDBRANCH  28  29
ENDBRANCH  27  28
ENDBRANCH  26  27
ENDBRANCH  25  26
ENDBRANCH  24  25
ENDBRANCH  23  24
ENDBRANCH  22  23
ENDBRANCH  21  22
ENDBRANCH  20  21
ENDBRANCH  19  20
ENDBRANCH  18  19
ENDBRANCH   1  18
TORSDOF 28
ENDMDL
MODEL 8
REMARK VINA RESULT:    -2.914      7.853     10.758
REMARK INTER + INTRA:         -13.462
REMARK INTER:                  -7.920
REMARK INTRA:                  -5.542
REMARK UNBOUND:                -5.780
REMARK SMILES CCCCCCCCCCCCCCCCCCCCCCCCCCCCCC(=O)[O-]
REMARK SMILES IDX 16 1 17 2 18 3 19 4 20 5 21 6 22 7 23 8 24 9 25 10 26 11
REMARK SMILES IDX 27 12 28 13 29 14 30 15 31 16 32 17 15 18 14 19 13 20 12 21
REMARK SMILES IDX 11 22 10 23 9 24 8 25 7 26 6 27 5 28 4 29 3 30 2 31 1 32
REMARK H PARENT
REMARK Flexibility Score: inf
ROOT
ATOM      1  C   UNL     1      64.508  31.365  60.908  1.00  0.00     0.000 C 
ENDROOT
BRANCH   1   2
ATOM      2  C   UNL     1      64.092  30.041  60.252  1.00  0.00     0.000 C 
BRANCH   2   3
ATOM      3  C   UNL     1      62.628  29.702  60.577  1.00  0.00     0.000 C 
BRANCH   3   4
ATOM      4  C   UNL     1      62.004  30.669  61.593  1.00  0.00     0.000 C 
BRANCH   4   5
ATOM      5  C   UNL     1      60.845  31.492  61.002  1.00  0.00     0.000 C 
BRANCH   5   6
ATOM      6  C   UNL     1      60.997  31.727  59.483  1.00  0.00     0.000 C 
BRANCH   6   7
ATOM      7  C   UNL     1      59.682  32.081  58.758  1.00  0.00     0.000 C 
BRANCH   7   8
ATOM      8  C   UNL     1      58.861  30.884  58.242  1.00  0.00     0.000 C 
BRANCH   8   9
ATOM      9  C   UNL     1      59.485  29.502  58.511  1.00  0.00     0.000 C 
BRANCH   9  10
ATOM     10  C   UNL     1      58.437  28.383  58.640  1.00  0.00     0.000 C 
BRANCH  10  11
ATOM     11  C   UNL     1      58.514  27.663  59.998  1.00  0.00     0.000 C 
BRANCH  11  12
ATOM     12  C   UNL     1      59.912  27.763  60.637  1.00  0.00     0.000 C 
BRANCH  12  13
ATOM     13  C   UNL     1      60.547  26.387  60.894  1.00  0.00     0.006 C 
BRANCH  13  14
ATOM     14  C   UNL     1      61.790  26.466  61.789  1.00  0.00     0.053 C 
BRANCH  14  15
ATOM     15  C   UNL     1      61.696  25.467  62.900  1.00  0.00     0.041 C 
ATOM     16  O   UNL     1      62.739  24.941  63.372  1.00  0.00    -0.550 OA
ATOM     17  O   UNL     1      60.451  25.085  63.386  1.00  0.00    -0.550 OA
ENDBRANCH  14  15
ENDBRANCH  13  14
ENDBRANCH  12  13
ENDBRANCH  11  12
ENDBRANCH  10  11
ENDBRANCH   9  10
ENDBRANCH   8   9
ENDBRANCH   7   8
ENDBRANCH   6   7
ENDBRANCH   5   6
ENDBRANCH   4   5
ENDBRANCH   3   4
ENDBRANCH   2   3
ENDBRANCH   1   2
BRANCH   1  18
ATOM     18  C   UNL     1      64.605  32.524  59.891  1.00  0.00     0.000 C 
BRANCH  18  19
ATOM     19  C   UNL     1      64.606  33.914  60.548  1.00  0.00     0.000 C 
BRANCH  19  20
ATOM     20  C   UNL     1      63.189  34.406  60.898  1.00  0.00     0.000 C 
BRANCH  20  21
ATOM     21  C   UNL     1      63.116  35.937  60.996  1.00  0.00     0.000 C 
BRANCH  21  22
ATOM     22  C   UNL     1      61.676  36.480  60.867  1.00  0.00     0.000 C 
BRANCH  22  23
ATOM     23  C   UNL     1      60.663  35.386  60.497  1.00  0.00     0.000 C 
BRANCH  23  24
ATOM     24  C   UNL     1      59.770  35.804  59.315  1.00  0.00    -0.000 C 
BRANCH  24  25
ATOM     25  C   UNL     1      60.380  36.987  58.550  1.00  0.00    -0.000 C 
BRANCH  25  26
ATOM     26  C   UNL     1      60.996  36.568  57.208  1.00  0.00    -0.000 C 
BRANCH  26  27
ATOM     27  C   UNL     1      62.517  36.799  57.149  1.00  0.00    -0.000 C 
BRANCH  27  28
ATOM     28  C   UNL     1      63.313  35.479  57.178  1.00  0.00    -0.000 C 
BRANCH  28  29
ATOM     29  C   UNL     1      62.440  34.222  57.359  1.00  0.00    -0.000 C 
BRANCH  29  30
ATOM     30  C   UNL     1      62.479  33.247  56.164  1.00  0.00    -0.000 C 
BRANCH  30  31
ATOM     31  C   UNL     1      61.210  33.285  55.297  1.00  0.00    -0.003 C 
ATOM     32  C   UNL     1      60.599  31.898  55.099  1.00  0.00     0.004 C 
ENDBRANCH  30  31
ENDBRANCH  29  30
ENDBRANCH  28  29
ENDBRANCH  27  28
ENDBRANCH  26  27
ENDBRANCH  25  26
ENDBRANCH  24  25
ENDBRANCH  23  24
ENDBRANCH  22  23
ENDBRANCH  21  22
ENDBRANCH  20  21
ENDBRANCH  19  20
ENDBRANCH  18  19
ENDBRANCH   1  18
TORSDOF 28
ENDMDL
MODEL 9
REMARK VINA RESULT:    -2.889      2.050      5.021
REMARK INTER + INTRA:         -13.398
REMARK INTER:                  -7.025
REMARK INTRA:                  -6.373
REMARK UNBOUND:                -5.780
REMARK SMILES CCCCCCCCCCCCCCCCCCCCCCCCCCCCCC(=O)[O-]
REMARK SMILES IDX 16 1 17 2 18 3 19 4 20 5 21 6 22 7 23 8 24 9 25 10 26 11
REMARK SMILES IDX 27 12 28 13 29 14 30 15 31 16 32 17 15 18 14 19 13 20 12 21
REMARK SMILES IDX 11 22 10 23 9 24 8 25 7 26 6 27 5 28 4 29 3 30 2 31 1 32
REMARK H PARENT
REMARK Flexibility Score: inf
ROOT
ATOM      1  C   UNL     1      54.763  28.885  51.710  1.00  0.00     0.000 C 
ENDROOT
BRANCH   1   2
ATOM      2  C   UNL     1      53.394  28.737  51.031  1.00  0.00     0.000 C 
BRANCH   2   3
ATOM      3  C   UNL     1      53.448  27.686  49.910  1.00  0.00     0.000 C 
BRANCH   3   4
ATOM      4  C   UNL     1      53.700  26.266  50.435  1.00  0.00     0.000 C 
BRANCH   4   5
ATOM      5  C   UNL     1      54.908  25.586  49.766  1.00  0.00     0.000 C 
BRANCH   5   6
ATOM      6  C   UNL     1      56.089  25.381  50.741  1.00  0.00     0.000 C 
BRANCH   6   7
ATOM      7  C   UNL     1      55.678  25.257  52.223  1.00  0.00     0.000 C 
BRANCH   7   8
ATOM      8  C   UNL     1      56.543  26.045  53.224  1.00  0.00     0.000 C 
BRANCH   8   9
ATOM      9  C   UNL     1      58.050  26.069  52.906  1.00  0.00     0.000 C 
BRANCH   9  10
ATOM     10  C   UNL     1      58.755  27.333  53.428  1.00  0.00     0.000 C 
BRANCH  10  11
ATOM     11  C   UNL     1      57.757  28.403  53.907  1.00  0.00     0.000 C 
BRANCH  11  12
ATOM     12  C   UNL     1      58.454  29.715  54.312  1.00  0.00     0.000 C 
BRANCH  12  13
ATOM     13  C   UNL     1      58.037  30.905  53.432  1.00  0.00     0.006 C 
BRANCH  13  14
ATOM     14  C   UNL     1      57.047  31.843  54.134  1.00  0.00     0.053 C 
BRANCH  14  15
ATOM     15  C   UNL     1      57.619  33.223  54.233  1.00  0.00     0.041 C 
ATOM     16  O   UNL     1      58.501  33.606  53.419  1.00  0.00    -0.550 OA
ATOM     17  O   UNL     1      57.207  34.074  55.253  1.00  0.00    -0.550 OA
ENDBRANCH  14  15
ENDBRANCH  13  14
ENDBRANCH  12  13
ENDBRANCH  11  12
ENDBRANCH  10  11
ENDBRANCH   9  10
ENDBRANCH   8   9
ENDBRANCH   7   8
ENDBRANCH   6   7
ENDBRANCH   5   6
ENDBRANCH   4   5
ENDBRANCH   3   4
ENDBRANCH   2   3
ENDBRANCH   1   2
BRANCH   1  18
ATOM     18  C   UNL     1      55.812  29.542  50.787  1.00  0.00     0.000 C 
BRANCH  18  19
ATOM     19  C   UNL     1      56.950  28.590  50.382  1.00  0.00     0.000 C 
BRANCH  19  20
ATOM     20  C   UNL     1      58.292  29.320  50.184  1.00  0.00     0.000 C 
BRANCH  20  21
ATOM     21  C   UNL     1      59.246  28.538  49.270  1.00  0.00     0.000 C 
BRANCH  21  22
ATOM     22  C   UNL     1      59.401  27.059  49.686  1.00  0.00     0.000 C 
BRANCH  22  23
ATOM     23  C   UNL     1      60.812  26.735  50.200  1.00  0.00     0.000 C 
BRANCH  23  24
ATOM     24  C   UNL     1      61.781  27.914  50.008  1.00  0.00    -0.000 C 
BRANCH  24  25
ATOM     25  C   UNL     1      62.415  28.332  51.343  1.00  0.00    -0.000 C 
BRANCH  25  26
ATOM     26  C   UNL     1      61.530  29.300  52.140  1.00  0.00    -0.000 C 
BRANCH  26  27
ATOM     27  C   UNL     1      61.434  30.694  51.495  1.00  0.00    -0.000 C 
BRANCH  27  28
ATOM     28  C   UNL     1      61.440  31.827  52.542  1.00  0.00    -0.000 C 
BRANCH  28  29
ATOM     29  C   UNL     1      61.771  31.359  53.973  1.00  0.00    -0.000 C 
BRANCH  29  30
ATOM     30  C   UNL     1      61.428  32.389  55.069  1.00  0.00    -0.000 C 
BRANCH  30  31
ATOM     31  C   UNL     1      61.165  31.758  56.447  1.00  0.00    -0.003 C 
ATOM     32  C   UNL     1      59.739  32.006  56.937  1.00  0.00     0.004 C 
ENDBRANCH  30  31
ENDBRANCH  29  30
ENDBRANCH  28  29
ENDBRANCH  27  28
ENDBRANCH  26  27
ENDBRANCH  25  26
ENDBRANCH  24  25
ENDBRANCH  23  24
ENDBRANCH  22  23
ENDBRANCH  21  22
ENDBRANCH  20  21
ENDBRANCH  19  20
ENDBRANCH  18  19
ENDBRANCH   1  18
TORSDOF 28
ENDMDL
