MODEL 1
REMARK VINA RESULT:    -4.301      0.000      0.000
REMARK INTER + INTRA:          -5.305
REMARK INTER:                  -5.182
REMARK INTRA:                  -0.123
REMARK UNBOUND:                -0.123
REMARK SMILES CC[C@H](C)[C@@H]([NH3+])C(=O)[O-]
REMARK SMILES IDX 3 1 4 2 5 3 6 4 7 8 8 9 9 10 2 11 1 12
REMARK H PARENT 6 5 6 6 6 7
REMARK Flexibility Score: inf
ROOT
ATOM      1  C   UNL     1       6.755 -12.117 -28.337  1.00  0.00     0.050 C 
ATOM      2  C   UNL     1       6.044 -12.267 -26.978  1.00  0.00     0.014 C 
ENDROOT
BRANCH   1   3
ATOM      3  C   UNL     1       5.724 -11.865 -29.486  1.00  0.00     0.230 C 
BRANCH   3   4
ATOM      4  N   UNL     1       4.819 -10.747 -29.180  1.00  0.00    -0.350 N 
ATOM      5  H   UNL     1       4.419 -10.857 -28.220  1.00  0.00     0.345 HD
ATOM      6  H   UNL     1       4.012 -10.741 -29.846  1.00  0.00     0.345 HD
ATOM      7  H   UNL     1       5.322  -9.832 -29.249  1.00  0.00     0.345 HD
ENDBRANCH   3   4
BRANCH   3   8
ATOM      8  C   UNL     1       6.428 -11.587 -30.790  1.00  0.00     0.099 C 
ATOM      9  O   UNL     1       6.325 -12.395 -31.751  1.00  0.00    -0.544 OA
ATOM     10  O   UNL     1       7.205 -10.444 -30.937  1.00  0.00    -0.544 OA
ENDBRANCH   3   8
ENDBRANCH   1   3
BRANCH   1  11
ATOM     11  C   UNL     1       7.627 -13.380 -28.607  1.00  0.00     0.006 C 
ATOM     12  C   UNL     1       6.869 -14.687 -28.365  1.00  0.00     0.004 C 
ENDBRANCH   1  11
TORSDOF 4
ENDMDL
MODEL 2
REMARK VINA RESULT:    -4.273      2.663      3.580
REMARK INTER + INTRA:          -5.271
REMARK INTER:                  -5.167
REMARK INTRA:                  -0.104
REMARK UNBOUND:                -0.123
REMARK SMILES CC[C@H](C)[C@@H]([NH3+])C(=O)[O-]
REMARK SMILES IDX 3 1 4 2 5 3 6 4 7 8 8 9 9 10 2 11 1 12
REMARK H PARENT 6 5 6 6 6 7
REMARK Flexibility Score: inf
ROOT
ATOM      1  C   UNL     1       7.395 -11.251 -29.745  1.00  0.00     0.050 C 
ATOM      2  C   UNL     1       6.998 -10.427 -30.985  1.00  0.00     0.014 C 
ENDROOT
BRANCH   1   3
ATOM      3  C   UNL     1       6.308 -11.141 -28.625  1.00  0.00     0.230 C 
BRANCH   3   4
ATOM      4  N   UNL     1       4.962 -10.937 -29.182  1.00  0.00    -0.350 N 
ATOM      5  H   UNL     1       5.005 -10.300 -30.010  1.00  0.00     0.345 HD
ATOM      6  H   UNL     1       4.344 -10.474 -28.475  1.00  0.00     0.345 HD
ATOM      7  H   UNL     1       4.533 -11.850 -29.461  1.00  0.00     0.345 HD
ENDBRANCH   3   4
BRANCH   3   8
ATOM      8  C   UNL     1       6.302 -12.374 -27.757  1.00  0.00     0.099 C 
ATOM      9  O   UNL     1       6.634 -13.489 -28.239  1.00  0.00    -0.544 OA
ATOM     10  O   UNL     1       5.919 -12.290 -26.424  1.00  0.00    -0.544 OA
ENDBRANCH   3   8
ENDBRANCH   1   3
BRANCH   1  11
ATOM     11  C   UNL     1       8.795 -10.786 -29.242  1.00  0.00     0.006 C 
ATOM     12  C   UNL     1       8.813  -9.318 -28.809  1.00  0.00     0.004 C 
ENDBRANCH   1  11
TORSDOF 4
ENDMDL
MODEL 3
REMARK VINA RESULT:    -4.104      1.673      1.843
REMARK INTER + INTRA:          -5.067
REMARK INTER:                  -4.996
REMARK INTRA:                  -0.071
REMARK UNBOUND:                -0.123
REMARK SMILES CC[C@H](C)[C@@H]([NH3+])C(=O)[O-]
REMARK SMILES IDX 3 1 4 2 5 3 6 4 7 8 8 9 9 10 2 11 1 12
REMARK H PARENT 6 5 6 6 6 7
REMARK Flexibility Score: inf
ROOT
ATOM      1  C   UNL     1       6.638 -12.337 -28.744  1.00  0.00     0.050 C 
ATOM      2  C   UNL     1       6.131 -12.239 -27.293  1.00  0.00     0.014 C 
ENDROOT
BRANCH   1   3
ATOM      3  C   UNL     1       6.133 -11.129 -29.599  1.00  0.00     0.230 C 
BRANCH   3   4
ATOM      4  N   UNL     1       4.787 -10.691 -29.195  1.00  0.00    -0.350 N 
ATOM      5  H   UNL     1       4.163 -10.621 -30.031  1.00  0.00     0.345 HD
ATOM      6  H   UNL     1       4.831  -9.737 -28.767  1.00  0.00     0.345 HD
ATOM      7  H   UNL     1       4.374 -11.356 -28.500  1.00  0.00     0.345 HD
ENDBRANCH   3   4
BRANCH   3   8
ATOM      8  C   UNL     1       7.083  -9.962 -29.498  1.00  0.00     0.099 C 
ATOM      9  O   UNL     1       6.665  -8.787 -29.673  1.00  0.00    -0.544 OA
ATOM     10  O   UNL     1       8.428 -10.177 -29.224  1.00  0.00    -0.544 OA
ENDBRANCH   3   8
ENDBRANCH   1   3
BRANCH   1  11
ATOM     11  C   UNL     1       6.199 -13.703 -29.354  1.00  0.00     0.006 C 
ATOM     12  C   UNL     1       6.707 -14.902 -28.551  1.00  0.00     0.004 C 
ENDBRANCH   1  11
TORSDOF 4
ENDMDL
MODEL 4
REMARK VINA RESULT:    -4.073      1.323      1.986
REMARK INTER + INTRA:          -5.030
REMARK INTER:                  -4.946
REMARK INTRA:                  -0.084
REMARK UNBOUND:                -0.123
REMARK SMILES CC[C@H](C)[C@@H]([NH3+])C(=O)[O-]
REMARK SMILES IDX 3 1 4 2 5 3 6 4 7 8 8 9 9 10 2 11 1 12
REMARK H PARENT 6 5 6 6 6 7
REMARK Flexibility Score: inf
ROOT
ATOM      1  C   UNL     1       6.935 -11.633 -28.499  1.00  0.00     0.050 C 
ATOM      2  C   UNL     1       6.073 -12.113 -27.316  1.00  0.00     0.014 C 
ENDROOT
BRANCH   1   3
ATOM      3  C   UNL     1       6.042 -11.074 -29.655  1.00  0.00     0.230 C 
BRANCH   3   4
ATOM      4  N   UNL     1       4.694 -10.716 -29.187  1.00  0.00    -0.350 N 
ATOM      5  H   UNL     1       4.750  -9.963 -28.464  1.00  0.00     0.345 HD
ATOM      6  H   UNL     1       4.238 -11.541 -28.733  1.00  0.00     0.345 HD
ATOM      7  H   UNL     1       4.097 -10.395 -29.985  1.00  0.00     0.345 HD
ENDBRANCH   3   4
BRANCH   3   8
ATOM      8  C   UNL     1       6.680  -9.867 -30.294  1.00  0.00     0.099 C 
ATOM      9  O   UNL     1       6.660  -8.753 -29.705  1.00  0.00    -0.544 OA
ATOM     10  O   UNL     1       7.285  -9.971 -31.541  1.00  0.00    -0.544 OA
ENDBRANCH   3   8
ENDBRANCH   1   3
BRANCH   1  11
ATOM     11  C   UNL     1       7.846 -12.802 -28.983  1.00  0.00     0.006 C 
ATOM     12  C   UNL     1       9.186 -12.318 -29.540  1.00  0.00     0.004 C 
ENDBRANCH   1  11
TORSDOF 4
ENDMDL
MODEL 5
REMARK VINA RESULT:    -4.011      1.367      2.031
REMARK INTER + INTRA:          -4.955
REMARK INTER:                  -5.025
REMARK INTRA:                   0.071
REMARK UNBOUND:                -0.123
REMARK SMILES CC[C@H](C)[C@@H]([NH3+])C(=O)[O-]
REMARK SMILES IDX 3 1 4 2 5 3 6 4 7 8 8 9 9 10 2 11 1 12
REMARK H PARENT 6 5 6 6 6 7
REMARK Flexibility Score: inf
ROOT
ATOM      1  C   UNL     1       6.456 -12.636 -29.068  1.00  0.00     0.050 C 
ATOM      2  C   UNL     1       7.929 -12.967 -29.370  1.00  0.00     0.014 C 
ENDROOT
BRANCH   1   3
ATOM      3  C   UNL     1       6.023 -11.306 -29.768  1.00  0.00     0.230 C 
BRANCH   3   4
ATOM      4  N   UNL     1       4.806 -10.737 -29.166  1.00  0.00    -0.350 N 
ATOM      5  H   UNL     1       3.964 -11.018 -29.718  1.00  0.00     0.345 HD
ATOM      6  H   UNL     1       4.848  -9.692 -29.186  1.00  0.00     0.345 HD
ATOM      7  H   UNL     1       4.700 -11.054 -28.175  1.00  0.00     0.345 HD
ENDBRANCH   3   4
BRANCH   3   8
ATOM      8  C   UNL     1       7.128 -10.282 -29.711  1.00  0.00     0.099 C 
ATOM      9  O   UNL     1       7.775  -9.990 -30.751  1.00  0.00    -0.544 OA
ATOM     10  O   UNL     1       7.446  -9.662 -28.509  1.00  0.00    -0.544 OA
ENDBRANCH   3   8
ENDBRANCH   1   3
BRANCH   1  11
ATOM     11  C   UNL     1       6.246 -12.574 -27.524  1.00  0.00     0.006 C 
ATOM     12  C   UNL     1       6.938 -13.721 -26.785  1.00  0.00     0.004 C 
ENDBRANCH   1  11
TORSDOF 4
ENDMDL
MODEL 6
REMARK VINA RESULT:    -4.001      2.657      3.715
REMARK INTER + INTRA:          -4.943
REMARK INTER:                  -4.865
REMARK INTRA:                  -0.078
REMARK UNBOUND:                -0.123
REMARK SMILES CC[C@H](C)[C@@H]([NH3+])C(=O)[O-]
REMARK SMILES IDX 3 1 4 2 5 3 6 4 7 8 8 9 9 10 2 11 1 12
REMARK H PARENT 6 5 6 6 6 7
REMARK Flexibility Score: inf
ROOT
ATOM      1  C   UNL     1       7.335 -10.026 -29.249  1.00  0.00     0.050 C 
ATOM      2  C   UNL     1       6.403  -9.327 -30.258  1.00  0.00     0.014 C 
ENDROOT
BRANCH   1   3
ATOM      3  C   UNL     1       6.583 -11.162 -28.481  1.00  0.00     0.230 C 
BRANCH   3   4
ATOM      4  N   UNL     1       5.155 -11.212 -28.831  1.00  0.00    -0.350 N 
ATOM      5  H   UNL     1       4.684 -10.317 -28.564  1.00  0.00     0.345 HD
ATOM      6  H   UNL     1       4.678 -11.976 -28.299  1.00  0.00     0.345 HD
ATOM      7  H   UNL     1       5.029 -11.383 -29.856  1.00  0.00     0.345 HD
ENDBRANCH   3   4
BRANCH   3   8
ATOM      8  C   UNL     1       7.207 -12.506 -28.760  1.00  0.00     0.099 C 
ATOM      9  O   UNL     1       8.460 -12.631 -28.779  1.00  0.00    -0.544 OA
ATOM     10  O   UNL     1       6.404 -13.613 -29.008  1.00  0.00    -0.544 OA
ENDBRANCH   3   8
ENDBRANCH   1   3
BRANCH   1  11
ATOM     11  C   UNL     1       7.932  -8.965 -28.276  1.00  0.00     0.006 C 
ATOM     12  C   UNL     1       9.382  -8.605 -28.607  1.00  0.00     0.004 C 
ENDBRANCH   1  11
TORSDOF 4
ENDMDL
MODEL 7
REMARK VINA RESULT:    -3.890      2.169      3.188
REMARK INTER + INTRA:          -4.809
REMARK INTER:                  -4.802
REMARK INTRA:                  -0.007
REMARK UNBOUND:                -0.123
REMARK SMILES CC[C@H](C)[C@@H]([NH3+])C(=O)[O-]
REMARK SMILES IDX 3 1 4 2 5 3 6 4 7 8 8 9 9 10 2 11 1 12
REMARK H PARENT 6 5 6 6 6 7
REMARK Flexibility Score: inf
ROOT
ATOM      1  C   UNL     1       7.613 -11.042 -29.230  1.00  0.00     0.050 C 
ATOM      2  C   UNL     1       8.873 -11.928 -29.187  1.00  0.00     0.014 C 
ENDROOT
BRANCH   1   3
ATOM      3  C   UNL     1       6.454 -11.670 -28.388  1.00  0.00     0.230 C 
BRANCH   3   4
ATOM      4  N   UNL     1       5.133 -11.201 -28.833  1.00  0.00    -0.350 N 
ATOM      5  H   UNL     1       5.023 -10.181 -28.628  1.00  0.00     0.345 HD
ATOM      6  H   UNL     1       4.377 -11.699 -28.309  1.00  0.00     0.345 HD
ATOM      7  H   UNL     1       5.004 -11.370 -29.858  1.00  0.00     0.345 HD
ENDBRANCH   3   4
BRANCH   3   8
ATOM      8  C   UNL     1       6.493 -13.176 -28.457  1.00  0.00     0.099 C 
ATOM      9  O   UNL     1       6.066 -13.774 -29.480  1.00  0.00    -0.544 OA
ATOM     10  O   UNL     1       6.988 -13.913 -27.389  1.00  0.00    -0.544 OA
ENDBRANCH   3   8
ENDBRANCH   1   3
BRANCH   1  11
ATOM     11  C   UNL     1       7.194 -10.811 -30.713  1.00  0.00     0.006 C 
ATOM     12  C   UNL     1       8.099 -11.543 -31.706  1.00  0.00     0.004 C 
ENDBRANCH   1  11
TORSDOF 4
ENDMDL
MODEL 8
REMARK VINA RESULT:    -3.888      2.468      3.395
REMARK INTER + INTRA:          -4.806
REMARK INTER:                  -4.824
REMARK INTRA:                   0.018
REMARK UNBOUND:                -0.123
REMARK SMILES CC[C@H](C)[C@@H]([NH3+])C(=O)[O-]
REMARK SMILES IDX 3 1 4 2 5 3 6 4 7 8 8 9 9 10 2 11 1 12
REMARK H PARENT 6 5 6 6 6 7
REMARK Flexibility Score: inf
ROOT
ATOM      1  C   UNL     1       7.454 -10.500 -28.748  1.00  0.00     0.050 C 
ATOM      2  C   UNL     1       8.707 -11.232 -29.265  1.00  0.00     0.014 C 
ENDROOT
BRANCH   1   3
ATOM      3  C   UNL     1       6.309 -10.522 -29.812  1.00  0.00     0.230 C 
BRANCH   3   4
ATOM      4  N   UNL     1       4.980 -10.618 -29.190  1.00  0.00    -0.350 N 
ATOM      5  H   UNL     1       4.493 -11.487 -29.508  1.00  0.00     0.345 HD
ATOM      6  H   UNL     1       4.383  -9.811 -29.485  1.00  0.00     0.345 HD
ATOM      7  H   UNL     1       5.057 -10.619 -28.146  1.00  0.00     0.345 HD
ENDBRANCH   3   4
BRANCH   3   8
ATOM      8  C   UNL     1       6.359  -9.293 -30.684  1.00  0.00     0.099 C 
ATOM      9  O   UNL     1       7.232  -9.191 -31.586  1.00  0.00    -0.544 OA
ATOM     10  O   UNL     1       5.450  -8.260 -30.490  1.00  0.00    -0.544 OA
ENDBRANCH   3   8
ENDBRANCH   1   3
BRANCH   1  11
ATOM     11  C   UNL     1       7.838  -9.045 -28.339  1.00  0.00     0.006 C 
ATOM     12  C   UNL     1       9.321  -8.739 -28.557  1.00  0.00     0.004 C 
ENDBRANCH   1  11
TORSDOF 4
ENDMDL
MODEL 9
REMARK VINA RESULT:    -3.874      2.744      3.647
REMARK INTER + INTRA:          -4.790
REMARK INTER:                  -4.699
REMARK INTRA:                  -0.091
REMARK UNBOUND:                -0.123
REMARK SMILES CC[C@H](C)[C@@H]([NH3+])C(=O)[O-]
REMARK SMILES IDX 3 1 4 2 5 3 6 4 7 8 8 9 9 10 2 11 1 12
REMARK H PARENT 6 5 6 6 6 7
REMARK Flexibility Score: inf
ROOT
ATOM      1  C   UNL     1       7.961 -12.668 -29.991  1.00  0.00     0.050 C 
ATOM      2  C   UNL     1       7.584 -12.073 -31.361  1.00  0.00     0.014 C 
ENDROOT
BRANCH   1   3
ATOM      3  C   UNL     1       6.709 -12.781 -29.062  1.00  0.00     0.230 C 
BRANCH   3   4
ATOM      4  N   UNL     1       5.454 -12.810 -29.829  1.00  0.00    -0.350 N 
ATOM      5  H   UNL     1       5.434 -12.026 -30.521  1.00  0.00     0.345 HD
ATOM      6  H   UNL     1       4.636 -12.672 -29.191  1.00  0.00     0.345 HD
ATOM      7  H   UNL     1       5.344 -13.723 -30.327  1.00  0.00     0.345 HD
ENDBRANCH   3   4
BRANCH   3   8
ATOM      8  C   UNL     1       6.788 -14.013 -28.197  1.00  0.00     0.099 C 
ATOM      9  O   UNL     1       6.474 -15.139 -28.668  1.00  0.00    -0.544 OA
ATOM     10  O   UNL     1       7.196 -13.914 -26.872  1.00  0.00    -0.544 OA
ENDBRANCH   3   8
ENDBRANCH   1   3
BRANCH   1  11
ATOM     11  C   UNL     1       9.087 -11.804 -29.345  1.00  0.00     0.006 C 
ATOM     12  C   UNL     1       8.698 -10.331 -29.204  1.00  0.00     0.004 C 
ENDBRANCH   1  11
TORSDOF 4
ENDMDL
