MODEL 1
REMARK VINA RESULT:    -2.408      0.000      0.000
REMARK INTER + INTRA:          -2.702
REMARK INTER:                  -2.690
REMARK INTRA:                  -0.012
REMARK UNBOUND:                -0.012
REMARK SMILES CCCC(=O)[O-]
REMARK SMILES IDX 3 1 4 2 5 3 6 4 2 5 1 6
REMARK H PARENT
REMARK Flexibility Score: inf
ROOT
ATOM      1  C   UNL     1      54.940  27.816  50.289  1.00  0.00     0.052 C 
ENDROOT
BRANCH   1   2
ATOM      2  C   UNL     1      55.370  26.449  49.859  1.00  0.00     0.041 C 
ATOM      3  O   UNL     1      54.636  25.763  49.100  1.00  0.00    -0.550 OA
ATOM      4  O   UNL     1      56.604  25.952  50.256  1.00  0.00    -0.550 OA
ENDBRANCH   1   2
BRANCH   1   5
ATOM      5  C   UNL     1      53.521  28.111  49.794  1.00  0.00     0.003 C 
ATOM      6  C   UNL     1      53.026  29.458  50.312  1.00  0.00     0.004 C 
ENDBRANCH   1   5
TORSDOF 2
ENDMDL
MODEL 2
REMARK VINA RESULT:    -2.401     15.227     15.835
REMARK INTER + INTRA:          -2.694
REMARK INTER:                  -2.682
REMARK INTRA:                  -0.012
REMARK UNBOUND:                -0.012
REMARK SMILES CCCC(=O)[O-]
REMARK SMILES IDX 3 1 4 2 5 3 6 4 2 5 1 6
REMARK H PARENT
REMARK Flexibility Score: inf
ROOT
ATOM      1  C   UNL     1      62.545  34.651  60.524  1.00  0.00     0.052 C 
ENDROOT
BRANCH   1   2
ATOM      2  C   UNL     1      63.906  34.190  60.939  1.00  0.00     0.041 C 
ATOM      3  O   UNL     1      64.633  34.927  61.655  1.00  0.00    -0.550 OA
ATOM      4  O   UNL     1      64.353  32.926  60.575  1.00  0.00    -0.550 OA
ENDBRANCH   1   2
BRANCH   1   5
ATOM      5  C   UNL     1      62.333  36.116  60.915  1.00  0.00     0.003 C 
ATOM      6  C   UNL     1      60.958  36.611  60.478  1.00  0.00     0.004 C 
ENDBRANCH   1   5
TORSDOF 2
ENDMDL
MODEL 3
REMARK VINA RESULT:    -2.389     13.191     13.837
REMARK INTER + INTRA:          -2.680
REMARK INTER:                  -2.648
REMARK INTRA:                  -0.032
REMARK UNBOUND:                -0.012
REMARK SMILES CCCC(=O)[O-]
REMARK SMILES IDX 3 1 4 2 5 3 6 4 2 5 1 6
REMARK H PARENT
REMARK Flexibility Score: inf
ROOT
ATOM      1  C   UNL     1      61.079  31.019  61.567  1.00  0.00     0.052 C 
ENDROOT
BRANCH   1   2
ATOM      2  C   UNL     1      62.223  30.054  61.551  1.00  0.00     0.041 C 
ATOM      3  O   UNL     1      62.005  28.815  61.537  1.00  0.00    -0.550 OA
ATOM      4  O   UNL     1      63.528  30.525  61.503  1.00  0.00    -0.550 OA
ENDBRANCH   1   2
BRANCH   1   5
ATOM      5  C   UNL     1      60.970  31.743  60.222  1.00  0.00     0.003 C 
ATOM      6  C   UNL     1      61.526  33.161  60.312  1.00  0.00     0.004 C 
ENDBRANCH   1   5
TORSDOF 2
ENDMDL
MODEL 4
REMARK VINA RESULT:    -2.371      3.900      4.721
REMARK INTER + INTRA:          -2.660
REMARK INTER:                  -2.627
REMARK INTRA:                  -0.033
REMARK UNBOUND:                -0.012
REMARK SMILES CCCC(=O)[O-]
REMARK SMILES IDX 3 1 4 2 5 3 6 4 2 5 1 6
REMARK H PARENT
REMARK Flexibility Score: inf
ROOT
ATOM      1  C   UNL     1      58.941  29.128  49.289  1.00  0.00     0.052 C 
ENDROOT
BRANCH   1   2
ATOM      2  C   UNL     1      59.790  27.898  49.354  1.00  0.00     0.041 C 
ATOM      3  O   UNL     1      61.043  27.996  49.422  1.00  0.00    -0.550 OA
ATOM      4  O   UNL     1      59.195  26.644  49.389  1.00  0.00    -0.550 OA
ENDBRANCH   1   2
BRANCH   1   5
ATOM      5  C   UNL     1      58.240  29.367  50.630  1.00  0.00     0.003 C 
ATOM      6  C   UNL     1      56.784  28.913  50.579  1.00  0.00     0.004 C 
ENDBRANCH   1   5
TORSDOF 2
ENDMDL
MODEL 5
REMARK VINA RESULT:    -2.340     16.412     17.070
REMARK INTER + INTRA:          -2.626
REMARK INTER:                  -2.619
REMARK INTRA:                  -0.007
REMARK UNBOUND:                -0.012
REMARK SMILES CCCC(=O)[O-]
REMARK SMILES IDX 3 1 4 2 5 3 6 4 2 5 1 6
REMARK H PARENT
REMARK Flexibility Score: inf
ROOT
ATOM      1  C   UNL     1      63.661  35.231  61.128  1.00  0.00     0.052 C 
ENDROOT
BRANCH   1   2
ATOM      2  C   UNL     1      64.768  36.120  61.596  1.00  0.00     0.041 C 
ATOM      3  O   UNL     1      65.928  35.991  61.123  1.00  0.00    -0.550 OA
ATOM      4  O   UNL     1      64.510  37.125  62.520  1.00  0.00    -0.550 OA
ENDBRANCH   1   2
BRANCH   1   5
ATOM      5  C   UNL     1      62.366  36.030  60.961  1.00  0.00     0.003 C 
ATOM      6  C   UNL     1      61.302  35.212  60.235  1.00  0.00     0.004 C 
ENDBRANCH   1   5
TORSDOF 2
ENDMDL
MODEL 6
REMARK VINA RESULT:    -2.302      4.848      5.444
REMARK INTER + INTRA:          -2.584
REMARK INTER:                  -2.570
REMARK INTRA:                  -0.014
REMARK UNBOUND:                -0.012
REMARK SMILES CCCC(=O)[O-]
REMARK SMILES IDX 3 1 4 2 5 3 6 4 2 5 1 6
REMARK H PARENT
REMARK Flexibility Score: inf
ROOT
ATOM      1  C   UNL     1      59.166  26.777  49.638  1.00  0.00     0.052 C 
ENDROOT
BRANCH   1   2
ATOM      2  C   UNL     1      60.153  25.723  50.030  1.00  0.00     0.041 C 
ATOM      3  O   UNL     1      61.379  26.000  50.103  1.00  0.00    -0.550 OA
ATOM      4  O   UNL     1      59.714  24.448  50.363  1.00  0.00    -0.550 OA
ENDBRANCH   1   2
BRANCH   1   5
ATOM      5  C   UNL     1      59.886  28.083  49.291  1.00  0.00     0.003 C 
ATOM      6  C   UNL     1      58.915  29.260  49.275  1.00  0.00     0.004 C 
ENDBRANCH   1   5
TORSDOF 2
ENDMDL
MODEL 7
REMARK VINA RESULT:    -2.298      1.792      2.440
REMARK INTER + INTRA:          -2.579
REMARK INTER:                  -2.570
REMARK INTRA:                  -0.008
REMARK UNBOUND:                -0.012
REMARK SMILES CCCC(=O)[O-]
REMARK SMILES IDX 3 1 4 2 5 3 6 4 2 5 1 6
REMARK H PARENT
REMARK Flexibility Score: inf
ROOT
ATOM      1  C   UNL     1      54.759  27.203  49.996  1.00  0.00     0.052 C 
ENDROOT
BRANCH   1   2
ATOM      2  C   UNL     1      56.229  27.232  50.272  1.00  0.00     0.041 C 
ATOM      3  O   UNL     1      56.824  28.331  50.421  1.00  0.00    -0.550 OA
ATOM      4  O   UNL     1      56.934  26.044  50.413  1.00  0.00    -0.550 OA
ENDBRANCH   1   2
BRANCH   1   5
ATOM      5  C   UNL     1      54.376  25.910  49.271  1.00  0.00     0.003 C 
ATOM      6  C   UNL     1      52.926  25.952  48.798  1.00  0.00     0.004 C 
ENDBRANCH   1   5
TORSDOF 2
ENDMDL
MODEL 8
REMARK VINA RESULT:    -2.288      1.949      2.632
REMARK INTER + INTRA:          -2.567
REMARK INTER:                  -2.547
REMARK INTRA:                  -0.020
REMARK UNBOUND:                -0.012
REMARK SMILES CCCC(=O)[O-]
REMARK SMILES IDX 3 1 4 2 5 3 6 4 2 5 1 6
REMARK H PARENT
REMARK Flexibility Score: inf
ROOT
ATOM      1  C   UNL     1      55.755  26.945  50.235  1.00  0.00     0.052 C 
ENDROOT
BRANCH   1   2
ATOM      2  C   UNL     1      54.409  26.751  49.610  1.00  0.00     0.041 C 
ATOM      3  O   UNL     1      53.604  27.715  49.531  1.00  0.00    -0.550 OA
ATOM      4  O   UNL     1      54.064  25.519  49.072  1.00  0.00    -0.550 OA
ENDBRANCH   1   2
BRANCH   1   5
ATOM      5  C   UNL     1      55.943  28.403  50.661  1.00  0.00     0.003 C 
ATOM      6  C   UNL     1      57.372  28.872  50.406  1.00  0.00     0.004 C 
ENDBRANCH   1   5
TORSDOF 2
ENDMDL
MODEL 9
REMARK VINA RESULT:    -2.276      3.129      3.788
REMARK INTER + INTRA:          -2.554
REMARK INTER:                  -2.548
REMARK INTRA:                  -0.006
REMARK UNBOUND:                -0.012
REMARK SMILES CCCC(=O)[O-]
REMARK SMILES IDX 3 1 4 2 5 3 6 4 2 5 1 6
REMARK H PARENT
REMARK Flexibility Score: inf
ROOT
ATOM      1  C   UNL     1      57.044  28.231  50.359  1.00  0.00     0.052 C 
ENDROOT
BRANCH   1   2
ATOM      2  C   UNL     1      58.098  29.290  50.268  1.00  0.00     0.041 C 
ATOM      3  O   UNL     1      58.396  29.975  51.281  1.00  0.00    -0.550 OA
ATOM      4  O   UNL     1      58.784  29.487  49.077  1.00  0.00    -0.550 OA
ENDBRANCH   1   2
BRANCH   1   5
ATOM      5  C   UNL     1      55.696  28.849  50.737  1.00  0.00     0.003 C 
ATOM      6  C   UNL     1      54.537  28.027  50.180  1.00  0.00     0.004 C 
ENDBRANCH   1   5
TORSDOF 2
ENDMDL
