MODEL 1
REMARK VINA RESULT:    -2.963      0.000      0.000
REMARK INTER + INTRA:         -10.632
REMARK INTER:                  -7.467
REMARK INTRA:                  -3.165
REMARK UNBOUND:                -3.165
REMARK SMILES CCCCCCCCCCCCCCCCCCCCCCCCCCCC(=O)[O-]
REMARK SMILES IDX 15 1 16 2 17 3 18 4 19 5 20 6 21 7 22 8 23 9 24 10 25 11
REMARK SMILES IDX 26 12 27 13 28 14 29 15 30 16 14 17 13 18 12 19 11 20 10 21
REMARK SMILES IDX 9 22 8 23 7 24 6 25 5 26 4 27 3 28 2 29 1 30
REMARK H PARENT
REMARK Flexibility Score: inf
ROOT
ATOM      1  C   UNL     1      12.443  10.592  -1.430  1.00  0.00     0.000 C 
ENDROOT
BRANCH   1   2
ATOM      2  C   UNL     1      12.085  11.999  -1.957  1.00  0.00     0.000 C 
BRANCH   2   3
ATOM      3  C   UNL     1      12.997  12.448  -3.112  1.00  0.00     0.000 C 
BRANCH   3   4
ATOM      4  C   UNL     1      14.437  11.932  -2.953  1.00  0.00     0.000 C 
BRANCH   4   5
ATOM      5  C   UNL     1      15.392  13.008  -2.404  1.00  0.00     0.000 C 
BRANCH   5   6
ATOM      6  C   UNL     1      14.792  14.421  -2.491  1.00  0.00     0.000 C 
BRANCH   6   7
ATOM      7  C   UNL     1      14.350  14.951  -1.117  1.00  0.00     0.000 C 
BRANCH   7   8
ATOM      8  C   UNL     1      13.494  16.218  -1.261  1.00  0.00     0.000 C 
BRANCH   8   9
ATOM      9  C   UNL     1      12.411  16.322  -0.170  1.00  0.00     0.000 C 
BRANCH   9  10
ATOM     10  C   UNL     1      10.991  16.540  -0.726  1.00  0.00     0.000 C 
BRANCH  10  11
ATOM     11  C   UNL     1      10.838  16.021  -2.166  1.00  0.00     0.000 C 
BRANCH  11  12
ATOM     12  C   UNL     1       9.657  15.044  -2.322  1.00  0.00     0.006 C 
BRANCH  12  13
ATOM     13  C   UNL     1       9.348  14.208  -1.067  1.00  0.00     0.053 C 
BRANCH  13  14
ATOM     14  C   UNL     1       8.182  13.290  -1.270  1.00  0.00     0.041 C 
ATOM     15  O   UNL     1       7.984  12.763  -2.396  1.00  0.00    -0.550 OA
ATOM     16  O   UNL     1       7.278  13.066  -0.234  1.00  0.00    -0.550 OA
ENDBRANCH  13  14
ENDBRANCH  12  13
ENDBRANCH  11  12
ENDBRANCH  10  11
ENDBRANCH   9  10
ENDBRANCH   8   9
ENDBRANCH   7   8
ENDBRANCH   6   7
ENDBRANCH   5   6
ENDBRANCH   4   5
ENDBRANCH   3   4
ENDBRANCH   2   3
ENDBRANCH   1   2
BRANCH   1  17
ATOM     17  C   UNL     1      11.937   9.451  -2.331  1.00  0.00     0.000 C 
BRANCH  17  18
ATOM     18  C   UNL     1      10.510   9.642  -2.882  1.00  0.00     0.000 C 
BRANCH  18  19
ATOM     19  C   UNL     1       9.422   9.731  -1.789  1.00  0.00     0.000 C 
BRANCH  19  20
ATOM     20  C   UNL     1       8.103   9.046  -2.190  1.00  0.00     0.000 C 
BRANCH  20  21
ATOM     21  C   UNL     1       7.780   7.822  -1.319  1.00  0.00     0.000 C 
BRANCH  21  22
ATOM     22  C   UNL     1       6.970   6.753  -2.069  1.00  0.00    -0.000 C 
BRANCH  22  23
ATOM     23  C   UNL     1       7.852   5.992  -3.071  1.00  0.00    -0.000 C 
BRANCH  23  24
ATOM     24  C   UNL     1       9.029   5.269  -2.395  1.00  0.00    -0.000 C 
BRANCH  24  25
ATOM     25  C   UNL     1      10.394   5.870  -2.771  1.00  0.00    -0.000 C 
BRANCH  25  26
ATOM     26  C   UNL     1      11.287   6.118  -1.536  1.00  0.00    -0.000 C 
BRANCH  26  27
ATOM     27  C   UNL     1      12.750   5.679  -1.728  1.00  0.00    -0.000 C 
BRANCH  27  28
ATOM     28  C   UNL     1      12.996   4.213  -1.342  1.00  0.00    -0.000 C 
BRANCH  28  29
ATOM     29  C   UNL     1      13.967   3.506  -2.301  1.00  0.00    -0.003 C 
ATOM     30  C   UNL     1      15.151   2.867  -1.575  1.00  0.00     0.004 C 
ENDBRANCH  28  29
ENDBRANCH  27  28
ENDBRANCH  26  27
ENDBRANCH  25  26
ENDBRANCH  24  25
ENDBRANCH  23  24
ENDBRANCH  22  23
ENDBRANCH  21  22
ENDBRANCH  20  21
ENDBRANCH  19  20
ENDBRANCH  18  19
ENDBRANCH  17  18
ENDBRANCH   1  17
TORSDOF 26
ENDMDL
MODEL 2
REMARK VINA RESULT:    -2.870      4.146     10.453
REMARK INTER + INTRA:         -10.398
REMARK INTER:                  -7.944
REMARK INTRA:                  -2.454
REMARK UNBOUND:                -3.165
REMARK SMILES CCCCCCCCCCCCCCCCCCCCCCCCCCCC(=O)[O-]
REMARK SMILES IDX 15 1 16 2 17 3 18 4 19 5 20 6 21 7 22 8 23 9 24 10 25 11
REMARK SMILES IDX 26 12 27 13 28 14 29 15 30 16 14 17 13 18 12 19 11 20 10 21
REMARK SMILES IDX 9 22 8 23 7 24 6 25 5 26 4 27 3 28 2 29 1 30
REMARK H PARENT
REMARK Flexibility Score: inf
ROOT
ATOM      1  C   UNL     1      14.243  11.166  -2.742  1.00  0.00     0.000 C 
ENDROOT
BRANCH   1   2
ATOM      2  C   UNL     1      12.801  11.580  -3.109  1.00  0.00     0.000 C 
BRANCH   2   3
ATOM      3  C   UNL     1      11.804  11.336  -1.962  1.00  0.00     0.000 C 
BRANCH   3   4
ATOM      4  C   UNL     1      11.772   9.863  -1.521  1.00  0.00     0.000 C 
BRANCH   4   5
ATOM      5  C   UNL     1      10.400   9.206  -1.761  1.00  0.00     0.000 C 
BRANCH   5   6
ATOM      6  C   UNL     1      10.459   7.673  -1.653  1.00  0.00     0.000 C 
BRANCH   6   7
ATOM      7  C   UNL     1      10.666   7.001  -3.019  1.00  0.00     0.000 C 
BRANCH   7   8
ATOM      8  C   UNL     1      11.820   5.988  -2.968  1.00  0.00     0.000 C 
BRANCH   8   9
ATOM      9  C   UNL     1      11.974   5.342  -1.578  1.00  0.00     0.000 C 
BRANCH   9  10
ATOM     10  C   UNL     1      13.224   4.452  -1.444  1.00  0.00     0.000 C 
BRANCH  10  11
ATOM     11  C   UNL     1      13.357   3.449  -2.603  1.00  0.00     0.000 C 
BRANCH  11  12
ATOM     12  C   UNL     1      14.819   3.036  -2.864  1.00  0.00     0.006 C 
BRANCH  12  13
ATOM     13  C   UNL     1      15.405   2.066  -1.823  1.00  0.00     0.053 C 
BRANCH  13  14
ATOM     14  C   UNL     1      16.611   1.342  -2.338  1.00  0.00     0.041 C 
ATOM     15  O   UNL     1      16.516   0.139  -2.699  1.00  0.00    -0.550 OA
ATOM     16  O   UNL     1      17.852   1.973  -2.359  1.00  0.00    -0.550 OA
ENDBRANCH  13  14
ENDBRANCH  12  13
ENDBRANCH  11  12
ENDBRANCH  10  11
ENDBRANCH   9  10
ENDBRANCH   8   9
ENDBRANCH   7   8
ENDBRANCH   6   7
ENDBRANCH   5   6
ENDBRANCH   4   5
ENDBRANCH   3   4
ENDBRANCH   2   3
ENDBRANCH   1   2
BRANCH   1  17
ATOM     17  C   UNL     1      15.219  12.353  -2.657  1.00  0.00     0.000 C 
BRANCH  17  18
ATOM     18  C   UNL     1      14.636  13.708  -3.101  1.00  0.00     0.000 C 
BRANCH  18  19
ATOM     19  C   UNL     1      14.560  14.759  -1.969  1.00  0.00     0.000 C 
BRANCH  19  20
ATOM     20  C   UNL     1      13.291  14.628  -1.107  1.00  0.00     0.000 C 
BRANCH  20  21
ATOM     21  C   UNL     1      12.684  15.989  -0.733  1.00  0.00     0.000 C 
BRANCH  21  22
ATOM     22  C   UNL     1      11.753  16.546  -1.821  1.00  0.00    -0.000 C 
BRANCH  22  23
ATOM     23  C   UNL     1      11.315  17.982  -1.493  1.00  0.00    -0.000 C 
BRANCH  23  24
ATOM     24  C   UNL     1       9.791  18.117  -1.342  1.00  0.00    -0.000 C 
BRANCH  24  25
ATOM     25  C   UNL     1       9.235  17.310  -0.156  1.00  0.00    -0.000 C 
BRANCH  25  26
ATOM     26  C   UNL     1       7.756  16.913  -0.357  1.00  0.00    -0.000 C 
BRANCH  26  27
ATOM     27  C   UNL     1       7.533  15.396  -0.497  1.00  0.00    -0.000 C 
BRANCH  27  28
ATOM     28  C   UNL     1       8.753  14.658  -1.069  1.00  0.00    -0.000 C 
BRANCH  28  29
ATOM     29  C   UNL     1       8.857  13.211  -0.562  1.00  0.00    -0.003 C 
ATOM     30  C   UNL     1       8.252  12.199  -1.536  1.00  0.00     0.004 C 
ENDBRANCH  28  29
ENDBRANCH  27  28
ENDBRANCH  26  27
ENDBRANCH  25  26
ENDBRANCH  24  25
ENDBRANCH  23  24
ENDBRANCH  22  23
ENDBRANCH  21  22
ENDBRANCH  20  21
ENDBRANCH  19  20
ENDBRANCH  18  19
ENDBRANCH  17  18
ENDBRANCH   1  17
TORSDOF 26
ENDMDL
MODEL 3
REMARK VINA RESULT:    -2.865      4.998     11.450
REMARK INTER + INTRA:         -10.385
REMARK INTER:                  -8.260
REMARK INTRA:                  -2.125
REMARK UNBOUND:                -3.165
REMARK SMILES CCCCCCCCCCCCCCCCCCCCCCCCCCCC(=O)[O-]
REMARK SMILES IDX 15 1 16 2 17 3 18 4 19 5 20 6 21 7 22 8 23 9 24 10 25 11
REMARK SMILES IDX 26 12 27 13 28 14 29 15 30 16 14 17 13 18 12 19 11 20 10 21
REMARK SMILES IDX 9 22 8 23 7 24 6 25 5 26 4 27 3 28 2 29 1 30
REMARK H PARENT
REMARK Flexibility Score: inf
ROOT
ATOM      1  C   UNL     1      12.155   9.903  -1.254  1.00  0.00     0.000 C 
ENDROOT
BRANCH   1   2
ATOM      2  C   UNL     1      11.540   8.540  -1.642  1.00  0.00     0.000 C 
BRANCH   2   3
ATOM      3  C   UNL     1      12.147   7.962  -2.933  1.00  0.00     0.000 C 
BRANCH   3   4
ATOM      4  C   UNL     1      12.241   6.427  -2.896  1.00  0.00     0.000 C 
BRANCH   4   5
ATOM      5  C   UNL     1      12.428   5.882  -1.468  1.00  0.00     0.000 C 
BRANCH   5   6
ATOM      6  C   UNL     1      12.435   4.345  -1.425  1.00  0.00     0.000 C 
BRANCH   6   7
ATOM      7  C   UNL     1      12.967   3.728  -2.728  1.00  0.00     0.000 C 
BRANCH   7   8
ATOM      8  C   UNL     1      14.475   3.453  -2.636  1.00  0.00     0.000 C 
BRANCH   8   9
ATOM      9  C   UNL     1      14.790   1.953  -2.476  1.00  0.00     0.000 C 
BRANCH   9  10
ATOM     10  C   UNL     1      16.194   1.672  -1.909  1.00  0.00     0.000 C 
BRANCH  10  11
ATOM     11  C   UNL     1      17.123   1.013  -2.944  1.00  0.00     0.000 C 
BRANCH  11  12
ATOM     12  C   UNL     1      18.551   1.592  -2.911  1.00  0.00     0.006 C 
BRANCH  12  13
ATOM     13  C   UNL     1      19.610   0.649  -2.313  1.00  0.00     0.053 C 
BRANCH  13  14
ATOM     14  C   UNL     1      20.915   1.343  -2.069  1.00  0.00     0.041 C 
ATOM     15  O   UNL     1      21.225   2.357  -2.748  1.00  0.00    -0.550 OA
ATOM     16  O   UNL     1      21.816   0.834  -1.138  1.00  0.00    -0.550 OA
ENDBRANCH  13  14
ENDBRANCH  12  13
ENDBRANCH  11  12
ENDBRANCH  10  11
ENDBRANCH   9  10
ENDBRANCH   8   9
ENDBRANCH   7   8
ENDBRANCH   6   7
ENDBRANCH   5   6
ENDBRANCH   4   5
ENDBRANCH   3   4
ENDBRANCH   2   3
ENDBRANCH   1   2
BRANCH   1  17
ATOM     17  C   UNL     1      11.547  11.091  -2.020  1.00  0.00     0.000 C 
BRANCH  17  18
ATOM     18  C   UNL     1      10.127  11.492  -1.577  1.00  0.00     0.000 C 
BRANCH  18  19
ATOM     19  C   UNL     1       9.981  12.988  -1.216  1.00  0.00     0.000 C 
BRANCH  19  20
ATOM     20  C   UNL     1       8.563  13.363  -0.750  1.00  0.00     0.000 C 
BRANCH  20  21
ATOM     21  C   UNL     1       8.110  14.735  -1.272  1.00  0.00     0.000 C 
BRANCH  21  22
ATOM     22  C   UNL     1       8.694  15.903  -0.464  1.00  0.00    -0.000 C 
BRANCH  22  23
ATOM     23  C   UNL     1       8.578  17.226  -1.238  1.00  0.00    -0.000 C 
BRANCH  23  24
ATOM     24  C   UNL     1       9.237  17.160  -2.625  1.00  0.00    -0.000 C 
BRANCH  24  25
ATOM     25  C   UNL     1      10.710  17.604  -2.608  1.00  0.00    -0.000 C 
BRANCH  25  26
ATOM     26  C   UNL     1      11.681  16.413  -2.455  1.00  0.00    -0.000 C 
BRANCH  26  27
ATOM     27  C   UNL     1      12.392  16.362  -1.091  1.00  0.00    -0.000 C 
BRANCH  27  28
ATOM     28  C   UNL     1      13.146  15.045  -0.853  1.00  0.00    -0.000 C 
BRANCH  28  29
ATOM     29  C   UNL     1      13.391  14.262  -2.152  1.00  0.00    -0.003 C 
ATOM     30  C   UNL     1      14.866  13.917  -2.363  1.00  0.00     0.004 C 
ENDBRANCH  28  29
ENDBRANCH  27  28
ENDBRANCH  26  27
ENDBRANCH  25  26
ENDBRANCH  24  25
ENDBRANCH  23  24
ENDBRANCH  22  23
ENDBRANCH  21  22
ENDBRANCH  20  21
ENDBRANCH  19  20
ENDBRANCH  18  19
ENDBRANCH  17  18
ENDBRANCH   1  17
TORSDOF 26
ENDMDL
MODEL 4
REMARK VINA RESULT:    -2.850      1.614      4.132
REMARK INTER + INTRA:         -10.348
REMARK INTER:                  -7.297
REMARK INTRA:                  -3.051
REMARK UNBOUND:                -3.165
REMARK SMILES CCCCCCCCCCCCCCCCCCCCCCCCCCCC(=O)[O-]
REMARK SMILES IDX 15 1 16 2 17 3 18 4 19 5 20 6 21 7 22 8 23 9 24 10 25 11
REMARK SMILES IDX 26 12 27 13 28 14 29 15 30 16 14 17 13 18 12 19 11 20 10 21
REMARK SMILES IDX 9 22 8 23 7 24 6 25 5 26 4 27 3 28 2 29 1 30
REMARK H PARENT
REMARK Flexibility Score: inf
ROOT
ATOM      1  C   UNL     1      13.516   9.965  -3.032  1.00  0.00     0.000 C 
ENDROOT
BRANCH   1   2
ATOM      2  C   UNL     1      14.750  10.886  -2.904  1.00  0.00     0.000 C 
BRANCH   2   3
ATOM      3  C   UNL     1      14.402  12.372  -3.097  1.00  0.00     0.000 C 
BRANCH   3   4
ATOM      4  C   UNL     1      15.511  13.303  -2.576  1.00  0.00     0.000 C 
BRANCH   4   5
ATOM      5  C   UNL     1      15.060  14.773  -2.501  1.00  0.00     0.000 C 
BRANCH   5   6
ATOM      6  C   UNL     1      13.538  14.910  -2.331  1.00  0.00     0.000 C 
BRANCH   6   7
ATOM      7  C   UNL     1      13.123  14.984  -0.853  1.00  0.00     0.000 C 
BRANCH   7   8
ATOM      8  C   UNL     1      13.702  16.234  -0.176  1.00  0.00     0.000 C 
BRANCH   8   9
ATOM      9  C   UNL     1      12.611  17.248   0.217  1.00  0.00     0.000 C 
BRANCH   9  10
ATOM     10  C   UNL     1      11.890  17.881  -0.988  1.00  0.00     0.000 C 
BRANCH  10  11
ATOM     11  C   UNL     1      10.395  18.121  -0.718  1.00  0.00     0.000 C 
BRANCH  11  12
ATOM     12  C   UNL     1       9.653  16.835  -0.303  1.00  0.00     0.006 C 
BRANCH  12  13
ATOM     13  C   UNL     1       8.124  16.979  -0.213  1.00  0.00     0.053 C 
BRANCH  13  14
ATOM     14  C   UNL     1       7.407  15.870  -0.919  1.00  0.00     0.041 C 
ATOM     15  O   UNL     1       6.875  14.941  -0.255  1.00  0.00    -0.550 OA
ATOM     16  O   UNL     1       7.379  15.827  -2.311  1.00  0.00    -0.550 OA
ENDBRANCH  13  14
ENDBRANCH  12  13
ENDBRANCH  11  12
ENDBRANCH  10  11
ENDBRANCH   9  10
ENDBRANCH   8   9
ENDBRANCH   7   8
ENDBRANCH   6   7
ENDBRANCH   5   6
ENDBRANCH   4   5
ENDBRANCH   3   4
ENDBRANCH   2   3
ENDBRANCH   1   2
BRANCH   1  17
ATOM     17  C   UNL     1      13.798   8.503  -2.642  1.00  0.00     0.000 C 
BRANCH  17  18
ATOM     18  C   UNL     1      12.546   7.662  -2.324  1.00  0.00     0.000 C 
BRANCH  18  19
ATOM     19  C   UNL     1      12.741   6.143  -2.535  1.00  0.00     0.000 C 
BRANCH  19  20
ATOM     20  C   UNL     1      12.431   5.313  -1.276  1.00  0.00     0.000 C 
BRANCH  20  21
ATOM     21  C   UNL     1      10.928   5.046  -1.097  1.00  0.00     0.000 C 
BRANCH  21  22
ATOM     22  C   UNL     1      10.164   5.021  -2.430  1.00  0.00    -0.000 C 
BRANCH  22  23
ATOM     23  C   UNL     1       8.685   5.390  -2.228  1.00  0.00    -0.000 C 
BRANCH  23  24
ATOM     24  C   UNL     1       8.340   6.780  -2.786  1.00  0.00    -0.000 C 
BRANCH  24  25
ATOM     25  C   UNL     1       8.739   7.922  -1.835  1.00  0.00    -0.000 C 
BRANCH  25  26
ATOM     26  C   UNL     1       8.420   9.314  -2.421  1.00  0.00    -0.000 C 
BRANCH  26  27
ATOM     27  C   UNL     1       9.669  10.154  -2.743  1.00  0.00    -0.000 C 
BRANCH  27  28
ATOM     28  C   UNL     1      10.410  10.639  -1.488  1.00  0.00    -0.000 C 
BRANCH  28  29
ATOM     29  C   UNL     1      10.877  12.098  -1.606  1.00  0.00    -0.003 C 
ATOM     30  C   UNL     1       9.889  13.085  -0.982  1.00  0.00     0.004 C 
ENDBRANCH  28  29
ENDBRANCH  27  28
ENDBRANCH  26  27
ENDBRANCH  25  26
ENDBRANCH  24  25
ENDBRANCH  23  24
ENDBRANCH  22  23
ENDBRANCH  21  22
ENDBRANCH  20  21
ENDBRANCH  19  20
ENDBRANCH  18  19
ENDBRANCH  17  18
ENDBRANCH   1  17
TORSDOF 26
ENDMDL
MODEL 5
REMARK VINA RESULT:    -2.593      2.987      5.538
REMARK INTER + INTRA:          -9.700
REMARK INTER:                  -8.240
REMARK INTRA:                  -1.459
REMARK UNBOUND:                -3.165
REMARK SMILES CCCCCCCCCCCCCCCCCCCCCCCCCCCC(=O)[O-]
REMARK SMILES IDX 15 1 16 2 17 3 18 4 19 5 20 6 21 7 22 8 23 9 24 10 25 11
REMARK SMILES IDX 26 12 27 13 28 14 29 15 30 16 14 17 13 18 12 19 11 20 10 21
REMARK SMILES IDX 9 22 8 23 7 24 6 25 5 26 4 27 3 28 2 29 1 30
REMARK H PARENT
REMARK Flexibility Score: inf
ROOT
ATOM      1  C   UNL     1      10.908   8.083  -1.810  1.00  0.00     0.000 C 
ENDROOT
BRANCH   1   2
ATOM      2  C   UNL     1      11.012   8.966  -3.073  1.00  0.00     0.000 C 
BRANCH   2   3
ATOM      3  C   UNL     1      11.836  10.243  -2.836  1.00  0.00     0.000 C 
BRANCH   3   4
ATOM      4  C   UNL     1      12.022  10.548  -1.340  1.00  0.00     0.000 C 
BRANCH   4   5
ATOM      5  C   UNL     1      11.765  12.028  -1.004  1.00  0.00     0.000 C 
BRANCH   5   6
ATOM      6  C   UNL     1      10.372  12.256  -0.394  1.00  0.00     0.000 C 
BRANCH   6   7
ATOM      7  C   UNL     1       9.301  12.510  -1.467  1.00  0.00     0.000 C 
BRANCH   7   8
ATOM      8  C   UNL     1       9.527  13.859  -2.166  1.00  0.00     0.000 C 
BRANCH   8   9
ATOM      9  C   UNL     1       8.279  14.762  -2.117  1.00  0.00     0.000 C 
BRANCH   9  10
ATOM     10  C   UNL     1       8.536  16.138  -1.474  1.00  0.00     0.000 C 
BRANCH  10  11
ATOM     11  C   UNL     1       9.896  16.207  -0.757  1.00  0.00     0.000 C 
BRANCH  11  12
ATOM     12  C   UNL     1      10.423  17.648  -0.624  1.00  0.00     0.006 C 
BRANCH  12  13
ATOM     13  C   UNL     1      10.978  18.001   0.767  1.00  0.00     0.053 C 
BRANCH  13  14
ATOM     14  C   UNL     1      12.266  17.295   1.060  1.00  0.00     0.041 C 
ATOM     15  O   UNL     1      12.837  17.462   2.170  1.00  0.00    -0.550 OA
ATOM     16  O   UNL     1      12.870  16.504   0.087  1.00  0.00    -0.550 OA
ENDBRANCH  13  14
ENDBRANCH  12  13
ENDBRANCH  11  12
ENDBRANCH  10  11
ENDBRANCH   9  10
ENDBRANCH   8   9
ENDBRANCH   7   8
ENDBRANCH   6   7
ENDBRANCH   5   6
ENDBRANCH   4   5
ENDBRANCH   3   4
ENDBRANCH   2   3
ENDBRANCH   1   2
BRANCH   1  17
ATOM     17  C   UNL     1       9.460   7.728  -1.427  1.00  0.00     0.000 C 
BRANCH  17  18
ATOM     18  C   UNL     1       9.118   6.227  -1.493  1.00  0.00     0.000 C 
BRANCH  18  19
ATOM     19  C   UNL     1      10.092   5.400  -2.363  1.00  0.00     0.000 C 
BRANCH  19  20
ATOM     20  C   UNL     1      11.200   4.714  -1.544  1.00  0.00     0.000 C 
BRANCH  20  21
ATOM     21  C   UNL     1      12.565   4.742  -2.251  1.00  0.00     0.000 C 
BRANCH  21  22
ATOM     22  C   UNL     1      13.687   4.120  -1.406  1.00  0.00    -0.000 C 
BRANCH  22  23
ATOM     23  C   UNL     1      14.688   3.358  -2.289  1.00  0.00    -0.000 C 
BRANCH  23  24
ATOM     24  C   UNL     1      15.605   2.428  -1.478  1.00  0.00    -0.000 C 
BRANCH  24  25
ATOM     25  C   UNL     1      15.603   0.981  -2.001  1.00  0.00    -0.000 C 
BRANCH  25  26
ATOM     26  C   UNL     1      16.748   0.717  -3.002  1.00  0.00    -0.000 C 
BRANCH  26  27
ATOM     27  C   UNL     1      17.974   1.626  -2.798  1.00  0.00    -0.000 C 
BRANCH  27  28
ATOM     28  C   UNL     1      19.251   0.848  -2.450  1.00  0.00    -0.000 C 
BRANCH  28  29
ATOM     29  C   UNL     1      20.514   1.491  -3.045  1.00  0.00    -0.003 C 
ATOM     30  C   UNL     1      21.705   0.532  -3.077  1.00  0.00     0.004 C 
ENDBRANCH  28  29
ENDBRANCH  27  28
ENDBRANCH  26  27
ENDBRANCH  25  26
ENDBRANCH  24  25
ENDBRANCH  23  24
ENDBRANCH  22  23
ENDBRANCH  21  22
ENDBRANCH  20  21
ENDBRANCH  19  20
ENDBRANCH  18  19
ENDBRANCH  17  18
ENDBRANCH   1  17
TORSDOF 26
ENDMDL
MODEL 6
REMARK VINA RESULT:    -2.502      3.074      5.930
REMARK INTER + INTRA:          -9.469
REMARK INTER:                  -8.245
REMARK INTRA:                  -1.224
REMARK UNBOUND:                -3.165
REMARK SMILES CCCCCCCCCCCCCCCCCCCCCCCCCCCC(=O)[O-]
REMARK SMILES IDX 15 1 16 2 17 3 18 4 19 5 20 6 21 7 22 8 23 9 24 10 25 11
REMARK SMILES IDX 26 12 27 13 28 14 29 15 30 16 14 17 13 18 12 19 11 20 10 21
REMARK SMILES IDX 9 22 8 23 7 24 6 25 5 26 4 27 3 28 2 29 1 30
REMARK H PARENT
REMARK Flexibility Score: inf
ROOT
ATOM      1  C   UNL     1      12.151   8.277  -1.677  1.00  0.00     0.000 C 
ENDROOT
BRANCH   1   2
ATOM      2  C   UNL     1      11.733   9.642  -2.266  1.00  0.00     0.000 C 
BRANCH   2   3
ATOM      3  C   UNL     1      10.448  10.196  -1.624  1.00  0.00     0.000 C 
BRANCH   3   4
ATOM      4  C   UNL     1       9.439  10.691  -2.674  1.00  0.00     0.000 C 
BRANCH   4   5
ATOM      5  C   UNL     1       7.981  10.558  -2.198  1.00  0.00     0.000 C 
BRANCH   5   6
ATOM      6  C   UNL     1       7.318  11.923  -1.953  1.00  0.00     0.000 C 
BRANCH   6   7
ATOM      7  C   UNL     1       8.306  13.088  -2.120  1.00  0.00     0.000 C 
BRANCH   7   8
ATOM      8  C   UNL     1       8.521  13.827  -0.791  1.00  0.00     0.000 C 
BRANCH   8   9
ATOM      9  C   UNL     1       9.214  15.190  -0.982  1.00  0.00     0.000 C 
BRANCH   9  10
ATOM     10  C   UNL     1       9.996  15.307  -2.304  1.00  0.00     0.000 C 
BRANCH  10  11
ATOM     11  C   UNL     1      11.488  15.608  -2.080  1.00  0.00     0.000 C 
BRANCH  11  12
ATOM     12  C   UNL     1      11.847  15.742  -0.588  1.00  0.00     0.006 C 
BRANCH  12  13
ATOM     13  C   UNL     1      12.056  17.188  -0.107  1.00  0.00     0.053 C 
BRANCH  13  14
ATOM     14  C   UNL     1      13.138  17.293   0.924  1.00  0.00     0.041 C 
ATOM     15  O   UNL     1      14.344  17.343   0.568  1.00  0.00    -0.550 OA
ATOM     16  O   UNL     1      12.819  17.272   2.280  1.00  0.00    -0.550 OA
ENDBRANCH  13  14
ENDBRANCH  12  13
ENDBRANCH  11  12
ENDBRANCH  10  11
ENDBRANCH   9  10
ENDBRANCH   8   9
ENDBRANCH   7   8
ENDBRANCH   6   7
ENDBRANCH   5   6
ENDBRANCH   4   5
ENDBRANCH   3   4
ENDBRANCH   2   3
ENDBRANCH   1   2
BRANCH   1  17
ATOM     17  C   UNL     1      11.047   7.207  -1.762  1.00  0.00     0.000 C 
BRANCH  17  18
ATOM     18  C   UNL     1      11.170   6.062  -0.738  1.00  0.00     0.000 C 
BRANCH  18  19
ATOM     19  C   UNL     1      10.654   4.700  -1.255  1.00  0.00     0.000 C 
BRANCH  19  20
ATOM     20  C   UNL     1      11.423   4.189  -2.487  1.00  0.00     0.000 C 
BRANCH  20  21
ATOM     21  C   UNL     1      12.945   4.358  -2.349  1.00  0.00     0.000 C 
BRANCH  21  22
ATOM     22  C   UNL     1      13.459   4.003  -0.946  1.00  0.00    -0.000 C 
BRANCH  22  23
ATOM     23  C   UNL     1      14.752   3.175  -1.023  1.00  0.00    -0.000 C 
BRANCH  23  24
ATOM     24  C   UNL     1      14.906   2.441  -2.364  1.00  0.00    -0.000 C 
BRANCH  24  25
ATOM     25  C   UNL     1      16.058   1.421  -2.359  1.00  0.00    -0.000 C 
BRANCH  25  26
ATOM     26  C   UNL     1      17.391   2.037  -2.835  1.00  0.00    -0.000 C 
BRANCH  26  27
ATOM     27  C   UNL     1      18.604   1.106  -2.660  1.00  0.00    -0.000 C 
BRANCH  27  28
ATOM     28  C   UNL     1      19.923   1.740  -3.125  1.00  0.00    -0.000 C 
BRANCH  28  29
ATOM     29  C   UNL     1      21.131   1.251  -2.310  1.00  0.00    -0.003 C 
ATOM     30  C   UNL     1      20.752   0.201  -1.266  1.00  0.00     0.004 C 
ENDBRANCH  28  29
ENDBRANCH  27  28
ENDBRANCH  26  27
ENDBRANCH  25  26
ENDBRANCH  24  25
ENDBRANCH  23  24
ENDBRANCH  22  23
ENDBRANCH  21  22
ENDBRANCH  20  21
ENDBRANCH  19  20
ENDBRANCH  18  19
ENDBRANCH  17  18
ENDBRANCH   1  17
TORSDOF 26
ENDMDL
MODEL 7
REMARK VINA RESULT:    -2.405      1.533      3.014
REMARK INTER + INTRA:          -9.226
REMARK INTER:                  -7.271
REMARK INTRA:                  -1.954
REMARK UNBOUND:                -3.165
REMARK SMILES CCCCCCCCCCCCCCCCCCCCCCCCCCCC(=O)[O-]
REMARK SMILES IDX 15 1 16 2 17 3 18 4 19 5 20 6 21 7 22 8 23 9 24 10 25 11
REMARK SMILES IDX 26 12 27 13 28 14 29 15 30 16 14 17 13 18 12 19 11 20 10 21
REMARK SMILES IDX 9 22 8 23 7 24 6 25 5 26 4 27 3 28 2 29 1 30
REMARK H PARENT
REMARK Flexibility Score: inf
ROOT
ATOM      1  C   UNL     1      14.429  12.281  -3.075  1.00  0.00     0.000 C 
ENDROOT
BRANCH   1   2
ATOM      2  C   UNL     1      14.941  13.619  -2.498  1.00  0.00     0.000 C 
BRANCH   2   3
ATOM      3  C   UNL     1      13.806  14.498  -1.945  1.00  0.00     0.000 C 
BRANCH   3   4
ATOM      4  C   UNL     1      14.321  15.569  -0.968  1.00  0.00     0.000 C 
BRANCH   4   5
ATOM      5  C   UNL     1      13.463  16.847  -0.989  1.00  0.00     0.000 C 
BRANCH   5   6
ATOM      6  C   UNL     1      12.030  16.582  -1.480  1.00  0.00     0.000 C 
BRANCH   6   7
ATOM      7  C   UNL     1      11.002  16.654  -0.341  1.00  0.00     0.000 C 
BRANCH   7   8
ATOM      8  C   UNL     1       9.699  17.317  -0.812  1.00  0.00     0.000 C 
BRANCH   8   9
ATOM      9  C   UNL     1       8.449  16.659  -0.195  1.00  0.00     0.000 C 
BRANCH   9  10
ATOM     10  C   UNL     1       7.200  16.741  -1.093  1.00  0.00     0.000 C 
BRANCH  10  11
ATOM     11  C   UNL     1       7.462  16.213  -2.514  1.00  0.00     0.000 C 
BRANCH  11  12
ATOM     12  C   UNL     1       7.297  14.685  -2.618  1.00  0.00     0.006 C 
BRANCH  12  13
ATOM     13  C   UNL     1       8.620  13.900  -2.674  1.00  0.00     0.053 C 
BRANCH  13  14
ATOM     14  C   UNL     1       8.750  12.924  -1.547  1.00  0.00     0.041 C 
ATOM     15  O   UNL     1       9.356  13.255  -0.494  1.00  0.00    -0.550 OA
ATOM     16  O   UNL     1       8.259  11.628  -1.681  1.00  0.00    -0.550 OA
ENDBRANCH  13  14
ENDBRANCH  12  13
ENDBRANCH  11  12
ENDBRANCH  10  11
ENDBRANCH   9  10
ENDBRANCH   8   9
ENDBRANCH   7   8
ENDBRANCH   6   7
ENDBRANCH   5   6
ENDBRANCH   4   5
ENDBRANCH   3   4
ENDBRANCH   2   3
ENDBRANCH   1   2
BRANCH   1  17
ATOM     17  C   UNL     1      12.979  11.954  -2.675  1.00  0.00     0.000 C 
BRANCH  17  18
ATOM     18  C   UNL     1      12.572  10.478  -2.852  1.00  0.00     0.000 C 
BRANCH  18  19
ATOM     19  C   UNL     1      11.864   9.871  -1.619  1.00  0.00     0.000 C 
BRANCH  19  20
ATOM     20  C   UNL     1      10.586   9.092  -1.979  1.00  0.00     0.000 C 
BRANCH  20  21
ATOM     21  C   UNL     1      10.847   7.594  -2.202  1.00  0.00     0.000 C 
BRANCH  21  22
ATOM     22  C   UNL     1      11.421   6.897  -0.959  1.00  0.00    -0.000 C 
BRANCH  22  23
ATOM     23  C   UNL     1      10.704   5.564  -0.690  1.00  0.00    -0.000 C 
BRANCH  23  24
ATOM     24  C   UNL     1      10.106   4.947  -1.965  1.00  0.00    -0.000 C 
BRANCH  24  25
ATOM     25  C   UNL     1      11.070   3.974  -2.666  1.00  0.00    -0.000 C 
BRANCH  25  26
ATOM     26  C   UNL     1      12.435   3.882  -1.951  1.00  0.00    -0.000 C 
BRANCH  26  27
ATOM     27  C   UNL     1      13.639   3.860  -2.910  1.00  0.00    -0.000 C 
BRANCH  27  28
ATOM     28  C   UNL     1      14.915   3.299  -2.265  1.00  0.00    -0.000 C 
BRANCH  28  29
ATOM     29  C   UNL     1      15.412   2.020  -2.956  1.00  0.00    -0.003 C 
ATOM     30  C   UNL     1      15.599   0.858  -1.979  1.00  0.00     0.004 C 
ENDBRANCH  28  29
ENDBRANCH  27  28
ENDBRANCH  26  27
ENDBRANCH  25  26
ENDBRANCH  24  25
ENDBRANCH  23  24
ENDBRANCH  22  23
ENDBRANCH  21  22
ENDBRANCH  20  21
ENDBRANCH  19  20
ENDBRANCH  18  19
ENDBRANCH  17  18
ENDBRANCH   1  17
TORSDOF 26
ENDMDL
MODEL 8
REMARK VINA RESULT:    -2.370      4.663     11.268
REMARK INTER + INTRA:          -9.137
REMARK INTER:                  -7.367
REMARK INTRA:                  -1.771
REMARK UNBOUND:                -3.165
REMARK SMILES CCCCCCCCCCCCCCCCCCCCCCCCCCCC(=O)[O-]
REMARK SMILES IDX 15 1 16 2 17 3 18 4 19 5 20 6 21 7 22 8 23 9 24 10 25 11
REMARK SMILES IDX 26 12 27 13 28 14 29 15 30 16 14 17 13 18 12 19 11 20 10 21
REMARK SMILES IDX 9 22 8 23 7 24 6 25 5 26 4 27 3 28 2 29 1 30
REMARK H PARENT
REMARK Flexibility Score: inf
ROOT
ATOM      1  C   UNL     1      12.931  11.597  -3.125  1.00  0.00     0.000 C 
ENDROOT
BRANCH   1   2
ATOM      2  C   UNL     1      13.423  10.159  -2.851  1.00  0.00     0.000 C 
BRANCH   2   3
ATOM      3  C   UNL     1      12.394   9.318  -2.075  1.00  0.00     0.000 C 
BRANCH   3   4
ATOM      4  C   UNL     1      12.036   8.014  -2.807  1.00  0.00     0.000 C 
BRANCH   4   5
ATOM      5  C   UNL     1      12.367   6.761  -1.975  1.00  0.00     0.000 C 
BRANCH   5   6
ATOM      6  C   UNL     1      11.366   5.619  -2.214  1.00  0.00     0.000 C 
BRANCH   6   7
ATOM      7  C   UNL     1      11.976   4.472  -3.035  1.00  0.00     0.000 C 
BRANCH   7   8
ATOM      8  C   UNL     1      13.456   4.265  -2.683  1.00  0.00     0.000 C 
BRANCH   8   9
ATOM      9  C   UNL     1      13.871   2.782  -2.737  1.00  0.00     0.000 C 
BRANCH   9  10
ATOM     10  C   UNL     1      15.071   2.441  -1.833  1.00  0.00     0.000 C 
BRANCH  10  11
ATOM     11  C   UNL     1      15.538   0.985  -2.003  1.00  0.00     0.000 C 
BRANCH  11  12
ATOM     12  C   UNL     1      16.798   0.866  -2.882  1.00  0.00     0.006 C 
BRANCH  12  13
ATOM     13  C   UNL     1      17.867   1.941  -2.618  1.00  0.00     0.053 C 
BRANCH  13  14
ATOM     14  C   UNL     1      19.256   1.384  -2.660  1.00  0.00     0.041 C 
ATOM     15  O   UNL     1      19.433   0.141  -2.753  1.00  0.00    -0.550 OA
ATOM     16  O   UNL     1      20.355   2.229  -2.532  1.00  0.00    -0.550 OA
ENDBRANCH  13  14
ENDBRANCH  12  13
ENDBRANCH  11  12
ENDBRANCH  10  11
ENDBRANCH   9  10
ENDBRANCH   8   9
ENDBRANCH   7   8
ENDBRANCH   6   7
ENDBRANCH   5   6
ENDBRANCH   4   5
ENDBRANCH   3   4
ENDBRANCH   2   3
ENDBRANCH   1   2
BRANCH   1  17
ATOM     17  C   UNL     1      13.371  12.611  -2.054  1.00  0.00     0.000 C 
BRANCH  17  18
ATOM     18  C   UNL     1      14.297  13.733  -2.562  1.00  0.00     0.000 C 
BRANCH  18  19
ATOM     19  C   UNL     1      13.563  15.053  -2.888  1.00  0.00     0.000 C 
BRANCH  19  20
ATOM     20  C   UNL     1      14.487  16.284  -2.852  1.00  0.00     0.000 C 
BRANCH  20  21
ATOM     21  C   UNL     1      14.460  17.007  -1.495  1.00  0.00     0.000 C 
BRANCH  21  22
ATOM     22  C   UNL     1      13.957  16.111  -0.353  1.00  0.00    -0.000 C 
BRANCH  22  23
ATOM     23  C   UNL     1      12.461  16.342  -0.086  1.00  0.00    -0.000 C 
BRANCH  23  24
ATOM     24  C   UNL     1      11.913  17.579  -0.816  1.00  0.00    -0.000 C 
BRANCH  24  25
ATOM     25  C   UNL     1      10.713  17.255  -1.723  1.00  0.00    -0.000 C 
BRANCH  25  26
ATOM     26  C   UNL     1       9.792  16.175  -1.115  1.00  0.00    -0.000 C 
BRANCH  26  27
ATOM     27  C   UNL     1      10.114  14.746  -1.589  1.00  0.00    -0.000 C 
BRANCH  27  28
ATOM     28  C   UNL     1       9.396  13.663  -0.770  1.00  0.00    -0.000 C 
BRANCH  28  29
ATOM     29  C   UNL     1      10.023  12.272  -0.955  1.00  0.00    -0.003 C 
ATOM     30  C   UNL     1       9.226  11.389  -1.917  1.00  0.00     0.004 C 
ENDBRANCH  28  29
ENDBRANCH  27  28
ENDBRANCH  26  27
ENDBRANCH  25  26
ENDBRANCH  24  25
ENDBRANCH  23  24
ENDBRANCH  22  23
ENDBRANCH  21  22
ENDBRANCH  20  21
ENDBRANCH  19  20
ENDBRANCH  18  19
ENDBRANCH  17  18
ENDBRANCH   1  17
TORSDOF 26
ENDMDL
MODEL 9
REMARK VINA RESULT:    -2.100      1.925      4.473
REMARK INTER + INTRA:          -8.457
REMARK INTER:                  -5.529
REMARK INTRA:                  -2.928
REMARK UNBOUND:                -3.165
REMARK SMILES CCCCCCCCCCCCCCCCCCCCCCCCCCCC(=O)[O-]
REMARK SMILES IDX 15 1 16 2 17 3 18 4 19 5 20 6 21 7 22 8 23 9 24 10 25 11
REMARK SMILES IDX 26 12 27 13 28 14 29 15 30 16 14 17 13 18 12 19 11 20 10 21
REMARK SMILES IDX 9 22 8 23 7 24 6 25 5 26 4 27 3 28 2 29 1 30
REMARK H PARENT
REMARK Flexibility Score: inf
ROOT
ATOM      1  C   UNL     1      11.967   8.293  -1.711  1.00  0.00     0.000 C 
ENDROOT
BRANCH   1   2
ATOM      2  C   UNL     1      13.450   8.538  -2.064  1.00  0.00     0.000 C 
BRANCH   2   3
ATOM      3  C   UNL     1      13.658   9.818  -2.894  1.00  0.00     0.000 C 
BRANCH   3   4
ATOM      4  C   UNL     1      15.015  10.483  -2.609  1.00  0.00     0.000 C 
BRANCH   4   5
ATOM      5  C   UNL     1      15.078  11.934  -3.117  1.00  0.00     0.000 C 
BRANCH   5   6
ATOM      6  C   UNL     1      13.716  12.643  -3.037  1.00  0.00     0.000 C 
BRANCH   6   7
ATOM      7  C   UNL     1      13.852  14.173  -3.077  1.00  0.00     0.000 C 
BRANCH   7   8
ATOM      8  C   UNL     1      14.696  14.685  -1.901  1.00  0.00     0.000 C 
BRANCH   8   9
ATOM      9  C   UNL     1      15.061  16.175  -2.046  1.00  0.00     0.000 C 
BRANCH   9  10
ATOM     10  C   UNL     1      13.850  17.122  -1.950  1.00  0.00     0.000 C 
BRANCH  10  11
ATOM     11  C   UNL     1      12.923  16.773  -0.773  1.00  0.00     0.000 C 
BRANCH  11  12
ATOM     12  C   UNL     1      11.545  17.453  -0.881  1.00  0.00     0.006 C 
BRANCH  12  13
ATOM     13  C   UNL     1      10.365  16.589  -0.403  1.00  0.00     0.053 C 
BRANCH  13  14
ATOM     14  C   UNL     1       9.519  16.105  -1.540  1.00  0.00     0.041 C 
ATOM     15  O   UNL     1       9.999  15.305  -2.385  1.00  0.00    -0.550 OA
ATOM     16  O   UNL     1       8.222  16.585  -1.702  1.00  0.00    -0.550 OA
ENDBRANCH  13  14
ENDBRANCH  12  13
ENDBRANCH  11  12
ENDBRANCH  10  11
ENDBRANCH   9  10
ENDBRANCH   8   9
ENDBRANCH   7   8
ENDBRANCH   6   7
ENDBRANCH   5   6
ENDBRANCH   4   5
ENDBRANCH   3   4
ENDBRANCH   2   3
ENDBRANCH   1   2
BRANCH   1  17
ATOM     17  C   UNL     1      11.220   7.438  -2.751  1.00  0.00     0.000 C 
BRANCH  17  18
ATOM     18  C   UNL     1      11.703   5.979  -2.861  1.00  0.00     0.000 C 
BRANCH  18  19
ATOM     19  C   UNL     1      10.563   4.936  -2.819  1.00  0.00     0.000 C 
BRANCH  19  20
ATOM     20  C   UNL     1       9.310   5.439  -2.081  1.00  0.00     0.000 C 
BRANCH  20  21
ATOM     21  C   UNL     1       8.007   5.091  -2.817  1.00  0.00     0.000 C 
BRANCH  21  22
ATOM     22  C   UNL     1       6.948   6.200  -2.713  1.00  0.00    -0.000 C 
BRANCH  22  23
ATOM     23  C   UNL     1       7.532   7.562  -3.122  1.00  0.00    -0.000 C 
BRANCH  23  24
ATOM     24  C   UNL     1       7.875   8.446  -1.912  1.00  0.00    -0.000 C 
BRANCH  24  25
ATOM     25  C   UNL     1       7.049   9.743  -1.867  1.00  0.00    -0.000 C 
BRANCH  25  26
ATOM     26  C   UNL     1       7.253  10.615  -3.125  1.00  0.00    -0.000 C 
BRANCH  26  27
ATOM     27  C   UNL     1       8.132  11.855  -2.886  1.00  0.00    -0.000 C 
BRANCH  27  28
ATOM     28  C   UNL     1       8.838  11.841  -1.521  1.00  0.00    -0.000 C 
BRANCH  28  29
ATOM     29  C   UNL     1      10.365  11.730  -1.648  1.00  0.00    -0.003 C 
ATOM     30  C   UNL     1      11.099  12.276  -0.423  1.00  0.00     0.004 C 
ENDBRANCH  28  29
ENDBRANCH  27  28
ENDBRANCH  26  27
ENDBRANCH  25  26
ENDBRANCH  24  25
ENDBRANCH  23  24
ENDBRANCH  22  23
ENDBRANCH  21  22
ENDBRANCH  20  21
ENDBRANCH  19  20
ENDBRANCH  18  19
ENDBRANCH  17  18
ENDBRANCH   1  17
TORSDOF 26
ENDMDL
