MODEL 1
REMARK VINA RESULT:    -4.710      0.000      0.000
REMARK INTER + INTRA:          -5.376
REMARK INTER:                  -5.261
REMARK INTRA:                  -0.115
REMARK UNBOUND:                -0.115
REMARK SMILES COc1cc2ccc(=O)oc2cc1OC
REMARK SMILES IDX 3 1 13 2 12 3 11 4 5 5 4 6 6 7 7 8 8 9 9 10 10 11 2 12 1 13
REMARK SMILES IDX 14 14 15 15
REMARK H PARENT
REMARK Flexibility Score: inf
ROOT
ATOM      1  C   UNL     1       0.330  -8.140   4.572  1.00  0.00     0.161 A 
ATOM      2  C   UNL     1       0.742  -6.975   5.243  1.00  0.00     0.164 A 
ATOM      3  C   UNL     1       2.112  -6.646   5.298  1.00  0.00     0.098 A 
ATOM      4  C   UNL     1       3.062  -7.471   4.690  1.00  0.00     0.142 A 
ATOM      5  C   UNL     1       2.650  -8.639   4.018  1.00  0.00     0.022 A 
ATOM      6  C   UNL     1       1.290  -8.970   3.960  1.00  0.00     0.062 A 
ATOM      7  C   UNL     1       3.626  -9.444   3.419  1.00  0.00     0.019 A 
ATOM      8  C   UNL     1       4.967  -9.071   3.504  1.00  0.00     0.094 A 
ATOM      9  C   UNL     1       5.301  -7.899   4.188  1.00  0.00     0.336 A 
ATOM     10  O   UNL     1       6.506  -7.545   4.277  1.00  0.00    -0.246 OA
ATOM     11  O   UNL     1       4.353  -7.152   4.748  1.00  0.00    -0.423 OA
ENDROOT
BRANCH   1  12
ATOM     12  O   UNL     1      -1.041  -8.435   4.537  1.00  0.00    -0.493 OA
ATOM     13  C   UNL     1      -1.690  -9.364   5.401  1.00  0.00     0.278 C 
ENDBRANCH   1  12
BRANCH   2  14
ATOM     14  O   UNL     1      -0.239  -6.170   5.842  1.00  0.00    -0.493 OA
ATOM     15  C   UNL     1      -0.036  -4.823   6.257  1.00  0.00     0.278 C 
ENDBRANCH   2  14
TORSDOF 2
ENDMDL
MODEL 2
REMARK VINA RESULT:    -4.664     11.930     14.040
REMARK INTER + INTRA:          -5.324
REMARK INTER:                  -5.175
REMARK INTRA:                  -0.149
REMARK UNBOUND:                -0.115
REMARK SMILES COc1cc2ccc(=O)oc2cc1OC
REMARK SMILES IDX 3 1 13 2 12 3 11 4 5 5 4 6 6 7 7 8 8 9 9 10 10 11 2 12 1 13
REMARK SMILES IDX 14 14 15 15
REMARK H PARENT
REMARK Flexibility Score: inf
ROOT
ATOM      1  C   UNL     1       4.068   3.900   5.374  1.00  0.00     0.161 A 
ATOM      2  C   UNL     1       5.468   3.780   5.350  1.00  0.00     0.164 A 
ATOM      3  C   UNL     1       6.272   4.899   5.648  1.00  0.00     0.098 A 
ATOM      4  C   UNL     1       5.684   6.126   5.967  1.00  0.00     0.142 A 
ATOM      5  C   UNL     1       4.280   6.247   5.992  1.00  0.00     0.022 A 
ATOM      6  C   UNL     1       3.478   5.137   5.697  1.00  0.00     0.062 A 
ATOM      7  C   UNL     1       3.724   7.489   6.315  1.00  0.00     0.019 A 
ATOM      8  C   UNL     1       4.565   8.563   6.602  1.00  0.00     0.094 A 
ATOM      9  C   UNL     1       5.949   8.369   6.558  1.00  0.00     0.336 A 
ATOM     10  O   UNL     1       6.727   9.326   6.812  1.00  0.00    -0.246 OA
ATOM     11  O   UNL     1       6.452   7.177   6.247  1.00  0.00    -0.423 OA
ENDROOT
BRANCH   1  12
ATOM     12  O   UNL     1       3.300   2.765   5.073  1.00  0.00    -0.493 OA
ATOM     13  C   UNL     1       2.757   1.875   6.043  1.00  0.00     0.278 C 
ENDBRANCH   1  12
BRANCH   2  14
ATOM     14  O   UNL     1       6.024   2.532   5.025  1.00  0.00    -0.493 OA
ATOM     15  C   UNL     1       6.498   1.587   5.978  1.00  0.00     0.278 C 
ENDBRANCH   2  14
TORSDOF 2
ENDMDL
MODEL 3
REMARK VINA RESULT:    -4.634      1.195      2.807
REMARK INTER + INTRA:          -5.290
REMARK INTER:                  -5.169
REMARK INTRA:                  -0.121
REMARK UNBOUND:                -0.115
REMARK SMILES COc1cc2ccc(=O)oc2cc1OC
REMARK SMILES IDX 3 1 13 2 12 3 11 4 5 5 4 6 6 7 7 8 8 9 9 10 10 11 2 12 1 13
REMARK SMILES IDX 14 14 15 15
REMARK H PARENT
REMARK Flexibility Score: inf
ROOT
ATOM      1  C   UNL     1       0.729  -6.797   5.416  1.00  0.00     0.161 A 
ATOM      2  C   UNL     1       0.192  -7.900   4.730  1.00  0.00     0.164 A 
ATOM      3  C   UNL     1       1.051  -8.792   4.056  1.00  0.00     0.098 A 
ATOM      4  C   UNL     1       2.433  -8.586   4.067  1.00  0.00     0.142 A 
ATOM      5  C   UNL     1       2.972  -7.481   4.754  1.00  0.00     0.022 A 
ATOM      6  C   UNL     1       2.123  -6.592   5.425  1.00  0.00     0.062 A 
ATOM      7  C   UNL     1       4.360  -7.303   4.746  1.00  0.00     0.019 A 
ATOM      8  C   UNL     1       5.163  -8.216   4.064  1.00  0.00     0.094 A 
ATOM      9  C   UNL     1       4.557  -9.289   3.404  1.00  0.00     0.336 A 
ATOM     10  O   UNL     1       5.265 -10.125   2.782  1.00  0.00    -0.246 OA
ATOM     11  O   UNL     1       3.235  -9.435   3.428  1.00  0.00    -0.423 OA
ENDROOT
BRANCH   1  12
ATOM     12  O   UNL     1      -0.156  -5.930   6.075  1.00  0.00    -0.493 OA
ATOM     13  C   UNL     1       0.054  -4.530   6.235  1.00  0.00     0.278 C 
ENDBRANCH   1  12
BRANCH   2  14
ATOM     14  O   UNL     1      -1.201  -8.075   4.740  1.00  0.00    -0.493 OA
ATOM     15  C   UNL     1      -1.881  -9.094   5.466  1.00  0.00     0.278 C 
ENDBRANCH   2  14
TORSDOF 2
ENDMDL
MODEL 4
REMARK VINA RESULT:    -4.544     13.229     15.419
REMARK INTER + INTRA:          -5.190
REMARK INTER:                  -5.069
REMARK INTRA:                  -0.121
REMARK UNBOUND:                -0.115
REMARK SMILES COc1cc2ccc(=O)oc2cc1OC
REMARK SMILES IDX 3 1 13 2 12 3 11 4 5 5 4 6 6 7 7 8 8 9 9 10 10 11 2 12 1 13
REMARK SMILES IDX 14 14 15 15
REMARK H PARENT
REMARK Flexibility Score: inf
ROOT
ATOM      1  C   UNL     1       5.690   8.168   6.959  1.00  0.00     0.161 A 
ATOM      2  C   UNL     1       4.291   8.298   6.926  1.00  0.00     0.164 A 
ATOM      3  C   UNL     1       3.504   7.266   6.375  1.00  0.00     0.098 A 
ATOM      4  C   UNL     1       4.107   6.116   5.860  1.00  0.00     0.142 A 
ATOM      5  C   UNL     1       5.510   5.985   5.893  1.00  0.00     0.022 A 
ATOM      6  C   UNL     1       6.296   7.007   6.440  1.00  0.00     0.062 A 
ATOM      7  C   UNL     1       6.083   4.820   5.370  1.00  0.00     0.019 A 
ATOM      8  C   UNL     1       5.257   3.831   4.836  1.00  0.00     0.094 A 
ATOM      9  C   UNL     1       3.873   4.031   4.838  1.00  0.00     0.336 A 
ATOM     10  O   UNL     1       3.110   3.150   4.360  1.00  0.00    -0.246 OA
ATOM     11  O   UNL     1       3.355   5.148   5.342  1.00  0.00    -0.423 OA
ENDROOT
BRANCH   1  12
ATOM     12  O   UNL     1       6.441   9.214   7.516  1.00  0.00    -0.493 OA
ATOM     13  C   UNL     1       7.238  10.125   6.765  1.00  0.00     0.278 C 
ENDBRANCH   1  12
BRANCH   2  14
ATOM     14  O   UNL     1       3.719   9.468   7.452  1.00  0.00    -0.493 OA
ATOM     15  C   UNL     1       2.392   9.560   7.960  1.00  0.00     0.278 C 
ENDBRANCH   2  14
TORSDOF 2
ENDMDL
MODEL 5
REMARK VINA RESULT:    -4.358     11.403     13.125
REMARK INTER + INTRA:          -4.983
REMARK INTER:                  -4.825
REMARK INTRA:                  -0.158
REMARK UNBOUND:                -0.115
REMARK SMILES COc1cc2ccc(=O)oc2cc1OC
REMARK SMILES IDX 3 1 13 2 12 3 11 4 5 5 4 6 6 7 7 8 8 9 9 10 10 11 2 12 1 13
REMARK SMILES IDX 14 14 15 15
REMARK H PARENT
REMARK Flexibility Score: inf
ROOT
ATOM      1  C   UNL     1       6.300   5.945   5.935  1.00  0.00     0.161 A 
ATOM      2  C   UNL     1       5.024   5.446   5.625  1.00  0.00     0.164 A 
ATOM      3  C   UNL     1       4.856   4.073   5.354  1.00  0.00     0.098 A 
ATOM      4  C   UNL     1       5.950   3.206   5.392  1.00  0.00     0.142 A 
ATOM      5  C   UNL     1       7.231   3.706   5.702  1.00  0.00     0.022 A 
ATOM      6  C   UNL     1       7.403   5.069   5.973  1.00  0.00     0.062 A 
ATOM      7  C   UNL     1       8.307   2.811   5.732  1.00  0.00     0.019 A 
ATOM      8  C   UNL     1       8.084   1.463   5.456  1.00  0.00     0.094 A 
ATOM      9  C   UNL     1       6.786   1.039   5.156  1.00  0.00     0.336 A 
ATOM     10  O   UNL     1       6.563  -0.174   4.903  1.00  0.00    -0.246 OA
ATOM     11  O   UNL     1       5.781   1.911   5.134  1.00  0.00    -0.423 OA
ENDROOT
BRANCH   1  12
ATOM     12  O   UNL     1       6.430   7.317   6.199  1.00  0.00    -0.493 OA
ATOM     13  C   UNL     1       6.629   7.876   7.494  1.00  0.00     0.278 C 
ENDBRANCH   1  12
BRANCH   2  14
ATOM     14  O   UNL     1       3.947   6.346   5.596  1.00  0.00    -0.493 OA
ATOM     15  C   UNL     1       3.052   6.570   6.681  1.00  0.00     0.278 C 
ENDBRANCH   2  14
TORSDOF 2
ENDMDL
MODEL 6
REMARK VINA RESULT:    -4.358     12.116     14.239
REMARK INTER + INTRA:          -4.982
REMARK INTER:                  -4.816
REMARK INTRA:                  -0.166
REMARK UNBOUND:                -0.115
REMARK SMILES COc1cc2ccc(=O)oc2cc1OC
REMARK SMILES IDX 3 1 13 2 12 3 11 4 5 5 4 6 6 7 7 8 8 9 9 10 10 11 2 12 1 13
REMARK SMILES IDX 14 14 15 15
REMARK H PARENT
REMARK Flexibility Score: inf
ROOT
ATOM      1  C   UNL     1       5.537   3.832   5.400  1.00  0.00     0.161 A 
ATOM      2  C   UNL     1       4.257   4.248   4.993  1.00  0.00     0.164 A 
ATOM      3  C   UNL     1       3.830   5.564   5.264  1.00  0.00     0.098 A 
ATOM      4  C   UNL     1       4.670   6.456   5.934  1.00  0.00     0.142 A 
ATOM      5  C   UNL     1       5.953   6.040   6.343  1.00  0.00     0.022 A 
ATOM      6  C   UNL     1       6.382   4.734   6.076  1.00  0.00     0.062 A 
ATOM      7  C   UNL     1       6.770   6.958   7.012  1.00  0.00     0.019 A 
ATOM      8  C   UNL     1       6.296   8.247   7.254  1.00  0.00     0.094 A 
ATOM      9  C   UNL     1       5.012   8.589   6.820  1.00  0.00     0.336 A 
ATOM     10  O   UNL     1       4.565   9.747   7.029  1.00  0.00    -0.246 OA
ATOM     11  O   UNL     1       4.256   7.696   6.185  1.00  0.00    -0.423 OA
ENDROOT
BRANCH   1  12
ATOM     12  O   UNL     1       5.929   2.516   5.114  1.00  0.00    -0.493 OA
ATOM     13  C   UNL     1       5.891   1.440   6.046  1.00  0.00     0.278 C 
ENDBRANCH   1  12
BRANCH   2  14
ATOM     14  O   UNL     1       3.440   3.325   4.322  1.00  0.00    -0.493 OA
ATOM     15  C   UNL     1       2.352   2.627   4.918  1.00  0.00     0.278 C 
ENDBRANCH   2  14
TORSDOF 2
ENDMDL
MODEL 7
REMARK VINA RESULT:    -4.348      1.414      1.796
REMARK INTER + INTRA:          -4.971
REMARK INTER:                  -4.860
REMARK INTRA:                  -0.111
REMARK UNBOUND:                -0.115
REMARK SMILES COc1cc2ccc(=O)oc2cc1OC
REMARK SMILES IDX 3 1 13 2 12 3 11 4 5 5 4 6 6 7 7 8 8 9 9 10 10 11 2 12 1 13
REMARK SMILES IDX 14 14 15 15
REMARK H PARENT
REMARK Flexibility Score: inf
ROOT
ATOM      1  C   UNL     1      -0.691  -7.892   5.013  1.00  0.00     0.161 A 
ATOM      2  C   UNL     1      -0.720  -6.632   5.635  1.00  0.00     0.164 A 
ATOM      3  C   UNL     1       0.482  -5.925   5.842  1.00  0.00     0.098 A 
ATOM      4  C   UNL     1       1.701  -6.470   5.432  1.00  0.00     0.142 A 
ATOM      5  C   UNL     1       1.731  -7.733   4.807  1.00  0.00     0.022 A 
ATOM      6  C   UNL     1       0.539  -8.439   4.599  1.00  0.00     0.062 A 
ATOM      7  C   UNL     1       2.968  -8.251   4.408  1.00  0.00     0.019 A 
ATOM      8  C   UNL     1       4.127  -7.509   4.637  1.00  0.00     0.094 A 
ATOM      9  C   UNL     1       4.020  -6.263   5.262  1.00  0.00     0.336 A 
ATOM     10  O   UNL     1       5.054  -5.578   5.478  1.00  0.00    -0.246 OA
ATOM     11  O   UNL     1       2.831  -5.795   5.631  1.00  0.00    -0.423 OA
ENDROOT
BRANCH   1  12
ATOM     12  O   UNL     1      -1.907  -8.567   4.823  1.00  0.00    -0.493 OA
ATOM     13  C   UNL     1      -2.410  -9.583   5.686  1.00  0.00     0.278 C 
ENDBRANCH   1  12
BRANCH   2  14
ATOM     14  O   UNL     1      -1.963  -6.116   6.035  1.00  0.00    -0.493 OA
ATOM     15  C   UNL     1      -2.143  -4.875   6.710  1.00  0.00     0.278 C 
ENDBRANCH   2  14
TORSDOF 2
ENDMDL
MODEL 8
REMARK VINA RESULT:    -4.311      2.075      4.957
REMARK INTER + INTRA:          -4.930
REMARK INTER:                  -4.765
REMARK INTRA:                  -0.165
REMARK UNBOUND:                -0.115
REMARK SMILES COc1cc2ccc(=O)oc2cc1OC
REMARK SMILES IDX 3 1 13 2 12 3 11 4 5 5 4 6 6 7 7 8 8 9 9 10 10 11 2 12 1 13
REMARK SMILES IDX 14 14 15 15
REMARK H PARENT
REMARK Flexibility Score: inf
ROOT
ATOM      1  C   UNL     1       4.219  -5.892   5.492  1.00  0.00     0.161 A 
ATOM      2  C   UNL     1       3.272  -4.959   5.946  1.00  0.00     0.164 A 
ATOM      3  C   UNL     1       1.896  -5.239   5.815  1.00  0.00     0.098 A 
ATOM      4  C   UNL     1       1.470  -6.437   5.238  1.00  0.00     0.142 A 
ATOM      5  C   UNL     1       2.420  -7.373   4.782  1.00  0.00     0.022 A 
ATOM      6  C   UNL     1       3.788  -7.101   4.910  1.00  0.00     0.062 A 
ATOM      7  C   UNL     1       1.960  -8.564   4.209  1.00  0.00     0.019 A 
ATOM      8  C   UNL     1       0.588  -8.789   4.105  1.00  0.00     0.094 A 
ATOM      9  C   UNL     1      -0.295  -7.814   4.578  1.00  0.00     0.336 A 
ATOM     10  O   UNL     1      -1.538  -7.998   4.493  1.00  0.00    -0.246 OA
ATOM     11  O   UNL     1       0.169  -6.691   5.119  1.00  0.00    -0.423 OA
ENDROOT
BRANCH   1  12
ATOM     12  O   UNL     1       5.580  -5.581   5.638  1.00  0.00    -0.493 OA
ATOM     13  C   UNL     1       6.413  -5.087   4.593  1.00  0.00     0.278 C 
ENDBRANCH   1  12
BRANCH   2  14
ATOM     14  O   UNL     1       3.736  -3.765   6.520  1.00  0.00    -0.493 OA
ATOM     15  C   UNL     1       3.711  -2.496   5.876  1.00  0.00     0.278 C 
ENDBRANCH   2  14
TORSDOF 2
ENDMDL
MODEL 9
REMARK VINA RESULT:    -4.301      2.026      5.271
REMARK INTER + INTRA:          -4.919
REMARK INTER:                  -4.781
REMARK INTRA:                  -0.139
REMARK UNBOUND:                -0.115
REMARK SMILES COc1cc2ccc(=O)oc2cc1OC
REMARK SMILES IDX 3 1 13 2 12 3 11 4 5 5 4 6 6 7 7 8 8 9 9 10 10 11 2 12 1 13
REMARK SMILES IDX 14 14 15 15
REMARK H PARENT
REMARK Flexibility Score: inf
ROOT
ATOM      1  C   UNL     1       6.154  -6.968   4.434  1.00  0.00     0.161 A 
ATOM      2  C   UNL     1       5.340  -6.073   5.148  1.00  0.00     0.164 A 
ATOM      3  C   UNL     1       3.959  -6.327   5.271  1.00  0.00     0.098 A 
ATOM      4  C   UNL     1       3.395  -7.463   4.685  1.00  0.00     0.142 A 
ATOM      5  C   UNL     1       4.210  -8.361   3.968  1.00  0.00     0.022 A 
ATOM      6  C   UNL     1       5.584  -8.114   3.845  1.00  0.00     0.062 A 
ATOM      7  C   UNL     1       3.615  -9.490   3.394  1.00  0.00     0.019 A 
ATOM      8  C   UNL     1       2.244  -9.692   3.546  1.00  0.00     0.094 A 
ATOM      9  C   UNL     1       1.498  -8.758   4.271  1.00  0.00     0.336 A 
ATOM     10  O   UNL     1       0.258  -8.922   4.419  1.00  0.00    -0.246 OA
ATOM     11  O   UNL     1       2.090  -7.694   4.806  1.00  0.00    -0.423 OA
ENDROOT
BRANCH   1  12
ATOM     12  O   UNL     1       7.525  -6.684   4.333  1.00  0.00    -0.493 OA
ATOM     13  C   UNL     1       8.119  -5.932   3.279  1.00  0.00     0.278 C 
ENDBRANCH   1  12
BRANCH   2  14
ATOM     14  O   UNL     1       5.941  -4.941   5.723  1.00  0.00    -0.493 OA
ATOM     15  C   UNL     1       5.760  -3.608   5.258  1.00  0.00     0.278 C 
ENDBRANCH   2  14
TORSDOF 2
ENDMDL
