MODEL 1
REMARK VINA RESULT:    -5.121      0.000      0.000
REMARK INTER + INTRA:          -6.264
REMARK INTER:                  -6.020
REMARK INTRA:                  -0.244
REMARK UNBOUND:                -0.244
REMARK SMILES CCC=Cc1oc(O)c2c(O)cccc12
REMARK SMILES IDX 7 1 6 2 5 3 15 4 14 5 13 6 12 7 10 8 9 9 8 10 4 12 3 13 2 14
REMARK SMILES IDX 1 15 11 16
REMARK H PARENT 8 11 11 17
REMARK Flexibility Score: inf
ROOT
ATOM      1  C   UNL     1      15.433  17.332  29.551  1.00  0.00     0.294 A 
ATOM      2  O   UNL     1      14.351  16.665  29.898  1.00  0.00    -0.425 OA
ATOM      3  C   UNL     1      14.204  16.723  31.205  1.00  0.00     0.138 A 
ATOM      4  C   UNL     1      15.232  17.489  31.738  1.00  0.00     0.035 A 
ATOM      5  C   UNL     1      15.502  17.883  33.050  1.00  0.00     0.013 A 
ATOM      6  C   UNL     1      16.633  18.682  33.281  1.00  0.00     0.005 A 
ATOM      7  C   UNL     1      17.435  19.113  32.206  1.00  0.00     0.047 A 
ATOM      8  C   UNL     1      17.109  18.767  30.882  1.00  0.00     0.130 A 
ATOM      9  C   UNL     1      16.014  17.904  30.679  1.00  0.00     0.108 A 
ENDROOT
BRANCH   1  10
ATOM     10  O   UNL     1      15.903  17.353  28.241  1.00  0.00    -0.480 OA
ATOM     11  H   UNL     1      15.291  17.315  27.440  1.00  0.00     0.297 HD
ENDBRANCH   1  10
BRANCH   3  12
ATOM     12  C   UNL     1      13.094  16.058  31.909  1.00  0.00     0.043 C 
ATOM     13  C   UNL     1      11.981  16.700  32.274  1.00  0.00    -0.023 C 
BRANCH  13  14
ATOM     14  C   UNL     1      10.886  16.003  33.029  1.00  0.00     0.024 C 
ATOM     15  C   UNL     1      10.619  16.681  34.369  1.00  0.00     0.008 C 
ENDBRANCH  13  14
ENDBRANCH   3  12
BRANCH   8  16
ATOM     16  O   UNL     1      17.844  19.336  29.844  1.00  0.00    -0.507 OA
ATOM     17  H   UNL     1      17.765  20.307  29.584  1.00  0.00     0.293 HD
ENDBRANCH   8  16
TORSDOF 4
ENDMDL
MODEL 2
REMARK VINA RESULT:    -5.098      1.913      2.332
REMARK INTER + INTRA:          -6.237
REMARK INTER:                  -6.007
REMARK INTRA:                  -0.230
REMARK UNBOUND:                -0.244
REMARK SMILES CCC=Cc1oc(O)c2c(O)cccc12
REMARK SMILES IDX 7 1 6 2 5 3 15 4 14 5 13 6 12 7 10 8 9 9 8 10 4 12 3 13 2 14
REMARK SMILES IDX 1 15 11 16
REMARK H PARENT 8 11 11 17
REMARK Flexibility Score: inf
ROOT
ATOM      1  C   UNL     1      15.834  17.212  29.506  1.00  0.00     0.294 A 
ATOM      2  O   UNL     1      14.904  16.360  29.129  1.00  0.00    -0.425 OA
ATOM      3  C   UNL     1      14.133  16.073  30.158  1.00  0.00     0.138 A 
ATOM      4  C   UNL     1      14.570  16.796  31.260  1.00  0.00     0.035 A 
ATOM      5  C   UNL     1      14.073  16.880  32.562  1.00  0.00     0.013 A 
ATOM      6  C   UNL     1      14.735  17.722  33.469  1.00  0.00     0.005 A 
ATOM      7  C   UNL     1      15.835  18.496  33.053  1.00  0.00     0.047 A 
ATOM      8  C   UNL     1      16.280  18.455  31.718  1.00  0.00     0.130 A 
ATOM      9  C   UNL     1      15.649  17.549  30.844  1.00  0.00     0.108 A 
ENDROOT
BRANCH   1  10
ATOM     10  O   UNL     1      16.861  17.613  28.656  1.00  0.00    -0.480 OA
ATOM     11  H   UNL     1      17.174  18.571  28.589  1.00  0.00     0.297 HD
ENDBRANCH   1  10
BRANCH   3  12
ATOM     12  C   UNL     1      13.005  15.130  30.067  1.00  0.00     0.043 C 
ATOM     13  C   UNL     1      11.729  15.524  30.092  1.00  0.00    -0.023 C 
BRANCH  13  14
ATOM     14  C   UNL     1      10.602  14.534  30.041  1.00  0.00     0.024 C 
ATOM     15  C   UNL     1      10.144  14.289  28.606  1.00  0.00     0.008 C 
ENDBRANCH  13  14
ENDBRANCH   3  12
BRANCH   8  16
ATOM     16  O   UNL     1      17.275  19.346  31.319  1.00  0.00    -0.507 OA
ATOM     17  H   UNL     1      18.065  19.070  30.757  1.00  0.00     0.293 HD
ENDBRANCH   8  16
TORSDOF 4
ENDMDL
MODEL 3
REMARK VINA RESULT:    -4.807      1.675      3.167
REMARK INTER + INTRA:          -5.895
REMARK INTER:                  -5.714
REMARK INTRA:                  -0.180
REMARK UNBOUND:                -0.244
REMARK SMILES CCC=Cc1oc(O)c2c(O)cccc12
REMARK SMILES IDX 7 1 6 2 5 3 15 4 14 5 13 6 12 7 10 8 9 9 8 10 4 12 3 13 2 14
REMARK SMILES IDX 1 15 11 16
REMARK H PARENT 8 11 11 17
REMARK Flexibility Score: inf
ROOT
ATOM      1  C   UNL     1      16.594  18.707  31.604  1.00  0.00     0.294 A 
ATOM      2  O   UNL     1      16.266  18.725  32.879  1.00  0.00    -0.425 OA
ATOM      3  C   UNL     1      15.346  17.809  33.105  1.00  0.00     0.138 A 
ATOM      4  C   UNL     1      15.078  17.142  31.918  1.00  0.00     0.035 A 
ATOM      5  C   UNL     1      14.226  16.073  31.634  1.00  0.00     0.013 A 
ATOM      6  C   UNL     1      14.176  15.599  30.314  1.00  0.00     0.005 A 
ATOM      7  C   UNL     1      15.006  16.157  29.323  1.00  0.00     0.047 A 
ATOM      8  C   UNL     1      15.912  17.186  29.639  1.00  0.00     0.130 A 
ATOM      9  C   UNL     1      15.893  17.697  30.952  1.00  0.00     0.108 A 
ENDROOT
BRANCH   1  10
ATOM     10  O   UNL     1      17.466  19.641  31.049  1.00  0.00    -0.480 OA
ATOM     11  H   UNL     1      18.465  19.502  31.013  1.00  0.00     0.297 HD
ENDBRANCH   1  10
BRANCH   3  12
ATOM     12  C   UNL     1      14.754  17.590  34.436  1.00  0.00     0.043 C 
ATOM     13  C   UNL     1      13.440  17.666  34.664  1.00  0.00    -0.023 C 
BRANCH  13  14
ATOM     14  C   UNL     1      12.873  17.480  36.041  1.00  0.00     0.024 C 
ATOM     15  C   UNL     1      11.357  17.313  35.998  1.00  0.00     0.008 C 
ENDBRANCH  13  14
ENDBRANCH   3  12
BRANCH   8  16
ATOM     16  O   UNL     1      16.814  17.604  28.663  1.00  0.00    -0.507 OA
ATOM     17  H   UNL     1      17.642  18.140  28.874  1.00  0.00     0.293 HD
ENDBRANCH   8  16
TORSDOF 4
ENDMDL
MODEL 4
REMARK VINA RESULT:    -4.498      4.076      7.432
REMARK INTER + INTRA:          -5.531
REMARK INTER:                  -5.278
REMARK INTRA:                  -0.253
REMARK UNBOUND:                -0.244
REMARK SMILES CCC=Cc1oc(O)c2c(O)cccc12
REMARK SMILES IDX 7 1 6 2 5 3 15 4 14 5 13 6 12 7 10 8 9 9 8 10 4 12 3 13 2 14
REMARK SMILES IDX 1 15 11 16
REMARK H PARENT 8 11 11 17
REMARK Flexibility Score: inf
ROOT
ATOM      1  C   UNL     1       9.390  15.018  32.265  1.00  0.00     0.294 A 
ATOM      2  O   UNL     1      10.601  15.464  32.531  1.00  0.00    -0.425 OA
ATOM      3  C   UNL     1      11.344  15.379  31.447  1.00  0.00     0.138 A 
ATOM      4  C   UNL     1      10.570  14.871  30.412  1.00  0.00     0.035 A 
ATOM      5  C   UNL     1      10.869  14.631  29.070  1.00  0.00     0.013 A 
ATOM      6  C   UNL     1       9.856  14.114  28.248  1.00  0.00     0.005 A 
ATOM      7  C   UNL     1       8.562  13.896  28.761  1.00  0.00     0.047 A 
ATOM      8  C   UNL     1       8.256  14.209  30.098  1.00  0.00     0.130 A 
ATOM      9  C   UNL     1       9.306  14.658  30.924  1.00  0.00     0.108 A 
ENDROOT
BRANCH   1  10
ATOM     10  O   UNL     1       8.416  14.886  33.251  1.00  0.00    -0.480 OA
ATOM     11  H   UNL     1       8.442  14.160  33.952  1.00  0.00     0.297 HD
ENDBRANCH   1  10
BRANCH   3  12
ATOM     12  C   UNL     1      12.760  15.784  31.421  1.00  0.00     0.043 C 
ATOM     13  C   UNL     1      13.167  16.956  30.927  1.00  0.00    -0.023 C 
BRANCH  13  14
ATOM     14  C   UNL     1      14.622  17.321  30.876  1.00  0.00     0.024 C 
ATOM     15  C   UNL     1      15.168  17.228  29.454  1.00  0.00     0.008 C 
ENDBRANCH  13  14
ENDBRANCH   3  12
BRANCH   8  16
ATOM     16  O   UNL     1       6.931  14.116  30.518  1.00  0.00    -0.507 OA
ATOM     17  H   UNL     1       6.511  13.251  30.822  1.00  0.00     0.293 HD
ENDBRANCH   8  16
TORSDOF 4
ENDMDL
MODEL 5
REMARK VINA RESULT:    -4.483      1.615      4.216
REMARK INTER + INTRA:          -5.514
REMARK INTER:                  -5.293
REMARK INTRA:                  -0.221
REMARK UNBOUND:                -0.244
REMARK SMILES CCC=Cc1oc(O)c2c(O)cccc12
REMARK SMILES IDX 7 1 6 2 5 3 15 4 14 5 13 6 12 7 10 8 9 9 8 10 4 12 3 13 2 14
REMARK SMILES IDX 1 15 11 16
REMARK H PARENT 8 11 11 17
REMARK Flexibility Score: inf
ROOT
ATOM      1  C   UNL     1      15.811  17.311  29.673  1.00  0.00     0.294 A 
ATOM      2  O   UNL     1      16.319  18.087  30.608  1.00  0.00    -0.425 OA
ATOM      3  C   UNL     1      15.601  17.972  31.707  1.00  0.00     0.138 A 
ATOM      4  C   UNL     1      14.585  17.054  31.483  1.00  0.00     0.035 A 
ATOM      5  C   UNL     1      13.593  16.554  32.330  1.00  0.00     0.013 A 
ATOM      6  C   UNL     1      12.696  15.607  31.811  1.00  0.00     0.005 A 
ATOM      7  C   UNL     1      12.834  15.142  30.489  1.00  0.00     0.047 A 
ATOM      8  C   UNL     1      13.882  15.602  29.670  1.00  0.00     0.130 A 
ATOM      9  C   UNL     1      14.726  16.606  30.186  1.00  0.00     0.108 A 
ENDROOT
BRANCH   1  10
ATOM     10  O   UNL     1      16.296  17.306  28.368  1.00  0.00    -0.480 OA
ATOM     11  H   UNL     1      17.245  17.559  28.137  1.00  0.00     0.297 HD
ENDBRANCH   1  10
BRANCH   3  12
ATOM     12  C   UNL     1      15.902  18.730  32.933  1.00  0.00     0.043 C 
ATOM     13  C   UNL     1      16.223  18.138  34.088  1.00  0.00    -0.023 C 
BRANCH  13  14
ATOM     14  C   UNL     1      16.481  18.938  35.332  1.00  0.00     0.024 C 
ATOM     15  C   UNL     1      15.545  20.138  35.424  1.00  0.00     0.008 C 
ENDBRANCH  13  14
ENDBRANCH   3  12
BRANCH   8  16
ATOM     16  O   UNL     1      14.066  15.006  28.424  1.00  0.00    -0.507 OA
ATOM     17  H   UNL     1      13.765  14.066  28.216  1.00  0.00     0.293 HD
ENDBRANCH   8  16
TORSDOF 4
ENDMDL
MODEL 6
REMARK VINA RESULT:    -4.426      2.610      3.660
REMARK INTER + INTRA:          -5.446
REMARK INTER:                  -5.210
REMARK INTRA:                  -0.236
REMARK UNBOUND:                -0.244
REMARK SMILES CCC=Cc1oc(O)c2c(O)cccc12
REMARK SMILES IDX 7 1 6 2 5 3 15 4 14 5 13 6 12 7 10 8 9 9 8 10 4 12 3 13 2 14
REMARK SMILES IDX 1 15 11 16
REMARK H PARENT 8 11 11 17
REMARK Flexibility Score: inf
ROOT
ATOM      1  C   UNL     1      13.885  16.981  32.985  1.00  0.00     0.294 A 
ATOM      2  O   UNL     1      12.940  16.123  32.661  1.00  0.00    -0.425 OA
ATOM      3  C   UNL     1      13.060  15.802  31.389  1.00  0.00     0.138 A 
ATOM      4  C   UNL     1      14.156  16.470  30.861  1.00  0.00     0.035 A 
ATOM      5  C   UNL     1      14.727  16.439  29.587  1.00  0.00     0.013 A 
ATOM      6  C   UNL     1      15.861  17.231  29.351  1.00  0.00     0.005 A 
ATOM      7  C   UNL     1      16.432  17.990  30.392  1.00  0.00     0.047 A 
ATOM      8  C   UNL     1      15.888  17.955  31.690  1.00  0.00     0.130 A 
ATOM      9  C   UNL     1      14.706  17.212  31.886  1.00  0.00     0.108 A 
ENDROOT
BRANCH   1  10
ATOM     10  O   UNL     1      13.943  17.582  34.240  1.00  0.00    -0.480 OA
ATOM     11  H   UNL     1      14.812  17.767  34.718  1.00  0.00     0.297 HD
ENDBRANCH   1  10
BRANCH   3  12
ATOM     12  C   UNL     1      12.138  14.872  30.715  1.00  0.00     0.043 C 
ATOM     13  C   UNL     1      11.078  15.285  30.015  1.00  0.00    -0.023 C 
BRANCH  13  14
ATOM     14  C   UNL     1      10.133  14.309  29.376  1.00  0.00     0.024 C 
ATOM     15  C   UNL     1      10.223  14.366  27.854  1.00  0.00     0.008 C 
ENDBRANCH  13  14
ENDBRANCH   3  12
BRANCH   8  16
ATOM     16  O   UNL     1      16.571  18.603  32.717  1.00  0.00    -0.507 OA
ATOM     17  H   UNL     1      16.986  18.113  33.494  1.00  0.00     0.293 HD
ENDBRANCH   8  16
TORSDOF 4
ENDMDL
MODEL 7
REMARK VINA RESULT:    -4.386      2.235      3.042
REMARK INTER + INTRA:          -5.400
REMARK INTER:                  -5.192
REMARK INTRA:                  -0.208
REMARK UNBOUND:                -0.244
REMARK SMILES CCC=Cc1oc(O)c2c(O)cccc12
REMARK SMILES IDX 7 1 6 2 5 3 15 4 14 5 13 6 12 7 10 8 9 9 8 10 4 12 3 13 2 14
REMARK SMILES IDX 1 15 11 16
REMARK H PARENT 8 11 11 17
REMARK Flexibility Score: inf
ROOT
ATOM      1  C   UNL     1      16.396  17.749  29.801  1.00  0.00     0.294 A 
ATOM      2  O   UNL     1      15.618  17.805  30.863  1.00  0.00    -0.425 OA
ATOM      3  C   UNL     1      16.312  18.253  31.888  1.00  0.00     0.138 A 
ATOM      4  C   UNL     1      17.607  18.526  31.468  1.00  0.00     0.035 A 
ATOM      5  C   UNL     1      18.706  19.052  32.150  1.00  0.00     0.013 A 
ATOM      6  C   UNL     1      19.903  19.227  31.440  1.00  0.00     0.005 A 
ATOM      7  C   UNL     1      19.969  18.927  30.066  1.00  0.00     0.047 A 
ATOM      8  C   UNL     1      18.834  18.465  29.375  1.00  0.00     0.130 A 
ATOM      9  C   UNL     1      17.663  18.227  30.122  1.00  0.00     0.108 A 
ENDROOT
BRANCH   1  10
ATOM     10  O   UNL     1      15.964  17.210  28.593  1.00  0.00    -0.480 OA
ATOM     11  H   UNL     1      15.003  16.951  28.422  1.00  0.00     0.297 HD
ENDBRANCH   1  10
BRANCH   3  12
ATOM     12  C   UNL     1      15.730  18.414  33.232  1.00  0.00     0.043 C 
ATOM     13  C   UNL     1      14.756  17.627  33.696  1.00  0.00    -0.023 C 
BRANCH  13  14
ATOM     14  C   UNL     1      14.153  17.845  35.054  1.00  0.00     0.024 C 
ATOM     15  C   UNL     1      14.755  19.069  35.738  1.00  0.00     0.008 C 
ENDBRANCH  13  14
ENDBRANCH   3  12
BRANCH   8  16
ATOM     16  O   UNL     1      18.907  18.323  27.990  1.00  0.00    -0.507 OA
ATOM     17  H   UNL     1      19.781  18.282  27.489  1.00  0.00     0.293 HD
ENDBRANCH   8  16
TORSDOF 4
ENDMDL
MODEL 8
REMARK VINA RESULT:    -4.255      2.999      6.608
REMARK INTER + INTRA:          -5.246
REMARK INTER:                  -5.071
REMARK INTRA:                  -0.175
REMARK UNBOUND:                -0.244
REMARK SMILES CCC=Cc1oc(O)c2c(O)cccc12
REMARK SMILES IDX 7 1 6 2 5 3 15 4 14 5 13 6 12 7 10 8 9 9 8 10 4 12 3 13 2 14
REMARK SMILES IDX 1 15 11 16
REMARK H PARENT 8 11 11 17
REMARK Flexibility Score: inf
ROOT
ATOM      1  C   UNL     1      11.294  16.403  32.883  1.00  0.00     0.294 A 
ATOM      2  O   UNL     1      12.438  16.918  32.480  1.00  0.00    -0.425 OA
ATOM      3  C   UNL     1      12.688  16.515  31.251  1.00  0.00     0.138 A 
ATOM      4  C   UNL     1      11.639  15.713  30.821  1.00  0.00     0.035 A 
ATOM      5  C   UNL     1      11.404  15.082  29.597  1.00  0.00     0.013 A 
ATOM      6  C   UNL     1      10.226  14.334  29.455  1.00  0.00     0.005 A 
ATOM      7  C   UNL     1       9.288  14.271  30.504  1.00  0.00     0.047 A 
ATOM      8  C   UNL     1       9.505  14.971  31.705  1.00  0.00     0.130 A 
ATOM      9  C   UNL     1      10.727  15.655  31.855  1.00  0.00     0.108 A 
ENDROOT
BRANCH   1  10
ATOM     10  O   UNL     1      10.824  16.567  34.183  1.00  0.00    -0.480 OA
ATOM     11  H   UNL     1      10.769  17.468  34.635  1.00  0.00     0.297 HD
ENDBRANCH   1  10
BRANCH   3  12
ATOM     12  C   UNL     1      13.906  16.904  30.521  1.00  0.00     0.043 C 
ATOM     13  C   UNL     1      14.975  17.430  31.126  1.00  0.00    -0.023 C 
BRANCH  13  14
ATOM     14  C   UNL     1      16.185  17.856  30.348  1.00  0.00     0.024 C 
ATOM     15  C   UNL     1      17.035  18.844  31.140  1.00  0.00     0.008 C 
ENDBRANCH  13  14
ENDBRANCH   3  12
BRANCH   8  16
ATOM     16  O   UNL     1       8.485  14.999  32.654  1.00  0.00    -0.507 OA
ATOM     17  H   UNL     1       8.185  14.181  33.161  1.00  0.00     0.293 HD
ENDBRANCH   8  16
TORSDOF 4
ENDMDL
MODEL 9
REMARK VINA RESULT:    -4.239      2.744      4.234
REMARK INTER + INTRA:          -5.227
REMARK INTER:                  -5.021
REMARK INTRA:                  -0.206
REMARK UNBOUND:                -0.244
REMARK SMILES CCC=Cc1oc(O)c2c(O)cccc12
REMARK SMILES IDX 7 1 6 2 5 3 15 4 14 5 13 6 12 7 10 8 9 9 8 10 4 12 3 13 2 14
REMARK SMILES IDX 1 15 11 16
REMARK H PARENT 8 11 11 17
REMARK Flexibility Score: inf
ROOT
ATOM      1  C   UNL     1      11.866  14.534  29.223  1.00  0.00     0.294 A 
ATOM      2  O   UNL     1      10.654  14.395  29.720  1.00  0.00    -0.425 OA
ATOM      3  C   UNL     1      10.580  15.032  30.870  1.00  0.00     0.138 A 
ATOM      4  C   UNL     1      11.802  15.639  31.126  1.00  0.00     0.035 A 
ATOM      5  C   UNL     1      12.223  16.456  32.177  1.00  0.00     0.013 A 
ATOM      6  C   UNL     1      13.541  16.937  32.154  1.00  0.00     0.005 A 
ATOM      7  C   UNL     1      14.390  16.643  31.069  1.00  0.00     0.047 A 
ATOM      8  C   UNL     1      13.929  15.878  29.982  1.00  0.00     0.130 A 
ATOM      9  C   UNL     1      12.627  15.343  30.060  1.00  0.00     0.108 A 
ENDROOT
BRANCH   1  10
ATOM     10  O   UNL     1      12.272  13.877  28.065  1.00  0.00    -0.480 OA
ATOM     11  H   UNL     1      12.874  14.303  27.376  1.00  0.00     0.297 HD
ENDBRANCH   1  10
BRANCH   3  12
ATOM     12  C   UNL     1       9.356  15.052  31.689  1.00  0.00     0.043 C 
ATOM     13  C   UNL     1       8.148  14.771  31.191  1.00  0.00    -0.023 C 
BRANCH  13  14
ATOM     14  C   UNL     1       6.914  14.843  32.042  1.00  0.00     0.024 C 
ATOM     15  C   UNL     1       7.263  15.090  33.507  1.00  0.00     0.008 C 
ENDBRANCH  13  14
ENDBRANCH   3  12
BRANCH   8  16
ATOM     16  O   UNL     1      14.754  15.738  28.868  1.00  0.00    -0.507 OA
ATOM     17  H   UNL     1      15.090  14.844  28.543  1.00  0.00     0.293 HD
ENDBRANCH   8  16
TORSDOF 4
ENDMDL
