MODEL 1
REMARK VINA RESULT:    -4.254      0.000      0.000
REMARK INTER + INTRA:          -7.555
REMARK INTER:                  -6.492
REMARK INTRA:                  -1.063
REMARK UNBOUND:                -1.063
REMARK SMILES CCCCCCCCCCC(=O)[O-]
REMARK SMILES IDX 7 1 8 2 9 3 10 4 11 5 12 6 13 7 6 8 5 9 4 10 3 11 2 12 1 13
REMARK H PARENT
REMARK Flexibility Score: inf
ROOT
ATOM      1  C   UNL     1      56.809  -3.863  31.758  1.00  0.00     0.000 C 
ENDROOT
BRANCH   1   2
ATOM      2  C   UNL     1      55.325  -4.280  31.749  1.00  0.00     0.000 C 
BRANCH   2   3
ATOM      3  C   UNL     1      54.324  -3.114  31.834  1.00  0.00     0.006 C 
BRANCH   3   4
ATOM      4  C   UNL     1      54.882  -1.806  31.260  1.00  0.00     0.053 C 
BRANCH   4   5
ATOM      5  C   UNL     1      54.482  -1.651  29.828  1.00  0.00     0.041 C 
ATOM      6  O   UNL     1      55.307  -1.896  28.909  1.00  0.00    -0.550 OA
ATOM      7  O   UNL     1      53.182  -1.284  29.505  1.00  0.00    -0.550 OA
ENDBRANCH   4   5
ENDBRANCH   3   4
ENDBRANCH   2   3
ENDBRANCH   1   2
BRANCH   1   8
ATOM      8  C   UNL     1      57.571  -4.118  30.443  1.00  0.00     0.000 C 
BRANCH   8   9
ATOM      9  C   UNL     1      58.684  -3.102  30.130  1.00  0.00    -0.000 C 
BRANCH   9  10
ATOM     10  C   UNL     1      58.504  -1.771  30.875  1.00  0.00    -0.000 C 
BRANCH  10  11
ATOM     11  C   UNL     1      58.659  -0.582  29.920  1.00  0.00    -0.000 C 
BRANCH  11  12
ATOM     12  C   UNL     1      57.649   0.525  30.251  1.00  0.00    -0.003 C 
ATOM     13  C   UNL     1      57.160   1.220  28.985  1.00  0.00     0.004 C 
ENDBRANCH  11  12
ENDBRANCH  10  11
ENDBRANCH   9  10
ENDBRANCH   8   9
ENDBRANCH   1   8
TORSDOF 9
ENDMDL
MODEL 2
REMARK VINA RESULT:    -4.170      1.250      3.581
REMARK INTER + INTRA:          -7.427
REMARK INTER:                  -6.192
REMARK INTRA:                  -1.236
REMARK UNBOUND:                -1.063
REMARK SMILES CCCCCCCCCCC(=O)[O-]
REMARK SMILES IDX 7 1 8 2 9 3 10 4 11 5 12 6 13 7 6 8 5 9 4 10 3 11 2 12 1 13
REMARK H PARENT
REMARK Flexibility Score: inf
ROOT
ATOM      1  C   UNL     1      58.792  -0.274  29.514  1.00  0.00     0.000 C 
ENDROOT
BRANCH   1   2
ATOM      2  C   UNL     1      57.547   0.231  30.271  1.00  0.00     0.000 C 
BRANCH   2   3
ATOM      3  C   UNL     1      56.263  -0.581  30.022  1.00  0.00     0.006 C 
BRANCH   3   4
ATOM      4  C   UNL     1      55.393  -0.718  31.278  1.00  0.00     0.053 C 
BRANCH   4   5
ATOM      5  C   UNL     1      54.156  -1.501  30.973  1.00  0.00     0.041 C 
ATOM      6  O   UNL     1      53.721  -2.345  31.800  1.00  0.00    -0.550 OA
ATOM      7  O   UNL     1      53.454  -1.263  29.799  1.00  0.00    -0.550 OA
ENDBRANCH   4   5
ENDBRANCH   3   4
ENDBRANCH   2   3
ENDBRANCH   1   2
BRANCH   1   8
ATOM      8  C   UNL     1      59.513  -1.472  30.162  1.00  0.00     0.000 C 
BRANCH   8   9
ATOM      9  C   UNL     1      59.475  -2.774  29.341  1.00  0.00    -0.000 C 
BRANCH   9  10
ATOM     10  C   UNL     1      58.724  -3.907  30.056  1.00  0.00    -0.000 C 
BRANCH  10  11
ATOM     11  C   UNL     1      58.295  -3.477  31.465  1.00  0.00    -0.000 C 
BRANCH  11  12
ATOM     12  C   UNL     1      56.931  -4.075  31.831  1.00  0.00    -0.003 C 
ATOM     13  C   UNL     1      56.204  -4.587  30.591  1.00  0.00     0.004 C 
ENDBRANCH  11  12
ENDBRANCH  10  11
ENDBRANCH   9  10
ENDBRANCH   8   9
ENDBRANCH   1   8
TORSDOF 9
ENDMDL
MODEL 3
REMARK VINA RESULT:    -4.132      0.645      1.459
REMARK INTER + INTRA:          -7.369
REMARK INTER:                  -6.298
REMARK INTRA:                  -1.070
REMARK UNBOUND:                -1.063
REMARK SMILES CCCCCCCCCCC(=O)[O-]
REMARK SMILES IDX 7 1 8 2 9 3 10 4 11 5 12 6 13 7 6 8 5 9 4 10 3 11 2 12 1 13
REMARK H PARENT
REMARK Flexibility Score: inf
ROOT
ATOM      1  C   UNL     1      57.791  -3.830  30.596  1.00  0.00     0.000 C 
ENDROOT
BRANCH   1   2
ATOM      2  C   UNL     1      56.781  -3.992  31.750  1.00  0.00     0.000 C 
BRANCH   2   3
ATOM      3  C   UNL     1      55.338  -3.577  31.411  1.00  0.00     0.006 C 
BRANCH   3   4
ATOM      4  C   UNL     1      55.166  -2.057  31.298  1.00  0.00     0.053 C 
BRANCH   4   5
ATOM      5  C   UNL     1      54.576  -1.695  29.972  1.00  0.00     0.041 C 
ATOM      6  O   UNL     1      53.403  -1.245  29.902  1.00  0.00    -0.550 OA
ATOM      7  O   UNL     1      55.340  -1.808  28.818  1.00  0.00    -0.550 OA
ENDBRANCH   4   5
ENDBRANCH   3   4
ENDBRANCH   2   3
ENDBRANCH   1   2
BRANCH   1   8
ATOM      8  C   UNL     1      58.813  -2.690  30.772  1.00  0.00     0.000 C 
BRANCH   8   9
ATOM      9  C   UNL     1      59.261  -2.011  29.466  1.00  0.00    -0.000 C 
BRANCH   9  10
ATOM     10  C   UNL     1      59.001  -0.497  29.462  1.00  0.00    -0.000 C 
BRANCH  10  11
ATOM     11  C   UNL     1      58.144  -0.085  30.665  1.00  0.00    -0.000 C 
BRANCH  11  12
ATOM     12  C   UNL     1      57.183   1.051  30.292  1.00  0.00    -0.003 C 
ATOM     13  C   UNL     1      57.132   1.255  28.781  1.00  0.00     0.004 C 
ENDBRANCH  11  12
ENDBRANCH  10  11
ENDBRANCH   9  10
ENDBRANCH   8   9
ENDBRANCH   1   8
TORSDOF 9
ENDMDL
MODEL 4
REMARK VINA RESULT:    -4.038      1.742      2.655
REMARK INTER + INTRA:          -7.226
REMARK INTER:                  -6.226
REMARK INTRA:                  -1.000
REMARK UNBOUND:                -1.063
REMARK SMILES CCCCCCCCCCC(=O)[O-]
REMARK SMILES IDX 7 1 8 2 9 3 10 4 11 5 12 6 13 7 6 8 5 9 4 10 3 11 2 12 1 13
REMARK H PARENT
REMARK Flexibility Score: inf
ROOT
ATOM      1  C   UNL     1      59.526  -3.617  30.319  1.00  0.00     0.000 C 
ENDROOT
BRANCH   1   2
ATOM      2  C   UNL     1      58.104  -4.181  30.510  1.00  0.00     0.000 C 
BRANCH   2   3
ATOM      3  C   UNL     1      57.360  -3.657  31.752  1.00  0.00     0.006 C 
BRANCH   3   4
ATOM      4  C   UNL     1      56.111  -2.838  31.396  1.00  0.00     0.053 C 
BRANCH   4   5
ATOM      5  C   UNL     1      54.873  -3.573  31.801  1.00  0.00     0.041 C 
ATOM      6  O   UNL     1      53.835  -2.935  32.122  1.00  0.00    -0.550 OA
ATOM      7  O   UNL     1      54.847  -4.961  31.775  1.00  0.00    -0.550 OA
ENDBRANCH   4   5
ENDBRANCH   3   4
ENDBRANCH   2   3
ENDBRANCH   1   2
BRANCH   1   8
ATOM      8  C   UNL     1      59.729  -2.764  29.052  1.00  0.00     0.000 C 
BRANCH   8   9
ATOM      9  C   UNL     1      59.849  -1.250  29.299  1.00  0.00    -0.000 C 
BRANCH   9  10
ATOM     10  C   UNL     1      59.454  -0.847  30.728  1.00  0.00    -0.000 C 
BRANCH  10  11
ATOM     11  C   UNL     1      58.278   0.138  30.715  1.00  0.00    -0.000 C 
BRANCH  11  12
ATOM     12  C   UNL     1      57.507   0.057  29.392  1.00  0.00    -0.003 C 
ATOM     13  C   UNL     1      57.181   1.449  28.859  1.00  0.00     0.004 C 
ENDBRANCH  11  12
ENDBRANCH  10  11
ENDBRANCH   9  10
ENDBRANCH   8   9
ENDBRANCH   1   8
TORSDOF 9
ENDMDL
MODEL 5
REMARK VINA RESULT:    -4.004      1.471      3.875
REMARK INTER + INTRA:          -7.173
REMARK INTER:                  -6.153
REMARK INTRA:                  -1.020
REMARK UNBOUND:                -1.063
REMARK SMILES CCCCCCCCCCC(=O)[O-]
REMARK SMILES IDX 7 1 8 2 9 3 10 4 11 5 12 6 13 7 6 8 5 9 4 10 3 11 2 12 1 13
REMARK H PARENT
REMARK Flexibility Score: inf
ROOT
ATOM      1  C   UNL     1      58.174  -3.439  31.515  1.00  0.00     0.000 C 
ENDROOT
BRANCH   1   2
ATOM      2  C   UNL     1      58.448  -1.957  31.190  1.00  0.00     0.000 C 
BRANCH   2   3
ATOM      3  C   UNL     1      58.645  -1.647  29.695  1.00  0.00     0.006 C 
BRANCH   3   4
ATOM      4  C   UNL     1      58.738  -0.143  29.406  1.00  0.00     0.053 C 
BRANCH   4   5
ATOM      5  C   UNL     1      57.375   0.474  29.409  1.00  0.00     0.041 C 
ATOM      6  O   UNL     1      57.037   1.259  30.335  1.00  0.00    -0.550 OA
ATOM      7  O   UNL     1      56.496   0.224  28.364  1.00  0.00    -0.550 OA
ENDBRANCH   4   5
ENDBRANCH   3   4
ENDBRANCH   2   3
ENDBRANCH   1   2
BRANCH   1   8
ATOM      8  C   UNL     1      57.452  -4.231  30.407  1.00  0.00     0.000 C 
BRANCH   8   9
ATOM      9  C   UNL     1      56.023  -4.684  30.759  1.00  0.00    -0.000 C 
BRANCH   9  10
ATOM     10  C   UNL     1      55.508  -4.069  32.069  1.00  0.00    -0.000 C 
BRANCH  10  11
ATOM     11  C   UNL     1      54.313  -3.144  31.809  1.00  0.00    -0.000 C 
BRANCH  11  12
ATOM     12  C   UNL     1      54.766  -1.827  31.167  1.00  0.00    -0.003 C 
ATOM     13  C   UNL     1      53.826  -1.411  30.040  1.00  0.00     0.004 C 
ENDBRANCH  11  12
ENDBRANCH  10  11
ENDBRANCH   9  10
ENDBRANCH   8   9
ENDBRANCH   1   8
TORSDOF 9
ENDMDL
MODEL 6
REMARK VINA RESULT:    -3.946      1.296      3.563
REMARK INTER + INTRA:          -7.085
REMARK INTER:                  -6.094
REMARK INTRA:                  -0.991
REMARK UNBOUND:                -1.063
REMARK SMILES CCCCCCCCCCC(=O)[O-]
REMARK SMILES IDX 7 1 8 2 9 3 10 4 11 5 12 6 13 7 6 8 5 9 4 10 3 11 2 12 1 13
REMARK H PARENT
REMARK Flexibility Score: inf
ROOT
ATOM      1  C   UNL     1      58.134  -0.107  29.973  1.00  0.00     0.000 C 
ENDROOT
BRANCH   1   2
ATOM      2  C   UNL     1      56.773   0.266  30.594  1.00  0.00     0.000 C 
BRANCH   2   3
ATOM      3  C   UNL     1      55.908  -0.931  31.027  1.00  0.00     0.006 C 
BRANCH   3   4
ATOM      4  C   UNL     1      54.694  -1.150  30.114  1.00  0.00     0.053 C 
BRANCH   4   5
ATOM      5  C   UNL     1      55.138  -1.477  28.723  1.00  0.00     0.041 C 
ATOM      6  O   UNL     1      55.467  -2.655  28.424  1.00  0.00    -0.550 OA
ATOM      7  O   UNL     1      55.141  -0.492  27.745  1.00  0.00    -0.550 OA
ENDBRANCH   4   5
ENDBRANCH   3   4
ENDBRANCH   2   3
ENDBRANCH   1   2
BRANCH   1   8
ATOM      8  C   UNL     1      58.787  -1.383  30.540  1.00  0.00     0.000 C 
BRANCH   8   9
ATOM      9  C   UNL     1      59.015  -2.508  29.515  1.00  0.00    -0.000 C 
BRANCH   9  10
ATOM     10  C   UNL     1      58.835  -3.909  30.117  1.00  0.00    -0.000 C 
BRANCH  10  11
ATOM     11  C   UNL     1      57.735  -3.910  31.186  1.00  0.00    -0.000 C 
BRANCH  11  12
ATOM     12  C   UNL     1      56.490  -4.657  30.693  1.00  0.00    -0.003 C 
ATOM     13  C   UNL     1      55.386  -4.641  31.746  1.00  0.00     0.004 C 
ENDBRANCH  11  12
ENDBRANCH  10  11
ENDBRANCH   9  10
ENDBRANCH   8   9
ENDBRANCH   1   8
TORSDOF 9
ENDMDL
MODEL 7
REMARK VINA RESULT:    -3.839      2.441      4.104
REMARK INTER + INTRA:          -6.922
REMARK INTER:                  -5.633
REMARK INTRA:                  -1.289
REMARK UNBOUND:                -1.063
REMARK SMILES CCCCCCCCCCC(=O)[O-]
REMARK SMILES IDX 7 1 8 2 9 3 10 4 11 5 12 6 13 7 6 8 5 9 4 10 3 11 2 12 1 13
REMARK H PARENT
REMARK Flexibility Score: inf
ROOT
ATOM      1  C   UNL     1      57.004  -4.151  30.741  1.00  0.00     0.000 C 
ENDROOT
BRANCH   1   2
ATOM      2  C   UNL     1      58.081  -3.643  31.720  1.00  0.00     0.000 C 
BRANCH   2   3
ATOM      3  C   UNL     1      59.018  -2.563  31.150  1.00  0.00     0.006 C 
BRANCH   3   4
ATOM      4  C   UNL     1      59.220  -2.690  29.635  1.00  0.00     0.053 C 
BRANCH   4   5
ATOM      5  C   UNL     1      59.865  -1.455  29.089  1.00  0.00     0.041 C 
ATOM      6  O   UNL     1      60.844  -1.548  28.302  1.00  0.00    -0.550 OA
ATOM      7  O   UNL     1      59.354  -0.205  29.408  1.00  0.00    -0.550 OA
ENDBRANCH   4   5
ENDBRANCH   3   4
ENDBRANCH   2   3
ENDBRANCH   1   2
BRANCH   1   8
ATOM      8  C   UNL     1      55.684  -4.605  31.394  1.00  0.00     0.000 C 
BRANCH   8   9
ATOM      9  C   UNL     1      54.830  -3.471  31.989  1.00  0.00    -0.000 C 
BRANCH   9  10
ATOM     10  C   UNL     1      54.529  -2.357  30.976  1.00  0.00    -0.000 C 
BRANCH  10  11
ATOM     11  C   UNL     1      55.078  -1.010  31.461  1.00  0.00    -0.000 C 
BRANCH  11  12
ATOM     12  C   UNL     1      56.093  -0.438  30.465  1.00  0.00    -0.003 C 
ATOM     13  C   UNL     1      55.878  -1.015  29.069  1.00  0.00     0.004 C 
ENDBRANCH  11  12
ENDBRANCH  10  11
ENDBRANCH   9  10
ENDBRANCH   8   9
ENDBRANCH   1   8
TORSDOF 9
ENDMDL
MODEL 8
REMARK VINA RESULT:    -3.835      1.288      1.825
REMARK INTER + INTRA:          -6.915
REMARK INTER:                  -5.807
REMARK INTRA:                  -1.108
REMARK UNBOUND:                -1.063
REMARK SMILES CCCCCCCCCCC(=O)[O-]
REMARK SMILES IDX 7 1 8 2 9 3 10 4 11 5 12 6 13 7 6 8 5 9 4 10 3 11 2 12 1 13
REMARK H PARENT
REMARK Flexibility Score: inf
ROOT
ATOM      1  C   UNL     1      58.145  -3.760  29.609  1.00  0.00     0.000 C 
ENDROOT
BRANCH   1   2
ATOM      2  C   UNL     1      57.298  -4.154  30.836  1.00  0.00     0.000 C 
BRANCH   2   3
ATOM      3  C   UNL     1      56.172  -3.166  31.190  1.00  0.00     0.006 C 
BRANCH   3   4
ATOM      4  C   UNL     1      55.531  -2.525  29.953  1.00  0.00     0.053 C 
BRANCH   4   5
ATOM      5  C   UNL     1      54.523  -1.497  30.360  1.00  0.00     0.041 C 
ATOM      6  O   UNL     1      54.736  -0.761  31.359  1.00  0.00    -0.550 OA
ATOM      7  O   UNL     1      53.370  -1.318  29.606  1.00  0.00    -0.550 OA
ENDBRANCH   4   5
ENDBRANCH   3   4
ENDBRANCH   2   3
ENDBRANCH   1   2
BRANCH   1   8
ATOM      8  C   UNL     1      59.665  -3.693  29.855  1.00  0.00     0.000 C 
BRANCH   8   9
ATOM      9  C   UNL     1      60.398  -2.576  29.090  1.00  0.00    -0.000 C 
BRANCH   9  10
ATOM     10  C   UNL     1      59.741  -1.200  29.269  1.00  0.00    -0.000 C 
BRANCH  10  11
ATOM     11  C   UNL     1      59.522  -0.886  30.754  1.00  0.00    -0.000 C 
BRANCH  11  12
ATOM     12  C   UNL     1      58.209  -0.124  30.968  1.00  0.00    -0.003 C 
ATOM     13  C   UNL     1      57.731   0.524  29.673  1.00  0.00     0.004 C 
ENDBRANCH  11  12
ENDBRANCH  10  11
ENDBRANCH   9  10
ENDBRANCH   8   9
ENDBRANCH   1   8
TORSDOF 9
ENDMDL
MODEL 9
REMARK VINA RESULT:    -3.716      1.523      3.284
REMARK INTER + INTRA:          -6.734
REMARK INTER:                  -5.678
REMARK INTRA:                  -1.056
REMARK UNBOUND:                -1.063
REMARK SMILES CCCCCCCCCCC(=O)[O-]
REMARK SMILES IDX 7 1 8 2 9 3 10 4 11 5 12 6 13 7 6 8 5 9 4 10 3 11 2 12 1 13
REMARK H PARENT
REMARK Flexibility Score: inf
ROOT
ATOM      1  C   UNL     1      58.347   0.167  31.127  1.00  0.00     0.000 C 
ENDROOT
BRANCH   1   2
ATOM      2  C   UNL     1      57.221  -0.747  31.652  1.00  0.00     0.000 C 
BRANCH   2   3
ATOM      3  C   UNL     1      55.846  -0.523  30.997  1.00  0.00     0.006 C 
BRANCH   3   4
ATOM      4  C   UNL     1      55.363  -1.739  30.196  1.00  0.00     0.053 C 
BRANCH   4   5
ATOM      5  C   UNL     1      54.478  -1.305  29.071  1.00  0.00     0.041 C 
ATOM      6  O   UNL     1      54.976  -0.787  28.037  1.00  0.00    -0.550 OA
ATOM      7  O   UNL     1      53.108  -1.519  29.142  1.00  0.00    -0.550 OA
ENDBRANCH   4   5
ENDBRANCH   3   4
ENDBRANCH   2   3
ENDBRANCH   1   2
BRANCH   1   8
ATOM      8  C   UNL     1      58.637   0.051  29.618  1.00  0.00     0.000 C 
BRANCH   8   9
ATOM      9  C   UNL     1      59.380  -1.230  29.196  1.00  0.00    -0.000 C 
BRANCH   9  10
ATOM     10  C   UNL     1      60.402  -1.698  30.242  1.00  0.00    -0.000 C 
BRANCH  10  11
ATOM     11  C   UNL     1      60.117  -3.139  30.681  1.00  0.00    -0.000 C 
BRANCH  11  12
ATOM     12  C   UNL     1      59.048  -3.784  29.792  1.00  0.00    -0.003 C 
ATOM     13  C   UNL     1      57.850  -4.243  30.618  1.00  0.00     0.004 C 
ENDBRANCH  11  12
ENDBRANCH  10  11
ENDBRANCH   9  10
ENDBRANCH   8   9
ENDBRANCH   1   8
TORSDOF 9
ENDMDL
