MODEL 1
REMARK VINA RESULT:    -2.484      0.000      0.000
REMARK INTER + INTRA:          -2.484
REMARK INTER:                  -2.484
REMARK INTRA:                   0.000
REMARK UNBOUND:                 0.000
REMARK SMILES CC(=O)[O-]
REMARK SMILES IDX 1 1 2 2 3 3 4 4
REMARK H PARENT
REMARK Flexibility Score: inf
ROOT
ATOM      1  C   UNL     1     106.982  49.555 230.901  1.00  0.00     0.063 C 
ATOM      2  C   UNL     1     107.643  48.866 232.046  1.00  0.00     0.038 C 
ATOM      3  O   UNL     1     107.037  47.958 232.674  1.00  0.00    -0.550 OA
ATOM      4  O   UNL     1     108.951  49.185 232.389  1.00  0.00    -0.550 OA
ENDROOT
TORSDOF 0
ENDMDL
MODEL 2
REMARK VINA RESULT:    -2.399      1.399      1.844
REMARK INTER + INTRA:          -2.399
REMARK INTER:                  -2.399
REMARK INTRA:                   0.000
REMARK UNBOUND:                 0.000
REMARK SMILES CC(=O)[O-]
REMARK SMILES IDX 1 1 2 2 3 3 4 4
REMARK H PARENT
REMARK Flexibility Score: inf
ROOT
ATOM      1  C   UNL     1     107.211  49.561 231.233  1.00  0.00     0.063 C 
ATOM      2  C   UNL     1     108.359  49.910 232.118  1.00  0.00     0.038 C 
ATOM      3  O   UNL     1     108.451  51.065 232.609  1.00  0.00    -0.550 OA
ATOM      4  O   UNL     1     109.301  48.944 232.447  1.00  0.00    -0.550 OA
ENDROOT
TORSDOF 0
ENDMDL
MODEL 3
REMARK VINA RESULT:    -2.299      0.257      1.636
REMARK INTER + INTRA:          -2.299
REMARK INTER:                  -2.299
REMARK INTRA:                   0.000
REMARK UNBOUND:                 0.000
REMARK SMILES CC(=O)[O-]
REMARK SMILES IDX 1 1 2 2 3 3 4 4
REMARK H PARENT
REMARK Flexibility Score: inf
ROOT
ATOM      1  C   UNL     1     106.828  49.425 230.888  1.00  0.00     0.063 C 
ATOM      2  C   UNL     1     107.487  48.839 232.090  1.00  0.00     0.038 C 
ATOM      3  O   UNL     1     108.620  49.251 232.453  1.00  0.00    -0.550 OA
ATOM      4  O   UNL     1     106.830  47.877 232.845  1.00  0.00    -0.550 OA
ENDROOT
TORSDOF 0
ENDMDL
MODEL 4
REMARK VINA RESULT:    -2.269     19.163     19.470
REMARK INTER + INTRA:          -2.269
REMARK INTER:                  -2.269
REMARK INTRA:                   0.000
REMARK UNBOUND:                 0.000
REMARK SMILES CC(=O)[O-]
REMARK SMILES IDX 1 1 2 2 3 3 4 4
REMARK H PARENT
REMARK Flexibility Score: inf
ROOT
ATOM      1  C   UNL     1      99.080  59.319 216.726  1.00  0.00     0.063 C 
ATOM      2  C   UNL     1      99.252  59.652 218.169  1.00  0.00     0.038 C 
ATOM      3  O   UNL     1      98.549  59.074 219.039  1.00  0.00    -0.550 OA
ATOM      4  O   UNL     1     100.226  60.560 218.562  1.00  0.00    -0.550 OA
ENDROOT
TORSDOF 0
ENDMDL
MODEL 5
REMARK VINA RESULT:    -2.151     23.855     24.160
REMARK INTER + INTRA:          -2.151
REMARK INTER:                  -2.151
REMARK INTRA:                   0.000
REMARK UNBOUND:                 0.000
REMARK SMILES CC(=O)[O-]
REMARK SMILES IDX 1 1 2 2 3 3 4 4
REMARK H PARENT
REMARK Flexibility Score: inf
ROOT
ATOM      1  C   UNL     1     111.460  65.204 216.358  1.00  0.00     0.063 C 
ATOM      2  C   UNL     1     112.380  66.313 215.974  1.00  0.00     0.038 C 
ATOM      3  O   UNL     1     112.186  67.476 216.413  1.00  0.00    -0.550 OA
ATOM      4  O   UNL     1     113.486  66.053 215.175  1.00  0.00    -0.550 OA
ENDROOT
TORSDOF 0
ENDMDL
MODEL 6
REMARK VINA RESULT:    -2.087      3.745      4.171
REMARK INTER + INTRA:          -2.087
REMARK INTER:                  -2.087
REMARK INTRA:                   0.000
REMARK UNBOUND:                 0.000
REMARK SMILES CC(=O)[O-]
REMARK SMILES IDX 1 1 2 2 3 3 4 4
REMARK H PARENT
REMARK Flexibility Score: inf
ROOT
ATOM      1  C   UNL     1     110.933  52.688 232.468  1.00  0.00     0.063 C 
ATOM      2  C   UNL     1     109.711  51.948 232.896  1.00  0.00     0.038 C 
ATOM      3  O   UNL     1     109.482  50.794 232.450  1.00  0.00    -0.550 OA
ATOM      4  O   UNL     1     108.850  52.509 233.830  1.00  0.00    -0.550 OA
ENDROOT
TORSDOF 0
ENDMDL
MODEL 7
REMARK VINA RESULT:    -1.981     22.165     22.787
REMARK INTER + INTRA:          -1.981
REMARK INTER:                  -1.981
REMARK INTRA:                   0.000
REMARK UNBOUND:                 0.000
REMARK SMILES CC(=O)[O-]
REMARK SMILES IDX 1 1 2 2 3 3 4 4
REMARK H PARENT
REMARK Flexibility Score: inf
ROOT
ATOM      1  C   UNL     1     111.098  64.169 216.386  1.00  0.00     0.063 C 
ATOM      2  C   UNL     1     111.119  65.555 216.935  1.00  0.00     0.038 C 
ATOM      3  O   UNL     1     110.752  65.772 218.119  1.00  0.00    -0.550 OA
ATOM      4  O   UNL     1     111.596  66.603 216.159  1.00  0.00    -0.550 OA
ENDROOT
TORSDOF 0
ENDMDL
MODEL 8
REMARK VINA RESULT:    -1.981     18.020     18.437
REMARK INTER + INTRA:          -1.981
REMARK INTER:                  -1.981
REMARK INTRA:                   0.000
REMARK UNBOUND:                 0.000
REMARK SMILES CC(=O)[O-]
REMARK SMILES IDX 1 1 2 2 3 3 4 4
REMARK H PARENT
REMARK Flexibility Score: inf
ROOT
ATOM      1  C   UNL     1      98.175  57.030 218.295  1.00  0.00     0.063 C 
ATOM      2  C   UNL     1      98.313  58.179 219.235  1.00  0.00     0.038 C 
ATOM      3  O   UNL     1      98.761  59.281 218.824  1.00  0.00    -0.550 OA
ATOM      4  O   UNL     1      97.896  58.054 220.553  1.00  0.00    -0.550 OA
ENDROOT
TORSDOF 0
ENDMDL
MODEL 9
REMARK VINA RESULT:    -1.834     17.486     17.904
REMARK INTER + INTRA:          -1.834
REMARK INTER:                  -1.834
REMARK INTRA:                   0.000
REMARK UNBOUND:                 0.000
REMARK SMILES CC(=O)[O-]
REMARK SMILES IDX 1 1 2 2 3 3 4 4
REMARK H PARENT
REMARK Flexibility Score: inf
ROOT
ATOM      1  C   UNL     1     100.270  62.778 225.191  1.00  0.00     0.063 C 
ATOM      2  C   UNL     1     101.026  63.475 224.112  1.00  0.00     0.038 C 
ATOM      3  O   UNL     1     100.408  64.053 223.179  1.00  0.00    -0.550 OA
ATOM      4  O   UNL     1     102.412  63.535 224.161  1.00  0.00    -0.550 OA
ENDROOT
TORSDOF 0
ENDMDL
