MODEL 1
REMARK VINA RESULT:    -3.088      0.000      0.000
REMARK INTER + INTRA:          -3.854
REMARK INTER:                  -3.630
REMARK INTRA:                  -0.224
REMARK UNBOUND:                -0.224
REMARK SMILES [NH3+][C@@H](CO)C(=O)[O-]
REMARK SMILES IDX 3 1 2 2 1 3 5 7 6 8 7 9 4 10
REMARK H PARENT 1 4 1 5 1 6 4 11
REMARK Flexibility Score: inf
ROOT
ATOM      1  C   UNL     1     129.933 126.381 120.858  1.00  0.00     0.227 C 
ENDROOT
BRANCH   1   2
ATOM      2  C   UNL     1     131.313 127.043 120.692  1.00  0.00     0.253 C 
BRANCH   2   3
ATOM      3  N   UNL     1     132.396 126.075 120.910  1.00  0.00    -0.348 N 
ATOM      4  H   UNL     1     132.984 126.347 121.732  1.00  0.00     0.345 HD
ATOM      5  H   UNL     1     133.001 126.025 120.059  1.00  0.00     0.345 HD
ATOM      6  H   UNL     1     131.991 125.126 121.080  1.00  0.00     0.345 HD
ENDBRANCH   2   3
BRANCH   2   7
ATOM      7  C   UNL     1     131.455 128.226 121.615  1.00  0.00     0.102 C 
ATOM      8  O   UNL     1     130.734 128.310 122.644  1.00  0.00    -0.544 OA
ATOM      9  O   UNL     1     132.413 129.203 121.370  1.00  0.00    -0.544 OA
ENDBRANCH   2   7
ENDBRANCH   1   2
BRANCH   1  10
ATOM     10  O   UNL     1     128.898 127.257 120.491  1.00  0.00    -0.390 OA
ATOM     11  H   UNL     1     128.256 126.733 119.945  1.00  0.00     0.210 HD
ENDBRANCH   1  10
TORSDOF 4
ENDMDL
MODEL 2
REMARK VINA RESULT:    -3.085      1.831      2.824
REMARK INTER + INTRA:          -3.850
REMARK INTER:                  -3.634
REMARK INTRA:                  -0.216
REMARK UNBOUND:                -0.224
REMARK SMILES [NH3+][C@@H](CO)C(=O)[O-]
REMARK SMILES IDX 3 1 2 2 1 3 5 7 6 8 7 9 4 10
REMARK H PARENT 1 4 1 5 1 6 4 11
REMARK Flexibility Score: inf
ROOT
ATOM      1  C   UNL     1     131.346 125.533 122.928  1.00  0.00     0.227 C 
ENDROOT
BRANCH   1   2
ATOM      2  C   UNL     1     131.226 125.438 121.396  1.00  0.00     0.253 C 
BRANCH   2   3
ATOM      3  N   UNL     1     132.482 124.976 120.791  1.00  0.00    -0.348 N 
ATOM      4  H   UNL     1     132.539 125.252 119.784  1.00  0.00     0.345 HD
ATOM      5  H   UNL     1     132.548 123.935 120.865  1.00  0.00     0.345 HD
ATOM      6  H   UNL     1     133.294 125.392 121.304  1.00  0.00     0.345 HD
ENDBRANCH   2   3
BRANCH   2   7
ATOM      7  C   UNL     1     130.799 126.759 120.808  1.00  0.00     0.102 C 
ATOM      8  O   UNL     1     131.559 127.759 120.893  1.00  0.00    -0.544 OA
ATOM      9  O   UNL     1     129.594 126.873 120.126  1.00  0.00    -0.544 OA
ENDBRANCH   2   7
ENDBRANCH   1   2
BRANCH   1  10
ATOM     10  O   UNL     1     132.533 126.179 123.310  1.00  0.00    -0.390 OA
ATOM     11  H   UNL     1     132.273 127.054 123.699  1.00  0.00     0.210 HD
ENDBRANCH   1  10
TORSDOF 4
ENDMDL
MODEL 3
REMARK VINA RESULT:    -3.061      1.421      2.854
REMARK INTER + INTRA:          -3.822
REMARK INTER:                  -3.607
REMARK INTRA:                  -0.216
REMARK UNBOUND:                -0.224
REMARK SMILES [NH3+][C@@H](CO)C(=O)[O-]
REMARK SMILES IDX 3 1 2 2 1 3 5 7 6 8 7 9 4 10
REMARK H PARENT 1 4 1 5 1 6 4 11
REMARK Flexibility Score: inf
ROOT
ATOM      1  C   UNL     1     132.602 127.883 121.251  1.00  0.00     0.227 C 
ENDROOT
BRANCH   1   2
ATOM      2  C   UNL     1     131.870 126.572 121.591  1.00  0.00     0.253 C 
BRANCH   2   3
ATOM      3  N   UNL     1     132.455 125.434 120.870  1.00  0.00    -0.348 N 
ATOM      4  H   UNL     1     131.946 124.547 121.091  1.00  0.00     0.345 HD
ATOM      5  H   UNL     1     133.460 125.326 121.137  1.00  0.00     0.345 HD
ATOM      6  H   UNL     1     132.407 125.607 119.840  1.00  0.00     0.345 HD
ENDBRANCH   2   3
BRANCH   2   7
ATOM      7  C   UNL     1     130.395 126.690 121.303  1.00  0.00     0.102 C 
ATOM      8  O   UNL     1     130.000 126.906 120.127  1.00  0.00    -0.544 OA
ATOM      9  O   UNL     1     129.461 126.513 122.316  1.00  0.00    -0.544 OA
ENDBRANCH   2   7
ENDBRANCH   1   2
BRANCH   1  10
ATOM     10  O   UNL     1     132.837 127.996 119.872  1.00  0.00    -0.390 OA
ATOM     11  H   UNL     1     133.382 127.210 119.606  1.00  0.00     0.210 HD
ENDBRANCH   1  10
TORSDOF 4
ENDMDL
MODEL 4
REMARK VINA RESULT:    -3.036      2.572      3.067
REMARK INTER + INTRA:          -3.793
REMARK INTER:                  -3.427
REMARK INTRA:                  -0.366
REMARK UNBOUND:                -0.224
REMARK SMILES [NH3+][C@@H](CO)C(=O)[O-]
REMARK SMILES IDX 3 1 2 2 1 3 5 7 6 8 7 9 4 10
REMARK H PARENT 1 4 1 5 1 6 4 11
REMARK Flexibility Score: inf
ROOT
ATOM      1  C   UNL     1     131.903 124.505 120.888  1.00  0.00     0.227 C 
ENDROOT
BRANCH   1   2
ATOM      2  C   UNL     1     131.088 125.795 121.094  1.00  0.00     0.253 C 
BRANCH   2   3
ATOM      3  N   UNL     1     131.549 126.865 120.200  1.00  0.00    -0.348 N 
ATOM      4  H   UNL     1     131.042 126.834 119.285  1.00  0.00     0.345 HD
ATOM      5  H   UNL     1     132.575 126.762 120.026  1.00  0.00     0.345 HD
ATOM      6  H   UNL     1     131.385 127.795 120.650  1.00  0.00     0.345 HD
ENDBRANCH   2   3
BRANCH   2   7
ATOM      7  C   UNL     1     131.140 126.238 122.534  1.00  0.00     0.102 C 
ATOM      8  O   UNL     1     131.997 127.084 122.900  1.00  0.00    -0.544 OA
ATOM      9  O   UNL     1     130.216 125.759 123.455  1.00  0.00    -0.544 OA
ENDBRANCH   2   7
ENDBRANCH   1   2
BRANCH   1  10
ATOM     10  O   UNL     1     132.569 124.126 122.064  1.00  0.00    -0.390 OA
ATOM     11  H   UNL     1     133.023 124.936 122.413  1.00  0.00     0.210 HD
ENDBRANCH   1  10
TORSDOF 4
ENDMDL
MODEL 5
REMARK VINA RESULT:    -3.003      2.732      3.503
REMARK INTER + INTRA:          -3.754
REMARK INTER:                  -3.378
REMARK INTRA:                  -0.377
REMARK UNBOUND:                -0.224
REMARK SMILES [NH3+][C@@H](CO)C(=O)[O-]
REMARK SMILES IDX 3 1 2 2 1 3 5 7 6 8 7 9 4 10
REMARK H PARENT 1 4 1 5 1 6 4 11
REMARK Flexibility Score: inf
ROOT
ATOM      1  C   UNL     1     131.839 127.445 120.792  1.00  0.00     0.227 C 
ENDROOT
BRANCH   1   2
ATOM      2  C   UNL     1     130.908 126.232 120.968  1.00  0.00     0.253 C 
BRANCH   2   3
ATOM      3  N   UNL     1     129.762 126.560 121.827  1.00  0.00    -0.348 N 
ATOM      4  H   UNL     1     129.233 125.697 122.093  1.00  0.00     0.345 HD
ATOM      5  H   UNL     1     129.120 127.213 121.324  1.00  0.00     0.345 HD
ATOM      6  H   UNL     1     130.098 127.035 122.696  1.00  0.00     0.345 HD
ENDBRANCH   2   3
BRANCH   2   7
ATOM      7  C   UNL     1     131.666 125.048 121.512  1.00  0.00     0.102 C 
ATOM      8  O   UNL     1     132.122 124.178 120.724  1.00  0.00    -0.544 OA
ATOM      9  O   UNL     1     131.914 124.932 122.875  1.00  0.00    -0.544 OA
ENDBRANCH   2   7
ENDBRANCH   1   2
BRANCH   1  10
ATOM     10  O   UNL     1     133.189 127.076 120.901  1.00  0.00    -0.390 OA
ATOM     11  H   UNL     1     133.691 127.892 121.159  1.00  0.00     0.210 HD
ENDBRANCH   1  10
TORSDOF 4
ENDMDL
MODEL 6
REMARK VINA RESULT:    -2.993      2.247      2.394
REMARK INTER + INTRA:          -3.742
REMARK INTER:                  -3.533
REMARK INTRA:                  -0.209
REMARK UNBOUND:                -0.224
REMARK SMILES [NH3+][C@@H](CO)C(=O)[O-]
REMARK SMILES IDX 3 1 2 2 1 3 5 7 6 8 7 9 4 10
REMARK H PARENT 1 4 1 5 1 6 4 11
REMARK Flexibility Score: inf
ROOT
ATOM      1  C   UNL     1     128.718 126.131 120.450  1.00  0.00     0.227 C 
ENDROOT
BRANCH   1   2
ATOM      2  C   UNL     1     129.141 127.089 121.578  1.00  0.00     0.253 C 
BRANCH   2   3
ATOM      3  N   UNL     1     128.209 128.219 121.693  1.00  0.00    -0.348 N 
ATOM      4  H   UNL     1     128.511 128.881 122.445  1.00  0.00     0.345 HD
ATOM      5  H   UNL     1     127.250 127.865 121.915  1.00  0.00     0.345 HD
ATOM      6  H   UNL     1     128.164 128.733 120.783  1.00  0.00     0.345 HD
ENDBRANCH   2   3
BRANCH   2   7
ATOM      7  C   UNL     1     130.552 127.576 121.368  1.00  0.00     0.102 C 
ATOM      8  O   UNL     1     131.094 128.318 122.229  1.00  0.00    -0.544 OA
ATOM      9  O   UNL     1     131.281 127.172 120.257  1.00  0.00    -0.544 OA
ENDBRANCH   2   7
ENDBRANCH   1   2
BRANCH   1  10
ATOM     10  O   UNL     1     128.375 126.832 119.283  1.00  0.00    -0.390 OA
ATOM     11  H   UNL     1     128.638 126.261 118.515  1.00  0.00     0.210 HD
ENDBRANCH   1  10
TORSDOF 4
ENDMDL
MODEL 7
REMARK VINA RESULT:    -2.988      2.283      2.339
REMARK INTER + INTRA:          -3.736
REMARK INTER:                  -3.352
REMARK INTRA:                  -0.384
REMARK UNBOUND:                -0.224
REMARK SMILES [NH3+][C@@H](CO)C(=O)[O-]
REMARK SMILES IDX 3 1 2 2 1 3 5 7 6 8 7 9 4 10
REMARK H PARENT 1 4 1 5 1 6 4 11
REMARK Flexibility Score: inf
ROOT
ATOM      1  C   UNL     1     131.289 125.017 121.160  1.00  0.00     0.227 C 
ENDROOT
BRANCH   1   2
ATOM      2  C   UNL     1     130.768 126.440 121.431  1.00  0.00     0.253 C 
BRANCH   2   3
ATOM      3  N   UNL     1     129.825 126.869 120.389  1.00  0.00    -0.348 N 
ATOM      4  H   UNL     1     129.593 127.885 120.487  1.00  0.00     0.345 HD
ATOM      5  H   UNL     1     128.945 126.310 120.458  1.00  0.00     0.345 HD
ATOM      6  H   UNL     1     130.245 126.704 119.445  1.00  0.00     0.345 HD
ENDBRANCH   2   3
BRANCH   2   7
ATOM      7  C   UNL     1     131.911 127.415 121.557  1.00  0.00     0.102 C 
ATOM      8  O   UNL     1     132.454 127.604 122.677  1.00  0.00    -0.544 OA
ATOM      9  O   UNL     1     132.406 128.073 120.437  1.00  0.00    -0.544 OA
ENDBRANCH   2   7
ENDBRANCH   1   2
BRANCH   1  10
ATOM     10  O   UNL     1     132.662 125.020 120.870  1.00  0.00    -0.390 OA
ATOM     11  H   UNL     1     133.010 124.122 121.109  1.00  0.00     0.210 HD
ENDBRANCH   1  10
TORSDOF 4
ENDMDL
MODEL 8
REMARK VINA RESULT:    -2.962      2.188      2.580
REMARK INTER + INTRA:          -3.705
REMARK INTER:                  -3.477
REMARK INTRA:                  -0.228
REMARK UNBOUND:                -0.224
REMARK SMILES [NH3+][C@@H](CO)C(=O)[O-]
REMARK SMILES IDX 3 1 2 2 1 3 5 7 6 8 7 9 4 10
REMARK H PARENT 1 4 1 5 1 6 4 11
REMARK Flexibility Score: inf
ROOT
ATOM      1  C   UNL     1     130.690 126.017 120.875  1.00  0.00     0.227 C 
ENDROOT
BRANCH   1   2
ATOM      2  C   UNL     1     129.257 126.570 120.980  1.00  0.00     0.253 C 
BRANCH   2   3
ATOM      3  N   UNL     1     128.680 126.811 119.651  1.00  0.00    -0.348 N 
ATOM      4  H   UNL     1     127.635 126.799 119.687  1.00  0.00     0.345 HD
ATOM      5  H   UNL     1     129.008 126.074 118.986  1.00  0.00     0.345 HD
ATOM      6  H   UNL     1     128.999 127.741 119.292  1.00  0.00     0.345 HD
ENDBRANCH   2   3
BRANCH   2   7
ATOM      7  C   UNL     1     129.226 127.825 121.815  1.00  0.00     0.102 C 
ATOM      8  O   UNL     1     128.132 128.413 122.025  1.00  0.00    -0.544 OA
ATOM      9  O   UNL     1     130.387 128.313 122.401  1.00  0.00    -0.544 OA
ENDBRANCH   2   7
ENDBRANCH   1   2
BRANCH   1  10
ATOM     10  O   UNL     1     131.513 126.867 120.119  1.00  0.00    -0.390 OA
ATOM     11  H   UNL     1     131.522 126.511 119.193  1.00  0.00     0.210 HD
ENDBRANCH   1  10
TORSDOF 4
ENDMDL
MODEL 9
REMARK VINA RESULT:    -2.947     13.836     14.711
REMARK INTER + INTRA:          -3.687
REMARK INTER:                  -3.462
REMARK INTRA:                  -0.225
REMARK UNBOUND:                -0.224
REMARK SMILES [NH3+][C@@H](CO)C(=O)[O-]
REMARK SMILES IDX 3 1 2 2 1 3 5 7 6 8 7 9 4 10
REMARK H PARENT 1 4 1 5 1 6 4 11
REMARK Flexibility Score: inf
ROOT
ATOM      1  C   UNL     1     145.134 133.815 123.032  1.00  0.00     0.227 C 
ENDROOT
BRANCH   1   2
ATOM      2  C   UNL     1     144.943 133.266 121.607  1.00  0.00     0.253 C 
BRANCH   2   3
ATOM      3  N   UNL     1     144.045 134.123 120.822  1.00  0.00    -0.348 N 
ATOM      4  H   UNL     1     143.275 133.563 120.388  1.00  0.00     0.345 HD
ATOM      5  H   UNL     1     144.586 134.603 120.067  1.00  0.00     0.345 HD
ATOM      6  H   UNL     1     143.627 134.855 121.441  1.00  0.00     0.345 HD
ENDBRANCH   2   3
BRANCH   2   7
ATOM      7  C   UNL     1     144.437 131.846 121.642  1.00  0.00     0.102 C 
ATOM      8  O   UNL     1     143.277 131.603 122.066  1.00  0.00    -0.544 OA
ATOM      9  O   UNL     1     145.222 130.804 121.163  1.00  0.00    -0.544 OA
ENDBRANCH   2   7
ENDBRANCH   1   2
BRANCH   1  10
ATOM     10  O   UNL     1     143.901 134.046 123.662  1.00  0.00    -0.390 OA
ATOM     11  H   UNL     1     143.844 135.021 123.838  1.00  0.00     0.210 HD
ENDBRANCH   1  10
TORSDOF 4
ENDMDL
