MODEL 1
REMARK VINA RESULT:    -4.691      0.000      0.000
REMARK INTER + INTRA:          -6.710
REMARK INTER:                  -6.337
REMARK INTRA:                  -0.373
REMARK UNBOUND:                -0.373
REMARK SMILES O=C[C@@H](O)[C@H](O)[C@H](O)CO
REMARK SMILES IDX 7 1 9 2 10 3 5 5 3 6 2 7 1 8 4 9 6 11 8 13
REMARK H PARENT 10 4 4 10 6 12 8 14
REMARK Flexibility Score: inf
ROOT
ATOM      1  C   UNL     1      52.663   4.091 137.798  1.00  0.00     0.171 C 
ENDROOT
BRANCH   1   2
ATOM      2  C   UNL     1      54.143   3.748 138.051  1.00  0.00     0.190 C 
BRANCH   2   3
ATOM      3  O   UNL     1      54.345   3.423 139.400  1.00  0.00    -0.394 OA
ATOM      4  H   UNL     1      53.599   3.839 139.908  1.00  0.00     0.210 HD
ENDBRANCH   2   3
ENDBRANCH   1   2
BRANCH   1   5
ATOM      5  C   UNL     1      52.374   5.618 137.869  1.00  0.00     0.181 C 
BRANCH   5   6
ATOM      6  C   UNL     1      52.730   6.382 136.569  1.00  0.00     0.209 C 
BRANCH   6   7
ATOM      7  C   UNL     1      51.999   7.697 136.474  1.00  0.00     0.258 C 
ATOM      8  O   UNL     1      52.243   8.598 137.261  1.00  0.00    -0.300 OA
ENDBRANCH   6   7
BRANCH   6   9
ATOM      9  O   UNL     1      54.115   6.606 136.494  1.00  0.00    -0.383 OA
ATOM     10  H   UNL     1      54.481   6.013 135.785  1.00  0.00     0.211 HD
ENDBRANCH   6   9
ENDBRANCH   5   6
BRANCH   5  11
ATOM     11  O   UNL     1      53.075   6.195 138.942  1.00  0.00    -0.387 OA
ATOM     12  H   UNL     1      53.937   5.711 139.022  1.00  0.00     0.211 HD
ENDBRANCH   5  11
ENDBRANCH   1   5
BRANCH   1  13
ATOM     13  O   UNL     1      51.877   3.422 138.752  1.00  0.00    -0.388 OA
ATOM     14  H   UNL     1      52.353   3.495 139.621  1.00  0.00     0.211 HD
ENDBRANCH   1  13
TORSDOF 8
ENDMDL
MODEL 2
REMARK VINA RESULT:    -4.654     20.354     21.527
REMARK INTER + INTRA:          -6.659
REMARK INTER:                  -6.191
REMARK INTRA:                  -0.468
REMARK UNBOUND:                -0.373
REMARK SMILES O=C[C@@H](O)[C@H](O)[C@H](O)CO
REMARK SMILES IDX 7 1 9 2 10 3 5 5 3 6 2 7 1 8 4 9 6 11 8 13
REMARK H PARENT 10 4 4 10 6 12 8 14
REMARK Flexibility Score: inf
ROOT
ATOM      1  C   UNL     1      70.766   4.335 123.868  1.00  0.00     0.171 C 
ENDROOT
BRANCH   1   2
ATOM      2  C   UNL     1      71.905   4.845 124.769  1.00  0.00     0.190 C 
BRANCH   2   3
ATOM      3  O   UNL     1      71.796   4.290 126.053  1.00  0.00    -0.394 OA
ATOM      4  H   UNL     1      72.647   4.492 126.524  1.00  0.00     0.210 HD
ENDBRANCH   2   3
ENDBRANCH   1   2
BRANCH   1   5
ATOM      5  C   UNL     1      69.433   5.109 124.079  1.00  0.00     0.181 C 
BRANCH   5   6
ATOM      6  C   UNL     1      68.177   4.201 124.079  1.00  0.00     0.209 C 
BRANCH   6   7
ATOM      7  C   UNL     1      66.907   5.002 124.214  1.00  0.00     0.258 C 
ATOM      8  O   UNL     1      66.503   5.684 123.285  1.00  0.00    -0.300 OA
ENDBRANCH   6   7
BRANCH   6   9
ATOM      9  O   UNL     1      68.127   3.434 122.903  1.00  0.00    -0.383 OA
ATOM     10  H   UNL     1      67.196   3.101 122.796  1.00  0.00     0.211 HD
ENDBRANCH   6   9
ENDBRANCH   5   6
BRANCH   5  11
ATOM     11  O   UNL     1      69.282   6.095 123.090  1.00  0.00    -0.387 OA
ATOM     12  H   UNL     1      69.723   5.756 122.269  1.00  0.00     0.211 HD
ENDBRANCH   5  11
ENDBRANCH   1   5
BRANCH   1  13
ATOM     13  O   UNL     1      70.560   2.970 124.130  1.00  0.00    -0.388 OA
ATOM     14  H   UNL     1      70.635   2.495 123.261  1.00  0.00     0.211 HD
ENDBRANCH   1  13
TORSDOF 8
ENDMDL
MODEL 3
REMARK VINA RESULT:    -4.429      1.532      4.259
REMARK INTER + INTRA:          -6.356
REMARK INTER:                  -5.658
REMARK INTRA:                  -0.697
REMARK UNBOUND:                -0.373
REMARK SMILES O=C[C@@H](O)[C@H](O)[C@H](O)CO
REMARK SMILES IDX 7 1 9 2 10 3 5 5 3 6 2 7 1 8 4 9 6 11 8 13
REMARK H PARENT 10 4 4 10 6 12 8 14
REMARK Flexibility Score: inf
ROOT
ATOM      1  C   UNL     1      52.850   7.163 137.015  1.00  0.00     0.171 C 
ENDROOT
BRANCH   1   2
ATOM      2  C   UNL     1      52.233   8.161 136.018  1.00  0.00     0.190 C 
BRANCH   2   3
ATOM      3  O   UNL     1      52.479   7.750 134.701  1.00  0.00    -0.394 OA
ATOM      4  H   UNL     1      52.324   6.769 134.674  1.00  0.00     0.210 HD
ENDBRANCH   2   3
ENDBRANCH   1   2
BRANCH   1   5
ATOM      5  C   UNL     1      52.056   5.828 137.106  1.00  0.00     0.181 C 
BRANCH   5   6
ATOM      6  C   UNL     1      52.412   4.974 138.349  1.00  0.00     0.209 C 
BRANCH   6   7
ATOM      7  C   UNL     1      51.886   3.566 138.230  1.00  0.00     0.258 C 
ATOM      8  O   UNL     1      52.601   2.673 137.803  1.00  0.00    -0.300 OA
ENDBRANCH   6   7
BRANCH   6   9
ATOM      9  O   UNL     1      53.804   4.942 138.540  1.00  0.00    -0.383 OA
ATOM     10  H   UNL     1      54.067   3.997 138.702  1.00  0.00     0.211 HD
ENDBRANCH   6   9
ENDBRANCH   5   6
BRANCH   5  11
ATOM     11  O   UNL     1      52.265   5.059 135.949  1.00  0.00    -0.387 OA
ATOM     12  H   UNL     1      51.373   4.772 135.623  1.00  0.00     0.211 HD
ENDBRANCH   5  11
ENDBRANCH   1   5
BRANCH   1  13
ATOM     13  O   UNL     1      52.899   7.765 138.284  1.00  0.00    -0.388 OA
ATOM     14  H   UNL     1      52.918   7.030 138.952  1.00  0.00     0.211 HD
ENDBRANCH   1  13
TORSDOF 8
ENDMDL
MODEL 4
REMARK VINA RESULT:    -4.347     20.220     21.544
REMARK INTER + INTRA:          -6.245
REMARK INTER:                  -6.075
REMARK INTRA:                  -0.170
REMARK UNBOUND:                -0.373
REMARK SMILES O=C[C@@H](O)[C@H](O)[C@H](O)CO
REMARK SMILES IDX 7 1 9 2 10 3 5 5 3 6 2 7 1 8 4 9 6 11 8 13
REMARK H PARENT 10 4 4 10 6 12 8 14
REMARK Flexibility Score: inf
ROOT
ATOM      1  C   UNL     1      67.437   3.871 123.852  1.00  0.00     0.171 C 
ENDROOT
BRANCH   1   2
ATOM      2  C   UNL     1      66.880   5.261 124.208  1.00  0.00     0.190 C 
BRANCH   2   3
ATOM      3  O   UNL     1      66.361   5.887 123.065  1.00  0.00    -0.394 OA
ATOM      4  H   UNL     1      67.091   5.900 122.391  1.00  0.00     0.210 HD
ENDBRANCH   2   3
ENDBRANCH   1   2
BRANCH   1   5
ATOM      5  C   UNL     1      68.976   3.764 124.053  1.00  0.00     0.181 C 
BRANCH   5   6
ATOM      6  C   UNL     1      69.699   5.135 124.078  1.00  0.00     0.209 C 
BRANCH   6   7
ATOM      7  C   UNL     1      71.196   4.977 124.155  1.00  0.00     0.258 C 
ATOM      8  O   UNL     1      71.691   3.895 124.429  1.00  0.00    -0.300 OA
ENDBRANCH   6   7
BRANCH   6   9
ATOM      9  O   UNL     1      69.362   5.888 122.941  1.00  0.00    -0.383 OA
ATOM     10  H   UNL     1      68.435   6.224 123.062  1.00  0.00     0.211 HD
ENDBRANCH   6   9
ENDBRANCH   5   6
BRANCH   5  11
ATOM     11  O   UNL     1      69.543   2.969 123.043  1.00  0.00    -0.387 OA
ATOM     12  H   UNL     1      70.119   3.561 122.493  1.00  0.00     0.211 HD
ENDBRANCH   5  11
ENDBRANCH   1   5
BRANCH   1  13
ATOM     13  O   UNL     1      67.120   3.589 122.512  1.00  0.00    -0.388 OA
ATOM     14  H   UNL     1      66.593   4.359 122.172  1.00  0.00     0.211 HD
ENDBRANCH   1  13
TORSDOF 8
ENDMDL
MODEL 5
REMARK VINA RESULT:    -4.136     20.170     21.565
REMARK INTER + INTRA:          -5.960
REMARK INTER:                  -5.652
REMARK INTRA:                  -0.308
REMARK UNBOUND:                -0.373
REMARK SMILES O=C[C@@H](O)[C@H](O)[C@H](O)CO
REMARK SMILES IDX 7 1 9 2 10 3 5 5 3 6 2 7 1 8 4 9 6 11 8 13
REMARK H PARENT 10 4 4 10 6 12 8 14
REMARK Flexibility Score: inf
ROOT
ATOM      1  C   UNL     1      68.266   4.944 123.991  1.00  0.00     0.171 C 
ENDROOT
BRANCH   1   2
ATOM      2  C   UNL     1      66.846   5.524 124.118  1.00  0.00     0.190 C 
BRANCH   2   3
ATOM      3  O   UNL     1      66.393   5.983 122.873  1.00  0.00    -0.394 OA
ATOM      4  H   UNL     1      66.987   5.579 122.187  1.00  0.00     0.210 HD
ENDBRANCH   2   3
ENDBRANCH   1   2
BRANCH   1   5
ATOM      5  C   UNL     1      68.272   3.421 123.672  1.00  0.00     0.181 C 
BRANCH   5   6
ATOM      6  C   UNL     1      69.593   2.921 123.034  1.00  0.00     0.209 C 
BRANCH   6   7
ATOM      7  C   UNL     1      70.703   2.824 124.048  1.00  0.00     0.258 C 
ATOM      8  O   UNL     1      71.455   3.768 124.236  1.00  0.00    -0.300 OA
ENDBRANCH   6   7
BRANCH   6   9
ATOM      9  O   UNL     1      69.400   1.670 122.425  1.00  0.00    -0.383 OA
ATOM     10  H   UNL     1      68.600   1.250 122.839  1.00  0.00     0.211 HD
ENDBRANCH   6   9
ENDBRANCH   5   6
BRANCH   5  11
ATOM     11  O   UNL     1      67.204   3.100 122.818  1.00  0.00    -0.387 OA
ATOM     12  H   UNL     1      67.205   3.767 122.084  1.00  0.00     0.211 HD
ENDBRANCH   5  11
ENDBRANCH   1   5
BRANCH   1  13
ATOM     13  O   UNL     1      68.955   5.172 125.194  1.00  0.00    -0.388 OA
ATOM     14  H   UNL     1      68.981   4.306 125.681  1.00  0.00     0.211 HD
ENDBRANCH   1  13
TORSDOF 8
ENDMDL
MODEL 6
REMARK VINA RESULT:    -4.077     12.294     13.389
REMARK INTER + INTRA:          -5.880
REMARK INTER:                  -5.414
REMARK INTRA:                  -0.466
REMARK UNBOUND:                -0.373
REMARK SMILES O=C[C@@H](O)[C@H](O)[C@H](O)CO
REMARK SMILES IDX 7 1 9 2 10 3 5 5 3 6 2 7 1 8 4 9 6 11 8 13
REMARK H PARENT 10 4 4 10 6 12 8 14
REMARK Flexibility Score: inf
ROOT
ATOM      1  C   UNL     1      52.081   4.483 125.852  1.00  0.00     0.171 C 
ENDROOT
BRANCH   1   2
ATOM      2  C   UNL     1      52.381   3.036 126.281  1.00  0.00     0.190 C 
BRANCH   2   3
ATOM      3  O   UNL     1      53.751   2.875 126.531  1.00  0.00    -0.394 OA
ATOM      4  H   UNL     1      54.063   3.715 126.960  1.00  0.00     0.210 HD
ENDBRANCH   2   3
ENDBRANCH   1   2
BRANCH   1   5
ATOM      5  C   UNL     1      52.903   4.929 124.609  1.00  0.00     0.181 C 
BRANCH   5   6
ATOM      6  C   UNL     1      52.790   3.960 123.404  1.00  0.00     0.209 C 
BRANCH   6   7
ATOM      7  C   UNL     1      52.965   4.677 122.090  1.00  0.00     0.258 C 
ATOM      8  O   UNL     1      53.729   5.626 122.000  1.00  0.00    -0.300 OA
ENDBRANCH   6   7
BRANCH   6   9
ATOM      9  O   UNL     1      53.742   2.932 123.511  1.00  0.00    -0.383 OA
ATOM     10  H   UNL     1      54.063   2.719 122.595  1.00  0.00     0.211 HD
ENDBRANCH   6   9
ENDBRANCH   5   6
BRANCH   5  11
ATOM     11  O   UNL     1      54.258   5.075 124.950  1.00  0.00    -0.387 OA
ATOM     12  H   UNL     1      54.506   6.018 124.766  1.00  0.00     0.211 HD
ENDBRANCH   5  11
ENDBRANCH   1   5
BRANCH   1  13
ATOM     13  O   UNL     1      52.362   5.340 126.929  1.00  0.00    -0.388 OA
ATOM     14  H   UNL     1      51.900   6.199 126.743  1.00  0.00     0.211 HD
ENDBRANCH   1  13
TORSDOF 8
ENDMDL
MODEL 7
REMARK VINA RESULT:    -4.038     20.743     22.037
REMARK INTER + INTRA:          -5.827
REMARK INTER:                  -5.656
REMARK INTRA:                  -0.171
REMARK UNBOUND:                -0.373
REMARK SMILES O=C[C@@H](O)[C@H](O)[C@H](O)CO
REMARK SMILES IDX 7 1 9 2 10 3 5 5 3 6 2 7 1 8 4 9 6 11 8 13
REMARK H PARENT 10 4 4 10 6 12 8 14
REMARK Flexibility Score: inf
ROOT
ATOM      1  C   UNL     1      68.736   4.583 123.928  1.00  0.00     0.171 C 
ENDROOT
BRANCH   1   2
ATOM      2  C   UNL     1      67.387   3.863 123.752  1.00  0.00     0.190 C 
BRANCH   2   3
ATOM      3  O   UNL     1      66.499   4.664 123.019  1.00  0.00    -0.394 OA
ATOM      4  H   UNL     1      66.142   5.344 123.649  1.00  0.00     0.210 HD
ENDBRANCH   2   3
ENDBRANCH   1   2
BRANCH   1   5
ATOM      5  C   UNL     1      69.939   3.601 124.025  1.00  0.00     0.181 C 
BRANCH   5   6
ATOM      6  C   UNL     1      71.317   4.306 124.094  1.00  0.00     0.209 C 
BRANCH   6   7
ATOM      7  C   UNL     1      71.329   5.592 123.308  1.00  0.00     0.258 C 
ATOM      8  O   UNL     1      72.124   6.477 123.582  1.00  0.00    -0.300 OA
ENDBRANCH   6   7
BRANCH   6   9
ATOM      9  O   UNL     1      71.668   4.568 125.430  1.00  0.00    -0.383 OA
ATOM     10  H   UNL     1      72.658   4.511 125.501  1.00  0.00     0.211 HD
ENDBRANCH   6   9
ENDBRANCH   5   6
BRANCH   5  11
ATOM     11  O   UNL     1      69.933   2.718 122.933  1.00  0.00    -0.387 OA
ATOM     12  H   UNL     1      69.563   1.856 123.255  1.00  0.00     0.211 HD
ENDBRANCH   5  11
ENDBRANCH   1   5
BRANCH   1  13
ATOM     13  O   UNL     1      68.679   5.368 125.093  1.00  0.00    -0.388 OA
ATOM     14  H   UNL     1      69.582   5.337 125.506  1.00  0.00     0.211 HD
ENDBRANCH   1  13
TORSDOF 8
ENDMDL
MODEL 8
REMARK VINA RESULT:    -3.824     20.690     21.873
REMARK INTER + INTRA:          -5.538
REMARK INTER:                  -4.874
REMARK INTRA:                  -0.664
REMARK UNBOUND:                -0.373
REMARK SMILES O=C[C@@H](O)[C@H](O)[C@H](O)CO
REMARK SMILES IDX 7 1 9 2 10 3 5 5 3 6 2 7 1 8 4 9 6 11 8 13
REMARK H PARENT 10 4 4 10 6 12 8 14
REMARK Flexibility Score: inf
ROOT
ATOM      1  C   UNL     1      68.013   3.807 123.381  1.00  0.00     0.171 C 
ENDROOT
BRANCH   1   2
ATOM      2  C   UNL     1      68.006   2.287 123.136  1.00  0.00     0.190 C 
BRANCH   2   3
ATOM      3  O   UNL     1      68.919   1.951 122.126  1.00  0.00    -0.394 OA
ATOM      4  H   UNL     1      69.686   2.576 122.216  1.00  0.00     0.210 HD
ENDBRANCH   2   3
ENDBRANCH   1   2
BRANCH   1   5
ATOM      5  C   UNL     1      69.284   4.292 124.136  1.00  0.00     0.181 C 
BRANCH   5   6
ATOM      6  C   UNL     1      69.645   5.774 123.862  1.00  0.00     0.209 C 
BRANCH   6   7
ATOM      7  C   UNL     1      70.952   5.905 123.123  1.00  0.00     0.258 C 
ATOM      8  O   UNL     1      72.012   5.861 123.728  1.00  0.00    -0.300 OA
ENDBRANCH   6   7
BRANCH   6   9
ATOM      9  O   UNL     1      68.624   6.400 123.127  1.00  0.00    -0.383 OA
ATOM     10  H   UNL     1      68.145   5.697 122.613  1.00  0.00     0.211 HD
ENDBRANCH   6   9
ENDBRANCH   5   6
BRANCH   5  11
ATOM     11  O   UNL     1      70.385   3.486 123.801  1.00  0.00    -0.387 OA
ATOM     12  H   UNL     1      70.261   3.198 122.860  1.00  0.00     0.211 HD
ENDBRANCH   5  11
ENDBRANCH   1   5
BRANCH   1  13
ATOM     13  O   UNL     1      66.870   4.149 124.123  1.00  0.00    -0.388 OA
ATOM     14  H   UNL     1      66.700   3.400 124.753  1.00  0.00     0.211 HD
ENDBRANCH   1  13
TORSDOF 8
ENDMDL
