MODEL 1
REMARK VINA RESULT:    -4.018      0.000      0.000
REMARK INTER + INTRA:          -8.871
REMARK INTER:                  -7.072
REMARK INTRA:                  -1.799
REMARK UNBOUND:                -1.799
REMARK SMILES CCCCCCC=CCCCCCCCC(=O)[O-]
REMARK SMILES IDX 10 1 11 2 12 3 13 4 14 5 15 6 16 7 17 8 18 9 9 10 8 11 7 12
REMARK SMILES IDX 6 13 5 14 4 15 3 16 2 17 1 18
REMARK H PARENT
REMARK Flexibility Score: inf
ROOT
ATOM      1  C   UNL     1       5.110  -7.721  -2.219  1.00  0.00     0.004 C 
ENDROOT
BRANCH   1   2
ATOM      2  C   UNL     1       6.095  -8.206  -3.299  1.00  0.00     0.000 C 
BRANCH   2   3
ATOM      3  C   UNL     1       7.336  -7.305  -3.422  1.00  0.00     0.000 C 
BRANCH   3   4
ATOM      4  C   UNL     1       7.848  -6.803  -2.059  1.00  0.00     0.000 C 
BRANCH   4   5
ATOM      5  C   UNL     1       7.909  -5.272  -1.905  1.00  0.00     0.006 C 
BRANCH   5   6
ATOM      6  C   UNL     1       7.773  -4.530  -3.241  1.00  0.00     0.053 C 
BRANCH   6   7
ATOM      7  C   UNL     1       6.759  -3.436  -3.129  1.00  0.00     0.041 C 
ATOM      8  O   UNL     1       6.688  -2.545  -4.016  1.00  0.00    -0.550 OA
ATOM      9  O   UNL     1       5.923  -3.375  -2.022  1.00  0.00    -0.550 OA
ENDBRANCH   6   7
ENDBRANCH   5   6
ENDBRANCH   4   5
ENDBRANCH   3   4
ENDBRANCH   2   3
ENDBRANCH   1   2
BRANCH   1  10
ATOM     10  C   UNL     1       4.816  -8.751  -1.117  1.00  0.00     0.027 C 
BRANCH  10  11
ATOM     11  C   UNL     1       5.246  -8.257   0.239  1.00  0.00    -0.031 C 
ATOM     12  C   UNL     1       5.047  -6.987   0.620  1.00  0.00    -0.031 C 
BRANCH  12  13
ATOM     13  C   UNL     1       5.421  -6.512   1.997  1.00  0.00     0.027 C 
BRANCH  13  14
ATOM     14  C   UNL     1       4.340  -6.885   3.024  1.00  0.00     0.004 C 
BRANCH  14  15
ATOM     15  C   UNL     1       2.923  -6.545   2.540  1.00  0.00     0.000 C 
BRANCH  15  16
ATOM     16  C   UNL     1       1.955  -7.730   2.666  1.00  0.00    -0.000 C 
BRANCH  16  17
ATOM     17  C   UNL     1       1.704  -8.380   1.299  1.00  0.00    -0.003 C 
ATOM     18  C   UNL     1       2.035  -9.869   1.326  1.00  0.00     0.004 C 
ENDBRANCH  16  17
ENDBRANCH  15  16
ENDBRANCH  14  15
ENDBRANCH  13  14
ENDBRANCH  12  13
ENDBRANCH  10  11
ENDBRANCH   1  10
TORSDOF 13
ENDMDL
MODEL 2
REMARK VINA RESULT:    -4.010     16.991     18.954
REMARK INTER + INTRA:          -8.856
REMARK INTER:                  -6.558
REMARK INTRA:                  -2.298
REMARK UNBOUND:                -1.799
REMARK SMILES CCCCCCC=CCCCCCCCC(=O)[O-]
REMARK SMILES IDX 10 1 11 2 12 3 13 4 14 5 15 6 16 7 17 8 18 9 9 10 8 11 7 12
REMARK SMILES IDX 6 13 5 14 4 15 3 16 2 17 1 18
REMARK H PARENT
REMARK Flexibility Score: inf
ROOT
ATOM      1  C   UNL     1      -8.368   4.065  -0.671  1.00  0.00     0.004 C 
ENDROOT
BRANCH   1   2
ATOM      2  C   UNL     1      -9.584   4.997  -0.513  1.00  0.00     0.000 C 
BRANCH   2   3
ATOM      3  C   UNL     1     -10.923   4.240  -0.551  1.00  0.00     0.000 C 
BRANCH   3   4
ATOM      4  C   UNL     1     -10.784   2.758  -0.158  1.00  0.00     0.000 C 
BRANCH   4   5
ATOM      5  C   UNL     1     -11.561   1.769  -1.046  1.00  0.00     0.006 C 
BRANCH   5   6
ATOM      6  C   UNL     1     -11.634   2.212  -2.513  1.00  0.00     0.053 C 
BRANCH   6   7
ATOM      7  C   UNL     1     -10.816   1.302  -3.375  1.00  0.00     0.041 C 
ATOM      8  O   UNL     1      -9.657   0.965  -3.018  1.00  0.00    -0.550 OA
ATOM      9  O   UNL     1     -11.316   0.867  -4.595  1.00  0.00    -0.550 OA
ENDBRANCH   6   7
ENDBRANCH   5   6
ENDBRANCH   4   5
ENDBRANCH   3   4
ENDBRANCH   2   3
ENDBRANCH   1   2
BRANCH   1  10
ATOM     10  C   UNL     1      -7.287   4.241   0.407  1.00  0.00     0.027 C 
BRANCH  10  11
ATOM     11  C   UNL     1      -7.850   4.089   1.794  1.00  0.00    -0.031 C 
ATOM     12  C   UNL     1      -8.279   2.904   2.254  1.00  0.00    -0.031 C 
BRANCH  12  13
ATOM     13  C   UNL     1      -8.784   2.742   3.661  1.00  0.00     0.027 C 
BRANCH  13  14
ATOM     14  C   UNL     1      -9.725   3.894   4.047  1.00  0.00     0.004 C 
BRANCH  14  15
ATOM     15  C   UNL     1     -11.125   3.744   3.434  1.00  0.00     0.000 C 
BRANCH  15  16
ATOM     16  C   UNL     1     -11.706   5.082   2.954  1.00  0.00    -0.000 C 
BRANCH  16  17
ATOM     17  C   UNL     1     -10.634   6.178   2.960  1.00  0.00    -0.003 C 
ATOM     18  C   UNL     1     -10.975   7.289   1.970  1.00  0.00     0.004 C 
ENDBRANCH  16  17
ENDBRANCH  15  16
ENDBRANCH  14  15
ENDBRANCH  13  14
ENDBRANCH  12  13
ENDBRANCH  10  11
ENDBRANCH   1  10
TORSDOF 13
ENDMDL
MODEL 3
REMARK VINA RESULT:    -3.868      1.589      3.071
REMARK INTER + INTRA:          -8.606
REMARK INTER:                  -6.542
REMARK INTRA:                  -2.064
REMARK UNBOUND:                -1.799
REMARK SMILES CCCCCCC=CCCCCCCCC(=O)[O-]
REMARK SMILES IDX 10 1 11 2 12 3 13 4 14 5 15 6 16 7 17 8 18 9 9 10 8 11 7 12
REMARK SMILES IDX 6 13 5 14 4 15 3 16 2 17 1 18
REMARK H PARENT
REMARK Flexibility Score: inf
ROOT
ATOM      1  C   UNL     1       3.626  -6.957   0.595  1.00  0.00     0.004 C 
ENDROOT
BRANCH   1   2
ATOM      2  C   UNL     1       3.624  -8.053  -0.487  1.00  0.00     0.000 C 
BRANCH   2   3
ATOM      3  C   UNL     1       5.033  -8.590  -0.793  1.00  0.00     0.000 C 
BRANCH   3   4
ATOM      4  C   UNL     1       5.451  -8.371  -2.259  1.00  0.00     0.000 C 
BRANCH   4   5
ATOM      5  C   UNL     1       6.109  -7.011  -2.557  1.00  0.00     0.006 C 
BRANCH   5   6
ATOM      6  C   UNL     1       7.035  -6.535  -1.430  1.00  0.00     0.053 C 
BRANCH   6   7
ATOM      7  C   UNL     1       6.604  -5.190  -0.934  1.00  0.00     0.041 C 
ATOM      8  O   UNL     1       5.895  -4.445  -1.660  1.00  0.00    -0.550 OA
ATOM      9  O   UNL     1       7.027  -4.741   0.310  1.00  0.00    -0.550 OA
ENDBRANCH   6   7
ENDBRANCH   5   6
ENDBRANCH   4   5
ENDBRANCH   3   4
ENDBRANCH   2   3
ENDBRANCH   1   2
BRANCH   1  10
ATOM     10  C   UNL     1       4.720  -7.119   1.663  1.00  0.00     0.027 C 
BRANCH  10  11
ATOM     11  C   UNL     1       4.169  -6.961   3.055  1.00  0.00    -0.031 C 
ATOM     12  C   UNL     1       2.994  -6.356   3.283  1.00  0.00    -0.031 C 
BRANCH  12  13
ATOM     13  C   UNL     1       2.417  -6.254   4.667  1.00  0.00     0.027 C 
BRANCH  13  14
ATOM     14  C   UNL     1       1.072  -6.992   4.763  1.00  0.00     0.004 C 
BRANCH  14  15
ATOM     15  C   UNL     1       1.211  -8.505   4.540  1.00  0.00     0.000 C 
BRANCH  15  16
ATOM     16  C   UNL     1       0.303  -9.023   3.416  1.00  0.00    -0.000 C 
BRANCH  16  17
ATOM     17  C   UNL     1       1.118  -9.345   2.157  1.00  0.00    -0.003 C 
ATOM     18  C   UNL     1       2.390 -10.114   2.504  1.00  0.00     0.004 C 
ENDBRANCH  16  17
ENDBRANCH  15  16
ENDBRANCH  14  15
ENDBRANCH  13  14
ENDBRANCH  12  13
ENDBRANCH  10  11
ENDBRANCH   1  10
TORSDOF 13
ENDMDL
MODEL 4
REMARK VINA RESULT:    -3.825      0.919      2.252
REMARK INTER + INTRA:          -8.531
REMARK INTER:                  -6.798
REMARK INTRA:                  -1.733
REMARK UNBOUND:                -1.799
REMARK SMILES CCCCCCC=CCCCCCCCC(=O)[O-]
REMARK SMILES IDX 10 1 11 2 12 3 13 4 14 5 15 6 16 7 17 8 18 9 9 10 8 11 7 12
REMARK SMILES IDX 6 13 5 14 4 15 3 16 2 17 1 18
REMARK H PARENT
REMARK Flexibility Score: inf
ROOT
ATOM      1  C   UNL     1       4.787  -7.855  -1.630  1.00  0.00     0.004 C 
ENDROOT
BRANCH   1   2
ATOM      2  C   UNL     1       5.506  -7.684  -2.981  1.00  0.00     0.000 C 
BRANCH   2   3
ATOM      3  C   UNL     1       7.010  -7.399  -2.824  1.00  0.00     0.000 C 
BRANCH   3   4
ATOM      4  C   UNL     1       7.375  -6.867  -1.426  1.00  0.00     0.000 C 
BRANCH   4   5
ATOM      5  C   UNL     1       7.786  -5.384  -1.375  1.00  0.00     0.006 C 
BRANCH   5   6
ATOM      6  C   UNL     1       7.950  -4.761  -2.767  1.00  0.00     0.053 C 
BRANCH   6   7
ATOM      7  C   UNL     1       6.971  -3.646  -2.959  1.00  0.00     0.041 C 
ATOM      8  O   UNL     1       7.120  -2.827  -3.904  1.00  0.00    -0.550 OA
ATOM      9  O   UNL     1       5.921  -3.483  -2.065  1.00  0.00    -0.550 OA
ENDBRANCH   6   7
ENDBRANCH   5   6
ENDBRANCH   4   5
ENDBRANCH   3   4
ENDBRANCH   2   3
ENDBRANCH   1   2
BRANCH   1  10
ATOM     10  C   UNL     1       4.459  -9.312  -1.264  1.00  0.00     0.027 C 
BRANCH  10  11
ATOM     11  C   UNL     1       3.366  -9.396  -0.233  1.00  0.00    -0.031 C 
ATOM     12  C   UNL     1       2.751  -8.299   0.232  1.00  0.00    -0.031 C 
BRANCH  12  13
ATOM     13  C   UNL     1       1.617  -8.391   1.216  1.00  0.00     0.027 C 
BRANCH  13  14
ATOM     14  C   UNL     1       1.963  -7.667   2.527  1.00  0.00     0.004 C 
BRANCH  14  15
ATOM     15  C   UNL     1       3.014  -8.419   3.358  1.00  0.00     0.000 C 
BRANCH  15  16
ATOM     16  C   UNL     1       4.212  -7.536   3.733  1.00  0.00    -0.000 C 
BRANCH  16  17
ATOM     17  C   UNL     1       5.357  -7.710   2.728  1.00  0.00    -0.003 C 
ATOM     18  C   UNL     1       5.514  -6.471   1.850  1.00  0.00     0.004 C 
ENDBRANCH  16  17
ENDBRANCH  15  16
ENDBRANCH  14  15
ENDBRANCH  13  14
ENDBRANCH  12  13
ENDBRANCH  10  11
ENDBRANCH   1  10
TORSDOF 13
ENDMDL
MODEL 5
REMARK VINA RESULT:    -3.822      1.995      3.793
REMARK INTER + INTRA:          -8.526
REMARK INTER:                  -6.741
REMARK INTRA:                  -1.785
REMARK UNBOUND:                -1.799
REMARK SMILES CCCCCCC=CCCCCCCCC(=O)[O-]
REMARK SMILES IDX 10 1 11 2 12 3 13 4 14 5 15 6 16 7 17 8 18 9 9 10 8 11 7 12
REMARK SMILES IDX 6 13 5 14 4 15 3 16 2 17 1 18
REMARK H PARENT
REMARK Flexibility Score: inf
ROOT
ATOM      1  C   UNL     1       3.995  -7.011   0.278  1.00  0.00     0.004 C 
ENDROOT
BRANCH   1   2
ATOM      2  C   UNL     1       5.082  -7.531   1.237  1.00  0.00     0.000 C 
BRANCH   2   3
ATOM      3  C   UNL     1       5.622  -6.437   2.174  1.00  0.00     0.000 C 
BRANCH   3   4
ATOM      4  C   UNL     1       7.086  -6.064   1.877  1.00  0.00     0.000 C 
BRANCH   4   5
ATOM      5  C   UNL     1       7.278  -4.904   0.882  1.00  0.00     0.006 C 
BRANCH   5   6
ATOM      6  C   UNL     1       7.654  -5.379  -0.527  1.00  0.00     0.053 C 
BRANCH   6   7
ATOM      7  C   UNL     1       6.525  -5.137  -1.478  1.00  0.00     0.041 C 
ATOM      8  O   UNL     1       5.934  -4.025  -1.490  1.00  0.00    -0.550 OA
ATOM      9  O   UNL     1       6.095  -6.155  -2.318  1.00  0.00    -0.550 OA
ENDBRANCH   6   7
ENDBRANCH   5   6
ENDBRANCH   4   5
ENDBRANCH   3   4
ENDBRANCH   2   3
ENDBRANCH   1   2
BRANCH   1  10
ATOM     10  C   UNL     1       3.018  -8.089  -0.220  1.00  0.00     0.027 C 
BRANCH  10  11
ATOM     11  C   UNL     1       1.968  -8.410   0.809  1.00  0.00    -0.031 C 
ATOM     12  C   UNL     1       1.889  -9.621   1.381  1.00  0.00    -0.031 C 
BRANCH  12  13
ATOM     13  C   UNL     1       0.879  -9.921   2.453  1.00  0.00     0.027 C 
BRANCH  13  14
ATOM     14  C   UNL     1       0.746  -8.744   3.432  1.00  0.00     0.004 C 
BRANCH  14  15
ATOM     15  C   UNL     1       1.796  -8.785   4.552  1.00  0.00     0.000 C 
BRANCH  15  16
ATOM     16  C   UNL     1       2.877  -7.706   4.388  1.00  0.00    -0.000 C 
BRANCH  16  17
ATOM     17  C   UNL     1       2.290  -6.433   3.766  1.00  0.00    -0.003 C 
ATOM     18  C   UNL     1       1.822  -5.457   4.843  1.00  0.00     0.004 C 
ENDBRANCH  16  17
ENDBRANCH  15  16
ENDBRANCH  14  15
ENDBRANCH  13  14
ENDBRANCH  12  13
ENDBRANCH  10  11
ENDBRANCH   1  10
TORSDOF 13
ENDMDL
MODEL 6
REMARK VINA RESULT:    -3.693      2.670      3.952
REMARK INTER + INTRA:          -8.298
REMARK INTER:                  -6.119
REMARK INTRA:                  -2.179
REMARK UNBOUND:                -1.799
REMARK SMILES CCCCCCC=CCCCCCCCC(=O)[O-]
REMARK SMILES IDX 10 1 11 2 12 3 13 4 14 5 15 6 16 7 17 8 18 9 9 10 8 11 7 12
REMARK SMILES IDX 6 13 5 14 4 15 3 16 2 17 1 18
REMARK H PARENT
REMARK Flexibility Score: inf
ROOT
ATOM      1  C   UNL     1       5.905  -5.512  -0.415  1.00  0.00     0.004 C 
ENDROOT
BRANCH   1   2
ATOM      2  C   UNL     1       6.613  -4.507  -1.341  1.00  0.00     0.000 C 
BRANCH   2   3
ATOM      3  C   UNL     1       7.778  -5.137  -2.125  1.00  0.00     0.000 C 
BRANCH   3   4
ATOM      4  C   UNL     1       7.357  -5.647  -3.516  1.00  0.00     0.000 C 
BRANCH   4   5
ATOM      5  C   UNL     1       7.458  -7.170  -3.714  1.00  0.00     0.006 C 
BRANCH   5   6
ATOM      6  C   UNL     1       6.234  -7.765  -4.421  1.00  0.00     0.053 C 
BRANCH   6   7
ATOM      7  C   UNL     1       6.593  -9.053  -5.093  1.00  0.00     0.041 C 
ATOM      8  O   UNL     1       7.162  -9.044  -6.216  1.00  0.00    -0.550 OA
ATOM      9  O   UNL     1       6.256 -10.262  -4.500  1.00  0.00    -0.550 OA
ENDBRANCH   6   7
ENDBRANCH   5   6
ENDBRANCH   4   5
ENDBRANCH   3   4
ENDBRANCH   2   3
ENDBRANCH   1   2
BRANCH   1  10
ATOM     10  C   UNL     1       6.774  -6.705   0.013  1.00  0.00     0.027 C 
BRANCH  10  11
ATOM     11  C   UNL     1       6.079  -8.018  -0.228  1.00  0.00    -0.031 C 
ATOM     12  C   UNL     1       4.964  -8.099  -0.969  1.00  0.00    -0.031 C 
BRANCH  12  13
ATOM     13  C   UNL     1       4.306  -9.419  -1.260  1.00  0.00     0.027 C 
BRANCH  13  14
ATOM     14  C   UNL     1       3.540  -9.938  -0.033  1.00  0.00     0.004 C 
BRANCH  14  15
ATOM     15  C   UNL     1       2.520  -8.921   0.500  1.00  0.00     0.000 C 
BRANCH  15  16
ATOM     16  C   UNL     1       2.760  -8.560   1.973  1.00  0.00    -0.000 C 
BRANCH  16  17
ATOM     17  C   UNL     1       2.949  -7.048   2.142  1.00  0.00    -0.003 C 
ATOM     18  C   UNL     1       4.290  -6.729   2.798  1.00  0.00     0.004 C 
ENDBRANCH  16  17
ENDBRANCH  15  16
ENDBRANCH  14  15
ENDBRANCH  13  14
ENDBRANCH  12  13
ENDBRANCH  10  11
ENDBRANCH   1  10
TORSDOF 13
ENDMDL
MODEL 7
REMARK VINA RESULT:    -3.686     17.330     19.281
REMARK INTER + INTRA:          -8.287
REMARK INTER:                  -6.236
REMARK INTRA:                  -2.051
REMARK UNBOUND:                -1.799
REMARK SMILES CCCCCCC=CCCCCCCCC(=O)[O-]
REMARK SMILES IDX 10 1 11 2 12 3 13 4 14 5 15 6 16 7 17 8 18 9 9 10 8 11 7 12
REMARK SMILES IDX 6 13 5 14 4 15 3 16 2 17 1 18
REMARK H PARENT
REMARK Flexibility Score: inf
ROOT
ATOM      1  C   UNL     1      -8.004   4.233  -0.513  1.00  0.00     0.004 C 
ENDROOT
BRANCH   1   2
ATOM      2  C   UNL     1      -7.547   4.244   0.958  1.00  0.00     0.000 C 
BRANCH   2   3
ATOM      3  C   UNL     1      -7.959   2.972   1.719  1.00  0.00     0.000 C 
BRANCH   3   4
ATOM      4  C   UNL     1      -8.533   3.271   3.116  1.00  0.00     0.000 C 
BRANCH   4   5
ATOM      5  C   UNL     1      -9.985   2.809   3.341  1.00  0.00     0.006 C 
BRANCH   5   6
ATOM      6  C   UNL     1     -11.020   3.816   2.822  1.00  0.00     0.053 C 
BRANCH   6   7
ATOM      7  C   UNL     1     -10.662   5.203   3.253  1.00  0.00     0.041 C 
ATOM      8  O   UNL     1     -10.352   6.072   2.396  1.00  0.00    -0.550 OA
ATOM      9  O   UNL     1     -10.623   5.522   4.603  1.00  0.00    -0.550 OA
ENDBRANCH   6   7
ENDBRANCH   5   6
ENDBRANCH   4   5
ENDBRANCH   3   4
ENDBRANCH   2   3
ENDBRANCH   1   2
BRANCH   1  10
ATOM     10  C   UNL     1      -9.296   5.022  -0.783  1.00  0.00     0.027 C 
BRANCH  10  11
ATOM     11  C   UNL     1     -10.515   4.145  -0.693  1.00  0.00    -0.031 C 
ATOM     12  C   UNL     1     -10.428   2.808  -0.760  1.00  0.00    -0.031 C 
BRANCH  12  13
ATOM     13  C   UNL     1     -11.640   1.932  -0.608  1.00  0.00     0.027 C 
BRANCH  13  14
ATOM     14  C   UNL     1     -11.785   0.974  -1.801  1.00  0.00     0.004 C 
BRANCH  14  15
ATOM     15  C   UNL     1     -10.678   1.165  -2.849  1.00  0.00     0.000 C 
BRANCH  15  16
ATOM     16  C   UNL     1     -11.226   1.603  -4.214  1.00  0.00    -0.000 C 
BRANCH  16  17
ATOM     17  C   UNL     1     -11.774   3.034  -4.151  1.00  0.00    -0.003 C 
ATOM     18  C   UNL     1     -10.722   4.048  -4.592  1.00  0.00     0.004 C 
ENDBRANCH  16  17
ENDBRANCH  15  16
ENDBRANCH  14  15
ENDBRANCH  13  14
ENDBRANCH  12  13
ENDBRANCH  10  11
ENDBRANCH   1  10
TORSDOF 13
ENDMDL
MODEL 8
REMARK VINA RESULT:    -3.643      2.861      6.979
REMARK INTER + INTRA:          -8.210
REMARK INTER:                  -6.389
REMARK INTRA:                  -1.821
REMARK UNBOUND:                -1.799
REMARK SMILES CCCCCCC=CCCCCCCCC(=O)[O-]
REMARK SMILES IDX 10 1 11 2 12 3 13 4 14 5 15 6 16 7 17 8 18 9 9 10 8 11 7 12
REMARK SMILES IDX 6 13 5 14 4 15 3 16 2 17 1 18
REMARK H PARENT
REMARK Flexibility Score: inf
ROOT
ATOM      1  C   UNL     1       3.291  -7.550  -0.050  1.00  0.00     0.004 C 
ENDROOT
BRANCH   1   2
ATOM      2  C   UNL     1       2.083  -8.454   0.256  1.00  0.00     0.000 C 
BRANCH   2   3
ATOM      3  C   UNL     1       2.465  -9.705   1.066  1.00  0.00     0.000 C 
BRANCH   3   4
ATOM      4  C   UNL     1       1.739  -9.784   2.422  1.00  0.00     0.000 C 
BRANCH   4   5
ATOM      5  C   UNL     1       2.326  -8.894   3.533  1.00  0.00     0.006 C 
BRANCH   5   6
ATOM      6  C   UNL     1       1.466  -7.658   3.827  1.00  0.00     0.053 C 
BRANCH   6   7
ATOM      7  C   UNL     1       2.327  -6.440   3.943  1.00  0.00     0.041 C 
ATOM      8  O   UNL     1       3.332  -6.301   3.198  1.00  0.00    -0.550 OA
ATOM      9  O   UNL     1       2.046  -5.481   4.908  1.00  0.00    -0.550 OA
ENDBRANCH   6   7
ENDBRANCH   5   6
ENDBRANCH   4   5
ENDBRANCH   3   4
ENDBRANCH   2   3
ENDBRANCH   1   2
BRANCH   1  10
ATOM     10  C   UNL     1       4.640  -8.105   0.433  1.00  0.00     0.027 C 
BRANCH  10  11
ATOM     11  C   UNL     1       5.539  -8.471  -0.718  1.00  0.00    -0.031 C 
ATOM     12  C   UNL     1       5.092  -8.487  -1.982  1.00  0.00    -0.031 C 
BRANCH  12  13
ATOM     13  C   UNL     1       6.007  -8.792  -3.136  1.00  0.00     0.027 C 
BRANCH  13  14
ATOM     14  C   UNL     1       6.331  -7.521  -3.936  1.00  0.00     0.004 C 
BRANCH  14  15
ATOM     15  C   UNL     1       7.784  -7.058  -3.747  1.00  0.00     0.000 C 
BRANCH  15  16
ATOM     16  C   UNL     1       7.966  -6.180  -2.500  1.00  0.00    -0.000 C 
BRANCH  16  17
ATOM     17  C   UNL     1       6.841  -5.144  -2.390  1.00  0.00    -0.003 C 
ATOM     18  C   UNL     1       6.502  -4.850  -0.931  1.00  0.00     0.004 C 
ENDBRANCH  16  17
ENDBRANCH  15  16
ENDBRANCH  14  15
ENDBRANCH  13  14
ENDBRANCH  12  13
ENDBRANCH  10  11
ENDBRANCH   1  10
TORSDOF 13
ENDMDL
MODEL 9
REMARK VINA RESULT:    -3.630      3.272      6.507
REMARK INTER + INTRA:          -8.187
REMARK INTER:                  -6.419
REMARK INTRA:                  -1.768
REMARK UNBOUND:                -1.799
REMARK SMILES CCCCCCC=CCCCCCCCC(=O)[O-]
REMARK SMILES IDX 10 1 11 2 12 3 13 4 14 5 15 6 16 7 17 8 18 9 9 10 8 11 7 12
REMARK SMILES IDX 6 13 5 14 4 15 3 16 2 17 1 18
REMARK H PARENT
REMARK Flexibility Score: inf
ROOT
ATOM      1  C   UNL     1       4.293  -9.357  -0.548  1.00  0.00     0.004 C 
ENDROOT
BRANCH   1   2
ATOM      2  C   UNL     1       3.421  -8.089  -0.478  1.00  0.00     0.000 C 
BRANCH   2   3
ATOM      3  C   UNL     1       2.382  -8.142   0.656  1.00  0.00     0.000 C 
BRANCH   3   4
ATOM      4  C   UNL     1       2.928  -8.797   1.937  1.00  0.00     0.000 C 
BRANCH   4   5
ATOM      5  C   UNL     1       3.593  -7.832   2.936  1.00  0.00     0.006 C 
BRANCH   5   6
ATOM      6  C   UNL     1       2.910  -6.459   2.986  1.00  0.00     0.053 C 
BRANCH   6   7
ATOM      7  C   UNL     1       2.192  -6.281   4.286  1.00  0.00     0.041 C 
ATOM      8  O   UNL     1       1.804  -5.138   4.645  1.00  0.00    -0.550 OA
ATOM      9  O   UNL     1       1.993  -7.370   5.125  1.00  0.00    -0.550 OA
ENDBRANCH   6   7
ENDBRANCH   5   6
ENDBRANCH   4   5
ENDBRANCH   3   4
ENDBRANCH   2   3
ENDBRANCH   1   2
BRANCH   1  10
ATOM     10  C   UNL     1       5.149  -9.472  -1.819  1.00  0.00     0.027 C 
BRANCH  10  11
ATOM     11  C   UNL     1       5.495  -8.120  -2.383  1.00  0.00    -0.031 C 
ATOM     12  C   UNL     1       6.554  -7.943  -3.187  1.00  0.00    -0.031 C 
BRANCH  12  13
ATOM     13  C   UNL     1       6.862  -6.604  -3.799  1.00  0.00     0.027 C 
BRANCH  13  14
ATOM     14  C   UNL     1       7.721  -5.749  -2.855  1.00  0.00     0.004 C 
BRANCH  14  15
ATOM     15  C   UNL     1       7.012  -4.459  -2.416  1.00  0.00     0.000 C 
BRANCH  15  16
ATOM     16  C   UNL     1       6.281  -4.614  -1.074  1.00  0.00    -0.000 C 
BRANCH  16  17
ATOM     17  C   UNL     1       7.126  -5.420  -0.080  1.00  0.00    -0.003 C 
ATOM     18  C   UNL     1       6.242  -6.214   0.879  1.00  0.00     0.004 C 
ENDBRANCH  16  17
ENDBRANCH  15  16
ENDBRANCH  14  15
ENDBRANCH  13  14
ENDBRANCH  12  13
ENDBRANCH  10  11
ENDBRANCH   1  10
TORSDOF 13
ENDMDL
