MODEL 1
REMARK VINA RESULT:    -5.509      0.000      0.000
REMARK INTER + INTRA:          -5.509
REMARK INTER:                  -5.509
REMARK INTRA:                   0.000
REMARK UNBOUND:                 0.000
REMARK SMILES C=C1CCC[C@@]2(C)CC(=O)C(=C(C)C)C[C@@H]12
REMARK SMILES IDX 13 1 12 2 11 3 15 4 16 5 2 6 1 7 3 8 4 9 5 10 6 11 8 12 9 13
REMARK SMILES IDX 10 14 7 15 14 16
REMARK H PARENT
REMARK Flexibility Score: inf
ROOT
ATOM      1  C   UNL     1       1.506  25.646  54.618  1.00  0.00     0.039 C 
ATOM      2  C   UNL     1       1.548  26.955  53.864  1.00  0.00    -0.070 C 
ATOM      3  C   UNL     1       0.406  27.576  53.453  1.00  0.00    -0.006 C 
ATOM      4  C   UNL     1       0.428  28.906  52.727  1.00  0.00     0.047 C 
ATOM      5  C   UNL     1      -0.783  29.813  53.066  1.00  0.00     0.025 C 
ATOM      6  C   UNL     1      -0.787  30.997  52.112  1.00  0.00    -0.073 C 
ATOM      7  C   UNL     1      -0.274  32.179  52.490  1.00  0.00     0.008 C 
ATOM      8  C   UNL     1      -1.231  30.778  50.681  1.00  0.00     0.031 C 
ATOM      9  C   UNL     1      -2.536  29.973  50.611  1.00  0.00     0.005 C 
ATOM     10  C   UNL     1      -2.520  28.735  51.528  1.00  0.00     0.008 C 
ATOM     11  C   UNL     1      -2.161  29.079  53.004  1.00  0.00    -0.018 C 
ATOM     12  C   UNL     1      -2.120  27.784  53.858  1.00  0.00     0.088 C 
ATOM     13  C   UNL     1      -0.926  26.937  53.561  1.00  0.00     0.159 C 
ATOM     14  O   UNL     1      -1.071  25.694  53.408  1.00  0.00    -0.295 OA
ATOM     15  C   UNL     1      -3.263  29.986  53.615  1.00  0.00     0.012 C 
ATOM     16  C   UNL     1       2.907  27.569  53.620  1.00  0.00     0.039 C 
ENDROOT
TORSDOF 0
ENDMDL
MODEL 2
REMARK VINA RESULT:    -5.231      8.916     10.715
REMARK INTER + INTRA:          -5.231
REMARK INTER:                  -5.231
REMARK INTRA:                   0.000
REMARK UNBOUND:                 0.000
REMARK SMILES C=C1CCC[C@@]2(C)CC(=O)C(=C(C)C)C[C@@H]12
REMARK SMILES IDX 13 1 12 2 11 3 15 4 16 5 2 6 1 7 3 8 4 9 5 10 6 11 8 12 9 13
REMARK SMILES IDX 10 14 7 15 14 16
REMARK H PARENT
REMARK Flexibility Score: inf
ROOT
ATOM      1  C   UNL     1      -1.896  37.615  58.637  1.00  0.00     0.039 C 
ATOM      2  C   UNL     1      -2.649  36.375  59.059  1.00  0.00    -0.070 C 
ATOM      3  C   UNL     1      -2.034  35.365  59.737  1.00  0.00    -0.006 C 
ATOM      4  C   UNL     1      -2.782  34.131  60.199  1.00  0.00     0.047 C 
ATOM      5  C   UNL     1      -2.261  33.563  61.545  1.00  0.00     0.025 C 
ATOM      6  C   UNL     1      -2.910  32.208  61.784  1.00  0.00    -0.073 C 
ATOM      7  C   UNL     1      -3.983  32.098  62.584  1.00  0.00     0.008 C 
ATOM      8  C   UNL     1      -2.424  31.017  60.986  1.00  0.00     0.031 C 
ATOM      9  C   UNL     1      -0.892  30.933  60.970  1.00  0.00     0.005 C 
ATOM     10  C   UNL     1      -0.224  32.287  60.667  1.00  0.00     0.008 C 
ATOM     11  C   UNL     1      -0.707  33.426  61.615  1.00  0.00    -0.018 C 
ATOM     12  C   UNL     1      -0.029  34.767  61.225  1.00  0.00     0.088 C 
ATOM     13  C   UNL     1      -0.569  35.334  59.952  1.00  0.00     0.159 C 
ATOM     14  O   UNL     1       0.231  35.776  59.083  1.00  0.00    -0.295 OA
ATOM     15  C   UNL     1      -0.276  33.113  63.073  1.00  0.00     0.012 C 
ATOM     16  C   UNL     1      -4.124  36.318  58.735  1.00  0.00     0.039 C 
ENDROOT
TORSDOF 0
ENDMDL
MODEL 3
REMARK VINA RESULT:    -5.015      8.302      9.733
REMARK INTER + INTRA:          -5.015
REMARK INTER:                  -5.015
REMARK INTRA:                   0.000
REMARK UNBOUND:                 0.000
REMARK SMILES C=C1CCC[C@@]2(C)CC(=O)C(=C(C)C)C[C@@H]12
REMARK SMILES IDX 13 1 12 2 11 3 15 4 16 5 2 6 1 7 3 8 4 9 5 10 6 11 8 12 9 13
REMARK SMILES IDX 10 14 7 15 14 16
REMARK H PARENT
REMARK Flexibility Score: inf
ROOT
ATOM      1  C   UNL     1      -2.249  29.748  58.190  1.00  0.00     0.039 C 
ATOM      2  C   UNL     1      -2.868  31.041  58.668  1.00  0.00    -0.070 C 
ATOM      3  C   UNL     1      -2.297  31.777  59.663  1.00  0.00    -0.006 C 
ATOM      4  C   UNL     1      -2.884  33.094  60.131  1.00  0.00     0.047 C 
ATOM      5  C   UNL     1      -1.812  34.126  60.568  1.00  0.00     0.025 C 
ATOM      6  C   UNL     1      -2.511  35.299  61.237  1.00  0.00    -0.073 C 
ATOM      7  C   UNL     1      -2.770  36.422  60.548  1.00  0.00     0.008 C 
ATOM      8  C   UNL     1      -3.048  35.121  62.642  1.00  0.00     0.031 C 
ATOM      9  C   UNL     1      -2.015  34.458  63.563  1.00  0.00     0.005 C 
ATOM     10  C   UNL     1      -1.345  33.230  62.919  1.00  0.00     0.008 C 
ATOM     11  C   UNL     1      -0.724  33.542  61.524  1.00  0.00    -0.018 C 
ATOM     12  C   UNL     1      -0.107  32.254  60.916  1.00  0.00     0.088 C 
ATOM     13  C   UNL     1      -1.145  31.283  60.452  1.00  0.00     0.159 C 
ATOM     14  O   UNL     1      -1.022  30.062  60.740  1.00  0.00    -0.295 OA
ATOM     15  C   UNL     1       0.435  34.563  61.681  1.00  0.00     0.012 C 
ATOM     16  C   UNL     1      -4.124  31.506  57.969  1.00  0.00     0.039 C 
ENDROOT
TORSDOF 0
ENDMDL
MODEL 4
REMARK VINA RESULT:    -4.966      2.177      4.633
REMARK INTER + INTRA:          -4.966
REMARK INTER:                  -4.966
REMARK INTRA:                   0.000
REMARK UNBOUND:                 0.000
REMARK SMILES C=C1CCC[C@@]2(C)CC(=O)C(=C(C)C)C[C@@H]12
REMARK SMILES IDX 13 1 12 2 11 3 15 4 16 5 2 6 1 7 3 8 4 9 5 10 6 11 8 12 9 13
REMARK SMILES IDX 10 14 7 15 14 16
REMARK H PARENT
REMARK Flexibility Score: inf
ROOT
ATOM      1  C   UNL     1      -1.073  31.039  48.169  1.00  0.00     0.039 C 
ATOM      2  C   UNL     1      -0.237  30.421  49.265  1.00  0.00    -0.070 C 
ATOM      3  C   UNL     1      -0.810  29.881  50.378  1.00  0.00    -0.006 C 
ATOM      4  C   UNL     1       0.011  29.226  51.470  1.00  0.00     0.047 C 
ATOM      5  C   UNL     1      -0.705  28.025  52.143  1.00  0.00     0.025 C 
ATOM      6  C   UNL     1       0.094  27.607  53.368  1.00  0.00    -0.073 C 
ATOM      7  C   UNL     1       0.952  26.576  53.303  1.00  0.00     0.008 C 
ATOM      8  C   UNL     1       0.023  28.467  54.611  1.00  0.00     0.031 C 
ATOM      9  C   UNL     1      -1.424  28.839  54.961  1.00  0.00     0.005 C 
ATOM     10  C   UNL     1      -2.226  29.324  53.739  1.00  0.00     0.008 C 
ATOM     11  C   UNL     1      -2.184  28.318  52.550  1.00  0.00    -0.018 C 
ATOM     12  C   UNL     1      -2.973  28.889  51.341  1.00  0.00     0.088 C 
ATOM     13  C   UNL     1      -2.256  30.014  50.667  1.00  0.00     0.159 C 
ATOM     14  O   UNL     1      -2.894  31.056  50.358  1.00  0.00    -0.295 OA
ATOM     15  C   UNL     1      -2.885  26.994  52.957  1.00  0.00     0.012 C 
ATOM     16  C   UNL     1       1.260  30.389  49.059  1.00  0.00     0.039 C 
ENDROOT
TORSDOF 0
ENDMDL
MODEL 5
REMARK VINA RESULT:    -4.747      1.922      3.674
REMARK INTER + INTRA:          -4.747
REMARK INTER:                  -4.747
REMARK INTRA:                   0.000
REMARK UNBOUND:                 0.000
REMARK SMILES C=C1CCC[C@@]2(C)CC(=O)C(=C(C)C)C[C@@H]12
REMARK SMILES IDX 13 1 12 2 11 3 15 4 16 5 2 6 1 7 3 8 4 9 5 10 6 11 8 12 9 13
REMARK SMILES IDX 10 14 7 15 14 16
REMARK H PARENT
REMARK Flexibility Score: inf
ROOT
ATOM      1  C   UNL     1      -2.232  28.196  57.476  1.00  0.00     0.039 C 
ATOM      2  C   UNL     1      -2.676  29.081  56.334  1.00  0.00    -0.070 C 
ATOM      3  C   UNL     1      -2.129  28.966  55.090  1.00  0.00    -0.006 C 
ATOM      4  C   UNL     1      -2.588  29.821  53.926  1.00  0.00     0.047 C 
ATOM      5  C   UNL     1      -2.538  29.083  52.563  1.00  0.00     0.025 C 
ATOM      6  C   UNL     1      -2.781  30.094  51.453  1.00  0.00    -0.073 C 
ATOM      7  C   UNL     1      -4.001  30.231  50.910  1.00  0.00     0.008 C 
ATOM      8  C   UNL     1      -1.666  31.049  51.083  1.00  0.00     0.031 C 
ATOM      9  C   UNL     1      -0.326  30.320  50.921  1.00  0.00     0.005 C 
ATOM     10  C   UNL     1      -0.040  29.338  52.072  1.00  0.00     0.008 C 
ATOM     11  C   UNL     1      -1.199  28.322  52.303  1.00  0.00    -0.018 C 
ATOM     12  C   UNL     1      -0.864  27.395  53.502  1.00  0.00     0.088 C 
ATOM     13  C   UNL     1      -0.959  28.099  54.817  1.00  0.00     0.159 C 
ATOM     14  O   UNL     1      -0.044  27.945  55.670  1.00  0.00    -0.295 OA
ATOM     15  C   UNL     1      -1.351  27.408  51.058  1.00  0.00     0.012 C 
ATOM     16  C   UNL     1      -3.781  30.072  56.617  1.00  0.00     0.039 C 
ENDROOT
TORSDOF 0
ENDMDL
MODEL 6
REMARK VINA RESULT:    -4.695      9.071     11.012
REMARK INTER + INTRA:          -4.695
REMARK INTER:                  -4.695
REMARK INTRA:                   0.000
REMARK UNBOUND:                 0.000
REMARK SMILES C=C1CCC[C@@]2(C)CC(=O)C(=C(C)C)C[C@@H]12
REMARK SMILES IDX 13 1 12 2 11 3 15 4 16 5 2 6 1 7 3 8 4 9 5 10 6 11 8 12 9 13
REMARK SMILES IDX 10 14 7 15 14 16
REMARK H PARENT
REMARK Flexibility Score: inf
ROOT
ATOM      1  C   UNL     1      -2.186  38.354  57.889  1.00  0.00     0.039 C 
ATOM      2  C   UNL     1      -1.320  37.210  58.363  1.00  0.00    -0.070 C 
ATOM      3  C   UNL     1      -1.733  36.367  59.352  1.00  0.00    -0.006 C 
ATOM      4  C   UNL     1      -0.892  35.194  59.815  1.00  0.00     0.047 C 
ATOM      5  C   UNL     1      -1.735  33.964  60.243  1.00  0.00     0.025 C 
ATOM      6  C   UNL     1      -0.815  32.953  60.909  1.00  0.00    -0.073 C 
ATOM      7  C   UNL     1      -0.332  31.910  60.215  1.00  0.00     0.008 C 
ATOM      8  C   UNL     1      -0.329  33.228  62.316  1.00  0.00     0.031 C 
ATOM      9  C   UNL     1      -1.476  33.663  63.237  1.00  0.00     0.005 C 
ATOM     10  C   UNL     1      -2.380  34.734  62.596  1.00  0.00     0.008 C 
ATOM     11  C   UNL     1      -2.921  34.311  61.198  1.00  0.00    -0.018 C 
ATOM     12  C   UNL     1      -3.784  35.451  60.594  1.00  0.00     0.088 C 
ATOM     13  C   UNL     1      -2.963  36.614  60.139  1.00  0.00     0.159 C 
ATOM     14  O   UNL     1      -3.331  37.783  60.433  1.00  0.00    -0.295 OA
ATOM     15  C   UNL     1      -3.849  33.075  61.346  1.00  0.00     0.012 C 
ATOM     16  C   UNL     1       0.006  37.013  57.666  1.00  0.00     0.039 C 
ENDROOT
TORSDOF 0
ENDMDL
MODEL 7
REMARK VINA RESULT:    -4.386     10.833     12.094
REMARK INTER + INTRA:          -4.386
REMARK INTER:                  -4.386
REMARK INTRA:                   0.000
REMARK UNBOUND:                 0.000
REMARK SMILES C=C1CCC[C@@]2(C)CC(=O)C(=C(C)C)C[C@@H]12
REMARK SMILES IDX 13 1 12 2 11 3 15 4 16 5 2 6 1 7 3 8 4 9 5 10 6 11 8 12 9 13
REMARK SMILES IDX 10 14 7 15 14 16
REMARK H PARENT
REMARK Flexibility Score: inf
ROOT
ATOM      1  C   UNL     1      -2.252  32.988  67.441  1.00  0.00     0.039 C 
ATOM      2  C   UNL     1      -2.882  32.605  66.122  1.00  0.00    -0.070 C 
ATOM      3  C   UNL     1      -2.330  32.985  64.934  1.00  0.00    -0.006 C 
ATOM      4  C   UNL     1      -2.929  32.581  63.602  1.00  0.00     0.047 C 
ATOM      5  C   UNL     1      -1.867  32.344  62.497  1.00  0.00     0.025 C 
ATOM      6  C   UNL     1      -2.580  32.186  61.163  1.00  0.00    -0.073 C 
ATOM      7  C   UNL     1      -2.827  30.964  60.663  1.00  0.00     0.008 C 
ATOM      8  C   UNL     1      -3.142  33.418  60.488  1.00  0.00     0.031 C 
ATOM      9  C   UNL     1      -2.127  34.568  60.470  1.00  0.00     0.005 C 
ATOM     10  C   UNL     1      -1.442  34.778  61.835  1.00  0.00     0.008 C 
ATOM     11  C   UNL     1      -0.796  33.476  62.394  1.00  0.00    -0.018 C 
ATOM     12  C   UNL     1      -0.166  33.750  63.786  1.00  0.00     0.088 C 
ATOM     13  C   UNL     1      -1.193  33.931  64.856  1.00  0.00     0.159 C 
ATOM     14  O   UNL     1      -1.074  34.883  65.673  1.00  0.00    -0.295 OA
ATOM     15  C   UNL     1       0.358  33.020  61.461  1.00  0.00     0.012 C 
ATOM     16  C   UNL     1      -4.125  31.748  66.172  1.00  0.00     0.039 C 
ENDROOT
TORSDOF 0
ENDMDL
MODEL 8
REMARK VINA RESULT:    -4.329      9.688     11.526
REMARK INTER + INTRA:          -4.329
REMARK INTER:                  -4.329
REMARK INTRA:                   0.000
REMARK UNBOUND:                 0.000
REMARK SMILES C=C1CCC[C@@]2(C)CC(=O)C(=C(C)C)C[C@@H]12
REMARK SMILES IDX 13 1 12 2 11 3 15 4 16 5 2 6 1 7 3 8 4 9 5 10 6 11 8 12 9 13
REMARK SMILES IDX 10 14 7 15 14 16
REMARK H PARENT
REMARK Flexibility Score: inf
ROOT
ATOM      1  C   UNL     1      -3.638  38.239  59.646  1.00  0.00     0.039 C 
ATOM      2  C   UNL     1      -2.630  37.124  59.496  1.00  0.00    -0.070 C 
ATOM      3  C   UNL     1      -2.496  36.153  60.443  1.00  0.00    -0.006 C 
ATOM      4  C   UNL     1      -1.515  35.008  60.291  1.00  0.00     0.047 C 
ATOM      5  C   UNL     1      -2.022  33.677  60.906  1.00  0.00     0.025 C 
ATOM      6  C   UNL     1      -0.875  32.678  60.914  1.00  0.00    -0.073 C 
ATOM      7  C   UNL     1      -0.770  31.754  59.945  1.00  0.00     0.008 C 
ATOM      8  C   UNL     1       0.226  32.842  61.939  1.00  0.00     0.031 C 
ATOM      9  C   UNL     1      -0.340  33.086  63.344  1.00  0.00     0.005 C 
ATOM     10  C   UNL     1      -1.461  34.143  63.359  1.00  0.00     0.008 C 
ATOM     11  C   UNL     1      -2.603  33.827  62.348  1.00  0.00    -0.018 C 
ATOM     12  C   UNL     1      -3.672  34.952  62.384  1.00  0.00     0.088 C 
ATOM     13  C   UNL     1      -3.196  36.218  61.747  1.00  0.00     0.159 C 
ATOM     14  O   UNL     1      -3.397  37.317  62.330  1.00  0.00    -0.295 OA
ATOM     15  C   UNL     1      -3.321  32.514  62.760  1.00  0.00     0.012 C 
ATOM     16  C   UNL     1      -1.804  37.106  58.231  1.00  0.00     0.039 C 
ENDROOT
TORSDOF 0
ENDMDL
MODEL 9
REMARK VINA RESULT:    -4.297      8.816     10.584
REMARK INTER + INTRA:          -4.297
REMARK INTER:                  -4.297
REMARK INTRA:                   0.000
REMARK UNBOUND:                 0.000
REMARK SMILES C=C1CCC[C@@]2(C)CC(=O)C(=C(C)C)C[C@@H]12
REMARK SMILES IDX 13 1 12 2 11 3 15 4 16 5 2 6 1 7 3 8 4 9 5 10 6 11 8 12 9 13
REMARK SMILES IDX 10 14 7 15 14 16
REMARK H PARENT
REMARK Flexibility Score: inf
ROOT
ATOM      1  C   UNL     1      -2.993  36.897  62.704  1.00  0.00     0.039 C 
ATOM      2  C   UNL     1      -2.930  36.050  61.454  1.00  0.00    -0.070 C 
ATOM      3  C   UNL     1      -2.851  34.690  61.519  1.00  0.00    -0.006 C 
ATOM      4  C   UNL     1      -2.822  33.824  60.276  1.00  0.00     0.047 C 
ATOM      5  C   UNL     1      -3.541  32.462  60.457  1.00  0.00     0.025 C 
ATOM      6  C   UNL     1      -3.242  31.589  59.248  1.00  0.00    -0.073 C 
ATOM      7  C   UNL     1      -4.125  31.495  58.241  1.00  0.00     0.008 C 
ATOM      8  C   UNL     1      -1.872  30.957  59.127  1.00  0.00     0.031 C 
ATOM      9  C   UNL     1      -1.436  30.296  60.442  1.00  0.00     0.005 C 
ATOM     10  C   UNL     1      -1.676  31.196  61.669  1.00  0.00     0.008 C 
ATOM     11  C   UNL     1      -3.144  31.707  61.766  1.00  0.00    -0.018 C 
ATOM     12  C   UNL     1      -3.303  32.640  62.996  1.00  0.00     0.088 C 
ATOM     13  C   UNL     1      -2.650  33.969  62.797  1.00  0.00     0.159 C 
ATOM     14  O   UNL     1      -1.939  34.454  63.718  1.00  0.00    -0.295 OA
ATOM     15  C   UNL     1      -4.104  30.507  61.987  1.00  0.00     0.012 C 
ATOM     16  C   UNL     1      -2.999  36.770  60.127  1.00  0.00     0.039 C 
ENDROOT
TORSDOF 0
ENDMDL
