MODEL 1
REMARK VINA RESULT:    -3.313      0.000      0.000
REMARK INTER + INTRA:          -5.115
REMARK INTER:                  -5.055
REMARK INTRA:                  -0.059
REMARK UNBOUND:                -0.059
REMARK SMILES CC1=CCC[C@@H](C)C(=O)C[C@H](C(C)C)C(=O)C1
REMARK SMILES IDX 8 1 9 2 6 3 7 4 5 5 4 6 3 7 2 8 1 9 10 11 11 12 15 13 16 14
REMARK SMILES IDX 17 15 12 17 13 18 14 19
REMARK H PARENT
REMARK Flexibility Score: 70.00
ROOT
ATOM      1  C   UNL     1     -21.767  -1.469  11.474  1.00  0.00     0.136 C 
ATOM      2  O   UNL     1     -22.968  -1.660  11.604  1.00  0.00    -0.299 OA
ENDROOT
BRANCH   1   3
ATOM      3  C   UNL     1     -21.218  -0.059  11.590  1.00  0.00     0.053 C 
ATOM      4  C   UNL     1     -22.141   0.805  12.461  1.00  0.00     0.016 C 
BRANCH   3   5
ATOM      5  C   UNL     1     -21.035   0.570  10.189  1.00  0.00     0.015 C 
BRANCH   5   6
ATOM      6  C   UNL     1     -19.562   0.929   9.917  1.00  0.00     0.028 C 
BRANCH   6   7
ATOM      7  C   UNL     1     -18.639   0.554  11.051  1.00  0.00    -0.028 C 
ATOM      8  C   UNL     1     -17.870  -0.562  11.102  1.00  0.00    -0.070 CG0
ATOM      9  C   UNL     1     -17.086  -0.814  12.367  1.00  0.00     0.039 C 
ATOM     10  G   UNL     1     -17.720  -1.538   9.941  1.00  0.00     0.000 G0
ENDBRANCH   6   7
ENDBRANCH   5   6
ENDBRANCH   3   5
ENDBRANCH   1   3
BRANCH   1  11
ATOM     11  C   UNL     1     -20.860  -2.651  11.216  1.00  0.00     0.087 C 
BRANCH  11  12
ATOM     12  C   UNL     1     -20.134  -2.547   9.848  1.00  0.00     0.066 C 
BRANCH  12  13
ATOM     13  C   UNL     1     -18.634  -2.750  10.003  1.00  0.00     0.140 C 
ATOM     14  O   UNL     1     -18.169  -3.874  10.125  1.00  0.00    -0.299 OA
BRANCH  13  15
ATOM     15  C   UNL     1     -17.703  -1.562   9.945  1.00  0.00     0.106 CG0
ATOM     16  G   UNL     1     -17.887  -0.577  11.093  1.00  0.00     0.000 G0
ENDBRANCH  13  15
ENDBRANCH  12  13
BRANCH  12  17
ATOM     17  C   UNL     1     -20.738  -3.486   8.751  1.00  0.00    -0.006 C 
ATOM     18  C   UNL     1     -21.829  -4.437   9.277  1.00  0.00     0.008 C 
ATOM     19  C   UNL     1     -21.283  -2.683   7.559  1.00  0.00     0.008 C 
ENDBRANCH  12  17
ENDBRANCH  11  12
ENDBRANCH   1  11
TORSDOF 1
ENDMDL
MODEL 2
REMARK VINA RESULT:    -3.299      2.170      5.270
REMARK INTER + INTRA:          -5.094
REMARK INTER:                  -5.025
REMARK INTRA:                  -0.070
REMARK UNBOUND:                -0.059
REMARK SMILES CC1=CCC[C@@H](C)C(=O)C[C@H](C(C)C)C(=O)C1
REMARK SMILES IDX 8 1 9 2 6 3 7 4 5 5 4 6 3 7 2 8 1 9 10 11 11 12 15 13 16 14
REMARK SMILES IDX 17 15 12 17 13 18 14 19
REMARK H PARENT
REMARK Flexibility Score: 70.00
ROOT
ATOM      1  C   UNL     1     -18.720  -4.081   8.716  1.00  0.00     0.136 C 
ATOM      2  O   UNL     1     -17.690  -4.258   8.080  1.00  0.00    -0.299 OA
ENDROOT
BRANCH   1   3
ATOM      3  C   UNL     1     -20.027  -4.646   8.193  1.00  0.00     0.053 C 
ATOM      4  C   UNL     1     -19.924  -6.169   8.027  1.00  0.00     0.016 C 
BRANCH   3   5
ATOM      5  C   UNL     1     -20.415  -3.971   6.858  1.00  0.00     0.015 C 
BRANCH   5   6
ATOM      6  C   UNL     1     -21.312  -2.739   7.085  1.00  0.00     0.028 C 
BRANCH   6   7
ATOM      7  C   UNL     1     -22.451  -3.001   8.040  1.00  0.00    -0.028 C 
ATOM      8  C   UNL     1     -22.619  -2.402   9.246  1.00  0.00    -0.070 CG0
ATOM      9  C   UNL     1     -23.768  -2.868  10.104  1.00  0.00     0.039 C 
ATOM     10  G   UNL     1     -21.745  -1.260   9.749  1.00  0.00     0.000 G0
ENDBRANCH   6   7
ENDBRANCH   5   6
ENDBRANCH   3   5
ENDBRANCH   1   3
BRANCH   1  11
ATOM     11  C   UNL     1     -18.655  -3.314  10.018  1.00  0.00     0.087 C 
BRANCH  11  12
ATOM     12  C   UNL     1     -19.192  -1.865   9.873  1.00  0.00     0.066 C 
BRANCH  12  13
ATOM     13  C   UNL     1     -20.548  -1.710  10.548  1.00  0.00     0.140 C 
ATOM     14  O   UNL     1     -20.670  -1.912  11.748  1.00  0.00    -0.299 OA
BRANCH  13  15
ATOM     15  C   UNL     1     -21.740  -1.246   9.746  1.00  0.00     0.106 CG0
ATOM     16  G   UNL     1     -22.634  -2.379   9.255  1.00  0.00     0.000 G0
ENDBRANCH  13  15
ENDBRANCH  12  13
BRANCH  12  17
ATOM     17  C   UNL     1     -18.177  -0.774  10.350  1.00  0.00    -0.006 C 
ATOM     18  C   UNL     1     -18.842   0.533  10.822  1.00  0.00     0.008 C 
ATOM     19  C   UNL     1     -17.250  -1.311  11.453  1.00  0.00     0.008 C 
ENDBRANCH  12  17
ENDBRANCH  11  12
ENDBRANCH   1  11
TORSDOF 1
ENDMDL
MODEL 3
REMARK VINA RESULT:    -3.266      2.311      4.501
REMARK INTER + INTRA:          -5.044
REMARK INTER:                  -4.732
REMARK INTRA:                  -0.311
REMARK UNBOUND:                -0.059
REMARK SMILES CC1=CCC[C@@H](C)C(=O)C[C@H](C(C)C)C(=O)C1
REMARK SMILES IDX 8 1 9 2 6 3 7 4 5 5 4 6 3 7 2 8 1 9 10 11 11 12 15 13 16 14
REMARK SMILES IDX 17 15 12 17 13 18 14 19
REMARK H PARENT
REMARK Flexibility Score: 70.00
ROOT
ATOM      1  C   UNL     1     -19.421  -0.873  11.236  1.00  0.00     0.136 C 
ATOM      2  O   UNL     1     -19.261   0.340  11.256  1.00  0.00    -0.299 OA
ENDROOT
BRANCH   1   3
ATOM      3  C   UNL     1     -18.211  -1.787  11.265  1.00  0.00     0.053 C 
ATOM      4  C   UNL     1     -17.002  -1.057  11.867  1.00  0.00     0.016 C 
BRANCH   3   5
ATOM      5  C   UNL     1     -17.889  -2.307   9.845  1.00  0.00     0.015 C 
BRANCH   5   6
ATOM      6  C   UNL     1     -18.127  -3.825   9.730  1.00  0.00     0.028 C 
BRANCH   6   7
ATOM      7  C   UNL     1     -18.918  -4.212   8.504  1.00  0.00    -0.028 C 
ATOM      8  C   UNL     1     -20.265  -4.358   8.452  1.00  0.00    -0.070 CG0
ATOM      9  C   UNL     1     -20.866  -4.848   7.158  1.00  0.00     0.039 C 
ATOM     10  G   UNL     1     -21.197  -4.010   9.606  1.00  0.00     0.000 G0
ENDBRANCH   6   7
ENDBRANCH   5   6
ENDBRANCH   3   5
ENDBRANCH   1   3
BRANCH   1  11
ATOM     11  C   UNL     1     -20.828  -1.425  11.199  1.00  0.00     0.087 C 
BRANCH  11  12
ATOM     12  C   UNL     1     -21.426  -1.414   9.766  1.00  0.00     0.066 C 
BRANCH  12  13
ATOM     13  C   UNL     1     -22.013  -2.771   9.403  1.00  0.00     0.140 C 
ATOM     14  O   UNL     1     -23.124  -2.851   8.900  1.00  0.00    -0.299 OA
BRANCH  13  15
ATOM     15  C   UNL     1     -21.196  -4.024   9.608  1.00  0.00     0.106 CG0
ATOM     16  G   UNL     1     -20.263  -4.351   8.449  1.00  0.00     0.000 G0
ENDBRANCH  13  15
ENDBRANCH  12  13
BRANCH  12  17
ATOM     17  C   UNL     1     -22.450  -0.255   9.529  1.00  0.00    -0.006 C 
ATOM     18  C   UNL     1     -23.113   0.264  10.818  1.00  0.00     0.008 C 
ATOM     19  C   UNL     1     -21.809   0.917   8.768  1.00  0.00     0.008 C 
ENDBRANCH  12  17
ENDBRANCH  11  12
ENDBRANCH   1  11
TORSDOF 1
ENDMDL
MODEL 4
REMARK VINA RESULT:    -3.228      1.619      3.776
REMARK INTER + INTRA:          -4.986
REMARK INTER:                  -4.822
REMARK INTRA:                  -0.164
REMARK UNBOUND:                -0.059
REMARK SMILES CC1=CCC[C@@H](C)C(=O)C[C@H](C(C)C)C(=O)C1
REMARK SMILES IDX 8 1 9 2 6 3 7 4 5 5 4 6 3 7 2 8 1 9 10 11 11 12 15 13 16 14
REMARK SMILES IDX 17 15 12 17 13 18 14 19
REMARK H PARENT
REMARK Flexibility Score: 70.00
ROOT
ATOM      1  C   UNL     1     -18.570  -2.372   9.861  1.00  0.00     0.136 C 
ATOM      2  O   UNL     1     -18.100  -3.502   9.839  1.00  0.00    -0.299 OA
ENDROOT
BRANCH   1   3
ATOM      3  C   UNL     1     -17.724  -1.222  10.375  1.00  0.00     0.053 C 
ATOM      4  C   UNL     1     -17.283  -1.486  11.822  1.00  0.00     0.016 C 
BRANCH   3   5
ATOM      5  C   UNL     1     -18.500   0.111  10.270  1.00  0.00     0.015 C 
BRANCH   5   6
ATOM      6  C   UNL     1     -19.102   0.525  11.626  1.00  0.00     0.028 C 
BRANCH   6   7
ATOM      7  C   UNL     1     -20.542   0.967  11.527  1.00  0.00    -0.028 C 
ATOM      8  C   UNL     1     -21.622   0.152  11.611  1.00  0.00    -0.070 CG0
ATOM      9  C   UNL     1     -22.982   0.767  11.388  1.00  0.00     0.039 C 
ATOM     10  G   UNL     1     -21.537  -1.328  11.963  1.00  0.00     0.000 G0
ENDBRANCH   6   7
ENDBRANCH   5   6
ENDBRANCH   3   5
ENDBRANCH   1   3
BRANCH   1  11
ATOM     11  C   UNL     1     -19.979  -2.155   9.359  1.00  0.00     0.087 C 
BRANCH  11  12
ATOM     12  C   UNL     1     -21.006  -3.073  10.074  1.00  0.00     0.066 C 
BRANCH  12  13
ATOM     13  C   UNL     1     -22.019  -2.257  10.865  1.00  0.00     0.140 C 
ATOM     14  O   UNL     1     -23.216  -2.375  10.647  1.00  0.00    -0.299 OA
BRANCH  13  15
ATOM     15  C   UNL     1     -21.549  -1.339  11.968  1.00  0.00     0.106 CG0
ATOM     16  G   UNL     1     -21.621   0.141  11.613  1.00  0.00     0.000 G0
ENDBRANCH  13  15
ENDBRANCH  12  13
BRANCH  12  17
ATOM     17  C   UNL     1     -21.703  -4.092   9.112  1.00  0.00    -0.006 C 
ATOM     18  C   UNL     1     -21.031  -4.206   7.731  1.00  0.00     0.008 C 
ATOM     19  C   UNL     1     -21.813  -5.486   9.751  1.00  0.00     0.008 C 
ENDBRANCH  12  17
ENDBRANCH  11  12
ENDBRANCH   1  11
TORSDOF 1
ENDMDL
MODEL 5
REMARK VINA RESULT:    -2.963      2.641      4.599
REMARK INTER + INTRA:          -4.581
REMARK INTER:                  -4.195
REMARK INTRA:                  -0.386
REMARK UNBOUND:                -0.059
REMARK SMILES CC1=CCC[C@@H](C)C(=O)C[C@H](C(C)C)C(=O)C1
REMARK SMILES IDX 8 1 9 2 6 3 7 4 5 5 4 6 3 7 2 8 1 9 10 11 11 12 15 13 16 14
REMARK SMILES IDX 17 15 12 17 13 18 14 19
REMARK H PARENT
REMARK Flexibility Score: 70.00
ROOT
ATOM      1  C   UNL     1     -18.789  -3.436   9.540  1.00  0.00     0.136 C 
ATOM      2  O   UNL     1     -18.113  -4.271  10.126  1.00  0.00    -0.299 OA
ENDROOT
BRANCH   1   3
ATOM      3  C   UNL     1     -18.873  -2.024  10.089  1.00  0.00     0.053 C 
ATOM      4  C   UNL     1     -17.480  -1.379  10.123  1.00  0.00     0.016 C 
BRANCH   3   5
ATOM      5  C   UNL     1     -19.513  -2.025  11.497  1.00  0.00     0.015 C 
BRANCH   5   6
ATOM      6  C   UNL     1     -21.023  -2.326  11.432  1.00  0.00     0.028 C 
BRANCH   6   7
ATOM      7  C   UNL     1     -21.779  -1.385  10.526  1.00  0.00    -0.028 C 
ATOM      8  C   UNL     1     -22.574  -1.757   9.492  1.00  0.00    -0.070 CG0
ATOM      9  C   UNL     1     -23.168  -0.665   8.638  1.00  0.00     0.039 C 
ATOM     10  G   UNL     1     -22.933  -3.205   9.183  1.00  0.00     0.000 G0
ENDBRANCH   6   7
ENDBRANCH   5   6
ENDBRANCH   3   5
ENDBRANCH   1   3
BRANCH   1  11
ATOM     11  C   UNL     1     -19.512  -3.835   8.274  1.00  0.00     0.087 C 
BRANCH  11  12
ATOM     12  C   UNL     1     -20.813  -4.631   8.565  1.00  0.00     0.066 C 
BRANCH  12  13
ATOM     13  C   UNL     1     -22.045  -3.852   8.128  1.00  0.00     0.140 C 
ATOM     14  O   UNL     1     -22.348  -3.783   6.946  1.00  0.00    -0.299 OA
BRANCH  13  15
ATOM     15  C   UNL     1     -22.936  -3.207   9.164  1.00  0.00     0.106 CG0
ATOM     16  G   UNL     1     -22.563  -1.766   9.489  1.00  0.00     0.000 G0
ENDBRANCH  13  15
ENDBRANCH  12  13
BRANCH  12  17
ATOM     17  C   UNL     1     -20.801  -6.080   7.975  1.00  0.00    -0.006 C 
ATOM     18  C   UNL     1     -19.514  -6.428   7.204  1.00  0.00     0.008 C 
ATOM     19  C   UNL     1     -21.052  -7.134   9.065  1.00  0.00     0.008 C 
ENDBRANCH  12  17
ENDBRANCH  11  12
ENDBRANCH   1  11
TORSDOF 1
ENDMDL
MODEL 6
REMARK VINA RESULT:    -2.917      2.234      5.191
REMARK INTER + INTRA:          -4.512
REMARK INTER:                  -4.319
REMARK INTRA:                  -0.192
REMARK UNBOUND:                -0.059
REMARK SMILES CC1=CCC[C@@H](C)C(=O)C[C@H](C(C)C)C(=O)C1
REMARK SMILES IDX 8 1 9 2 6 3 7 4 5 5 4 6 3 7 2 8 1 9 10 11 11 12 15 13 16 14
REMARK SMILES IDX 17 15 12 17 13 18 14 19
REMARK H PARENT
REMARK Flexibility Score: 70.00
ROOT
ATOM      1  C   UNL     1     -18.812  -2.493  10.232  1.00  0.00     0.136 C 
ATOM      2  O   UNL     1     -17.658  -2.353   9.850  1.00  0.00    -0.299 OA
ENDROOT
BRANCH   1   3
ATOM      3  C   UNL     1     -19.721  -3.474   9.515  1.00  0.00     0.053 C 
ATOM      4  C   UNL     1     -18.934  -4.723   9.092  1.00  0.00     0.016 C 
BRANCH   3   5
ATOM      5  C   UNL     1     -20.389  -2.803   8.293  1.00  0.00     0.015 C 
BRANCH   5   6
ATOM      6  C   UNL     1     -21.913  -3.026   8.287  1.00  0.00     0.028 C 
BRANCH   6   7
ATOM      7  C   UNL     1     -22.702  -1.742   8.378  1.00  0.00    -0.028 C 
ATOM      8  C   UNL     1     -23.053  -1.114   9.528  1.00  0.00    -0.070 CG0
ATOM      9  C   UNL     1     -23.929   0.108   9.418  1.00  0.00     0.039 C 
ATOM     10  G   UNL     1     -22.570  -1.549  10.906  1.00  0.00     0.000 G0
ENDBRANCH   6   7
ENDBRANCH   5   6
ENDBRANCH   3   5
ENDBRANCH   1   3
BRANCH   1  11
ATOM     11  C   UNL     1     -19.294  -1.692  11.420  1.00  0.00     0.087 C 
BRANCH  11  12
ATOM     12  C   UNL     1     -20.175  -0.486  10.997  1.00  0.00     0.066 C 
BRANCH  12  13
ATOM     13  C   UNL     1     -21.584  -0.607  11.561  1.00  0.00     0.140 C 
ATOM     14  O   UNL     1     -21.940   0.094  12.497  1.00  0.00    -0.299 OA
BRANCH  13  15
ATOM     15  C   UNL     1     -22.571  -1.557  10.924  1.00  0.00     0.106 CG0
ATOM     16  G   UNL     1     -23.051  -1.117   9.546  1.00  0.00     0.000 G0
ENDBRANCH  13  15
ENDBRANCH  12  13
BRANCH  12  17
ATOM     17  C   UNL     1     -19.532   0.901  11.331  1.00  0.00    -0.006 C 
ATOM     18  C   UNL     1     -18.035   0.825  11.683  1.00  0.00     0.008 C 
ATOM     19  C   UNL     1     -19.746   1.911  10.191  1.00  0.00     0.008 C 
ENDBRANCH  12  17
ENDBRANCH  11  12
ENDBRANCH   1  11
TORSDOF 1
ENDMDL
MODEL 7
REMARK VINA RESULT:    -2.889     13.140     14.912
REMARK INTER + INTRA:          -4.469
REMARK INTER:                  -4.359
REMARK INTRA:                  -0.110
REMARK UNBOUND:                -0.059
REMARK SMILES CC1=CCC[C@@H](C)C(=O)C[C@H](C(C)C)C(=O)C1
REMARK SMILES IDX 8 1 9 2 6 3 7 4 5 5 4 6 3 7 2 8 1 9 10 11 11 12 15 13 16 14
REMARK SMILES IDX 17 15 12 17 13 18 14 19
REMARK H PARENT
REMARK Flexibility Score: 70.00
ROOT
ATOM      1  C   UNL     1      -6.388  -3.791  10.676  1.00  0.00     0.136 C 
ATOM      2  O   UNL     1      -6.009  -4.824  11.210  1.00  0.00    -0.299 OA
ENDROOT
BRANCH   1   3
ATOM      3  C   UNL     1      -6.661  -3.779   9.183  1.00  0.00     0.053 C 
ATOM      4  C   UNL     1      -7.873  -4.662   8.852  1.00  0.00     0.016 C 
BRANCH   3   5
ATOM      5  C   UNL     1      -5.411  -4.243   8.400  1.00  0.00     0.015 C 
BRANCH   5   6
ATOM      6  C   UNL     1      -4.400  -3.095   8.215  1.00  0.00     0.028 C 
BRANCH   6   7
ATOM      7  C   UNL     1      -4.958  -1.931   7.434  1.00  0.00    -0.028 C 
ATOM      8  C   UNL     1      -5.139  -0.675   7.915  1.00  0.00    -0.070 CG0
ATOM      9  C   UNL     1      -5.804   0.332   7.010  1.00  0.00     0.039 C 
ATOM     10  G   UNL     1      -4.664  -0.223   9.290  1.00  0.00     0.000 G0
ENDBRANCH   6   7
ENDBRANCH   5   6
ENDBRANCH   3   5
ENDBRANCH   1   3
BRANCH   1  11
ATOM     11  C   UNL     1      -6.590  -2.557  11.525  1.00  0.00     0.087 C 
BRANCH  11  12
ATOM     12  C   UNL     1      -5.398  -1.569  11.418  1.00  0.00     0.066 C 
BRANCH  12  13
ATOM     13  C   UNL     1      -5.680  -0.472  10.401  1.00  0.00     0.140 C 
ATOM     14  O   UNL     1      -6.680   0.223  10.500  1.00  0.00    -0.299 OA
BRANCH  13  15
ATOM     15  C   UNL     1      -4.690  -0.199   9.294  1.00  0.00     0.106 CG0
ATOM     16  G   UNL     1      -5.147  -0.679   7.922  1.00  0.00     0.000 G0
ENDBRANCH  13  15
ENDBRANCH  12  13
BRANCH  12  17
ATOM     17  C   UNL     1      -4.951  -0.981  12.798  1.00  0.00    -0.006 C 
ATOM     18  C   UNL     1      -4.224   0.373  12.693  1.00  0.00     0.008 C 
ATOM     19  C   UNL     1      -6.136  -0.859  13.769  1.00  0.00     0.008 C 
ENDBRANCH  12  17
ENDBRANCH  11  12
ENDBRANCH   1  11
TORSDOF 1
ENDMDL
MODEL 8
REMARK VINA RESULT:    -2.825      2.722      4.254
REMARK INTER + INTRA:          -4.370
REMARK INTER:                  -4.012
REMARK INTRA:                  -0.358
REMARK UNBOUND:                -0.059
REMARK SMILES CC1=CCC[C@@H](C)C(=O)C[C@H](C(C)C)C(=O)C1
REMARK SMILES IDX 8 1 9 2 6 3 7 4 5 5 4 6 3 7 2 8 1 9 10 11 11 12 15 13 16 14
REMARK SMILES IDX 17 15 12 17 13 18 14 19
REMARK H PARENT
REMARK Flexibility Score: 70.00
ROOT
ATOM      1  C   UNL     1     -19.899  -0.504  10.954  1.00  0.00     0.136 C 
ATOM      2  O   UNL     1     -19.118  -0.733  11.868  1.00  0.00    -0.299 OA
ENDROOT
BRANCH   1   3
ATOM      3  C   UNL     1     -21.143   0.322  11.225  1.00  0.00     0.053 C 
ATOM      4  C   UNL     1     -20.759   1.747  11.648  1.00  0.00     0.016 C 
BRANCH   3   5
ATOM      5  C   UNL     1     -22.020  -0.355  12.303  1.00  0.00     0.015 C 
BRANCH   5   6
ATOM      6  C   UNL     1     -22.937  -1.433  11.693  1.00  0.00     0.028 C 
BRANCH   6   7
ATOM      7  C   UNL     1     -23.612  -0.987  10.418  1.00  0.00    -0.028 C 
ATOM      8  C   UNL     1     -23.439  -1.553   9.198  1.00  0.00    -0.070 CG0
ATOM      9  C   UNL     1     -24.125  -0.903   8.022  1.00  0.00     0.039 C 
ATOM     10  G   UNL     1     -22.635  -2.827   8.965  1.00  0.00     0.000 G0
ENDBRANCH   6   7
ENDBRANCH   5   6
ENDBRANCH   3   5
ENDBRANCH   1   3
BRANCH   1  11
ATOM     11  C   UNL     1     -19.590  -1.039   9.575  1.00  0.00     0.087 C 
BRANCH  11  12
ATOM     12  C   UNL     1     -20.069  -2.504   9.392  1.00  0.00     0.066 C 
BRANCH  12  13
ATOM     13  C   UNL     1     -21.244  -2.584   8.428  1.00  0.00     0.140 C 
ATOM     14  O   UNL     1     -21.063  -2.501   7.222  1.00  0.00    -0.299 OA
BRANCH  13  15
ATOM     15  C   UNL     1     -22.638  -2.828   8.956  1.00  0.00     0.106 CG0
ATOM     16  G   UNL     1     -23.438  -1.555   9.200  1.00  0.00     0.000 G0
ENDBRANCH  13  15
ENDBRANCH  12  13
BRANCH  12  17
ATOM     17  C   UNL     1     -18.920  -3.489   8.994  1.00  0.00    -0.006 C 
ATOM     18  C   UNL     1     -17.515  -3.002   9.394  1.00  0.00     0.008 C 
ATOM     19  C   UNL     1     -19.162  -4.897   9.561  1.00  0.00     0.008 C 
ENDBRANCH  12  17
ENDBRANCH  11  12
ENDBRANCH   1  11
TORSDOF 1
ENDMDL
MODEL 9
REMARK VINA RESULT:    -2.729      2.911      4.582
REMARK INTER + INTRA:          -4.224
REMARK INTER:                  -3.899
REMARK INTRA:                  -0.325
REMARK UNBOUND:                -0.059
REMARK SMILES CC1=CCC[C@@H](C)C(=O)C[C@H](C(C)C)C(=O)C1
REMARK SMILES IDX 8 1 9 2 6 3 7 4 5 5 4 6 3 7 2 8 1 9 10 11 11 12 15 13 16 14
REMARK SMILES IDX 17 15 12 17 13 18 14 19
REMARK H PARENT
REMARK Flexibility Score: 70.00
ROOT
ATOM      1  C   UNL     1     -20.976  -2.032   9.700  1.00  0.00     0.136 C 
ATOM      2  O   UNL     1     -20.815  -0.821   9.617  1.00  0.00    -0.299 OA
ENDROOT
BRANCH   1   3
ATOM      3  C   UNL     1     -20.159  -2.826  10.701  1.00  0.00     0.053 C 
ATOM      4  C   UNL     1     -20.432  -2.332  12.129  1.00  0.00     0.016 C 
BRANCH   3   5
ATOM      5  C   UNL     1     -18.652  -2.736  10.366  1.00  0.00     0.015 C 
BRANCH   5   6
ATOM      6  C   UNL     1     -18.318  -3.474   9.055  1.00  0.00     0.028 C 
BRANCH   6   7
ATOM      7  C   UNL     1     -18.863  -4.880   9.008  1.00  0.00    -0.028 C 
ATOM      8  C   UNL     1     -19.647  -5.388   8.024  1.00  0.00    -0.070 CG0
ATOM      9  C   UNL     1     -20.175  -6.789   8.204  1.00  0.00     0.039 C 
ATOM     10  G   UNL     1     -19.976  -4.640   6.738  1.00  0.00     0.000 G0
ENDBRANCH   6   7
ENDBRANCH   5   6
ENDBRANCH   3   5
ENDBRANCH   1   3
BRANCH   1  11
ATOM     11  C   UNL     1     -22.000  -2.698   8.809  1.00  0.00     0.087 C 
BRANCH  11  12
ATOM     12  C   UNL     1     -21.604  -2.635   7.309  1.00  0.00     0.066 C 
BRANCH  12  13
ATOM     13  C   UNL     1     -21.374  -4.028   6.741  1.00  0.00     0.140 C 
ATOM     14  O   UNL     1     -22.296  -4.652   6.237  1.00  0.00    -0.299 OA
BRANCH  13  15
ATOM     15  C   UNL     1     -19.986  -4.623   6.744  1.00  0.00     0.106 CG0
ATOM     16  G   UNL     1     -19.648  -5.400   8.011  1.00  0.00     0.000 G0
ENDBRANCH  13  15
ENDBRANCH  12  13
BRANCH  12  17
ATOM     17  C   UNL     1     -22.605  -1.808   6.436  1.00  0.00    -0.006 C 
ATOM     18  C   UNL     1     -23.658  -1.038   7.255  1.00  0.00     0.008 C 
ATOM     19  C   UNL     1     -21.867  -0.838   5.499  1.00  0.00     0.008 C 
ENDBRANCH  12  17
ENDBRANCH  11  12
ENDBRANCH   1  11
TORSDOF 1
ENDMDL
