MODEL 1
REMARK VINA RESULT:    -5.268      0.000      0.000
REMARK INTER + INTRA:         -10.249
REMARK INTER:                  -8.964
REMARK INTRA:                  -1.285
REMARK UNBOUND:                -1.285
REMARK SMILES CCCCCCCCCCCCCC(=O)[O-]
REMARK SMILES IDX 8 1 9 2 10 3 11 4 12 5 13 6 14 7 15 8 16 9 7 10 6 11 5 12
REMARK SMILES IDX 4 13 3 14 2 15 1 16
REMARK H PARENT
REMARK Flexibility Score: inf
ROOT
ATOM      1  C   UNL     1      19.733  21.859   5.044  1.00  0.00     0.000 C 
ENDROOT
BRANCH   1   2
ATOM      2  C   UNL     1      18.546  21.829   6.023  1.00  0.00     0.000 C 
BRANCH   2   3
ATOM      3  C   UNL     1      17.900  23.212   6.205  1.00  0.00     0.000 C 
BRANCH   3   4
ATOM      4  C   UNL     1      17.613  23.540   7.680  1.00  0.00     0.000 C 
BRANCH   4   5
ATOM      5  C   UNL     1      17.220  25.012   7.905  1.00  0.00     0.006 C 
BRANCH   5   6
ATOM      6  C   UNL     1      17.756  25.607   9.219  1.00  0.00     0.053 C 
BRANCH   6   7
ATOM      7  C   UNL     1      17.961  27.090   9.142  1.00  0.00     0.041 C 
ATOM      8  O   UNL     1      16.972  27.867   9.090  1.00  0.00    -0.550 OA
ATOM      9  O   UNL     1      19.247  27.616   9.161  1.00  0.00    -0.550 OA
ENDBRANCH   6   7
ENDBRANCH   5   6
ENDBRANCH   4   5
ENDBRANCH   3   4
ENDBRANCH   2   3
ENDBRANCH   1   2
BRANCH   1  10
ATOM     10  C   UNL     1      21.091  21.837   5.762  1.00  0.00     0.000 C 
BRANCH  10  11
ATOM     11  C   UNL     1      20.952  21.708   7.286  1.00  0.00    -0.000 C 
BRANCH  11  12
ATOM     12  C   UNL     1      21.383  23.002   7.989  1.00  0.00    -0.000 C 
BRANCH  12  13
ATOM     13  C   UNL     1      21.515  22.789   9.504  1.00  0.00    -0.000 C 
BRANCH  13  14
ATOM     14  C   UNL     1      20.207  23.116  10.255  1.00  0.00    -0.000 C 
BRANCH  14  15
ATOM     15  C   UNL     1      19.248  21.919  10.374  1.00  0.00    -0.003 C 
ATOM     16  C   UNL     1      18.333  22.004  11.594  1.00  0.00     0.004 C 
ENDBRANCH  14  15
ENDBRANCH  13  14
ENDBRANCH  12  13
ENDBRANCH  11  12
ENDBRANCH  10  11
ENDBRANCH   1  10
TORSDOF 12
ENDMDL
MODEL 2
REMARK VINA RESULT:    -5.243      3.370      5.960
REMARK INTER + INTRA:         -10.206
REMARK INTER:                  -8.461
REMARK INTRA:                  -1.745
REMARK UNBOUND:                -1.285
REMARK SMILES CCCCCCCCCCCCCC(=O)[O-]
REMARK SMILES IDX 8 1 9 2 10 3 11 4 12 5 13 6 14 7 15 8 16 9 7 10 6 11 5 12
REMARK SMILES IDX 4 13 3 14 2 15 1 16
REMARK H PARENT
REMARK Flexibility Score: inf
ROOT
ATOM      1  C   UNL     1      19.505  21.875   9.662  1.00  0.00     0.000 C 
ENDROOT
BRANCH   1   2
ATOM      2  C   UNL     1      20.641  22.902   9.818  1.00  0.00     0.000 C 
BRANCH   2   3
ATOM      3  C   UNL     1      21.131  23.445   8.466  1.00  0.00     0.000 C 
BRANCH   3   4
ATOM      4  C   UNL     1      20.412  22.794   7.272  1.00  0.00     0.000 C 
BRANCH   4   5
ATOM      5  C   UNL     1      21.358  21.981   6.369  1.00  0.00     0.006 C 
BRANCH   5   6
ATOM      6  C   UNL     1      21.451  20.491   6.743  1.00  0.00     0.053 C 
BRANCH   6   7
ATOM      7  C   UNL     1      22.786  20.120   7.315  1.00  0.00     0.041 C 
ATOM      8  O   UNL     1      23.549  19.336   6.692  1.00  0.00    -0.550 OA
ATOM      9  O   UNL     1      23.202  20.667   8.523  1.00  0.00    -0.550 OA
ENDBRANCH   6   7
ENDBRANCH   5   6
ENDBRANCH   4   5
ENDBRANCH   3   4
ENDBRANCH   2   3
ENDBRANCH   1   2
BRANCH   1  10
ATOM     10  C   UNL     1      18.467  21.968  10.790  1.00  0.00     0.000 C 
BRANCH  10  11
ATOM     11  C   UNL     1      17.343  22.970  10.480  1.00  0.00    -0.000 C 
BRANCH  11  12
ATOM     12  C   UNL     1      17.100  23.071   8.969  1.00  0.00    -0.000 C 
BRANCH  12  13
ATOM     13  C   UNL     1      17.204  24.527   8.490  1.00  0.00    -0.000 C 
BRANCH  13  14
ATOM     14  C   UNL     1      17.439  25.509   9.657  1.00  0.00    -0.000 C 
BRANCH  14  15
ATOM     15  C   UNL     1      18.865  26.083   9.702  1.00  0.00    -0.003 C 
ATOM     16  C   UNL     1      19.058  27.281   8.775  1.00  0.00     0.004 C 
ENDBRANCH  14  15
ENDBRANCH  13  14
ENDBRANCH  12  13
ENDBRANCH  11  12
ENDBRANCH  10  11
ENDBRANCH   1  10
TORSDOF 12
ENDMDL
MODEL 3
REMARK VINA RESULT:    -5.230      3.077      5.410
REMARK INTER + INTRA:         -10.184
REMARK INTER:                  -8.484
REMARK INTRA:                  -1.700
REMARK UNBOUND:                -1.285
REMARK SMILES CCCCCCCCCCCCCC(=O)[O-]
REMARK SMILES IDX 8 1 9 2 10 3 11 4 12 5 13 6 14 7 15 8 16 9 7 10 6 11 5 12
REMARK SMILES IDX 4 13 3 14 2 15 1 16
REMARK H PARENT
REMARK Flexibility Score: inf
ROOT
ATOM      1  C   UNL     1      20.230  22.907  10.496  1.00  0.00     0.000 C 
ENDROOT
BRANCH   1   2
ATOM      2  C   UNL     1      21.355  22.788   9.453  1.00  0.00     0.000 C 
BRANCH   2   3
ATOM      3  C   UNL     1      21.041  23.559   8.160  1.00  0.00     0.000 C 
BRANCH   3   4
ATOM      4  C   UNL     1      20.763  22.626   6.970  1.00  0.00     0.000 C 
BRANCH   4   5
ATOM      5  C   UNL     1      19.379  22.855   6.335  1.00  0.00     0.006 C 
BRANCH   5   6
ATOM      6  C   UNL     1      19.070  21.918   5.154  1.00  0.00     0.053 C 
BRANCH   6   7
ATOM      7  C   UNL     1      17.930  20.987   5.436  1.00  0.00     0.041 C 
ATOM      8  O   UNL     1      17.458  20.893   6.601  1.00  0.00    -0.550 OA
ATOM      9  O   UNL     1      17.366  20.245   4.406  1.00  0.00    -0.550 OA
ENDBRANCH   6   7
ENDBRANCH   5   6
ENDBRANCH   4   5
ENDBRANCH   3   4
ENDBRANCH   2   3
ENDBRANCH   1   2
BRANCH   1  10
ATOM     10  C   UNL     1      19.092  21.904  10.254  1.00  0.00     0.000 C 
BRANCH  10  11
ATOM     11  C   UNL     1      17.784  22.314  10.949  1.00  0.00    -0.000 C 
BRANCH  11  12
ATOM     12  C   UNL     1      17.425  23.770  10.629  1.00  0.00    -0.000 C 
BRANCH  12  13
ATOM     13  C   UNL     1      16.971  23.917   9.169  1.00  0.00    -0.000 C 
BRANCH  13  14
ATOM     14  C   UNL     1      17.608  25.143   8.480  1.00  0.00    -0.000 C 
BRANCH  14  15
ATOM     15  C   UNL     1      18.477  25.995   9.420  1.00  0.00    -0.003 C 
ATOM     16  C   UNL     1      19.040  27.244   8.745  1.00  0.00     0.004 C 
ENDBRANCH  14  15
ENDBRANCH  13  14
ENDBRANCH  12  13
ENDBRANCH  11  12
ENDBRANCH  10  11
ENDBRANCH   1  10
TORSDOF 12
ENDMDL
MODEL 4
REMARK VINA RESULT:    -5.167      1.132      3.502
REMARK INTER + INTRA:         -10.076
REMARK INTER:                  -8.029
REMARK INTRA:                  -2.047
REMARK UNBOUND:                -1.285
REMARK SMILES CCCCCCCCCCCCCC(=O)[O-]
REMARK SMILES IDX 8 1 9 2 10 3 11 4 12 5 13 6 14 7 15 8 16 9 7 10 6 11 5 12
REMARK SMILES IDX 4 13 3 14 2 15 1 16
REMARK H PARENT
REMARK Flexibility Score: inf
ROOT
ATOM      1  C   UNL     1      20.456  23.111  10.600  1.00  0.00     0.000 C 
ENDROOT
BRANCH   1   2
ATOM      2  C   UNL     1      19.264  22.148  10.457  1.00  0.00     0.000 C 
BRANCH   2   3
ATOM      3  C   UNL     1      17.914  22.882  10.442  1.00  0.00     0.000 C 
BRANCH   3   4
ATOM      4  C   UNL     1      17.268  22.902   9.047  1.00  0.00     0.000 C 
BRANCH   4   5
ATOM      5  C   UNL     1      17.065  24.326   8.497  1.00  0.00     0.006 C 
BRANCH   5   6
ATOM      6  C   UNL     1      18.374  25.049   8.135  1.00  0.00     0.053 C 
BRANCH   6   7
ATOM      7  C   UNL     1      18.608  26.274   8.966  1.00  0.00     0.041 C 
ATOM      8  O   UNL     1      19.023  26.170  10.151  1.00  0.00    -0.550 OA
ATOM      9  O   UNL     1      18.398  27.535   8.421  1.00  0.00    -0.550 OA
ENDBRANCH   6   7
ENDBRANCH   5   6
ENDBRANCH   4   5
ENDBRANCH   3   4
ENDBRANCH   2   3
ENDBRANCH   1   2
BRANCH   1  10
ATOM     10  C   UNL     1      21.490  22.940   9.476  1.00  0.00     0.000 C 
BRANCH  10  11
ATOM     11  C   UNL     1      21.000  22.008   8.358  1.00  0.00    -0.000 C 
BRANCH  11  12
ATOM     12  C   UNL     1      20.951  22.742   7.012  1.00  0.00    -0.000 C 
BRANCH  12  13
ATOM     13  C   UNL     1      20.251  21.890   5.943  1.00  0.00    -0.000 C 
BRANCH  13  14
ATOM     14  C   UNL     1      18.856  22.441   5.579  1.00  0.00    -0.000 C 
BRANCH  14  15
ATOM     15  C   UNL     1      17.728  21.405   5.718  1.00  0.00    -0.003 C 
ATOM     16  C   UNL     1      18.107  20.225   6.609  1.00  0.00     0.004 C 
ENDBRANCH  14  15
ENDBRANCH  13  14
ENDBRANCH  12  13
ENDBRANCH  11  12
ENDBRANCH  10  11
ENDBRANCH   1  10
TORSDOF 12
ENDMDL
MODEL 5
REMARK VINA RESULT:    -5.127      1.380      3.180
REMARK INTER + INTRA:         -10.008
REMARK INTER:                  -8.092
REMARK INTRA:                  -1.916
REMARK UNBOUND:                -1.285
REMARK SMILES CCCCCCCCCCCCCC(=O)[O-]
REMARK SMILES IDX 8 1 9 2 10 3 11 4 12 5 13 6 14 7 15 8 16 9 7 10 6 11 5 12
REMARK SMILES IDX 4 13 3 14 2 15 1 16
REMARK H PARENT
REMARK Flexibility Score: inf
ROOT
ATOM      1  C   UNL     1      20.704  21.260   7.369  1.00  0.00     0.000 C 
ENDROOT
BRANCH   1   2
ATOM      2  C   UNL     1      21.718  21.625   8.467  1.00  0.00     0.000 C 
BRANCH   2   3
ATOM      3  C   UNL     1      21.570  23.078   8.945  1.00  0.00     0.000 C 
BRANCH   3   4
ATOM      4  C   UNL     1      20.684  23.201  10.196  1.00  0.00     0.000 C 
BRANCH   4   5
ATOM      5  C   UNL     1      19.376  23.970   9.935  1.00  0.00     0.006 C 
BRANCH   5   6
ATOM      6  C   UNL     1      19.451  24.946   8.748  1.00  0.00     0.053 C 
BRANCH   6   7
ATOM      7  C   UNL     1      18.621  26.177   8.957  1.00  0.00     0.041 C 
ATOM      8  O   UNL     1      19.152  27.318   8.914  1.00  0.00    -0.550 OA
ATOM      9  O   UNL     1      17.252  26.065   9.167  1.00  0.00    -0.550 OA
ENDBRANCH   6   7
ENDBRANCH   5   6
ENDBRANCH   4   5
ENDBRANCH   3   4
ENDBRANCH   2   3
ENDBRANCH   1   2
BRANCH   1  10
ATOM     10  C   UNL     1      20.560  22.364   6.309  1.00  0.00     0.000 C 
BRANCH  10  11
ATOM     11  C   UNL     1      19.317  22.176   5.426  1.00  0.00    -0.000 C 
BRANCH  11  12
ATOM     12  C   UNL     1      18.085  22.827   6.067  1.00  0.00    -0.000 C 
BRANCH  12  13
ATOM     13  C   UNL     1      17.152  21.767   6.671  1.00  0.00    -0.000 C 
BRANCH  13  14
ATOM     14  C   UNL     1      17.096  21.848   8.211  1.00  0.00    -0.000 C 
BRANCH  14  15
ATOM     15  C   UNL     1      17.482  20.536   8.912  1.00  0.00    -0.003 C 
ATOM     16  C   UNL     1      17.727  20.707  10.410  1.00  0.00     0.004 C 
ENDBRANCH  14  15
ENDBRANCH  13  14
ENDBRANCH  12  13
ENDBRANCH  11  12
ENDBRANCH  10  11
ENDBRANCH   1  10
TORSDOF 12
ENDMDL
MODEL 6
REMARK VINA RESULT:    -5.116      2.631      4.852
REMARK INTER + INTRA:          -9.990
REMARK INTER:                  -8.109
REMARK INTRA:                  -1.881
REMARK UNBOUND:                -1.285
REMARK SMILES CCCCCCCCCCCCCC(=O)[O-]
REMARK SMILES IDX 8 1 9 2 10 3 11 4 12 5 13 6 14 7 15 8 16 9 7 10 6 11 5 12
REMARK SMILES IDX 4 13 3 14 2 15 1 16
REMARK H PARENT
REMARK Flexibility Score: inf
ROOT
ATOM      1  C   UNL     1      16.943  21.369   8.974  1.00  0.00     0.000 C 
ENDROOT
BRANCH   1   2
ATOM      2  C   UNL     1      17.237  21.446   7.466  1.00  0.00     0.000 C 
BRANCH   2   3
ATOM      3  C   UNL     1      17.425  22.891   6.976  1.00  0.00     0.000 C 
BRANCH   3   4
ATOM      4  C   UNL     1      18.779  23.107   6.281  1.00  0.00     0.000 C 
BRANCH   4   5
ATOM      5  C   UNL     1      19.943  23.294   7.272  1.00  0.00     0.006 C 
BRANCH   5   6
ATOM      6  C   UNL     1      21.040  22.221   7.156  1.00  0.00     0.053 C 
BRANCH   6   7
ATOM      7  C   UNL     1      21.833  22.067   8.418  1.00  0.00     0.041 C 
ATOM      8  O   UNL     1      22.723  21.179   8.505  1.00  0.00    -0.550 OA
ATOM      9  O   UNL     1      21.613  22.925   9.489  1.00  0.00    -0.550 OA
ENDBRANCH   6   7
ENDBRANCH   5   6
ENDBRANCH   4   5
ENDBRANCH   3   4
ENDBRANCH   2   3
ENDBRANCH   1   2
BRANCH   1  10
ATOM     10  C   UNL     1      18.221  21.268   9.820  1.00  0.00     0.000 C 
BRANCH  10  11
ATOM     11  C   UNL     1      18.376  22.441  10.800  1.00  0.00    -0.000 C 
BRANCH  11  12
ATOM     12  C   UNL     1      17.016  23.073  11.121  1.00  0.00    -0.000 C 
BRANCH  12  13
ATOM     13  C   UNL     1      16.977  24.547  10.690  1.00  0.00    -0.000 C 
BRANCH  13  14
ATOM     14  C   UNL     1      18.278  24.983   9.984  1.00  0.00    -0.000 C 
BRANCH  14  15
ATOM     15  C   UNL     1      18.065  26.069   8.916  1.00  0.00    -0.003 C 
ATOM     16  C   UNL     1      18.992  27.269   9.090  1.00  0.00     0.004 C 
ENDBRANCH  14  15
ENDBRANCH  13  14
ENDBRANCH  12  13
ENDBRANCH  11  12
ENDBRANCH  10  11
ENDBRANCH   1  10
TORSDOF 12
ENDMDL
MODEL 7
REMARK VINA RESULT:    -5.074      3.021      5.070
REMARK INTER + INTRA:          -9.918
REMARK INTER:                  -8.074
REMARK INTRA:                  -1.845
REMARK UNBOUND:                -1.285
REMARK SMILES CCCCCCCCCCCCCC(=O)[O-]
REMARK SMILES IDX 8 1 9 2 10 3 11 4 12 5 13 6 14 7 15 8 16 9 7 10 6 11 5 12
REMARK SMILES IDX 4 13 3 14 2 15 1 16
REMARK H PARENT
REMARK Flexibility Score: inf
ROOT
ATOM      1  C   UNL     1      21.431  22.838   9.484  1.00  0.00     0.000 C 
ENDROOT
BRANCH   1   2
ATOM      2  C   UNL     1      21.231  23.554   8.137  1.00  0.00     0.000 C 
BRANCH   2   3
ATOM      3  C   UNL     1      20.636  22.629   7.063  1.00  0.00     0.000 C 
BRANCH   3   4
ATOM      4  C   UNL     1      19.267  23.115   6.558  1.00  0.00     0.000 C 
BRANCH   4   5
ATOM      5  C   UNL     1      18.560  22.090   5.652  1.00  0.00     0.006 C 
BRANCH   5   6
ATOM      6  C   UNL     1      17.302  21.465   6.281  1.00  0.00     0.053 C 
BRANCH   6   7
ATOM      7  C   UNL     1      17.624  20.403   7.288  1.00  0.00     0.041 C 
ATOM      8  O   UNL     1      16.883  20.233   8.292  1.00  0.00    -0.550 OA
ATOM      9  O   UNL     1      18.727  19.578   7.101  1.00  0.00    -0.550 OA
ENDBRANCH   6   7
ENDBRANCH   5   6
ENDBRANCH   4   5
ENDBRANCH   3   4
ENDBRANCH   2   3
ENDBRANCH   1   2
BRANCH   1  10
ATOM     10  C   UNL     1      20.285  23.106  10.471  1.00  0.00     0.000 C 
BRANCH  10  11
ATOM     11  C   UNL     1      19.060  22.217  10.210  1.00  0.00    -0.000 C 
BRANCH  11  12
ATOM     12  C   UNL     1      17.772  22.903  10.683  1.00  0.00    -0.000 C 
BRANCH  12  13
ATOM     13  C   UNL     1      17.088  23.650   9.528  1.00  0.00    -0.000 C 
BRANCH  13  14
ATOM     14  C   UNL     1      17.226  25.182   9.661  1.00  0.00    -0.000 C 
BRANCH  14  15
ATOM     15  C   UNL     1      18.038  25.829   8.527  1.00  0.00    -0.003 C 
ATOM     16  C   UNL     1      18.964  26.942   9.013  1.00  0.00     0.004 C 
ENDBRANCH  14  15
ENDBRANCH  13  14
ENDBRANCH  12  13
ENDBRANCH  11  12
ENDBRANCH  10  11
ENDBRANCH   1  10
TORSDOF 12
ENDMDL
MODEL 8
REMARK VINA RESULT:    -5.055      2.939      4.727
REMARK INTER + INTRA:          -9.886
REMARK INTER:                  -7.896
REMARK INTRA:                  -1.990
REMARK UNBOUND:                -1.285
REMARK SMILES CCCCCCCCCCCCCC(=O)[O-]
REMARK SMILES IDX 8 1 9 2 10 3 11 4 12 5 13 6 14 7 15 8 16 9 7 10 6 11 5 12
REMARK SMILES IDX 4 13 3 14 2 15 1 16
REMARK H PARENT
REMARK Flexibility Score: inf
ROOT
ATOM      1  C   UNL     1      16.875  24.075   8.422  1.00  0.00     0.000 C 
ENDROOT
BRANCH   1   2
ATOM      2  C   UNL     1      17.102  22.922   7.428  1.00  0.00     0.000 C 
BRANCH   2   3
ATOM      3  C   UNL     1      17.709  23.402   6.100  1.00  0.00     0.000 C 
BRANCH   3   4
ATOM      4  C   UNL     1      18.872  22.513   5.628  1.00  0.00     0.000 C 
BRANCH   4   5
ATOM      5  C   UNL     1      20.059  22.501   6.609  1.00  0.00     0.006 C 
BRANCH   5   6
ATOM      6  C   UNL     1      20.370  21.113   7.194  1.00  0.00     0.053 C 
BRANCH   6   7
ATOM      7  C   UNL     1      21.833  20.904   7.445  1.00  0.00     0.041 C 
ATOM      8  O   UNL     1      22.414  21.524   8.375  1.00  0.00    -0.550 OA
ATOM      9  O   UNL     1      22.550  20.001   6.669  1.00  0.00    -0.550 OA
ENDBRANCH   6   7
ENDBRANCH   5   6
ENDBRANCH   4   5
ENDBRANCH   3   4
ENDBRANCH   2   3
ENDBRANCH   1   2
BRANCH   1  10
ATOM     10  C   UNL     1      17.612  25.360   8.013  1.00  0.00     0.000 C 
BRANCH  10  11
ATOM     11  C   UNL     1      18.927  25.558   8.783  1.00  0.00    -0.000 C 
BRANCH  11  12
ATOM     12  C   UNL     1      18.937  24.731  10.075  1.00  0.00    -0.000 C 
BRANCH  12  13
ATOM     13  C   UNL     1      20.158  23.800  10.125  1.00  0.00    -0.000 C 
BRANCH  13  14
ATOM     14  C   UNL     1      19.766  22.339  10.432  1.00  0.00    -0.000 C 
BRANCH  14  15
ATOM     15  C   UNL     1      18.380  22.197  11.084  1.00  0.00    -0.003 C 
ATOM     16  C   UNL     1      17.612  20.972  10.594  1.00  0.00     0.004 C 
ENDBRANCH  14  15
ENDBRANCH  13  14
ENDBRANCH  12  13
ENDBRANCH  11  12
ENDBRANCH  10  11
ENDBRANCH   1  10
TORSDOF 12
ENDMDL
MODEL 9
REMARK VINA RESULT:    -5.052      2.289      4.352
REMARK INTER + INTRA:          -9.881
REMARK INTER:                  -8.153
REMARK INTRA:                  -1.728
REMARK UNBOUND:                -1.285
REMARK SMILES CCCCCCCCCCCCCC(=O)[O-]
REMARK SMILES IDX 8 1 9 2 10 3 11 4 12 5 13 6 14 7 15 8 16 9 7 10 6 11 5 12
REMARK SMILES IDX 4 13 3 14 2 15 1 16
REMARK H PARENT
REMARK Flexibility Score: inf
ROOT
ATOM      1  C   UNL     1      20.125  21.006   5.866  1.00  0.00     0.000 C 
ENDROOT
BRANCH   1   2
ATOM      2  C   UNL     1      21.299  21.995   5.976  1.00  0.00     0.000 C 
BRANCH   2   3
ATOM      3  C   UNL     1      21.286  22.777   7.299  1.00  0.00     0.000 C 
BRANCH   3   4
ATOM      4  C   UNL     1      21.297  21.854   8.530  1.00  0.00     0.000 C 
BRANCH   4   5
ATOM      5  C   UNL     1      20.413  22.371   9.680  1.00  0.00     0.006 C 
BRANCH   5   6
ATOM      6  C   UNL     1      18.969  21.841   9.643  1.00  0.00     0.053 C 
BRANCH   6   7
ATOM      7  C   UNL     1      18.211  22.139  10.901  1.00  0.00     0.041 C 
ATOM      8  O   UNL     1      17.112  22.753  10.852  1.00  0.00    -0.550 OA
ATOM      9  O   UNL     1      18.702  21.709  12.128  1.00  0.00    -0.550 OA
ENDBRANCH   6   7
ENDBRANCH   5   6
ENDBRANCH   4   5
ENDBRANCH   3   4
ENDBRANCH   2   3
ENDBRANCH   1   2
BRANCH   1  10
ATOM     10  C   UNL     1      18.935  21.587   5.088  1.00  0.00     0.000 C 
BRANCH  10  11
ATOM     11  C   UNL     1      17.763  21.974   6.002  1.00  0.00    -0.000 C 
BRANCH  11  12
ATOM     12  C   UNL     1      17.734  23.487   6.248  1.00  0.00    -0.000 C 
BRANCH  12  13
ATOM     13  C   UNL     1      16.900  23.828   7.493  1.00  0.00    -0.000 C 
BRANCH  13  14
ATOM     14  C   UNL     1      17.198  25.247   8.024  1.00  0.00    -0.000 C 
BRANCH  14  15
ATOM     15  C   UNL     1      18.633  25.420   8.548  1.00  0.00    -0.003 C 
ATOM     16  C   UNL     1      19.018  26.882   8.765  1.00  0.00     0.004 C 
ENDBRANCH  14  15
ENDBRANCH  13  14
ENDBRANCH  12  13
ENDBRANCH  11  12
ENDBRANCH  10  11
ENDBRANCH   1  10
TORSDOF 12
ENDMDL
