MODEL 1
REMARK VINA RESULT:    -3.109      0.000      0.000
REMARK INTER + INTRA:          -3.892
REMARK INTER:                  -3.745
REMARK INTRA:                  -0.147
REMARK UNBOUND:                -0.147
REMARK SMILES CC[C@H](C)[C@@H]([NH3+])C(=O)[O-]
REMARK SMILES IDX 3 1 4 2 5 3 6 4 7 8 8 9 9 10 2 11 1 12
REMARK H PARENT 6 5 6 6 6 7
REMARK Flexibility Score: inf
ROOT
ATOM      1  C   UNL     1     -23.198   5.862 -15.754  1.00  0.00     0.050 C 
ATOM      2  C   UNL     1     -21.840   6.433 -15.297  1.00  0.00     0.014 C 
ENDROOT
BRANCH   1   3
ATOM      3  C   UNL     1     -24.210   5.786 -14.566  1.00  0.00     0.230 C 
BRANCH   3   4
ATOM      4  N   UNL     1     -23.692   6.432 -13.350  1.00  0.00    -0.350 N 
ATOM      5  H   UNL     1     -22.676   6.215 -13.231  1.00  0.00     0.345 HD
ATOM      6  H   UNL     1     -23.829   7.468 -13.393  1.00  0.00     0.345 HD
ATOM      7  H   UNL     1     -24.183   6.059 -12.505  1.00  0.00     0.345 HD
ENDBRANCH   3   4
BRANCH   3   8
ATOM      8  C   UNL     1     -25.529   6.419 -14.939  1.00  0.00     0.099 C 
ATOM      9  O   UNL     1     -25.744   7.637 -14.696  1.00  0.00    -0.544 OA
ATOM     10  O   UNL     1     -26.518   5.658 -15.550  1.00  0.00    -0.544 OA
ENDBRANCH   3   8
ENDBRANCH   1   3
BRANCH   1  11
ATOM     11  C   UNL     1     -23.001   4.462 -16.398  1.00  0.00     0.006 C 
ATOM     12  C   UNL     1     -23.575   3.322 -15.554  1.00  0.00     0.004 C 
ENDBRANCH   1  11
TORSDOF 4
ENDMDL
MODEL 2
REMARK VINA RESULT:    -3.109      1.747      2.769
REMARK INTER + INTRA:          -3.892
REMARK INTER:                  -4.066
REMARK INTRA:                   0.174
REMARK UNBOUND:                -0.147
REMARK SMILES CC[C@H](C)[C@@H]([NH3+])C(=O)[O-]
REMARK SMILES IDX 3 1 4 2 5 3 6 4 7 8 8 9 9 10 2 11 1 12
REMARK H PARENT 6 5 6 6 6 7
REMARK Flexibility Score: inf
ROOT
ATOM      1  C   UNL     1     -22.986   7.039 -14.514  1.00  0.00     0.050 C 
ATOM      2  C   UNL     1     -22.015   6.445 -15.555  1.00  0.00     0.014 C 
ENDROOT
BRANCH   1   3
ATOM      3  C   UNL     1     -24.006   5.967 -14.012  1.00  0.00     0.230 C 
BRANCH   3   4
ATOM      4  N   UNL     1     -24.814   6.454 -12.882  1.00  0.00    -0.350 N 
ATOM      5  H   UNL     1     -24.550   5.949 -12.005  1.00  0.00     0.345 HD
ATOM      6  H   UNL     1     -24.684   7.483 -12.750  1.00  0.00     0.345 HD
ATOM      7  H   UNL     1     -25.827   6.258 -13.052  1.00  0.00     0.345 HD
ENDBRANCH   3   4
BRANCH   3   8
ATOM      8  C   UNL     1     -24.926   5.531 -15.127  1.00  0.00     0.099 C 
ATOM      9  O   UNL     1     -26.040   6.097 -15.294  1.00  0.00    -0.544 OA
ATOM     10  O   UNL     1     -24.549   4.498 -15.975  1.00  0.00    -0.544 OA
ENDBRANCH   3   8
ENDBRANCH   1   3
BRANCH   1  11
ATOM     11  C   UNL     1     -23.729   8.266 -15.113  1.00  0.00     0.006 C 
ATOM     12  C   UNL     1     -22.798   9.437 -15.436  1.00  0.00     0.004 C 
ENDBRANCH   1  11
TORSDOF 4
ENDMDL
MODEL 3
REMARK VINA RESULT:    -3.081      2.568      3.682
REMARK INTER + INTRA:          -3.858
REMARK INTER:                  -3.811
REMARK INTRA:                  -0.047
REMARK UNBOUND:                -0.147
REMARK SMILES CC[C@H](C)[C@@H]([NH3+])C(=O)[O-]
REMARK SMILES IDX 3 1 4 2 5 3 6 4 7 8 8 9 9 10 2 11 1 12
REMARK H PARENT 6 5 6 6 6 7
REMARK Flexibility Score: inf
ROOT
ATOM      1  C   UNL     1     -23.338   5.952 -15.499  1.00  0.00     0.050 C 
ATOM      2  C   UNL     1     -24.104   6.018 -14.162  1.00  0.00     0.014 C 
ENDROOT
BRANCH   1   3
ATOM      3  C   UNL     1     -23.221   4.482 -16.014  1.00  0.00     0.230 C 
BRANCH   3   4
ATOM      4  N   UNL     1     -24.330   3.636 -15.545  1.00  0.00    -0.350 N 
ATOM      5  H   UNL     1     -24.052   2.629 -15.570  1.00  0.00     0.345 HD
ATOM      6  H   UNL     1     -24.612   3.901 -14.573  1.00  0.00     0.345 HD
ATOM      7  H   UNL     1     -25.156   3.740 -16.178  1.00  0.00     0.345 HD
ENDBRANCH   3   4
BRANCH   3   8
ATOM      8  C   UNL     1     -23.169   4.440 -17.522  1.00  0.00     0.099 C 
ATOM      9  O   UNL     1     -22.067   4.527 -18.126  1.00  0.00    -0.544 OA
ATOM     10  O   UNL     1     -24.343   4.308 -18.254  1.00  0.00    -0.544 OA
ENDBRANCH   3   8
ENDBRANCH   1   3
BRANCH   1  11
ATOM     11  C   UNL     1     -21.933   6.595 -15.344  1.00  0.00     0.006 C 
ATOM     12  C   UNL     1     -21.959   8.125 -15.384  1.00  0.00     0.004 C 
ENDBRANCH   1  11
TORSDOF 4
ENDMDL
MODEL 4
REMARK VINA RESULT:    -3.013      2.679      3.698
REMARK INTER + INTRA:          -3.777
REMARK INTER:                  -3.628
REMARK INTRA:                  -0.149
REMARK UNBOUND:                -0.147
REMARK SMILES CC[C@H](C)[C@@H]([NH3+])C(=O)[O-]
REMARK SMILES IDX 3 1 4 2 5 3 6 4 7 8 8 9 9 10 2 11 1 12
REMARK H PARENT 6 5 6 6 6 7
REMARK Flexibility Score: inf
ROOT
ATOM      1  C   UNL     1     -24.977   5.838 -15.570  1.00  0.00     0.050 C 
ATOM      2  C   UNL     1     -26.293   5.089 -15.862  1.00  0.00     0.014 C 
ENDROOT
BRANCH   1   3
ATOM      3  C   UNL     1     -23.792   4.842 -15.359  1.00  0.00     0.230 C 
BRANCH   3   4
ATOM      4  N   UNL     1     -24.193   3.444 -15.583  1.00  0.00    -0.350 N 
ATOM      5  H   UNL     1     -23.683   3.050 -16.406  1.00  0.00     0.345 HD
ATOM      6  H   UNL     1     -23.998   2.862 -14.736  1.00  0.00     0.345 HD
ATOM      7  H   UNL     1     -25.214   3.391 -15.804  1.00  0.00     0.345 HD
ENDBRANCH   3   4
BRANCH   3   8
ATOM      8  C   UNL     1     -22.635   5.177 -16.269  1.00  0.00     0.099 C 
ATOM      9  O   UNL     1     -21.776   6.032 -15.921  1.00  0.00    -0.544 OA
ATOM     10  O   UNL     1     -22.513   4.545 -17.500  1.00  0.00    -0.544 OA
ENDBRANCH   3   8
ENDBRANCH   1   3
BRANCH   1  11
ATOM     11  C   UNL     1     -25.148   6.759 -14.330  1.00  0.00     0.006 C 
ATOM     12  C   UNL     1     -24.423   6.239 -13.086  1.00  0.00     0.004 C 
ENDBRANCH   1  11
TORSDOF 4
ENDMDL
MODEL 5
REMARK VINA RESULT:    -2.931      1.649      2.524
REMARK INTER + INTRA:          -3.678
REMARK INTER:                  -3.611
REMARK INTRA:                  -0.066
REMARK UNBOUND:                -0.147
REMARK SMILES CC[C@H](C)[C@@H]([NH3+])C(=O)[O-]
REMARK SMILES IDX 3 1 4 2 5 3 6 4 7 8 8 9 9 10 2 11 1 12
REMARK H PARENT 6 5 6 6 6 7
REMARK Flexibility Score: inf
ROOT
ATOM      1  C   UNL     1     -23.407   4.933 -15.249  1.00  0.00     0.050 C 
ATOM      2  C   UNL     1     -23.598   3.442 -15.596  1.00  0.00     0.014 C 
ENDROOT
BRANCH   1   3
ATOM      3  C   UNL     1     -24.722   5.743 -15.484  1.00  0.00     0.230 C 
BRANCH   3   4
ATOM      4  N   UNL     1     -25.892   4.868 -15.664  1.00  0.00    -0.350 N 
ATOM      5  H   UNL     1     -26.754   5.338 -15.304  1.00  0.00     0.345 HD
ATOM      6  H   UNL     1     -26.018   4.621 -16.672  1.00  0.00     0.345 HD
ATOM      7  H   UNL     1     -25.773   3.988 -15.111  1.00  0.00     0.345 HD
ENDBRANCH   3   4
BRANCH   3   8
ATOM      8  C   UNL     1     -24.985   6.692 -14.340  1.00  0.00     0.099 C 
ATOM      9  O   UNL     1     -24.639   6.388 -13.166  1.00  0.00    -0.544 OA
ATOM     10  O   UNL     1     -25.615   7.908 -14.575  1.00  0.00    -0.544 OA
ENDBRANCH   3   8
ENDBRANCH   1   3
BRANCH   1  11
ATOM     11  C   UNL     1     -22.237   5.531 -16.078  1.00  0.00     0.006 C 
ATOM     12  C   UNL     1     -21.633   6.790 -15.449  1.00  0.00     0.004 C 
ENDBRANCH   1  11
TORSDOF 4
ENDMDL
MODEL 6
REMARK VINA RESULT:    -2.881      2.346      3.304
REMARK INTER + INTRA:          -3.618
REMARK INTER:                  -3.549
REMARK INTRA:                  -0.069
REMARK UNBOUND:                -0.147
REMARK SMILES CC[C@H](C)[C@@H]([NH3+])C(=O)[O-]
REMARK SMILES IDX 3 1 4 2 5 3 6 4 7 8 8 9 9 10 2 11 1 12
REMARK H PARENT 6 5 6 6 6 7
REMARK Flexibility Score: inf
ROOT
ATOM      1  C   UNL     1     -24.629   5.700 -14.493  1.00  0.00     0.050 C 
ATOM      2  C   UNL     1     -24.387   6.447 -13.165  1.00  0.00     0.014 C 
ENDROOT
BRANCH   1   3
ATOM      3  C   UNL     1     -23.400   5.830 -15.449  1.00  0.00     0.230 C 
BRANCH   3   4
ATOM      4  N   UNL     1     -22.178   6.231 -14.734  1.00  0.00    -0.350 N 
ATOM      5  H   UNL     1     -21.336   5.819 -15.197  1.00  0.00     0.345 HD
ATOM      6  H   UNL     1     -22.090   7.273 -14.707  1.00  0.00     0.345 HD
ATOM      7  H   UNL     1     -22.196   5.866 -13.754  1.00  0.00     0.345 HD
ENDBRANCH   3   4
BRANCH   3   8
ATOM      8  C   UNL     1     -23.143   4.534 -16.180  1.00  0.00     0.099 C 
ATOM      9  O   UNL     1     -22.675   4.543 -17.350  1.00  0.00    -0.544 OA
ATOM     10  O   UNL     1     -23.427   3.321 -15.564  1.00  0.00    -0.544 OA
ENDBRANCH   3   8
ENDBRANCH   1   3
BRANCH   1  11
ATOM     11  C   UNL     1     -25.918   6.229 -15.180  1.00  0.00     0.006 C 
ATOM     12  C   UNL     1     -26.617   5.178 -16.046  1.00  0.00     0.004 C 
ENDBRANCH   1  11
TORSDOF 4
ENDMDL
MODEL 7
REMARK VINA RESULT:    -2.816      2.532      3.519
REMARK INTER + INTRA:          -3.540
REMARK INTER:                  -3.718
REMARK INTRA:                   0.178
REMARK UNBOUND:                -0.147
REMARK SMILES CC[C@H](C)[C@@H]([NH3+])C(=O)[O-]
REMARK SMILES IDX 3 1 4 2 5 3 6 4 7 8 8 9 9 10 2 11 1 12
REMARK H PARENT 6 5 6 6 6 7
REMARK Flexibility Score: inf
ROOT
ATOM      1  C   UNL     1     -23.288   5.366 -15.010  1.00  0.00     0.050 C 
ATOM      2  C   UNL     1     -22.334   6.495 -15.450  1.00  0.00     0.014 C 
ENDROOT
BRANCH   1   3
ATOM      3  C   UNL     1     -23.075   4.077 -15.867  1.00  0.00     0.230 C 
BRANCH   3   4
ATOM      4  N   UNL     1     -23.942   2.970 -15.433  1.00  0.00    -0.350 N 
ATOM      5  H   UNL     1     -23.478   2.424 -14.671  1.00  0.00     0.345 HD
ATOM      6  H   UNL     1     -24.864   3.332 -15.097  1.00  0.00     0.345 HD
ATOM      7  H   UNL     1     -24.106   2.307 -16.225  1.00  0.00     0.345 HD
ENDBRANCH   3   4
BRANCH   3   8
ATOM      8  C   UNL     1     -23.320   4.354 -17.331  1.00  0.00     0.099 C 
ATOM      9  O   UNL     1     -24.490   4.327 -17.798  1.00  0.00    -0.544 OA
ATOM     10  O   UNL     1     -22.252   4.636 -18.173  1.00  0.00    -0.544 OA
ENDBRANCH   3   8
ENDBRANCH   1   3
BRANCH   1  11
ATOM     11  C   UNL     1     -24.763   5.846 -15.097  1.00  0.00     0.006 C 
ATOM     12  C   UNL     1     -25.023   7.145 -14.330  1.00  0.00     0.004 C 
ENDBRANCH   1  11
TORSDOF 4
ENDMDL
MODEL 8
REMARK VINA RESULT:    -2.547      2.041      2.899
REMARK INTER + INTRA:          -3.215
REMARK INTER:                  -3.173
REMARK INTRA:                  -0.042
REMARK UNBOUND:                -0.147
REMARK SMILES CC[C@H](C)[C@@H]([NH3+])C(=O)[O-]
REMARK SMILES IDX 3 1 4 2 5 3 6 4 7 8 8 9 9 10 2 11 1 12
REMARK H PARENT 6 5 6 6 6 7
REMARK Flexibility Score: inf
ROOT
ATOM      1  C   UNL     1     -24.152   4.999 -15.794  1.00  0.00     0.050 C 
ATOM      2  C   UNL     1     -23.587   3.702 -15.181  1.00  0.00     0.014 C 
ENDROOT
BRANCH   1   3
ATOM      3  C   UNL     1     -24.038   6.196 -14.795  1.00  0.00     0.230 C 
BRANCH   3   4
ATOM      4  N   UNL     1     -23.906   5.746 -13.400  1.00  0.00    -0.350 N 
ATOM      5  H   UNL     1     -22.933   5.407 -13.220  1.00  0.00     0.345 HD
ATOM      6  H   UNL     1     -24.138   6.521 -12.737  1.00  0.00     0.345 HD
ATOM      7  H   UNL     1     -24.547   4.940 -13.218  1.00  0.00     0.345 HD
ENDBRANCH   3   4
BRANCH   3   8
ATOM      8  C   UNL     1     -22.865   7.080 -15.143  1.00  0.00     0.099 C 
ATOM      9  O   UNL     1     -22.994   8.334 -15.161  1.00  0.00    -0.544 OA
ATOM     10  O   UNL     1     -21.634   6.514 -15.450  1.00  0.00    -0.544 OA
ENDBRANCH   3   8
ENDBRANCH   1   3
BRANCH   1  11
ATOM     11  C   UNL     1     -25.628   4.788 -16.231  1.00  0.00     0.006 C 
ATOM     12  C   UNL     1     -26.597   5.786 -15.592  1.00  0.00     0.004 C 
ENDBRANCH   1  11
TORSDOF 4
ENDMDL
MODEL 9
REMARK VINA RESULT:    -0.219      7.292      8.227
REMARK INTER + INTRA:          -0.411
REMARK INTER:                  -1.391
REMARK INTRA:                   0.980
REMARK UNBOUND:                -0.147
REMARK SMILES CC[C@H](C)[C@@H]([NH3+])C(=O)[O-]
REMARK SMILES IDX 3 1 4 2 5 3 6 4 7 8 8 9 9 10 2 11 1 12
REMARK H PARENT 6 5 6 6 6 7
REMARK Flexibility Score: inf
ROOT
ATOM      1  C   UNL     1     -30.280  10.258 -14.888  1.00  0.00     0.050 C 
ATOM      2  C   UNL     1     -28.880   9.898 -14.351  1.00  0.00     0.014 C 
ENDROOT
BRANCH   1   3
ATOM      3  C   UNL     1     -31.010  11.264 -13.941  1.00  0.00     0.230 C 
BRANCH   3   4
ATOM      4  N   UNL     1     -32.140  10.642 -13.233  1.00  0.00    -0.350 N 
ATOM      5  H   UNL     1     -32.721  11.376 -12.765  1.00  0.00     0.345 HD
ATOM      6  H   UNL     1     -32.733  10.090 -13.894  1.00  0.00     0.345 HD
ATOM      7  H   UNL     1     -31.789  10.007 -12.480  1.00  0.00     0.345 HD
ENDBRANCH   3   4
BRANCH   3   8
ATOM      8  C   UNL     1     -30.052  11.848 -12.930  1.00  0.00     0.099 C 
ATOM      9  O   UNL     1     -28.868  12.125 -13.259  1.00  0.00    -0.544 OA
ATOM     10  O   UNL     1     -30.474  12.079 -11.627  1.00  0.00    -0.544 OA
ENDBRANCH   3   8
ENDBRANCH   1   3
BRANCH   1  11
ATOM     11  C   UNL     1     -31.128   8.971 -15.081  1.00  0.00     0.006 C 
ATOM     12  C   UNL     1     -30.287   7.693 -15.121  1.00  0.00     0.004 C 
ENDBRANCH   1  11
TORSDOF 4
ENDMDL
