MODEL 1
REMARK VINA RESULT:    -3.999      0.000      0.000
REMARK INTER + INTRA:          -8.875
REMARK INTER:                  -7.505
REMARK INTRA:                  -1.370
REMARK UNBOUND:                -1.370
REMARK SMILES CCCCCCCCC=CCCCCCCCC(=O)[O-]
REMARK SMILES IDX 10 1 9 2 11 3 12 4 13 5 14 6 15 7 16 8 17 9 18 10 19 11
REMARK SMILES IDX 20 12 8 13 7 14 6 15 5 16 4 17 3 18 2 19 1 20
REMARK H PARENT
REMARK Flexibility Score: inf
ROOT
ATOM      1  C   UNL     1      59.794  26.002  50.007  1.00  0.00    -0.031 C 
ATOM      2  C   UNL     1      60.810  26.881  50.017  1.00  0.00    -0.031 C 
ENDROOT
BRANCH   1   3
ATOM      3  C   UNL     1      60.027  24.518  50.064  1.00  0.00     0.027 C 
BRANCH   3   4
ATOM      4  C   UNL     1      61.522  24.212  50.172  1.00  0.00     0.004 C 
BRANCH   4   5
ATOM      5  C   UNL     1      61.765  22.701  50.299  1.00  0.00     0.000 C 
BRANCH   5   6
ATOM      6  C   UNL     1      60.792  21.861  49.451  1.00  0.00     0.000 C 
BRANCH   6   7
ATOM      7  C   UNL     1      60.461  20.468  50.022  1.00  0.00     0.000 C 
BRANCH   7   8
ATOM      8  C   UNL     1      59.167  19.875  49.443  1.00  0.00     0.006 C 
BRANCH   8   9
ATOM      9  C   UNL     1      58.993  18.413  49.870  1.00  0.00     0.053 C 
BRANCH   9  10
ATOM     10  C   UNL     1      57.851  18.281  50.828  1.00  0.00     0.041 C 
ATOM     11  O   UNL     1      57.993  17.618  51.891  1.00  0.00    -0.550 OA
ATOM     12  O   UNL     1      56.621  18.855  50.532  1.00  0.00    -0.550 OA
ENDBRANCH   9  10
ENDBRANCH   8   9
ENDBRANCH   7   8
ENDBRANCH   6   7
ENDBRANCH   5   6
ENDBRANCH   4   5
ENDBRANCH   3   4
ENDBRANCH   1   3
BRANCH   2  13
ATOM     13  C   UNL     1      60.560  28.365  50.012  1.00  0.00     0.027 C 
BRANCH  13  14
ATOM     14  C   UNL     1      59.472  28.741  48.996  1.00  0.00     0.004 C 
BRANCH  14  15
ATOM     15  C   UNL     1      58.268  29.452  49.643  1.00  0.00     0.000 C 
BRANCH  15  16
ATOM     16  C   UNL     1      58.088  29.192  51.154  1.00  0.00     0.000 C 
BRANCH  16  17
ATOM     17  C   UNL     1      56.727  28.599  51.555  1.00  0.00    -0.000 C 
BRANCH  17  18
ATOM     18  C   UNL     1      55.917  28.096  50.349  1.00  0.00    -0.000 C 
BRANCH  18  19
ATOM     19  C   UNL     1      56.001  26.570  50.183  1.00  0.00    -0.003 C 
ATOM     20  C   UNL     1      54.830  25.997  49.383  1.00  0.00     0.004 C 
ENDBRANCH  18  19
ENDBRANCH  17  18
ENDBRANCH  16  17
ENDBRANCH  15  16
ENDBRANCH  14  15
ENDBRANCH  13  14
ENDBRANCH   2  13
TORSDOF 15
ENDMDL
MODEL 2
REMARK VINA RESULT:    -3.987     12.506     15.272
REMARK INTER + INTRA:          -8.854
REMARK INTER:                  -6.106
REMARK INTRA:                  -2.748
REMARK UNBOUND:                -1.370
REMARK SMILES CCCCCCCCC=CCCCCCCCC(=O)[O-]
REMARK SMILES IDX 10 1 9 2 11 3 12 4 13 5 14 6 15 7 16 8 17 9 18 10 19 11
REMARK SMILES IDX 20 12 8 13 7 14 6 15 5 16 4 17 3 18 2 19 1 20
REMARK H PARENT
REMARK Flexibility Score: inf
ROOT
ATOM      1  C   UNL     1      61.656  29.147  60.871  1.00  0.00    -0.031 C 
ATOM      2  C   UNL     1      62.162  27.951  61.211  1.00  0.00    -0.031 C 
ENDROOT
BRANCH   1   3
ATOM      3  C   UNL     1      61.741  30.336  61.789  1.00  0.00     0.027 C 
BRANCH   3   4
ATOM      4  C   UNL     1      60.808  31.451  61.312  1.00  0.00     0.004 C 
BRANCH   4   5
ATOM      5  C   UNL     1      60.689  31.448  59.781  1.00  0.00     0.000 C 
BRANCH   5   6
ATOM      6  C   UNL     1      61.110  32.784  59.141  1.00  0.00     0.000 C 
BRANCH   6   7
ATOM      7  C   UNL     1      61.711  33.815  60.116  1.00  0.00     0.000 C 
BRANCH   7   8
ATOM      8  C   UNL     1      63.161  34.190  59.773  1.00  0.00     0.006 C 
BRANCH   8   9
ATOM      9  C   UNL     1      64.041  34.189  61.029  1.00  0.00     0.053 C 
BRANCH   9  10
ATOM     10  C   UNL     1      64.816  35.465  61.125  1.00  0.00     0.041 C 
ATOM     11  O   UNL     1      64.838  36.110  62.208  1.00  0.00    -0.550 OA
ATOM     12  O   UNL     1      65.483  35.962  60.013  1.00  0.00    -0.550 OA
ENDBRANCH   9  10
ENDBRANCH   8   9
ENDBRANCH   7   8
ENDBRANCH   6   7
ENDBRANCH   5   6
ENDBRANCH   4   5
ENDBRANCH   3   4
ENDBRANCH   1   3
BRANCH   2  13
ATOM     13  C   UNL     1      62.116  26.784  60.262  1.00  0.00     0.027 C 
BRANCH  13  14
ATOM     14  C   UNL     1      63.436  26.643  59.491  1.00  0.00     0.004 C 
BRANCH  14  15
ATOM     15  C   UNL     1      64.669  26.997  60.345  1.00  0.00     0.000 C 
BRANCH  15  16
ATOM     16  C   UNL     1      65.951  27.313  59.546  1.00  0.00     0.000 C 
BRANCH  16  17
ATOM     17  C   UNL     1      66.302  28.808  59.444  1.00  0.00    -0.000 C 
BRANCH  17  18
ATOM     18  C   UNL     1      65.482  29.679  60.409  1.00  0.00    -0.000 C 
BRANCH  18  19
ATOM     19  C   UNL     1      64.776  30.841  59.691  1.00  0.00    -0.003 C 
ATOM     20  C   UNL     1      64.096  30.407  58.392  1.00  0.00     0.004 C 
ENDBRANCH  18  19
ENDBRANCH  17  18
ENDBRANCH  16  17
ENDBRANCH  15  16
ENDBRANCH  14  15
ENDBRANCH  13  14
ENDBRANCH   2  13
TORSDOF 15
ENDMDL
MODEL 3
REMARK VINA RESULT:    -3.953      4.385      8.155
REMARK INTER + INTRA:          -8.789
REMARK INTER:                  -6.795
REMARK INTRA:                  -1.995
REMARK UNBOUND:                -1.370
REMARK SMILES CCCCCCCCC=CCCCCCCCC(=O)[O-]
REMARK SMILES IDX 10 1 9 2 11 3 12 4 13 5 14 6 15 7 16 8 17 9 18 10 19 11
REMARK SMILES IDX 20 12 8 13 7 14 6 15 5 16 4 17 3 18 2 19 1 20
REMARK H PARENT
REMARK Flexibility Score: inf
ROOT
ATOM      1  C   UNL     1      56.732  27.358  51.306  1.00  0.00    -0.031 C 
ATOM      2  C   UNL     1      57.056  28.254  50.359  1.00  0.00    -0.031 C 
ENDROOT
BRANCH   1   3
ATOM      3  C   UNL     1      56.080  26.046  50.968  1.00  0.00     0.027 C 
BRANCH   3   4
ATOM      4  C   UNL     1      55.359  26.135  49.622  1.00  0.00     0.004 C 
BRANCH   4   5
ATOM      5  C   UNL     1      53.902  25.665  49.748  1.00  0.00     0.000 C 
BRANCH   5   6
ATOM      6  C   UNL     1      52.885  26.814  49.618  1.00  0.00     0.000 C 
BRANCH   6   7
ATOM      7  C   UNL     1      53.483  28.231  49.722  1.00  0.00     0.000 C 
BRANCH   7   8
ATOM      8  C   UNL     1      53.226  28.891  51.086  1.00  0.00     0.006 C 
BRANCH   8   9
ATOM      9  C   UNL     1      53.558  30.387  51.045  1.00  0.00     0.053 C 
BRANCH   9  10
ATOM     10  C   UNL     1      54.210  30.813  52.323  1.00  0.00     0.041 C 
ATOM     11  O   UNL     1      55.048  30.058  52.886  1.00  0.00    -0.550 OA
ATOM     12  O   UNL     1      53.867  32.023  52.912  1.00  0.00    -0.550 OA
ENDBRANCH   9  10
ENDBRANCH   8   9
ENDBRANCH   7   8
ENDBRANCH   6   7
ENDBRANCH   5   6
ENDBRANCH   4   5
ENDBRANCH   3   4
ENDBRANCH   1   3
BRANCH   2  13
ATOM     13  C   UNL     1      57.755  29.541  50.707  1.00  0.00     0.027 C 
BRANCH  13  14
ATOM     14  C   UNL     1      59.234  29.499  50.296  1.00  0.00     0.004 C 
BRANCH  14  15
ATOM     15  C   UNL     1      59.519  28.461  49.194  1.00  0.00     0.000 C 
BRANCH  15  16
ATOM     16  C   UNL     1      60.570  27.391  49.558  1.00  0.00     0.000 C 
BRANCH  16  17
ATOM     17  C   UNL     1      59.996  26.006  49.902  1.00  0.00    -0.000 C 
BRANCH  17  18
ATOM     18  C   UNL     1      60.965  25.149  50.732  1.00  0.00    -0.000 C 
BRANCH  18  19
ATOM     19  C   UNL     1      60.514  23.682  50.826  1.00  0.00    -0.003 C 
ATOM     20  C   UNL     1      60.836  22.884  49.561  1.00  0.00     0.004 C 
ENDBRANCH  18  19
ENDBRANCH  17  18
ENDBRANCH  16  17
ENDBRANCH  15  16
ENDBRANCH  14  15
ENDBRANCH  13  14
ENDBRANCH   2  13
TORSDOF 15
ENDMDL
MODEL 4
REMARK VINA RESULT:    -3.922     12.295     15.011
REMARK INTER + INTRA:          -8.732
REMARK INTER:                  -6.406
REMARK INTRA:                  -2.326
REMARK UNBOUND:                -1.370
REMARK SMILES CCCCCCCCC=CCCCCCCCC(=O)[O-]
REMARK SMILES IDX 10 1 9 2 11 3 12 4 13 5 14 6 15 7 16 8 17 9 18 10 19 11
REMARK SMILES IDX 20 12 8 13 7 14 6 15 5 16 4 17 3 18 2 19 1 20
REMARK H PARENT
REMARK Flexibility Score: inf
ROOT
ATOM      1  C   UNL     1      62.028  29.197  61.625  1.00  0.00    -0.031 C 
ATOM      2  C   UNL     1      62.861  28.443  60.890  1.00  0.00    -0.031 C 
ENDROOT
BRANCH   1   3
ATOM      3  C   UNL     1      62.097  30.699  61.615  1.00  0.00     0.027 C 
BRANCH   3   4
ATOM      4  C   UNL     1      60.747  31.297  61.217  1.00  0.00     0.004 C 
BRANCH   4   5
ATOM      5  C   UNL     1      60.765  31.768  59.755  1.00  0.00     0.000 C 
BRANCH   5   6
ATOM      6  C   UNL     1      61.689  32.978  59.524  1.00  0.00     0.000 C 
BRANCH   6   7
ATOM      7  C   UNL     1      61.132  34.330  60.011  1.00  0.00     0.000 C 
BRANCH   7   8
ATOM      8  C   UNL     1      62.225  35.278  60.527  1.00  0.00     0.006 C 
BRANCH   8   9
ATOM      9  C   UNL     1      63.524  34.516  60.814  1.00  0.00     0.053 C 
BRANCH   9  10
ATOM     10  C   UNL     1      64.660  35.472  61.001  1.00  0.00     0.041 C 
ATOM     11  O   UNL     1      65.344  35.841  60.009  1.00  0.00    -0.550 OA
ATOM     12  O   UNL     1      64.989  35.925  62.272  1.00  0.00    -0.550 OA
ENDBRANCH   9  10
ENDBRANCH   8   9
ENDBRANCH   7   8
ENDBRANCH   6   7
ENDBRANCH   5   6
ENDBRANCH   4   5
ENDBRANCH   3   4
ENDBRANCH   1   3
BRANCH   2  13
ATOM     13  C   UNL     1      62.747  26.943  60.871  1.00  0.00     0.027 C 
BRANCH  13  14
ATOM     14  C   UNL     1      61.901  26.435  62.048  1.00  0.00     0.004 C 
BRANCH  14  15
ATOM     15  C   UNL     1      60.753  25.507  61.604  1.00  0.00     0.000 C 
BRANCH  15  16
ATOM     16  C   UNL     1      59.339  25.973  62.010  1.00  0.00     0.000 C 
BRANCH  16  17
ATOM     17  C   UNL     1      58.507  26.591  60.873  1.00  0.00    -0.000 C 
BRANCH  17  18
ATOM     18  C   UNL     1      58.597  28.125  60.834  1.00  0.00    -0.000 C 
BRANCH  18  19
ATOM     19  C   UNL     1      58.794  28.663  59.407  1.00  0.00    -0.003 C 
ATOM     20  C   UNL     1      59.973  28.006  58.686  1.00  0.00     0.004 C 
ENDBRANCH  18  19
ENDBRANCH  17  18
ENDBRANCH  16  17
ENDBRANCH  15  16
ENDBRANCH  14  15
ENDBRANCH  13  14
ENDBRANCH   2  13
TORSDOF 15
ENDMDL
MODEL 5
REMARK VINA RESULT:    -3.916      5.343      6.935
REMARK INTER + INTRA:          -8.721
REMARK INTER:                  -5.878
REMARK INTRA:                  -2.843
REMARK UNBOUND:                -1.370
REMARK SMILES CCCCCCCCC=CCCCCCCCC(=O)[O-]
REMARK SMILES IDX 10 1 9 2 11 3 12 4 13 5 14 6 15 7 16 8 17 9 18 10 19 11
REMARK SMILES IDX 20 12 8 13 7 14 6 15 5 16 4 17 3 18 2 19 1 20
REMARK H PARENT
REMARK Flexibility Score: inf
ROOT
ATOM      1  C   UNL     1      58.436  26.105  52.585  1.00  0.00    -0.031 C 
ATOM      2  C   UNL     1      57.216  26.613  52.343  1.00  0.00    -0.031 C 
ENDROOT
BRANCH   1   3
ATOM      3  C   UNL     1      59.462  26.854  53.389  1.00  0.00     0.027 C 
BRANCH   3   4
ATOM      4  C   UNL     1      60.727  27.088  52.561  1.00  0.00     0.004 C 
BRANCH   4   5
ATOM      5  C   UNL     1      60.682  26.286  51.252  1.00  0.00     0.000 C 
BRANCH   5   6
ATOM      6  C   UNL     1      60.840  27.167  49.999  1.00  0.00     0.000 C 
BRANCH   6   7
ATOM      7  C   UNL     1      59.522  27.547  49.297  1.00  0.00     0.000 C 
BRANCH   7   8
ATOM      8  C   UNL     1      59.232  29.055  49.342  1.00  0.00     0.006 C 
BRANCH   8   9
ATOM      9  C   UNL     1      58.080  29.366  50.305  1.00  0.00     0.053 C 
BRANCH   9  10
ATOM     10  C   UNL     1      58.596  30.041  51.537  1.00  0.00     0.041 C 
ATOM     11  O   UNL     1      57.800  30.365  52.459  1.00  0.00    -0.550 OA
ATOM     12  O   UNL     1      59.946  30.346  51.653  1.00  0.00    -0.550 OA
ENDBRANCH   9  10
ENDBRANCH   8   9
ENDBRANCH   7   8
ENDBRANCH   6   7
ENDBRANCH   5   6
ENDBRANCH   4   5
ENDBRANCH   3   4
ENDBRANCH   1   3
BRANCH   2  13
ATOM     13  C   UNL     1      56.181  25.830  51.580  1.00  0.00     0.027 C 
BRANCH  13  14
ATOM     14  C   UNL     1      56.162  26.233  50.098  1.00  0.00     0.004 C 
BRANCH  14  15
ATOM     15  C   UNL     1      54.784  26.031  49.440  1.00  0.00     0.000 C 
BRANCH  15  16
ATOM     16  C   UNL     1      53.603  25.885  50.423  1.00  0.00     0.000 C 
BRANCH  16  17
ATOM     17  C   UNL     1      52.913  27.205  50.811  1.00  0.00    -0.000 C 
BRANCH  17  18
ATOM     18  C   UNL     1      53.160  28.328  49.791  1.00  0.00    -0.000 C 
BRANCH  18  19
ATOM     19  C   UNL     1      53.842  29.553  50.424  1.00  0.00    -0.003 C 
ATOM     20  C   UNL     1      54.536  29.224  51.747  1.00  0.00     0.004 C 
ENDBRANCH  18  19
ENDBRANCH  17  18
ENDBRANCH  16  17
ENDBRANCH  15  16
ENDBRANCH  14  15
ENDBRANCH  13  14
ENDBRANCH   2  13
TORSDOF 15
ENDMDL
MODEL 6
REMARK VINA RESULT:    -3.916     12.123     13.867
REMARK INTER + INTRA:          -8.720
REMARK INTER:                  -6.294
REMARK INTRA:                  -2.426
REMARK UNBOUND:                -1.370
REMARK SMILES CCCCCCCCC=CCCCCCCCC(=O)[O-]
REMARK SMILES IDX 10 1 9 2 11 3 12 4 13 5 14 6 15 7 16 8 17 9 18 10 19 11
REMARK SMILES IDX 20 12 8 13 7 14 6 15 5 16 4 17 3 18 2 19 1 20
REMARK H PARENT
REMARK Flexibility Score: inf
ROOT
ATOM      1  C   UNL     1      62.416  35.916  60.174  1.00  0.00    -0.031 C 
ATOM      2  C   UNL     1      61.127  36.077  60.516  1.00  0.00    -0.031 C 
ENDROOT
BRANCH   1   3
ATOM      3  C   UNL     1      63.503  35.799  61.207  1.00  0.00     0.027 C 
BRANCH   3   4
ATOM      4  C   UNL     1      64.200  34.441  61.102  1.00  0.00     0.004 C 
BRANCH   4   5
ATOM      5  C   UNL     1      63.958  33.806  59.725  1.00  0.00     0.000 C 
BRANCH   5   6
ATOM      6  C   UNL     1      64.476  32.358  59.629  1.00  0.00     0.000 C 
BRANCH   6   7
ATOM      7  C   UNL     1      64.245  31.497  60.886  1.00  0.00     0.000 C 
BRANCH   7   8
ATOM      8  C   UNL     1      64.313  29.989  60.600  1.00  0.00     0.006 C 
BRANCH   8   9
ATOM      9  C   UNL     1      65.740  29.562  60.239  1.00  0.00     0.053 C 
BRANCH   9  10
ATOM     10  C   UNL     1      65.752  28.154  59.732  1.00  0.00     0.041 C 
ATOM     11  O   UNL     1      65.443  27.204  60.500  1.00  0.00    -0.550 OA
ATOM     12  O   UNL     1      66.139  27.886  58.425  1.00  0.00    -0.550 OA
ENDBRANCH   9  10
ENDBRANCH   8   9
ENDBRANCH   7   8
ENDBRANCH   6   7
ENDBRANCH   5   6
ENDBRANCH   4   5
ENDBRANCH   3   4
ENDBRANCH   1   3
BRANCH   2  13
ATOM     13  C   UNL     1      60.044  36.141  59.473  1.00  0.00     0.027 C 
BRANCH  13  14
ATOM     14  C   UNL     1      60.488  35.463  58.169  1.00  0.00     0.004 C 
BRANCH  14  15
ATOM     15  C   UNL     1      59.918  34.040  58.010  1.00  0.00     0.000 C 
BRANCH  15  16
ATOM     16  C   UNL     1      60.948  32.901  58.161  1.00  0.00     0.000 C 
BRANCH  16  17
ATOM     17  C   UNL     1      60.555  31.796  59.157  1.00  0.00    -0.000 C 
BRANCH  17  18
ATOM     18  C   UNL     1      60.777  32.206  60.621  1.00  0.00    -0.000 C 
BRANCH  18  19
ATOM     19  C   UNL     1      60.760  31.001  61.575  1.00  0.00    -0.003 C 
ATOM     20  C   UNL     1      60.539  29.674  60.847  1.00  0.00     0.004 C 
ENDBRANCH  18  19
ENDBRANCH  17  18
ENDBRANCH  16  17
ENDBRANCH  15  16
ENDBRANCH  14  15
ENDBRANCH  13  14
ENDBRANCH   2  13
TORSDOF 15
ENDMDL
MODEL 7
REMARK VINA RESULT:    -3.891     12.318     13.978
REMARK INTER + INTRA:          -8.673
REMARK INTER:                  -6.295
REMARK INTRA:                  -2.377
REMARK UNBOUND:                -1.370
REMARK SMILES CCCCCCCCC=CCCCCCCCC(=O)[O-]
REMARK SMILES IDX 10 1 9 2 11 3 12 4 13 5 14 6 15 7 16 8 17 9 18 10 19 11
REMARK SMILES IDX 20 12 8 13 7 14 6 15 5 16 4 17 3 18 2 19 1 20
REMARK H PARENT
REMARK Flexibility Score: inf
ROOT
ATOM      1  C   UNL     1      60.367  31.993  58.715  1.00  0.00    -0.031 C 
ATOM      2  C   UNL     1      61.044  33.140  58.887  1.00  0.00    -0.031 C 
ENDROOT
BRANCH   1   3
ATOM      3  C   UNL     1      60.450  30.864  59.706  1.00  0.00     0.027 C 
BRANCH   3   4
ATOM      4  C   UNL     1      60.886  31.384  61.077  1.00  0.00     0.004 C 
BRANCH   4   5
ATOM      5  C   UNL     1      61.988  30.496  61.674  1.00  0.00     0.000 C 
BRANCH   5   6
ATOM      6  C   UNL     1      61.801  29.003  61.349  1.00  0.00     0.000 C 
BRANCH   6   7
ATOM      7  C   UNL     1      63.059  28.284  60.824  1.00  0.00     0.000 C 
BRANCH   7   8
ATOM      8  C   UNL     1      64.316  29.167  60.871  1.00  0.00     0.006 C 
BRANCH   8   9
ATOM      9  C   UNL     1      65.060  29.135  59.531  1.00  0.00     0.053 C 
BRANCH   9  10
ATOM     10  C   UNL     1      66.532  29.302  59.746  1.00  0.00     0.041 C 
ATOM     11  O   UNL     1      67.263  29.722  58.809  1.00  0.00    -0.550 OA
ATOM     12  O   UNL     1      67.102  28.961  60.966  1.00  0.00    -0.550 OA
ENDBRANCH   9  10
ENDBRANCH   8   9
ENDBRANCH   7   8
ENDBRANCH   6   7
ENDBRANCH   5   6
ENDBRANCH   4   5
ENDBRANCH   3   4
ENDBRANCH   1   3
BRANCH   2  13
ATOM     13  C   UNL     1      60.911  34.280  57.914  1.00  0.00     0.027 C 
BRANCH  13  14
ATOM     14  C   UNL     1      61.349  35.607  58.551  1.00  0.00     0.004 C 
BRANCH  14  15
ATOM     15  C   UNL     1      60.983  35.703  60.045  1.00  0.00     0.000 C 
BRANCH  15  16
ATOM     16  C   UNL     1      62.172  35.958  60.995  1.00  0.00     0.000 C 
BRANCH  16  17
ATOM     17  C   UNL     1      63.548  36.028  60.311  1.00  0.00    -0.000 C 
BRANCH  17  18
ATOM     18  C   UNL     1      64.558  35.029  60.898  1.00  0.00    -0.000 C 
BRANCH  18  19
ATOM     19  C   UNL     1      63.995  33.600  60.964  1.00  0.00    -0.003 C 
ATOM     20  C   UNL     1      64.354  32.767  59.733  1.00  0.00     0.004 C 
ENDBRANCH  18  19
ENDBRANCH  17  18
ENDBRANCH  16  17
ENDBRANCH  15  16
ENDBRANCH  14  15
ENDBRANCH  13  14
ENDBRANCH   2  13
TORSDOF 15
ENDMDL
MODEL 8
REMARK VINA RESULT:    -3.819     11.985     13.729
REMARK INTER + INTRA:          -8.537
REMARK INTER:                  -5.346
REMARK INTRA:                  -3.192
REMARK UNBOUND:                -1.370
REMARK SMILES CCCCCCCCC=CCCCCCCCC(=O)[O-]
REMARK SMILES IDX 10 1 9 2 11 3 12 4 13 5 14 6 15 7 16 8 17 9 18 10 19 11
REMARK SMILES IDX 20 12 8 13 7 14 6 15 5 16 4 17 3 18 2 19 1 20
REMARK H PARENT
REMARK Flexibility Score: inf
ROOT
ATOM      1  C   UNL     1      60.617  33.229  59.097  1.00  0.00    -0.031 C 
ATOM      2  C   UNL     1      60.609  34.362  58.375  1.00  0.00    -0.031 C 
ENDROOT
BRANCH   1   3
ATOM      3  C   UNL     1      60.141  31.921  58.528  1.00  0.00     0.027 C 
BRANCH   3   4
ATOM      4  C   UNL     1      60.517  30.763  59.454  1.00  0.00     0.004 C 
BRANCH   4   5
ATOM      5  C   UNL     1      61.106  31.286  60.773  1.00  0.00     0.000 C 
BRANCH   5   6
ATOM      6  C   UNL     1      61.855  30.202  61.570  1.00  0.00     0.000 C 
BRANCH   6   7
ATOM      7  C   UNL     1      63.393  30.303  61.524  1.00  0.00     0.000 C 
BRANCH   7   8
ATOM      8  C   UNL     1      63.998  29.669  60.263  1.00  0.00     0.006 C 
BRANCH   8   9
ATOM      9  C   UNL     1      65.530  29.704  60.310  1.00  0.00     0.053 C 
BRANCH   9  10
ATOM     10  C   UNL     1      66.097  29.643  58.926  1.00  0.00     0.041 C 
ATOM     11  O   UNL     1      66.806  30.591  58.493  1.00  0.00    -0.550 OA
ATOM     12  O   UNL     1      65.814  28.562  58.103  1.00  0.00    -0.550 OA
ENDBRANCH   9  10
ENDBRANCH   8   9
ENDBRANCH   7   8
ENDBRANCH   6   7
ENDBRANCH   5   6
ENDBRANCH   4   5
ENDBRANCH   3   4
ENDBRANCH   1   3
BRANCH   2  13
ATOM     13  C   UNL     1      61.136  35.653  58.941  1.00  0.00     0.027 C 
BRANCH  13  14
ATOM     14  C   UNL     1      61.578  35.480  60.402  1.00  0.00     0.004 C 
BRANCH  14  15
ATOM     15  C   UNL     1      63.109  35.499  60.570  1.00  0.00     0.000 C 
BRANCH  15  16
ATOM     16  C   UNL     1      63.746  34.139  60.925  1.00  0.00     0.000 C 
BRANCH  16  17
ATOM     17  C   UNL     1      64.251  33.324  59.722  1.00  0.00    -0.000 C 
BRANCH  17  18
ATOM     18  C   UNL     1      64.516  34.192  58.482  1.00  0.00    -0.000 C 
BRANCH  18  19
ATOM     19  C   UNL     1      64.083  33.499  57.179  1.00  0.00    -0.003 C 
ATOM     20  C   UNL     1      63.680  32.040  57.393  1.00  0.00     0.004 C 
ENDBRANCH  18  19
ENDBRANCH  17  18
ENDBRANCH  16  17
ENDBRANCH  15  16
ENDBRANCH  14  15
ENDBRANCH  13  14
ENDBRANCH   2  13
TORSDOF 15
ENDMDL
MODEL 9
REMARK VINA RESULT:    -3.803     12.466     14.136
REMARK INTER + INTRA:          -8.508
REMARK INTER:                  -6.102
REMARK INTRA:                  -2.406
REMARK UNBOUND:                -1.370
REMARK SMILES CCCCCCCCC=CCCCCCCCC(=O)[O-]
REMARK SMILES IDX 10 1 9 2 11 3 12 4 13 5 14 6 15 7 16 8 17 9 18 10 19 11
REMARK SMILES IDX 20 12 8 13 7 14 6 15 5 16 4 17 3 18 2 19 1 20
REMARK H PARENT
REMARK Flexibility Score: inf
ROOT
ATOM      1  C   UNL     1      61.101  33.206  59.454  1.00  0.00    -0.031 C 
ATOM      2  C   UNL     1      61.505  34.074  60.396  1.00  0.00    -0.031 C 
ENDROOT
BRANCH   1   3
ATOM      3  C   UNL     1      61.152  31.718  59.670  1.00  0.00     0.027 C 
BRANCH   3   4
ATOM      4  C   UNL     1      60.818  31.375  61.123  1.00  0.00     0.004 C 
BRANCH   4   5
ATOM      5  C   UNL     1      61.795  30.326  61.677  1.00  0.00     0.000 C 
BRANCH   5   6
ATOM      6  C   UNL     1      63.258  30.597  61.279  1.00  0.00     0.000 C 
BRANCH   6   7
ATOM      7  C   UNL     1      64.080  29.344  60.918  1.00  0.00     0.000 C 
BRANCH   7   8
ATOM      8  C   UNL     1      65.489  29.679  60.405  1.00  0.00     0.006 C 
BRANCH   8   9
ATOM      9  C   UNL     1      65.882  28.765  59.239  1.00  0.00     0.053 C 
BRANCH   9  10
ATOM     10  C   UNL     1      67.020  27.876  59.632  1.00  0.00     0.041 C 
ATOM     11  O   UNL     1      67.696  27.288  58.746  1.00  0.00    -0.550 OA
ATOM     12  O   UNL     1      67.312  27.667  60.974  1.00  0.00    -0.550 OA
ENDBRANCH   9  10
ENDBRANCH   8   9
ENDBRANCH   7   8
ENDBRANCH   6   7
ENDBRANCH   5   6
ENDBRANCH   4   5
ENDBRANCH   3   4
ENDBRANCH   1   3
BRANCH   2  13
ATOM     13  C   UNL     1      61.400  35.561  60.185  1.00  0.00     0.027 C 
BRANCH  13  14
ATOM     14  C   UNL     1      62.590  36.296  60.819  1.00  0.00     0.004 C 
BRANCH  14  15
ATOM     15  C   UNL     1      63.696  35.339  61.304  1.00  0.00     0.000 C 
BRANCH  15  16
ATOM     16  C   UNL     1      64.959  35.295  60.419  1.00  0.00     0.000 C 
BRANCH  16  17
ATOM     17  C   UNL     1      64.747  35.736  58.960  1.00  0.00    -0.000 C 
BRANCH  17  18
ATOM     18  C   UNL     1      64.545  34.551  58.003  1.00  0.00    -0.000 C 
BRANCH  18  19
ATOM     19  C   UNL     1      64.765  33.196  58.696  1.00  0.00    -0.003 C 
ATOM     20  C   UNL     1      64.307  32.014  57.839  1.00  0.00     0.004 C 
ENDBRANCH  18  19
ENDBRANCH  17  18
ENDBRANCH  16  17
ENDBRANCH  15  16
ENDBRANCH  14  15
ENDBRANCH  13  14
ENDBRANCH   2  13
TORSDOF 15
ENDMDL
