MODEL 1
REMARK VINA RESULT:    -6.259      0.000      0.000
REMARK INTER + INTRA:         -15.083
REMARK INTER:                 -13.211
REMARK INTRA:                  -1.872
REMARK UNBOUND:                -1.872
REMARK SMILES CCC(=O)CCCCC[C@@H]1NC(=O)[C@H]2CCCCN2C(=O)[C@@H]([C@H](C)CC)NC(=O)[C@H](Cc2cn(OC)c3ccccc23)NC1=O
REMARK SMILES IDX 9 1 10 2 44 3 43 4 45 6 30 7 28 8 27 9 29 11 22 12 23 14
REMARK SMILES IDX 24 15 25 16 26 17 31 18 32 19 33 20 42 21 34 22 37 23 41 24
REMARK SMILES IDX 38 25 40 26 39 27 35 28 36 29 11 30 12 31 13 33 14 34 19 35
REMARK SMILES IDX 15 36 18 37 16 38 17 39 20 40 21 41 8 43 7 44 6 45 5 46 3 47
REMARK SMILES IDX 4 48 2 49 1 50
REMARK H PARENT 43 5 27 10 11 32
REMARK Flexibility Score: 80.00
ROOT
ATOM      1  C   UNL     1      17.376 -29.151  21.631  1.00  0.00     0.035 C 
ENDROOT
BRANCH   1   2
ATOM      2  C   UNL     1      18.236 -30.288  21.060  1.00  0.00     0.171 C 
BRANCH   2   3
ATOM      3  C   UNL     1      19.186 -30.819  22.097  1.00  0.00     0.243 C 
ATOM      4  N   UNL     1      20.574 -31.000  21.783  1.00  0.00    -0.342 N 
ATOM      5  H   UNL     1      20.933 -30.579  20.895  1.00  0.00     0.164 HD
ATOM      6  O   UNL     1      18.752 -31.108  23.241  1.00  0.00    -0.273 OA
BRANCH   4   7
ATOM      7  C   UNL     1      21.498 -31.842  22.554  1.00  0.00     0.175 C 
BRANCH   7   8
ATOM      8  C   UNL     1      20.769 -32.827  23.447  1.00  0.00     0.243 C 
ATOM      9  N   UNL     1      20.265 -34.087  22.956  1.00  0.00    -0.342 N 
ATOM     10  H   UNL     1      20.532 -34.410  22.007  1.00  0.00     0.164 HD
ATOM     11  O   UNL     1      20.689 -32.560  24.672  1.00  0.00    -0.273 OA
BRANCH   9  12
ATOM     12  C   UNL     1      19.519 -35.027  23.805  1.00  0.00     0.174 CG0
ATOM     13  G   UNL     1      18.145 -35.262  23.203  1.00  0.00     0.000 G0
BRANCH  12  14
ATOM     14  C   UNL     1      20.308 -36.350  24.007  1.00  0.00     0.018 C 
ATOM     15  C   UNL     1      20.632 -36.585  25.496  1.00  0.00     0.010 C 
BRANCH  14  16
ATOM     16  C   UNL     1      21.595 -36.447  23.144  1.00  0.00     0.002 C 
ATOM     17  C   UNL     1      22.533 -37.608  23.504  1.00  0.00     0.004 C 
ENDBRANCH  14  16
ENDBRANCH  12  14
ENDBRANCH   9  12
ENDBRANCH   7   8
BRANCH   7  18
ATOM     18  C   UNL     1      22.512 -31.004  23.370  1.00  0.00     0.073 C 
BRANCH  18  19
ATOM     19  C   UNL     1      23.760 -31.778  23.691  1.00  0.00    -0.016 A 
ATOM     20  C   UNL     1      24.551 -32.486  22.797  1.00  0.00     0.134 A 
ATOM     21  C   UNL     1      24.357 -31.932  24.924  1.00  0.00     0.006 A 
ATOM     22  N   UNL     1      25.603 -33.048  23.436  1.00  0.00    -0.191 N 
ATOM     23  C   UNL     1      25.486 -32.707  24.745  1.00  0.00     0.087 A 
ATOM     24  C   UNL     1      23.987 -31.428  26.172  1.00  0.00     0.011 A 
ATOM     25  C   UNL     1      26.312 -33.019  25.839  1.00  0.00     0.030 A 
ATOM     26  C   UNL     1      24.811 -31.726  27.268  1.00  0.00     0.001 A 
ATOM     27  C   UNL     1      25.963 -32.518  27.104  1.00  0.00     0.002 A 
BRANCH  22  28
ATOM     28  O   UNL     1      26.557 -33.800  22.766  1.00  0.00    -0.417 OA
ATOM     29  C   UNL     1      26.511 -35.205  22.594  1.00  0.00     0.313 C 
ENDBRANCH  22  28
ENDBRANCH  18  19
ENDBRANCH   7  18
ENDBRANCH   4   7
ENDBRANCH   2   3
BRANCH   2  30
ATOM     30  N   UNL     1      17.406 -31.393  20.580  1.00  0.00    -0.343 N 
ATOM     31  C   UNL     1      17.871 -32.736  20.710  1.00  0.00     0.243 C 
ATOM     32  H   UNL     1      16.370 -31.248  20.535  1.00  0.00     0.164 HD
ATOM     33  O   UNL     1      18.955 -33.067  20.161  1.00  0.00    -0.273 OA
BRANCH  31  34
ATOM     34  C   UNL     1      17.069 -33.739  21.500  1.00  0.00     0.174 C 
ATOM     35  N   UNL     1      17.870 -34.940  21.802  1.00  0.00    -0.329 N 
ATOM     36  C   UNL     1      15.762 -34.121  20.778  1.00  0.00     0.035 C 
ATOM     37  C   UNL     1      18.083 -35.954  20.753  1.00  0.00     0.120 C 
ATOM     38  C   UNL     1      16.002 -35.102  19.624  1.00  0.00     0.004 C 
ATOM     39  C   UNL     1      16.750 -36.347  20.111  1.00  0.00     0.022 C 
BRANCH  35  40
ATOM     40  C   UNL     1      18.145 -35.258  23.178  1.00  0.00     0.246 CG0
ATOM     41  O   UNL     1      17.191 -35.598  23.923  1.00  0.00    -0.272 OA
ATOM     42  G   UNL     1      19.517 -35.050  23.794  1.00  0.00     0.000 G0
ENDBRANCH  35  40
ENDBRANCH  31  34
ENDBRANCH   2  30
ENDBRANCH   1   2
BRANCH   1  43
ATOM     43  C   UNL     1      15.931 -29.611  21.888  1.00  0.00     0.003 C 
BRANCH  43  44
ATOM     44  C   UNL     1      14.917 -28.452  21.835  1.00  0.00     0.001 C 
BRANCH  44  45
ATOM     45  C   UNL     1      14.337 -28.029  23.201  1.00  0.00     0.008 C 
BRANCH  45  46
ATOM     46  C   UNL     1      12.909 -28.535  23.473  1.00  0.00     0.075 C 
BRANCH  46  47
ATOM     47  C   UNL     1      12.744 -29.997  23.132  1.00  0.00     0.132 C 
ATOM     48  O   UNL     1      13.226 -30.845  23.872  1.00  0.00    -0.300 OA
BRANCH  47  49
ATOM     49  C   UNL     1      11.964 -30.431  21.922  1.00  0.00     0.072 C 
ATOM     50  C   UNL     1      12.778 -31.383  21.056  1.00  0.00     0.012 C 
ENDBRANCH  47  49
ENDBRANCH  46  47
ENDBRANCH  45  46
ENDBRANCH  44  45
ENDBRANCH  43  44
ENDBRANCH   1  43
TORSDOF 12
ENDMDL
MODEL 2
REMARK VINA RESULT:    -6.199      2.379      3.665
REMARK INTER + INTRA:         -14.957
REMARK INTER:                 -14.005
REMARK INTRA:                  -0.952
REMARK UNBOUND:                -1.872
REMARK SMILES CCC(=O)CCCCC[C@@H]1NC(=O)[C@H]2CCCCN2C(=O)[C@@H]([C@H](C)CC)NC(=O)[C@H](Cc2cn(OC)c3ccccc23)NC1=O
REMARK SMILES IDX 9 1 10 2 44 3 43 4 45 6 30 7 28 8 27 9 29 11 22 12 23 14
REMARK SMILES IDX 24 15 25 16 26 17 31 18 32 19 33 20 42 21 34 22 37 23 41 24
REMARK SMILES IDX 38 25 40 26 39 27 35 28 36 29 11 30 12 31 13 33 14 34 19 35
REMARK SMILES IDX 15 36 18 37 16 38 17 39 20 40 21 41 8 43 7 44 6 45 5 46 3 47
REMARK SMILES IDX 4 48 2 49 1 50
REMARK H PARENT 43 5 27 10 11 32
REMARK Flexibility Score: 80.00
ROOT
ATOM      1  C   UNL     1      16.664 -29.572  22.522  1.00  0.00     0.035 C 
ENDROOT
BRANCH   1   2
ATOM      2  C   UNL     1      17.587 -30.484  21.699  1.00  0.00     0.171 C 
BRANCH   2   3
ATOM      3  C   UNL     1      18.778 -30.915  22.509  1.00  0.00     0.243 C 
ATOM      4  N   UNL     1      20.107 -30.644  22.043  1.00  0.00    -0.342 N 
ATOM      5  H   UNL     1      20.217 -29.984  21.239  1.00  0.00     0.164 HD
ATOM      6  O   UNL     1      18.599 -31.520  23.596  1.00  0.00    -0.273 OA
BRANCH   4   7
ATOM      7  C   UNL     1      21.314 -31.327  22.528  1.00  0.00     0.175 C 
BRANCH   7   8
ATOM      8  C   UNL     1      20.987 -32.556  23.353  1.00  0.00     0.243 C 
ATOM      9  N   UNL     1      20.642 -33.822  22.750  1.00  0.00    -0.342 N 
ATOM     10  H   UNL     1      20.765 -33.951  21.728  1.00  0.00     0.164 HD
ATOM     11  O   UNL     1      21.111 -32.474  24.600  1.00  0.00    -0.273 OA
BRANCH   9  12
ATOM     12  C   UNL     1      20.281 -35.005  23.543  1.00  0.00     0.174 CG0
ATOM     13  G   UNL     1      18.898 -35.477  23.135  1.00  0.00     0.000 G0
BRANCH  12  14
ATOM     14  C   UNL     1      21.351 -36.124  23.405  1.00  0.00     0.018 C 
ATOM     15  C   UNL     1      21.351 -37.052  24.636  1.00  0.00     0.010 C 
BRANCH  14  16
ATOM     16  C   UNL     1      22.780 -35.588  23.121  1.00  0.00     0.002 C 
ATOM     17  C   UNL     1      23.572 -35.158  24.365  1.00  0.00     0.004 C 
ENDBRANCH  14  16
ENDBRANCH  12  14
ENDBRANCH   9  12
ENDBRANCH   7   8
BRANCH   7  18
ATOM     18  C   UNL     1      22.253 -30.375  23.306  1.00  0.00     0.073 C 
BRANCH  18  19
ATOM     19  C   UNL     1      22.147 -28.954  22.826  1.00  0.00    -0.016 A 
ATOM     20  C   UNL     1      21.834 -28.532  21.542  1.00  0.00     0.134 A 
ATOM     21  C   UNL     1      22.337 -27.804  23.563  1.00  0.00     0.006 A 
ATOM     22  N   UNL     1      21.816 -27.180  21.477  1.00  0.00    -0.191 N 
ATOM     23  C   UNL     1      22.124 -26.731  22.720  1.00  0.00     0.087 A 
ATOM     24  C   UNL     1      22.664 -27.643  24.911  1.00  0.00     0.011 A 
ATOM     25  C   UNL     1      22.234 -25.416  23.206  1.00  0.00     0.030 A 
ATOM     26  C   UNL     1      22.767 -26.334  25.407  1.00  0.00     0.001 A 
ATOM     27  C   UNL     1      22.557 -25.229  24.561  1.00  0.00     0.002 A 
BRANCH  22  28
ATOM     28  O   UNL     1      21.516 -26.503  20.305  1.00  0.00    -0.417 OA
ATOM     29  C   UNL     1      20.500 -25.525  20.167  1.00  0.00     0.313 C 
ENDBRANCH  22  28
ENDBRANCH  18  19
ENDBRANCH   7  18
ENDBRANCH   4   7
ENDBRANCH   2   3
BRANCH   2  30
ATOM     30  N   UNL     1      16.880 -31.678  21.238  1.00  0.00    -0.343 N 
ATOM     31  C   UNL     1      17.598 -32.899  21.057  1.00  0.00     0.243 C 
ATOM     32  H   UNL     1      15.854 -31.751  21.434  1.00  0.00     0.164 HD
ATOM     33  O   UNL     1      18.563 -32.931  20.248  1.00  0.00    -0.273 OA
BRANCH  31  34
ATOM     34  C   UNL     1      17.198 -34.130  21.831  1.00  0.00     0.174 C 
ATOM     35  N   UNL     1      18.292 -35.120  21.853  1.00  0.00    -0.329 N 
ATOM     36  C   UNL     1      15.904 -34.758  21.278  1.00  0.00     0.035 C 
ATOM     37  C   UNL     1      18.536 -35.960  20.667  1.00  0.00     0.120 C 
ATOM     38  C   UNL     1      16.147 -35.550  19.989  1.00  0.00     0.004 C 
ATOM     39  C   UNL     1      17.233 -36.611  20.195  1.00  0.00     0.022 C 
BRANCH  35  40
ATOM     40  C   UNL     1      18.875 -35.476  23.120  1.00  0.00     0.246 CG0
ATOM     41  O   UNL     1      18.166 -36.083  23.963  1.00  0.00    -0.272 OA
ATOM     42  G   UNL     1      20.260 -35.009  23.528  1.00  0.00     0.000 G0
ENDBRANCH  35  40
ENDBRANCH  31  34
ENDBRANCH   2  30
ENDBRANCH   1   2
BRANCH   1  43
ATOM     43  C   UNL     1      15.628 -28.866  21.630  1.00  0.00     0.003 C 
BRANCH  43  44
ATOM     44  C   UNL     1      14.635 -28.006  22.435  1.00  0.00     0.001 C 
BRANCH  44  45
ATOM     45  C   UNL     1      13.826 -28.771  23.504  1.00  0.00     0.008 C 
BRANCH  45  46
ATOM     46  C   UNL     1      12.334 -28.951  23.169  1.00  0.00     0.075 C 
BRANCH  46  47
ATOM     47  C   UNL     1      12.075 -30.196  22.354  1.00  0.00     0.132 C 
ATOM     48  O   UNL     1      11.107 -30.234  21.606  1.00  0.00    -0.300 OA
BRANCH  47  49
ATOM     49  C   UNL     1      13.007 -31.375  22.415  1.00  0.00     0.072 C 
ATOM     50  C   UNL     1      13.475 -31.778  21.023  1.00  0.00     0.012 C 
ENDBRANCH  47  49
ENDBRANCH  46  47
ENDBRANCH  45  46
ENDBRANCH  44  45
ENDBRANCH  43  44
ENDBRANCH   1  43
TORSDOF 12
ENDMDL
MODEL 3
REMARK VINA RESULT:    -6.186      2.208      6.841
REMARK INTER + INTRA:         -14.930
REMARK INTER:                 -12.533
REMARK INTRA:                  -2.396
REMARK UNBOUND:                -1.872
REMARK SMILES CCC(=O)CCCCC[C@@H]1NC(=O)[C@H]2CCCCN2C(=O)[C@@H]([C@H](C)CC)NC(=O)[C@H](Cc2cn(OC)c3ccccc23)NC1=O
REMARK SMILES IDX 9 1 10 2 44 3 43 4 45 6 30 7 28 8 27 9 29 11 22 12 23 14
REMARK SMILES IDX 24 15 25 16 26 17 31 18 32 19 33 20 42 21 34 22 37 23 41 24
REMARK SMILES IDX 38 25 40 26 39 27 35 28 36 29 11 30 12 31 13 33 14 34 19 35
REMARK SMILES IDX 15 36 18 37 16 38 17 39 20 40 21 41 8 43 7 44 6 45 5 46 3 47
REMARK SMILES IDX 4 48 2 49 1 50
REMARK H PARENT 43 5 27 10 11 32
REMARK Flexibility Score: 80.00
ROOT
ATOM      1  C   UNL     1      19.840 -31.112  21.606  1.00  0.00     0.035 C 
ENDROOT
BRANCH   1   2
ATOM      2  C   UNL     1      20.054 -31.364  23.106  1.00  0.00     0.171 C 
BRANCH   2   3
ATOM      3  C   UNL     1      20.111 -32.836  23.403  1.00  0.00     0.243 C 
ATOM      4  N   UNL     1      19.331 -33.390  24.472  1.00  0.00    -0.342 N 
ATOM      5  H   UNL     1      18.593 -32.786  24.902  1.00  0.00     0.164 HD
ATOM      6  O   UNL     1      20.852 -33.577  22.709  1.00  0.00    -0.273 OA
BRANCH   4   7
ATOM      7  C   UNL     1      19.580 -34.698  25.091  1.00  0.00     0.175 C 
BRANCH   7   8
ATOM      8  C   UNL     1      20.964 -35.231  24.774  1.00  0.00     0.243 C 
ATOM      9  N   UNL     1      22.154 -34.714  25.406  1.00  0.00    -0.342 N 
ATOM     10  H   UNL     1      22.065 -34.066  26.212  1.00  0.00     0.164 HD
ATOM     11  O   UNL     1      21.049 -36.214  23.998  1.00  0.00    -0.273 OA
BRANCH   9  12
ATOM     12  C   UNL     1      23.502 -35.194  25.071  1.00  0.00     0.174 CG0
ATOM     13  G   UNL     1      24.450 -34.011  24.996  1.00  0.00     0.000 G0
BRANCH  12  14
ATOM     14  C   UNL     1      23.983 -36.272  26.082  1.00  0.00     0.018 C 
ATOM     15  C   UNL     1      23.867 -37.689  25.486  1.00  0.00     0.010 C 
BRANCH  14  16
ATOM     16  C   UNL     1      23.270 -36.196  27.460  1.00  0.00     0.002 C 
ATOM     17  C   UNL     1      22.674 -37.521  27.956  1.00  0.00     0.004 C 
ENDBRANCH  14  16
ENDBRANCH  12  14
ENDBRANCH   9  12
ENDBRANCH   7   8
BRANCH   7  18
ATOM     18  C   UNL     1      18.493 -35.737  24.726  1.00  0.00     0.073 C 
BRANCH  18  19
ATOM     19  C   UNL     1      17.714 -35.338  23.504  1.00  0.00    -0.016 A 
ATOM     20  C   UNL     1      17.998 -35.679  22.189  1.00  0.00     0.134 A 
ATOM     21  C   UNL     1      16.574 -34.563  23.453  1.00  0.00     0.006 A 
ATOM     22  N   UNL     1      17.073 -35.154  21.352  1.00  0.00    -0.191 N 
ATOM     23  C   UNL     1      16.196 -34.467  22.128  1.00  0.00     0.087 A 
ATOM     24  C   UNL     1      15.850 -33.958  24.482  1.00  0.00     0.011 A 
ATOM     25  C   UNL     1      15.046 -33.742  21.770  1.00  0.00     0.030 A 
ATOM     26  C   UNL     1      14.696 -33.240  24.135  1.00  0.00     0.001 A 
ATOM     27  C   UNL     1      14.298 -33.130  22.790  1.00  0.00     0.002 A 
BRANCH  22  28
ATOM     28  O   UNL     1      17.120 -35.359  19.981  1.00  0.00    -0.417 OA
ATOM     29  C   UNL     1      17.142 -34.333  19.005  1.00  0.00     0.313 C 
ENDBRANCH  22  28
ENDBRANCH  18  19
ENDBRANCH   7  18
ENDBRANCH   4   7
ENDBRANCH   2   3
BRANCH   2  30
ATOM     30  N   UNL     1      21.293 -30.745  23.577  1.00  0.00    -0.343 N 
ATOM     31  C   UNL     1      22.078 -31.403  24.571  1.00  0.00     0.243 C 
ATOM     32  H   UNL     1      21.790 -30.085  22.934  1.00  0.00     0.164 HD
ATOM     33  O   UNL     1      21.562 -31.660  25.691  1.00  0.00    -0.273 OA
BRANCH  31  34
ATOM     34  C   UNL     1      23.507 -31.783  24.274  1.00  0.00     0.174 C 
ATOM     35  N   UNL     1      24.055 -32.653  25.332  1.00  0.00    -0.329 N 
ATOM     36  C   UNL     1      24.398 -30.542  24.071  1.00  0.00     0.035 C 
ATOM     37  C   UNL     1      24.491 -32.059  26.608  1.00  0.00     0.120 C 
ATOM     38  C   UNL     1      24.769 -29.870  25.398  1.00  0.00     0.004 C 
ATOM     39  C   UNL     1      25.424 -30.871  26.355  1.00  0.00     0.022 C 
BRANCH  35  40
ATOM     40  C   UNL     1      24.457 -33.991  24.986  1.00  0.00     0.246 CG0
ATOM     41  O   UNL     1      25.588 -34.167  24.465  1.00  0.00    -0.272 OA
ATOM     42  G   UNL     1      23.505 -35.168  25.086  1.00  0.00     0.000 G0
ENDBRANCH  35  40
ENDBRANCH  31  34
ENDBRANCH   2  30
ENDBRANCH   1   2
BRANCH   1  43
ATOM     43  C   UNL     1      18.641 -30.182  21.356  1.00  0.00     0.003 C 
BRANCH  43  44
ATOM     44  C   UNL     1      17.291 -30.924  21.399  1.00  0.00     0.001 C 
BRANCH  44  45
ATOM     45  C   UNL     1      16.057 -30.022  21.614  1.00  0.00     0.008 C 
BRANCH  45  46
ATOM     46  C   UNL     1      15.636 -29.854  23.085  1.00  0.00     0.075 C 
BRANCH  46  47
ATOM     47  C   UNL     1      14.348 -29.079  23.229  1.00  0.00     0.132 C 
ATOM     48  O   UNL     1      14.266 -27.955  22.750  1.00  0.00    -0.300 OA
BRANCH  47  49
ATOM     49  C   UNL     1      13.151 -29.678  23.914  1.00  0.00     0.072 C 
ATOM     50  C   UNL     1      11.925 -28.790  23.754  1.00  0.00     0.012 C 
ENDBRANCH  47  49
ENDBRANCH  46  47
ENDBRANCH  45  46
ENDBRANCH  44  45
ENDBRANCH  43  44
ENDBRANCH   1  43
TORSDOF 12
ENDMDL
MODEL 4
REMARK VINA RESULT:    -6.107      3.145      4.874
REMARK INTER + INTRA:         -14.763
REMARK INTER:                 -13.011
REMARK INTRA:                  -1.752
REMARK UNBOUND:                -1.872
REMARK SMILES CCC(=O)CCCCC[C@@H]1NC(=O)[C@H]2CCCCN2C(=O)[C@@H]([C@H](C)CC)NC(=O)[C@H](Cc2cn(OC)c3ccccc23)NC1=O
REMARK SMILES IDX 9 1 10 2 44 3 43 4 45 6 30 7 28 8 27 9 29 11 22 12 23 14
REMARK SMILES IDX 24 15 25 16 26 17 31 18 32 19 33 20 42 21 34 22 37 23 41 24
REMARK SMILES IDX 38 25 40 26 39 27 35 28 36 29 11 30 12 31 13 33 14 34 19 35
REMARK SMILES IDX 15 36 18 37 16 38 17 39 20 40 21 41 8 43 7 44 6 45 5 46 3 47
REMARK SMILES IDX 4 48 2 49 1 50
REMARK H PARENT 43 5 27 10 11 32
REMARK Flexibility Score: 80.00
ROOT
ATOM      1  C   UNL     1      21.085 -28.494  20.793  1.00  0.00     0.035 C 
ENDROOT
BRANCH   1   2
ATOM      2  C   UNL     1      20.688 -29.893  21.286  1.00  0.00     0.171 C 
BRANCH   2   3
ATOM      3  C   UNL     1      21.530 -30.311  22.459  1.00  0.00     0.243 C 
ATOM      4  N   UNL     1      22.187 -31.585  22.461  1.00  0.00    -0.342 N 
ATOM      5  H   UNL     1      22.219 -32.120  21.562  1.00  0.00     0.164 HD
ATOM      6  O   UNL     1      21.650 -29.534  23.441  1.00  0.00    -0.273 OA
BRANCH   4   7
ATOM      7  C   UNL     1      22.706 -32.252  23.663  1.00  0.00     0.175 C 
BRANCH   7   8
ATOM      8  C   UNL     1      21.689 -33.192  24.282  1.00  0.00     0.243 C 
ATOM      9  N   UNL     1      20.484 -33.589  23.594  1.00  0.00    -0.342 N 
ATOM     10  H   UNL     1      20.369 -33.355  22.590  1.00  0.00     0.164 HD
ATOM     11  O   UNL     1      21.966 -33.701  25.396  1.00  0.00    -0.273 OA
BRANCH   9  12
ATOM     12  C   UNL     1      19.474 -34.464  24.205  1.00  0.00     0.174 CG0
ATOM     13  G   UNL     1      18.213 -33.662  24.469  1.00  0.00     0.000 G0
BRANCH  12  14
ATOM     14  C   UNL     1      19.204 -35.714  23.323  1.00  0.00     0.018 C 
ATOM     15  C   UNL     1      20.066 -36.911  23.772  1.00  0.00     0.010 C 
BRANCH  14  16
ATOM     16  C   UNL     1      19.377 -35.453  21.803  1.00  0.00     0.002 C 
ATOM     17  C   UNL     1      18.229 -35.963  20.920  1.00  0.00     0.004 C 
ENDBRANCH  14  16
ENDBRANCH  12  14
ENDBRANCH   9  12
ENDBRANCH   7   8
BRANCH   7  18
ATOM     18  C   UNL     1      23.234 -31.244  24.711  1.00  0.00     0.073 C 
BRANCH  18  19
ATOM     19  C   UNL     1      24.733 -31.272  24.821  1.00  0.00    -0.016 A 
ATOM     20  C   UNL     1      25.630 -31.691  23.849  1.00  0.00     0.134 A 
ATOM     21  C   UNL     1      25.501 -30.890  25.900  1.00  0.00     0.006 A 
ATOM     22  N   UNL     1      26.903 -31.566  24.291  1.00  0.00    -0.191 N 
ATOM     23  C   UNL     1      26.826 -31.072  25.553  1.00  0.00     0.087 A 
ATOM     24  C   UNL     1      25.118 -30.384  27.144  1.00  0.00     0.011 A 
ATOM     25  C   UNL     1      27.847 -30.747  26.462  1.00  0.00     0.030 A 
ATOM     26  C   UNL     1      26.131 -30.048  28.054  1.00  0.00     0.001 A 
ATOM     27  C   UNL     1      27.486 -30.230  27.717  1.00  0.00     0.002 A 
BRANCH  22  28
ATOM     28  O   UNL     1      27.993 -31.905  23.503  1.00  0.00    -0.417 OA
ATOM     29  C   UNL     1      28.713 -33.121  23.590  1.00  0.00     0.313 C 
ENDBRANCH  22  28
ENDBRANCH  18  19
ENDBRANCH   7  18
ENDBRANCH   4   7
ENDBRANCH   2   3
BRANCH   2  30
ATOM     30  N   UNL     1      19.281 -29.936  21.685  1.00  0.00    -0.343 N 
ATOM     31  C   UNL     1      18.672 -31.188  21.998  1.00  0.00     0.243 C 
ATOM     32  H   UNL     1      18.866 -29.080  22.124  1.00  0.00     0.164 HD
ATOM     33  O   UNL     1      18.644 -32.093  21.122  1.00  0.00    -0.273 OA
BRANCH  31  34
ATOM     34  C   UNL     1      18.074 -31.416  23.364  1.00  0.00     0.174 C 
ATOM     35  N   UNL     1      17.597 -32.805  23.508  1.00  0.00    -0.329 N 
ATOM     36  C   UNL     1      16.942 -30.415  23.666  1.00  0.00     0.035 C 
ATOM     37  C   UNL     1      16.317 -33.202  22.895  1.00  0.00     0.120 C 
ATOM     38  C   UNL     1      15.638 -30.779  22.947  1.00  0.00     0.004 C 
ATOM     39  C   UNL     1      15.212 -32.214  23.276  1.00  0.00     0.022 C 
BRANCH  35  40
ATOM     40  C   UNL     1      18.210 -33.644  24.504  1.00  0.00     0.246 CG0
ATOM     41  O   UNL     1      17.778 -33.596  25.684  1.00  0.00    -0.272 OA
ATOM     42  G   UNL     1      19.453 -34.465  24.212  1.00  0.00     0.000 G0
ENDBRANCH  35  40
ENDBRANCH  31  34
ENDBRANCH   2  30
ENDBRANCH   1   2
BRANCH   1  43
ATOM     43  C   UNL     1      19.855 -27.588  20.616  1.00  0.00     0.003 C 
BRANCH  43  44
ATOM     44  C   UNL     1      20.189 -26.091  20.775  1.00  0.00     0.001 C 
BRANCH  44  45
ATOM     45  C   UNL     1      20.818 -25.703  22.130  1.00  0.00     0.008 C 
BRANCH  45  46
ATOM     46  C   UNL     1      22.354 -25.599  22.115  1.00  0.00     0.075 C 
BRANCH  46  47
ATOM     47  C   UNL     1      22.833 -24.253  21.625  1.00  0.00     0.132 C 
ATOM     48  O   UNL     1      22.599 -23.253  22.292  1.00  0.00    -0.300 OA
BRANCH  47  49
ATOM     49  C   UNL     1      23.626 -24.123  20.354  1.00  0.00     0.072 C 
ATOM     50  C   UNL     1      23.236 -25.199  19.350  1.00  0.00     0.012 C 
ENDBRANCH  47  49
ENDBRANCH  46  47
ENDBRANCH  45  46
ENDBRANCH  44  45
ENDBRANCH  43  44
ENDBRANCH   1  43
TORSDOF 12
ENDMDL
MODEL 5
REMARK VINA RESULT:    -6.019      1.196      1.967
REMARK INTER + INTRA:         -14.577
REMARK INTER:                 -12.591
REMARK INTRA:                  -1.986
REMARK UNBOUND:                -1.872
REMARK SMILES CCC(=O)CCCCC[C@@H]1NC(=O)[C@H]2CCCCN2C(=O)[C@@H]([C@H](C)CC)NC(=O)[C@H](Cc2cn(OC)c3ccccc23)NC1=O
REMARK SMILES IDX 9 1 10 2 44 3 43 4 45 6 30 7 28 8 27 9 29 11 22 12 23 14
REMARK SMILES IDX 24 15 25 16 26 17 31 18 32 19 33 20 42 21 34 22 37 23 41 24
REMARK SMILES IDX 38 25 40 26 39 27 35 28 36 29 11 30 12 31 13 33 14 34 19 35
REMARK SMILES IDX 15 36 18 37 16 38 17 39 20 40 21 41 8 43 7 44 6 45 5 46 3 47
REMARK SMILES IDX 4 48 2 49 1 50
REMARK H PARENT 43 5 27 10 11 32
REMARK Flexibility Score: 80.00
ROOT
ATOM      1  C   UNL     1      17.281 -29.120  21.593  1.00  0.00     0.035 C 
ENDROOT
BRANCH   1   2
ATOM      2  C   UNL     1      18.125 -30.312  21.119  1.00  0.00     0.171 C 
BRANCH   2   3
ATOM      3  C   UNL     1      19.020 -30.810  22.219  1.00  0.00     0.243 C 
ATOM      4  N   UNL     1      20.444 -30.818  22.046  1.00  0.00    -0.342 N 
ATOM      5  H   UNL     1      20.840 -30.300  21.228  1.00  0.00     0.164 HD
ATOM      6  O   UNL     1      18.509 -31.224  23.291  1.00  0.00    -0.273 OA
BRANCH   4   7
ATOM      7  C   UNL     1      21.376 -31.609  22.861  1.00  0.00     0.175 C 
BRANCH   7   8
ATOM      8  C   UNL     1      20.666 -32.669  23.681  1.00  0.00     0.243 C 
ATOM      9  N   UNL     1      20.279 -33.943  23.126  1.00  0.00    -0.342 N 
ATOM     10  H   UNL     1      20.622 -34.217  22.186  1.00  0.00     0.164 HD
ATOM     11  O   UNL     1      20.497 -32.446  24.906  1.00  0.00    -0.273 OA
BRANCH   9  12
ATOM     12  C   UNL     1      19.552 -34.958  23.902  1.00  0.00     0.174 CG0
ATOM     13  G   UNL     1      18.182 -35.173  23.284  1.00  0.00     0.000 G0
BRANCH  12  14
ATOM     14  C   UNL     1      20.366 -36.277  24.007  1.00  0.00     0.018 C 
ATOM     15  C   UNL     1      20.566 -36.695  25.478  1.00  0.00     0.010 C 
BRANCH  14  16
ATOM     16  C   UNL     1      21.726 -36.231  23.261  1.00  0.00     0.002 C 
ATOM     17  C   UNL     1      22.960 -36.091  24.165  1.00  0.00     0.004 C 
ENDBRANCH  14  16
ENDBRANCH  12  14
ENDBRANCH   9  12
ENDBRANCH   7   8
BRANCH   7  18
ATOM     18  C   UNL     1      22.266 -30.720  23.762  1.00  0.00     0.073 C 
BRANCH  18  19
ATOM     19  C   UNL     1      23.400 -31.491  24.379  1.00  0.00    -0.016 A 
ATOM     20  C   UNL     1      23.838 -31.414  25.693  1.00  0.00     0.134 A 
ATOM     21  C   UNL     1      24.216 -32.417  23.764  1.00  0.00     0.006 A 
ATOM     22  N   UNL     1      24.873 -32.261  25.899  1.00  0.00    -0.191 N 
ATOM     23  C   UNL     1      25.107 -32.879  24.713  1.00  0.00     0.087 A 
ATOM     24  C   UNL     1      24.217 -32.883  22.449  1.00  0.00     0.011 A 
ATOM     25  C   UNL     1      26.060 -33.855  24.373  1.00  0.00     0.030 A 
ATOM     26  C   UNL     1      25.159 -33.863  22.103  1.00  0.00     0.001 A 
ATOM     27  C   UNL     1      26.076 -34.344  23.056  1.00  0.00     0.002 A 
BRANCH  22  28
ATOM     28  O   UNL     1      25.488 -32.387  27.136  1.00  0.00    -0.417 OA
ATOM     29  C   UNL     1      26.850 -32.105  27.400  1.00  0.00     0.313 C 
ENDBRANCH  22  28
ENDBRANCH  18  19
ENDBRANCH   7  18
ENDBRANCH   4   7
ENDBRANCH   2   3
BRANCH   2  30
ATOM     30  N   UNL     1      17.279 -31.418  20.671  1.00  0.00    -0.343 N 
ATOM     31  C   UNL     1      17.764 -32.757  20.752  1.00  0.00     0.243 C 
ATOM     32  H   UNL     1      16.240 -31.283  20.690  1.00  0.00     0.164 HD
ATOM     33  O   UNL     1      18.817 -33.068  20.133  1.00  0.00    -0.273 OA
BRANCH  31  34
ATOM     34  C   UNL     1      17.019 -33.782  21.571  1.00  0.00     0.174 C 
ATOM     35  N   UNL     1      17.889 -34.924  21.911  1.00  0.00    -0.329 N 
ATOM     36  C   UNL     1      15.739 -34.262  20.859  1.00  0.00     0.035 C 
ATOM     37  C   UNL     1      18.164 -35.955  20.894  1.00  0.00     0.120 C 
ATOM     38  C   UNL     1      16.040 -35.262  19.737  1.00  0.00     0.004 C 
ATOM     39  C   UNL     1      16.859 -36.445  20.262  1.00  0.00     0.022 C 
BRANCH  35  40
ATOM     40  C   UNL     1      18.178 -35.183  23.296  1.00  0.00     0.246 CG0
ATOM     41  O   UNL     1      17.230 -35.482  24.066  1.00  0.00    -0.272 OA
ATOM     42  G   UNL     1      19.558 -34.957  23.887  1.00  0.00     0.000 G0
ENDBRANCH  35  40
ENDBRANCH  31  34
ENDBRANCH   2  30
ENDBRANCH   1   2
BRANCH   1  43
ATOM     43  C   UNL     1      15.830 -29.537  21.885  1.00  0.00     0.003 C 
BRANCH  43  44
ATOM     44  C   UNL     1      15.374 -29.155  23.307  1.00  0.00     0.001 C 
BRANCH  44  45
ATOM     45  C   UNL     1      13.884 -28.775  23.435  1.00  0.00     0.008 C 
BRANCH  45  46
ATOM     46  C   UNL     1      12.967 -29.925  23.888  1.00  0.00     0.075 C 
BRANCH  46  47
ATOM     47  C   UNL     1      12.799 -30.979  22.820  1.00  0.00     0.132 C 
ATOM     48  O   UNL     1      12.100 -30.740  21.844  1.00  0.00    -0.300 OA
BRANCH  47  49
ATOM     49  C   UNL     1      13.506 -32.304  22.914  1.00  0.00     0.072 C 
ATOM     50  C   UNL     1      14.095 -32.515  24.302  1.00  0.00     0.012 C 
ENDBRANCH  47  49
ENDBRANCH  46  47
ENDBRANCH  45  46
ENDBRANCH  44  45
ENDBRANCH  43  44
ENDBRANCH   1  43
TORSDOF 12
ENDMDL
MODEL 6
REMARK VINA RESULT:    -5.969      2.800      4.427
REMARK INTER + INTRA:         -14.470
REMARK INTER:                 -13.160
REMARK INTRA:                  -1.310
REMARK UNBOUND:                -1.872
REMARK SMILES CCC(=O)CCCCC[C@@H]1NC(=O)[C@H]2CCCCN2C(=O)[C@@H]([C@H](C)CC)NC(=O)[C@H](Cc2cn(OC)c3ccccc23)NC1=O
REMARK SMILES IDX 9 1 10 2 44 3 43 4 45 6 30 7 28 8 27 9 29 11 22 12 23 14
REMARK SMILES IDX 24 15 25 16 26 17 31 18 32 19 33 20 42 21 34 22 37 23 41 24
REMARK SMILES IDX 38 25 40 26 39 27 35 28 36 29 11 30 12 31 13 33 14 34 19 35
REMARK SMILES IDX 15 36 18 37 16 38 17 39 20 40 21 41 8 43 7 44 6 45 5 46 3 47
REMARK SMILES IDX 4 48 2 49 1 50
REMARK H PARENT 43 5 27 10 11 32
REMARK Flexibility Score: 80.00
ROOT
ATOM      1  C   UNL     1      18.352 -28.826  21.228  1.00  0.00     0.035 C 
ENDROOT
BRANCH   1   2
ATOM      2  C   UNL     1      18.874 -30.271  21.257  1.00  0.00     0.171 C 
BRANCH   2   3
ATOM      3  C   UNL     1      19.011 -30.765  22.670  1.00  0.00     0.243 C 
ATOM      4  N   UNL     1      20.305 -31.062  23.211  1.00  0.00    -0.342 N 
ATOM      5  H   UNL     1      21.144 -30.747  22.671  1.00  0.00     0.164 HD
ATOM      6  O   UNL     1      17.979 -30.922  23.372  1.00  0.00    -0.273 OA
BRANCH   4   7
ATOM      7  C   UNL     1      20.540 -31.888  24.403  1.00  0.00     0.175 C 
BRANCH   7   8
ATOM      8  C   UNL     1      19.288 -32.617  24.852  1.00  0.00     0.243 C 
ATOM      9  N   UNL     1      18.847 -33.845  24.235  1.00  0.00    -0.342 N 
ATOM     10  H   UNL     1      19.472 -34.336  23.568  1.00  0.00     0.164 HD
ATOM     11  O   UNL     1      18.677 -32.169  25.853  1.00  0.00    -0.273 OA
BRANCH   9  12
ATOM     12  C   UNL     1      17.611 -34.533  24.636  1.00  0.00     0.174 CG0
ATOM     13  G   UNL     1      16.613 -34.473  23.494  1.00  0.00     0.000 G0
BRANCH  12  14
ATOM     14  C   UNL     1      17.900 -35.991  25.090  1.00  0.00     0.018 C 
ATOM     15  C   UNL     1      17.373 -36.247  26.516  1.00  0.00     0.010 C 
BRANCH  14  16
ATOM     16  C   UNL     1      19.395 -36.394  24.978  1.00  0.00     0.002 C 
ATOM     17  C   UNL     1      19.725 -37.356  23.828  1.00  0.00     0.004 C 
ENDBRANCH  14  16
ENDBRANCH  12  14
ENDBRANCH   9  12
ENDBRANCH   7   8
BRANCH   7  18
ATOM     18  C   UNL     1      21.152 -31.076  25.568  1.00  0.00     0.073 C 
BRANCH  18  19
ATOM     19  C   UNL     1      22.648 -31.212  25.631  1.00  0.00    -0.016 A 
ATOM     20  C   UNL     1      23.429 -32.130  24.944  1.00  0.00     0.134 A 
ATOM     21  C   UNL     1      23.528 -30.455  26.376  1.00  0.00     0.006 A 
ATOM     22  N   UNL     1      24.739 -31.952  25.233  1.00  0.00    -0.191 N 
ATOM     23  C   UNL     1      24.802 -30.921  26.114  1.00  0.00     0.087 A 
ATOM     24  C   UNL     1      23.286 -29.389  27.244  1.00  0.00     0.011 A 
ATOM     25  C   UNL     1      25.915 -30.321  26.728  1.00  0.00     0.030 A 
ATOM     26  C   UNL     1      24.392 -28.779  27.855  1.00  0.00     0.001 A 
ATOM     27  C   UNL     1      25.697 -29.243  27.601  1.00  0.00     0.002 A 
BRANCH  22  28
ATOM     28  O   UNL     1      25.733 -32.735  24.665  1.00  0.00    -0.417 OA
ATOM     29  C   UNL     1      26.578 -32.332  23.602  1.00  0.00     0.313 C 
ENDBRANCH  22  28
ENDBRANCH  18  19
ENDBRANCH   7  18
ENDBRANCH   4   7
ENDBRANCH   2   3
BRANCH   2  30
ATOM     30  N   UNL     1      17.980 -31.173  20.533  1.00  0.00    -0.343 N 
ATOM     31  C   UNL     1      17.986 -32.568  20.836  1.00  0.00     0.243 C 
ATOM     32  H   UNL     1      17.100 -30.776  20.127  1.00  0.00     0.164 HD
ATOM     33  O   UNL     1      19.055 -33.221  20.704  1.00  0.00    -0.273 OA
BRANCH  31  34
ATOM     34  C   UNL     1      16.722 -33.243  21.308  1.00  0.00     0.174 C 
ATOM     35  N   UNL     1      17.030 -34.438  22.116  1.00  0.00    -0.329 N 
ATOM     36  C   UNL     1      15.792 -33.601  20.133  1.00  0.00     0.035 C 
ATOM     37  C   UNL     1      17.430 -35.687  21.442  1.00  0.00     0.120 C 
ATOM     38  C   UNL     1      16.267 -34.846  19.375  1.00  0.00     0.004 C 
ATOM     39  C   UNL     1      16.441 -36.034  20.326  1.00  0.00     0.022 C 
BRANCH  35  40
ATOM     40  C   UNL     1      16.621 -34.463  23.495  1.00  0.00     0.246 CG0
ATOM     41  O   UNL     1      15.405 -34.293  23.769  1.00  0.00    -0.272 OA
ATOM     42  G   UNL     1      17.625 -34.534  24.631  1.00  0.00     0.000 G0
ENDBRANCH  35  40
ENDBRANCH  31  34
ENDBRANCH   2  30
ENDBRANCH   1   2
BRANCH   1  43
ATOM     43  C   UNL     1      19.475 -27.827  20.904  1.00  0.00     0.003 C 
BRANCH  43  44
ATOM     44  C   UNL     1      20.841 -28.511  20.696  1.00  0.00     0.001 C 
BRANCH  44  45
ATOM     45  C   UNL     1      22.066 -27.591  20.875  1.00  0.00     0.008 C 
BRANCH  45  46
ATOM     46  C   UNL     1      22.027 -26.303  20.033  1.00  0.00     0.075 C 
BRANCH  46  47
ATOM     47  C   UNL     1      22.677 -25.136  20.737  1.00  0.00     0.132 C 
ATOM     48  O   UNL     1      23.553 -24.501  20.164  1.00  0.00    -0.300 OA
BRANCH  47  49
ATOM     49  C   UNL     1      22.240 -24.715  22.113  1.00  0.00     0.072 C 
ATOM     50  C   UNL     1      20.727 -24.561  22.186  1.00  0.00     0.012 C 
ENDBRANCH  47  49
ENDBRANCH  46  47
ENDBRANCH  45  46
ENDBRANCH  44  45
ENDBRANCH  43  44
ENDBRANCH   1  43
TORSDOF 12
ENDMDL
MODEL 7
REMARK VINA RESULT:    -5.929      2.909      4.572
REMARK INTER + INTRA:         -14.387
REMARK INTER:                 -12.829
REMARK INTRA:                  -1.558
REMARK UNBOUND:                -1.872
REMARK SMILES CCC(=O)CCCCC[C@@H]1NC(=O)[C@H]2CCCCN2C(=O)[C@@H]([C@H](C)CC)NC(=O)[C@H](Cc2cn(OC)c3ccccc23)NC1=O
REMARK SMILES IDX 9 1 10 2 44 3 43 4 45 6 30 7 28 8 27 9 29 11 22 12 23 14
REMARK SMILES IDX 24 15 25 16 26 17 31 18 32 19 33 20 42 21 34 22 37 23 41 24
REMARK SMILES IDX 38 25 40 26 39 27 35 28 36 29 11 30 12 31 13 33 14 34 19 35
REMARK SMILES IDX 15 36 18 37 16 38 17 39 20 40 21 41 8 43 7 44 6 45 5 46 3 47
REMARK SMILES IDX 4 48 2 49 1 50
REMARK H PARENT 43 5 27 10 11 32
REMARK Flexibility Score: 80.00
ROOT
ATOM      1  C   UNL     1      18.792 -28.714  21.275  1.00  0.00     0.035 C 
ENDROOT
BRANCH   1   2
ATOM      2  C   UNL     1      19.069 -30.196  20.981  1.00  0.00     0.171 C 
BRANCH   2   3
ATOM      3  C   UNL     1      19.571 -30.904  22.209  1.00  0.00     0.243 C 
ATOM      4  N   UNL     1      20.796 -31.648  22.165  1.00  0.00    -0.342 N 
ATOM      5  H   UNL     1      21.412 -31.526  21.328  1.00  0.00     0.164 HD
ATOM      6  O   UNL     1      18.904 -30.842  23.273  1.00  0.00    -0.273 OA
BRANCH   4   7
ATOM      7  C   UNL     1      21.185 -32.667  23.149  1.00  0.00     0.175 C 
BRANCH   7   8
ATOM      8  C   UNL     1      20.017 -33.115  24.006  1.00  0.00     0.243 C 
ATOM      9  N   UNL     1      19.055 -34.090  23.551  1.00  0.00    -0.342 N 
ATOM     10  H   UNL     1      19.237 -34.620  22.678  1.00  0.00     0.164 HD
ATOM     11  O   UNL     1      19.952 -32.678  25.181  1.00  0.00    -0.273 OA
BRANCH   9  12
ATOM     12  C   UNL     1      17.896 -34.496  24.358  1.00  0.00     0.174 CG0
ATOM     13  G   UNL     1      16.622 -34.200  23.588  1.00  0.00     0.000 G0
BRANCH  12  14
ATOM     14  C   UNL     1      17.997 -35.988  24.779  1.00  0.00     0.018 C 
ATOM     15  C   UNL     1      17.591 -36.182  26.253  1.00  0.00     0.010 C 
BRANCH  14  16
ATOM     16  C   UNL     1      19.389 -36.619  24.506  1.00  0.00     0.002 C 
ATOM     17  C   UNL     1      19.473 -37.489  23.243  1.00  0.00     0.004 C 
ENDBRANCH  14  16
ENDBRANCH  12  14
ENDBRANCH   9  12
ENDBRANCH   7   8
BRANCH   7  18
ATOM     18  C   UNL     1      22.371 -32.208  24.030  1.00  0.00     0.073 C 
BRANCH  18  19
ATOM     19  C   UNL     1      23.517 -33.180  23.994  1.00  0.00    -0.016 A 
ATOM     20  C   UNL     1      24.688 -33.056  23.261  1.00  0.00     0.134 A 
ATOM     21  C   UNL     1      23.625 -34.374  24.677  1.00  0.00     0.006 A 
ATOM     22  N   UNL     1      25.501 -34.116  23.483  1.00  0.00    -0.191 N 
ATOM     23  C   UNL     1      24.849 -34.927  24.354  1.00  0.00     0.087 A 
ATOM     24  C   UNL     1      22.737 -34.988  25.562  1.00  0.00     0.011 A 
ATOM     25  C   UNL     1      25.244 -36.151  24.920  1.00  0.00     0.030 A 
ATOM     26  C   UNL     1      23.127 -36.205  26.139  1.00  0.00     0.001 A 
ATOM     27  C   UNL     1      24.369 -36.785  25.819  1.00  0.00     0.002 A 
BRANCH  22  28
ATOM     28  O   UNL     1      26.745 -34.229  22.879  1.00  0.00    -0.417 OA
ATOM     29  C   UNL     1      27.987 -34.146  23.553  1.00  0.00     0.313 C 
ENDBRANCH  22  28
ENDBRANCH  18  19
ENDBRANCH   7  18
ENDBRANCH   4   7
ENDBRANCH   2   3
BRANCH   2  30
ATOM     30  N   UNL     1      17.864 -30.878  20.510  1.00  0.00    -0.343 N 
ATOM     31  C   UNL     1      17.665 -32.257  20.821  1.00  0.00     0.243 C 
ATOM     32  H   UNL     1      17.010 -30.301  20.326  1.00  0.00     0.164 HD
ATOM     33  O   UNL     1      18.517 -33.102  20.440  1.00  0.00    -0.273 OA
BRANCH  31  34
ATOM     34  C   UNL     1      16.445 -32.686  21.598  1.00  0.00     0.174 C 
ATOM     35  N   UNL     1      16.620 -34.042  22.151  1.00  0.00    -0.329 N 
ATOM     36  C   UNL     1      15.166 -32.605  20.743  1.00  0.00     0.035 C 
ATOM     37  C   UNL     1      16.457 -35.213  21.271  1.00  0.00     0.120 C 
ATOM     38  C   UNL     1      15.049 -33.776  19.760  1.00  0.00     0.004 C 
ATOM     39  C   UNL     1      15.142 -35.118  20.492  1.00  0.00     0.022 C 
BRANCH  35  40
ATOM     40  C   UNL     1      16.617 -34.209  23.581  1.00  0.00     0.246 CG0
ATOM     41  O   UNL     1      15.555 -33.983  24.214  1.00  0.00    -0.272 OA
ATOM     42  G   UNL     1      17.887 -34.499  24.360  1.00  0.00     0.000 G0
ENDBRANCH  35  40
ENDBRANCH  31  34
ENDBRANCH   2  30
ENDBRANCH   1   2
BRANCH   1  43
ATOM     43  C   UNL     1      19.770 -27.797  20.521  1.00  0.00     0.003 C 
BRANCH  43  44
ATOM     44  C   UNL     1      21.217 -28.327  20.537  1.00  0.00     0.001 C 
BRANCH  44  45
ATOM     45  C   UNL     1      22.300 -27.261  20.811  1.00  0.00     0.008 C 
BRANCH  45  46
ATOM     46  C   UNL     1      22.151 -25.972  19.984  1.00  0.00     0.075 C 
BRANCH  46  47
ATOM     47  C   UNL     1      22.872 -24.802  20.610  1.00  0.00     0.132 C 
ATOM     48  O   UNL     1      23.744 -24.223  19.975  1.00  0.00    -0.300 OA
BRANCH  47  49
ATOM     49  C   UNL     1      22.511 -24.309  21.985  1.00  0.00     0.072 C 
ATOM     50  C   UNL     1      21.001 -24.250  22.169  1.00  0.00     0.012 C 
ENDBRANCH  47  49
ENDBRANCH  46  47
ENDBRANCH  45  46
ENDBRANCH  44  45
ENDBRANCH  43  44
ENDBRANCH   1  43
TORSDOF 12
ENDMDL
MODEL 8
REMARK VINA RESULT:    -5.925      2.713      4.415
REMARK INTER + INTRA:         -14.377
REMARK INTER:                 -12.695
REMARK INTRA:                  -1.682
REMARK UNBOUND:                -1.872
REMARK SMILES CCC(=O)CCCCC[C@@H]1NC(=O)[C@H]2CCCCN2C(=O)[C@@H]([C@H](C)CC)NC(=O)[C@H](Cc2cn(OC)c3ccccc23)NC1=O
REMARK SMILES IDX 9 1 10 2 44 3 43 4 45 6 30 7 28 8 27 9 29 11 22 12 23 14
REMARK SMILES IDX 24 15 25 16 26 17 31 18 32 19 33 20 42 21 34 22 37 23 41 24
REMARK SMILES IDX 38 25 40 26 39 27 35 28 36 29 11 30 12 31 13 33 14 34 19 35
REMARK SMILES IDX 15 36 18 37 16 38 17 39 20 40 21 41 8 43 7 44 6 45 5 46 3 47
REMARK SMILES IDX 4 48 2 49 1 50
REMARK H PARENT 43 5 27 10 11 32
REMARK Flexibility Score: 80.00
ROOT
ATOM      1  C   UNL     1      18.525 -28.797  21.319  1.00  0.00     0.035 C 
ENDROOT
BRANCH   1   2
ATOM      2  C   UNL     1      18.951 -30.265  21.164  1.00  0.00     0.171 C 
BRANCH   2   3
ATOM      3  C   UNL     1      19.247 -30.885  22.501  1.00  0.00     0.243 C 
ATOM      4  N   UNL     1      20.541 -31.439  22.772  1.00  0.00    -0.342 N 
ATOM      5  H   UNL     1      21.313 -31.230  22.097  1.00  0.00     0.164 HD
ATOM      6  O   UNL     1      18.347 -30.918  23.378  1.00  0.00    -0.273 OA
BRANCH   4   7
ATOM      7  C   UNL     1      20.831 -32.384  23.858  1.00  0.00     0.175 C 
BRANCH   7   8
ATOM      8  C   UNL     1      19.569 -32.952  24.478  1.00  0.00     0.243 C 
ATOM      9  N   UNL     1      18.837 -34.041  23.877  1.00  0.00    -0.342 N 
ATOM     10  H   UNL     1      19.254 -34.560  23.081  1.00  0.00     0.164 HD
ATOM     11  O   UNL     1      19.213 -32.506  25.597  1.00  0.00    -0.273 OA
BRANCH   9  12
ATOM     12  C   UNL     1      17.589 -34.567  24.448  1.00  0.00     0.174 CG0
ATOM     13  G   UNL     1      16.462 -34.376  23.448  1.00  0.00     0.000 G0
BRANCH  12  14
ATOM     14  C   UNL     1      17.749 -36.051  24.879  1.00  0.00     0.018 C 
ATOM     15  C   UNL     1      17.335 -36.253  26.351  1.00  0.00     0.010 C 
BRANCH  14  16
ATOM     16  C   UNL     1      19.169 -36.624  24.626  1.00  0.00     0.002 C 
ATOM     17  C   UNL     1      19.261 -37.659  23.495  1.00  0.00     0.004 C 
ENDBRANCH  14  16
ENDBRANCH  12  14
ENDBRANCH   9  12
ENDBRANCH   7   8
BRANCH   7  18
ATOM     18  C   UNL     1      21.747 -31.768  24.942  1.00  0.00     0.073 C 
BRANCH  18  19
ATOM     19  C   UNL     1      23.079 -32.460  25.021  1.00  0.00    -0.016 A 
ATOM     20  C   UNL     1      23.339 -33.698  25.589  1.00  0.00     0.134 A 
ATOM     21  C   UNL     1      24.291 -32.003  24.547  1.00  0.00     0.006 A 
ATOM     22  N   UNL     1      24.651 -34.011  25.467  1.00  0.00    -0.191 N 
ATOM     23  C   UNL     1      25.238 -32.969  24.825  1.00  0.00     0.087 A 
ATOM     24  C   UNL     1      24.607 -30.817  23.882  1.00  0.00     0.011 A 
ATOM     25  C   UNL     1      26.576 -32.782  24.439  1.00  0.00     0.030 A 
ATOM     26  C   UNL     1      25.939 -30.625  23.484  1.00  0.00     0.001 A 
ATOM     27  C   UNL     1      26.917 -31.599  23.763  1.00  0.00     0.002 A 
BRANCH  22  28
ATOM     28  O   UNL     1      25.171 -35.206  25.943  1.00  0.00    -0.417 OA
ATOM     29  C   UNL     1      24.414 -36.373  26.211  1.00  0.00     0.313 C 
ENDBRANCH  22  28
ENDBRANCH  18  19
ENDBRANCH   7  18
ENDBRANCH   4   7
ENDBRANCH   2   3
BRANCH   2  30
ATOM     30  N   UNL     1      17.910 -31.054  20.505  1.00  0.00    -0.343 N 
ATOM     31  C   UNL     1      17.792 -32.447  20.790  1.00  0.00     0.243 C 
ATOM     32  H   UNL     1      17.048 -30.558  20.178  1.00  0.00     0.164 HD
ATOM     33  O   UNL     1      18.771 -33.206  20.562  1.00  0.00    -0.273 OA
BRANCH  31  34
ATOM     34  C   UNL     1      16.506 -32.994  21.357  1.00  0.00     0.174 C 
ATOM     35  N   UNL     1      16.734 -34.283  22.039  1.00  0.00    -0.329 N 
ATOM     36  C   UNL     1      15.418 -33.133  20.275  1.00  0.00     0.035 C 
ATOM     37  C   UNL     1      16.890 -35.511  21.239  1.00  0.00     0.120 C 
ATOM     38  C   UNL     1      15.639 -34.360  19.383  1.00  0.00     0.004 C 
ATOM     39  C   UNL     1      15.751 -35.636  20.224  1.00  0.00     0.022 C 
BRANCH  35  40
ATOM     40  C   UNL     1      16.473 -34.371  23.451  1.00  0.00     0.246 CG0
ATOM     41  O   UNL     1      15.311 -34.133  23.868  1.00  0.00    -0.272 OA
ATOM     42  G   UNL     1      17.583 -34.590  24.463  1.00  0.00     0.000 G0
ENDBRANCH  35  40
ENDBRANCH  31  34
ENDBRANCH   2  30
ENDBRANCH   1   2
BRANCH   1  43
ATOM     43  C   UNL     1      19.553 -27.841  20.692  1.00  0.00     0.003 C 
BRANCH  43  44
ATOM     44  C   UNL     1      20.967 -28.451  20.620  1.00  0.00     0.001 C 
BRANCH  44  45
ATOM     45  C   UNL     1      21.948 -27.956  21.704  1.00  0.00     0.008 C 
BRANCH  45  46
ATOM     46  C   UNL     1      22.982 -26.929  21.210  1.00  0.00     0.075 C 
BRANCH  46  47
ATOM     47  C   UNL     1      22.510 -25.507  21.389  1.00  0.00     0.132 C 
ATOM     48  O   UNL     1      22.705 -24.692  20.496  1.00  0.00    -0.300 OA
BRANCH  47  49
ATOM     49  C   UNL     1      21.768 -25.081  22.626  1.00  0.00     0.072 C 
ATOM     50  C   UNL     1      21.154 -23.699  22.450  1.00  0.00     0.012 C 
ENDBRANCH  47  49
ENDBRANCH  46  47
ENDBRANCH  45  46
ENDBRANCH  44  45
ENDBRANCH  43  44
ENDBRANCH   1  43
TORSDOF 12
ENDMDL
MODEL 9
REMARK VINA RESULT:    -5.920      2.939      7.712
REMARK INTER + INTRA:         -14.368
REMARK INTER:                 -12.694
REMARK INTRA:                  -1.674
REMARK UNBOUND:                -1.872
REMARK SMILES CCC(=O)CCCCC[C@@H]1NC(=O)[C@H]2CCCCN2C(=O)[C@@H]([C@H](C)CC)NC(=O)[C@H](Cc2cn(OC)c3ccccc23)NC1=O
REMARK SMILES IDX 9 1 10 2 44 3 43 4 45 6 30 7 28 8 27 9 29 11 22 12 23 14
REMARK SMILES IDX 24 15 25 16 26 17 31 18 32 19 33 20 42 21 34 22 37 23 41 24
REMARK SMILES IDX 38 25 40 26 39 27 35 28 36 29 11 30 12 31 13 33 14 34 19 35
REMARK SMILES IDX 15 36 18 37 16 38 17 39 20 40 21 41 8 43 7 44 6 45 5 46 3 47
REMARK SMILES IDX 4 48 2 49 1 50
REMARK H PARENT 43 5 27 10 11 32
REMARK Flexibility Score: 80.00
ROOT
ATOM      1  C   UNL     1      19.465 -30.701  21.510  1.00  0.00     0.035 C 
ENDROOT
BRANCH   1   2
ATOM      2  C   UNL     1      19.813 -31.002  22.976  1.00  0.00     0.171 C 
BRANCH   2   3
ATOM      3  C   UNL     1      19.941 -32.482  23.206  1.00  0.00     0.243 C 
ATOM      4  N   UNL     1      19.188 -33.121  24.245  1.00  0.00    -0.342 N 
ATOM      5  H   UNL     1      18.420 -32.574  24.699  1.00  0.00     0.164 HD
ATOM      6  O   UNL     1      20.720 -33.154  22.482  1.00  0.00    -0.273 OA
BRANCH   4   7
ATOM      7  C   UNL     1      19.500 -34.442  24.807  1.00  0.00     0.175 C 
BRANCH   7   8
ATOM      8  C   UNL     1      20.875 -34.932  24.395  1.00  0.00     0.243 C 
ATOM      9  N   UNL     1      22.086 -34.415  24.985  1.00  0.00    -0.342 N 
ATOM     10  H   UNL     1      22.028 -33.803  25.820  1.00  0.00     0.164 HD
ATOM     11  O   UNL     1      20.937 -35.881  23.575  1.00  0.00    -0.273 OA
BRANCH   9  12
ATOM     12  C   UNL     1      23.423 -34.853  24.560  1.00  0.00     0.174 CG0
ATOM     13  G   UNL     1      24.309 -33.636  24.365  1.00  0.00     0.000 G0
BRANCH  12  14
ATOM     14  C   UNL     1      24.030 -35.869  25.567  1.00  0.00     0.018 C 
ATOM     15  C   UNL     1      24.059 -37.293  24.977  1.00  0.00     0.010 C 
BRANCH  14  16
ATOM     16  C   UNL     1      23.332 -35.864  26.954  1.00  0.00     0.002 C 
ATOM     17  C   UNL     1      22.534 -37.134  27.284  1.00  0.00     0.004 C 
ENDBRANCH  14  16
ENDBRANCH  12  14
ENDBRANCH   9  12
ENDBRANCH   7   8
BRANCH   7  18
ATOM     18  C   UNL     1      18.416 -35.494  24.468  1.00  0.00     0.073 C 
BRANCH  18  19
ATOM     19  C   UNL     1      17.616 -35.115  23.253  1.00  0.00    -0.016 A 
ATOM     20  C   UNL     1      17.863 -35.500  21.943  1.00  0.00     0.134 A 
ATOM     21  C   UNL     1      16.491 -34.318  23.205  1.00  0.00     0.006 A 
ATOM     22  N   UNL     1      16.929 -34.981  21.112  1.00  0.00    -0.191 N 
ATOM     23  C   UNL     1      16.084 -34.254  21.887  1.00  0.00     0.087 A 
ATOM     24  C   UNL     1      15.804 -33.670  24.232  1.00  0.00     0.011 A 
ATOM     25  C   UNL     1      14.940 -33.517  21.534  1.00  0.00     0.030 A 
ATOM     26  C   UNL     1      14.656 -32.939  23.891  1.00  0.00     0.001 A 
ATOM     27  C   UNL     1      14.228 -32.861  22.552  1.00  0.00     0.002 A 
BRANCH  22  28
ATOM     28  O   UNL     1      16.940 -35.226  19.747  1.00  0.00    -0.417 OA
ATOM     29  C   UNL     1      17.560 -34.402  18.777  1.00  0.00     0.313 C 
ENDBRANCH  22  28
ENDBRANCH  18  19
ENDBRANCH   7  18
ENDBRANCH   4   7
ENDBRANCH   2   3
BRANCH   2  30
ATOM     30  N   UNL     1      21.067 -30.359  23.367  1.00  0.00    -0.343 N 
ATOM     31  C   UNL     1      21.927 -31.000  24.308  1.00  0.00     0.243 C 
ATOM     32  H   UNL     1      21.510 -29.690  22.693  1.00  0.00     0.164 HD
ATOM     33  O   UNL     1      21.489 -31.266  25.459  1.00  0.00    -0.273 OA
BRANCH  31  34
ATOM     34  C   UNL     1      23.341 -31.353  23.920  1.00  0.00     0.174 C 
ATOM     35  N   UNL     1      23.923 -32.326  24.864  1.00  0.00    -0.329 N 
ATOM     36  C   UNL     1      24.232 -30.100  23.809  1.00  0.00     0.035 C 
ATOM     37  C   UNL     1      24.411 -31.864  26.176  1.00  0.00     0.120 C 
ATOM     38  C   UNL     1      24.657 -29.566  25.182  1.00  0.00     0.004 C 
ATOM     39  C   UNL     1      25.341 -30.660  26.008  1.00  0.00     0.022 C 
BRANCH  35  40
ATOM     40  C   UNL     1      24.302 -33.623  24.370  1.00  0.00     0.246 CG0
ATOM     41  O   UNL     1      25.323 -33.718  23.641  1.00  0.00    -0.272 OA
ATOM     42  G   UNL     1      23.430 -34.848  24.572  1.00  0.00     0.000 G0
ENDBRANCH  35  40
ENDBRANCH  31  34
ENDBRANCH   2  30
ENDBRANCH   1   2
BRANCH   1  43
ATOM     43  C   UNL     1      18.688 -29.380  21.375  1.00  0.00     0.003 C 
BRANCH  43  44
ATOM     44  C   UNL     1      19.333 -28.411  20.364  1.00  0.00     0.001 C 
BRANCH  44  45
ATOM     45  C   UNL     1      20.397 -27.462  20.957  1.00  0.00     0.008 C 
BRANCH  45  46
ATOM     46  C   UNL     1      21.846 -27.957  20.810  1.00  0.00     0.075 C 
BRANCH  46  47
ATOM     47  C   UNL     1      22.751 -26.912  20.202  1.00  0.00     0.132 C 
ATOM     48  O   UNL     1      23.622 -27.256  19.413  1.00  0.00    -0.300 OA
BRANCH  47  49
ATOM     49  C   UNL     1      22.577 -25.452  20.517  1.00  0.00     0.072 C 
ATOM     50  C   UNL     1      23.408 -24.585  19.581  1.00  0.00     0.012 C 
ENDBRANCH  47  49
ENDBRANCH  46  47
ENDBRANCH  45  46
ENDBRANCH  44  45
ENDBRANCH  43  44
ENDBRANCH   1  43
TORSDOF 12
ENDMDL
