MODEL 1
REMARK VINA RESULT:    -3.033      0.000      0.000
REMARK INTER + INTRA:          -4.600
REMARK INTER:                  -4.629
REMARK INTRA:                   0.029
REMARK UNBOUND:                 0.029
REMARK SMILES CC1=CCC[C@H](C)C(=O)C[C@@H](C(C)C)C(=O)C1
REMARK SMILES IDX 8 1 9 2 6 3 7 4 5 5 4 6 3 7 2 8 1 9 10 11 11 12 15 13 16 14
REMARK SMILES IDX 17 15 12 17 13 18 14 19
REMARK H PARENT
REMARK Flexibility Score: 70.00
ROOT
ATOM      1  C   UNL     1      -0.369   8.887  -5.003  1.00  0.00     0.136 C 
ATOM      2  O   UNL     1      -0.628   9.848  -5.714  1.00  0.00    -0.299 OA
ENDROOT
BRANCH   1   3
ATOM      3  C   UNL     1      -1.302   7.690  -4.969  1.00  0.00     0.053 C 
ATOM      4  C   UNL     1      -0.926   6.629  -6.012  1.00  0.00     0.016 C 
BRANCH   3   5
ATOM      5  C   UNL     1      -1.403   7.091  -3.552  1.00  0.00     0.015 C 
BRANCH   5   6
ATOM      6  C   UNL     1      -0.993   5.605  -3.463  1.00  0.00     0.028 C 
BRANCH   6   7
ATOM      7  C   UNL     1      -0.259   5.326  -2.176  1.00  0.00    -0.028 C 
ATOM      8  C   UNL     1       1.087   5.364  -2.032  1.00  0.00    -0.070 CG0
ATOM      9  C   UNL     1       1.659   5.139  -0.656  1.00  0.00     0.039 C 
ATOM     10  G   UNL     1       2.041   5.632  -3.187  1.00  0.00     0.000 G0
ENDBRANCH   6   7
ENDBRANCH   5   6
ENDBRANCH   3   5
ENDBRANCH   1   3
BRANCH   1  11
ATOM     11  C   UNL     1       0.889   8.916  -4.166  1.00  0.00     0.087 C 
BRANCH  11  12
ATOM     12  C   UNL     1       1.901   7.820  -4.590  1.00  0.00     0.066 C 
BRANCH  12  13
ATOM     13  C   UNL     1       2.386   7.071  -3.359  1.00  0.00     0.140 C 
ATOM     14  O   UNL     1       3.113   7.639  -2.556  1.00  0.00    -0.299 OA
BRANCH  13  15
ATOM     15  C   UNL     1       2.067   5.608  -3.174  1.00  0.00     0.106 CG0
ATOM     16  G   UNL     1       1.093   5.365  -2.031  1.00  0.00     0.000 G0
ENDBRANCH  13  15
ENDBRANCH  12  13
BRANCH  12  17
ATOM     17  C   UNL     1       3.117   8.395  -5.388  1.00  0.00    -0.006 C 
ATOM     18  C   UNL     1       4.223   7.336  -5.551  1.00  0.00     0.008 C 
ATOM     19  C   UNL     1       2.719   8.912  -6.783  1.00  0.00     0.008 C 
ENDBRANCH  12  17
ENDBRANCH  11  12
ENDBRANCH   1  11
TORSDOF 1
ENDMDL
MODEL 2
REMARK VINA RESULT:    -2.942      1.826      3.478
REMARK INTER + INTRA:          -4.461
REMARK INTER:                  -4.156
REMARK INTRA:                  -0.305
REMARK UNBOUND:                 0.029
REMARK SMILES CC1=CCC[C@H](C)C(=O)C[C@@H](C(C)C)C(=O)C1
REMARK SMILES IDX 8 1 9 2 6 3 7 4 5 5 4 6 3 7 2 8 1 9 10 11 11 12 15 13 16 14
REMARK SMILES IDX 17 15 12 17 13 18 14 19
REMARK H PARENT
REMARK Flexibility Score: 70.00
ROOT
ATOM      1  C   UNL     1      -1.017   6.543  -3.431  1.00  0.00     0.136 C 
ATOM      2  O   UNL     1      -2.158   6.125  -3.581  1.00  0.00    -0.299 OA
ENDROOT
BRANCH   1   3
ATOM      3  C   UNL     1      -0.004   5.728  -2.648  1.00  0.00     0.053 C 
ATOM      4  C   UNL     1      -0.512   5.359  -1.247  1.00  0.00     0.016 C 
BRANCH   3   5
ATOM      5  C   UNL     1       0.454   4.485  -3.437  1.00  0.00     0.015 C 
BRANCH   5   6
ATOM      6  C   UNL     1       1.854   4.620  -4.073  1.00  0.00     0.028 C 
BRANCH   6   7
ATOM      7  C   UNL     1       2.706   5.589  -3.295  1.00  0.00    -0.028 C 
ATOM      8  C   UNL     1       3.086   6.811  -3.739  1.00  0.00    -0.070 CG0
ATOM      9  C   UNL     1       3.873   7.692  -2.802  1.00  0.00     0.039 C 
ATOM     10  G   UNL     1       2.749   7.334  -5.127  1.00  0.00     0.000 G0
ENDBRANCH   6   7
ENDBRANCH   5   6
ENDBRANCH   3   5
ENDBRANCH   1   3
BRANCH   1  11
ATOM     11  C   UNL     1      -0.643   7.876  -4.037  1.00  0.00     0.087 C 
BRANCH  11  12
ATOM     12  C   UNL     1       0.167   7.717  -5.349  1.00  0.00     0.066 C 
BRANCH  12  13
ATOM     13  C   UNL     1       1.569   8.272  -5.152  1.00  0.00     0.140 C 
ATOM     14  O   UNL     1       1.735   9.482  -5.099  1.00  0.00    -0.299 OA
BRANCH  13  15
ATOM     15  C   UNL     1       2.765   7.351  -5.129  1.00  0.00     0.106 CG0
ATOM     16  G   UNL     1       3.069   6.830  -3.732  1.00  0.00     0.000 G0
ENDBRANCH  13  15
ENDBRANCH  12  13
BRANCH  12  17
ATOM     17  C   UNL     1      -0.521   8.406  -6.573  1.00  0.00    -0.006 C 
ATOM     18  C   UNL     1      -0.214   7.649  -7.879  1.00  0.00     0.008 C 
ATOM     19  C   UNL     1      -2.049   8.512  -6.411  1.00  0.00     0.008 C 
ENDBRANCH  12  17
ENDBRANCH  11  12
ENDBRANCH   1  11
TORSDOF 1
ENDMDL
MODEL 3
REMARK VINA RESULT:    -2.917      2.194      3.398
REMARK INTER + INTRA:          -4.423
REMARK INTER:                  -4.090
REMARK INTRA:                  -0.333
REMARK UNBOUND:                 0.029
REMARK SMILES CC1=CCC[C@H](C)C(=O)C[C@@H](C(C)C)C(=O)C1
REMARK SMILES IDX 8 1 9 2 6 3 7 4 5 5 4 6 3 7 2 8 1 9 10 11 11 12 15 13 16 14
REMARK SMILES IDX 17 15 12 17 13 18 14 19
REMARK H PARENT
REMARK Flexibility Score: 70.00
ROOT
ATOM      1  C   UNL     1      -1.483   5.231  -2.791  1.00  0.00     0.136 C 
ATOM      2  O   UNL     1      -2.494   5.724  -3.272  1.00  0.00    -0.299 OA
ENDROOT
BRANCH   1   3
ATOM      3  C   UNL     1      -1.525   3.835  -2.196  1.00  0.00     0.053 C 
ATOM      4  C   UNL     1      -1.185   2.752  -3.229  1.00  0.00     0.016 C 
BRANCH   3   5
ATOM      5  C   UNL     1      -0.636   3.728  -0.940  1.00  0.00     0.015 C 
BRANCH   5   6
ATOM      6  C   UNL     1       0.695   2.982  -1.170  1.00  0.00     0.028 C 
BRANCH   6   7
ATOM      7  C   UNL     1       1.851   3.749  -0.581  1.00  0.00    -0.028 C 
ATOM      8  C   UNL     1       2.780   4.419  -1.304  1.00  0.00    -0.070 CG0
ATOM      9  C   UNL     1       3.827   5.206  -0.557  1.00  0.00     0.039 C 
ATOM     10  G   UNL     1       2.809   4.422  -2.825  1.00  0.00     0.000 G0
ENDBRANCH   6   7
ENDBRANCH   5   6
ENDBRANCH   3   5
ENDBRANCH   1   3
BRANCH   1  11
ATOM     11  C   UNL     1      -0.203   6.035  -2.800  1.00  0.00     0.087 C 
BRANCH  11  12
ATOM     12  C   UNL     1       0.749   5.608  -3.947  1.00  0.00     0.066 C 
BRANCH  12  13
ATOM     13  C   UNL     1       2.187   5.639  -3.452  1.00  0.00     0.140 C 
ATOM     14  O   UNL     1       2.864   6.640  -3.634  1.00  0.00    -0.299 OA
BRANCH  13  15
ATOM     15  C   UNL     1       2.815   4.412  -2.837  1.00  0.00     0.106 CG0
ATOM     16  G   UNL     1       2.762   4.431  -1.317  1.00  0.00     0.000 G0
ENDBRANCH  13  15
ENDBRANCH  12  13
BRANCH  12  17
ATOM     17  C   UNL     1       0.597   6.497  -5.224  1.00  0.00    -0.006 C 
ATOM     18  C   UNL     1      -0.174   5.751  -6.329  1.00  0.00     0.008 C 
ATOM     19  C   UNL     1      -0.121   7.829  -4.935  1.00  0.00     0.008 C 
ENDBRANCH  12  17
ENDBRANCH  11  12
ENDBRANCH   1  11
TORSDOF 1
ENDMDL
MODEL 4
REMARK VINA RESULT:    -2.903      2.748      4.029
REMARK INTER + INTRA:          -4.402
REMARK INTER:                  -4.394
REMARK INTRA:                  -0.008
REMARK UNBOUND:                 0.029
REMARK SMILES CC1=CCC[C@H](C)C(=O)C[C@@H](C(C)C)C(=O)C1
REMARK SMILES IDX 8 1 9 2 6 3 7 4 5 5 4 6 3 7 2 8 1 9 10 11 11 12 15 13 16 14
REMARK SMILES IDX 17 15 12 17 13 18 14 19
REMARK H PARENT
REMARK Flexibility Score: 70.00
ROOT
ATOM      1  C   UNL     1      -1.408   5.504  -2.956  1.00  0.00     0.136 C 
ATOM      2  O   UNL     1      -2.630   5.553  -2.898  1.00  0.00    -0.299 OA
ENDROOT
BRANCH   1   3
ATOM      3  C   UNL     1      -0.660   4.354  -2.305  1.00  0.00     0.053 C 
ATOM      4  C   UNL     1      -0.498   4.548  -0.791  1.00  0.00     0.016 C 
BRANCH   3   5
ATOM      5  C   UNL     1      -1.308   2.995  -2.642  1.00  0.00     0.015 C 
BRANCH   5   6
ATOM      6  C   UNL     1      -0.923   2.439  -4.029  1.00  0.00     0.028 C 
BRANCH   6   7
ATOM      7  C   UNL     1       0.572   2.293  -4.155  1.00  0.00    -0.028 C 
ATOM      8  C   UNL     1       1.354   3.042  -4.968  1.00  0.00    -0.070 CG0
ATOM      9  C   UNL     1       2.844   2.825  -4.915  1.00  0.00     0.039 C 
ATOM     10  G   UNL     1       0.801   4.092  -5.920  1.00  0.00     0.000 G0
ENDBRANCH   6   7
ENDBRANCH   5   6
ENDBRANCH   3   5
ENDBRANCH   1   3
BRANCH   1  11
ATOM     11  C   UNL     1      -0.667   6.603  -3.681  1.00  0.00     0.087 C 
BRANCH  11  12
ATOM     12  C   UNL     1      -0.451   6.273  -5.181  1.00  0.00     0.066 C 
BRANCH  12  13
ATOM     13  C   UNL     1       0.839   5.485  -5.348  1.00  0.00     0.140 C 
ATOM     14  O   UNL     1       1.907   6.017  -5.081  1.00  0.00    -0.299 OA
BRANCH  13  15
ATOM     15  C   UNL     1       0.821   4.097  -5.940  1.00  0.00     0.106 CG0
ATOM     16  G   UNL     1       1.339   3.046  -4.970  1.00  0.00     0.000 G0
ENDBRANCH  13  15
ENDBRANCH  12  13
BRANCH  12  17
ATOM     17  C   UNL     1      -0.427   7.550  -6.084  1.00  0.00    -0.006 C 
ATOM     18  C   UNL     1      -0.125   7.185  -7.550  1.00  0.00     0.008 C 
ATOM     19  C   UNL     1      -1.750   8.335  -6.033  1.00  0.00     0.008 C 
ENDBRANCH  12  17
ENDBRANCH  11  12
ENDBRANCH   1  11
TORSDOF 1
ENDMDL
MODEL 5
REMARK VINA RESULT:    -2.885      1.958      4.059
REMARK INTER + INTRA:          -4.374
REMARK INTER:                  -4.265
REMARK INTRA:                  -0.109
REMARK UNBOUND:                 0.029
REMARK SMILES CC1=CCC[C@H](C)C(=O)C[C@@H](C(C)C)C(=O)C1
REMARK SMILES IDX 8 1 9 2 6 3 7 4 5 5 4 6 3 7 2 8 1 9 10 11 11 12 15 13 16 14
REMARK SMILES IDX 17 15 12 17 13 18 14 19
REMARK H PARENT
REMARK Flexibility Score: 70.00
ROOT
ATOM      1  C   UNL     1      -1.018   6.622  -4.292  1.00  0.00     0.136 C 
ATOM      2  O   UNL     1      -1.947   6.848  -3.527  1.00  0.00    -0.299 OA
ENDROOT
BRANCH   1   3
ATOM      3  C   UNL     1      -0.470   7.730  -5.172  1.00  0.00     0.053 C 
ATOM      4  C   UNL     1      -1.560   8.383  -6.033  1.00  0.00     0.016 C 
BRANCH   3   5
ATOM      5  C   UNL     1       0.311   8.774  -4.348  1.00  0.00     0.015 C 
BRANCH   5   6
ATOM      6  C   UNL     1       1.790   8.928  -4.760  1.00  0.00     0.028 C 
BRANCH   6   7
ATOM      7  C   UNL     1       2.706   8.402  -3.684  1.00  0.00    -0.028 C 
ATOM      8  C   UNL     1       3.101   7.112  -3.571  1.00  0.00    -0.070 CG0
ATOM      9  C   UNL     1       4.086   6.765  -2.484  1.00  0.00     0.039 C 
ATOM     10  G   UNL     1       2.606   6.005  -4.491  1.00  0.00     0.000 G0
ENDBRANCH   6   7
ENDBRANCH   5   6
ENDBRANCH   3   5
ENDBRANCH   1   3
BRANCH   1  11
ATOM     11  C   UNL     1      -0.435   5.229  -4.341  1.00  0.00     0.087 C 
BRANCH  11  12
ATOM     12  C   UNL     1       0.560   4.969  -3.180  1.00  0.00     0.066 C 
BRANCH  12  13
ATOM     13  C   UNL     1       1.968   4.839  -3.737  1.00  0.00     0.140 C 
ATOM     14  O   UNL     1       2.621   3.833  -3.494  1.00  0.00    -0.299 OA
BRANCH  13  15
ATOM     15  C   UNL     1       2.605   5.980  -4.492  1.00  0.00     0.106 CG0
ATOM     16  G   UNL     1       3.084   7.091  -3.570  1.00  0.00     0.000 G0
ENDBRANCH  13  15
ENDBRANCH  12  13
BRANCH  12  17
ATOM     17  C   UNL     1       0.191   3.703  -2.338  1.00  0.00    -0.006 C 
ATOM     18  C   UNL     1      -0.436   4.099  -0.988  1.00  0.00     0.008 C 
ATOM     19  C   UNL     1      -0.781   2.764  -3.077  1.00  0.00     0.008 C 
ENDBRANCH  12  17
ENDBRANCH  11  12
ENDBRANCH   1  11
TORSDOF 1
ENDMDL
MODEL 6
REMARK VINA RESULT:    -2.882      1.987      4.258
REMARK INTER + INTRA:          -4.370
REMARK INTER:                  -4.081
REMARK INTRA:                  -0.288
REMARK UNBOUND:                 0.029
REMARK SMILES CC1=CCC[C@H](C)C(=O)C[C@@H](C(C)C)C(=O)C1
REMARK SMILES IDX 8 1 9 2 6 3 7 4 5 5 4 6 3 7 2 8 1 9 10 11 11 12 15 13 16 14
REMARK SMILES IDX 17 15 12 17 13 18 14 19
REMARK H PARENT
REMARK Flexibility Score: 70.00
ROOT
ATOM      1  C   UNL     1       2.670   5.863  -1.902  1.00  0.00     0.136 C 
ATOM      2  O   UNL     1       3.239   6.830  -1.413  1.00  0.00    -0.299 OA
ENDROOT
BRANCH   1   3
ATOM      3  C   UNL     1       2.446   4.611  -1.074  1.00  0.00     0.053 C 
ATOM      4  C   UNL     1       3.765   3.972  -0.616  1.00  0.00     0.016 C 
BRANCH   3   5
ATOM      5  C   UNL     1       1.498   4.880   0.112  1.00  0.00     0.015 C 
BRANCH   5   6
ATOM      6  C   UNL     1       0.012   5.013  -0.284  1.00  0.00     0.028 C 
BRANCH   6   7
ATOM      7  C   UNL     1      -0.406   3.884  -1.190  1.00  0.00    -0.028 C 
ATOM      8  C   UNL     1      -0.945   4.043  -2.422  1.00  0.00    -0.070 CG0
ATOM      9  C   UNL     1      -1.233   2.807  -3.235  1.00  0.00     0.039 C 
ATOM     10  G   UNL     1      -1.261   5.405  -3.023  1.00  0.00     0.000 G0
ENDBRANCH   6   7
ENDBRANCH   5   6
ENDBRANCH   3   5
ENDBRANCH   1   3
BRANCH   1  11
ATOM     11  C   UNL     1       2.201   5.941  -3.337  1.00  0.00     0.087 C 
BRANCH  11  12
ATOM     12  C   UNL     1       0.911   6.790  -3.486  1.00  0.00     0.066 C 
BRANCH  12  13
ATOM     13  C   UNL     1      -0.224   5.908  -3.979  1.00  0.00     0.140 C 
ATOM     14  O   UNL     1      -0.323   5.667  -5.174  1.00  0.00    -0.299 OA
BRANCH  13  15
ATOM     15  C   UNL     1      -1.287   5.417  -3.027  1.00  0.00     0.106 CG0
ATOM     16  G   UNL     1      -0.945   4.063  -2.422  1.00  0.00     0.000 G0
ENDBRANCH  13  15
ENDBRANCH  12  13
BRANCH  12  17
ATOM     17  C   UNL     1       1.100   8.015  -4.440  1.00  0.00    -0.006 C 
ATOM     18  C   UNL     1      -0.135   8.936  -4.409  1.00  0.00     0.008 C 
ATOM     19  C   UNL     1       2.347   8.849  -4.093  1.00  0.00     0.008 C 
ENDBRANCH  12  17
ENDBRANCH  11  12
ENDBRANCH   1  11
TORSDOF 1
ENDMDL
MODEL 7
REMARK VINA RESULT:    -2.853      2.139      5.310
REMARK INTER + INTRA:          -4.326
REMARK INTER:                  -4.045
REMARK INTRA:                  -0.281
REMARK UNBOUND:                 0.029
REMARK SMILES CC1=CCC[C@H](C)C(=O)C[C@@H](C(C)C)C(=O)C1
REMARK SMILES IDX 8 1 9 2 6 3 7 4 5 5 4 6 3 7 2 8 1 9 10 11 11 12 15 13 16 14
REMARK SMILES IDX 17 15 12 17 13 18 14 19
REMARK H PARENT
REMARK Flexibility Score: 70.00
ROOT
ATOM      1  C   UNL     1       2.126   5.704  -2.469  1.00  0.00     0.136 C 
ATOM      2  O   UNL     1       2.849   4.880  -1.924  1.00  0.00    -0.299 OA
ENDROOT
BRANCH   1   3
ATOM      3  C   UNL     1       2.732   6.800  -3.328  1.00  0.00     0.053 C 
ATOM      4  C   UNL     1       3.702   7.689  -2.538  1.00  0.00     0.016 C 
BRANCH   3   5
ATOM      5  C   UNL     1       3.389   6.224  -4.599  1.00  0.00     0.015 C 
BRANCH   5   6
ATOM      6  C   UNL     1       2.464   6.202  -5.834  1.00  0.00     0.028 C 
BRANCH   6   7
ATOM      7  C   UNL     1       1.706   7.499  -5.961  1.00  0.00    -0.028 C 
ATOM      8  C   UNL     1       0.361   7.619  -5.857  1.00  0.00    -0.070 CG0
ATOM      9  C   UNL     1      -0.234   9.002  -5.928  1.00  0.00     0.039 C 
ATOM     10  G   UNL     1      -0.569   6.431  -5.664  1.00  0.00     0.000 G0
ENDBRANCH   6   7
ENDBRANCH   5   6
ENDBRANCH   3   5
ENDBRANCH   1   3
BRANCH   1  11
ATOM     11  C   UNL     1       0.631   5.609  -2.270  1.00  0.00     0.087 C 
BRANCH  11  12
ATOM     12  C   UNL     1      -0.090   5.023  -3.511  1.00  0.00     0.066 C 
BRANCH  12  13
ATOM     13  C   UNL     1      -0.863   6.125  -4.218  1.00  0.00     0.140 C 
ATOM     14  O   UNL     1      -1.763   6.703  -3.625  1.00  0.00    -0.299 OA
BRANCH  13  15
ATOM     15  C   UNL     1      -0.605   6.436  -5.672  1.00  0.00     0.106 CG0
ATOM     16  G   UNL     1       0.365   7.594  -5.854  1.00  0.00     0.000 G0
ENDBRANCH  13  15
ENDBRANCH  12  13
BRANCH  12  17
ATOM     17  C   UNL     1      -1.043   3.835  -3.153  1.00  0.00    -0.006 C 
ATOM     18  C   UNL     1      -0.670   2.568  -3.946  1.00  0.00     0.008 C 
ATOM     19  C   UNL     1      -1.030   3.499  -1.651  1.00  0.00     0.008 C 
ENDBRANCH  12  17
ENDBRANCH  11  12
ENDBRANCH   1  11
TORSDOF 1
ENDMDL
MODEL 8
REMARK VINA RESULT:    -2.841      2.091      4.352
REMARK INTER + INTRA:          -4.307
REMARK INTER:                  -4.193
REMARK INTRA:                  -0.115
REMARK UNBOUND:                 0.029
REMARK SMILES CC1=CCC[C@H](C)C(=O)C[C@@H](C(C)C)C(=O)C1
REMARK SMILES IDX 8 1 9 2 6 3 7 4 5 5 4 6 3 7 2 8 1 9 10 11 11 12 15 13 16 14
REMARK SMILES IDX 17 15 12 17 13 18 14 19
REMARK H PARENT
REMARK Flexibility Score: 70.00
ROOT
ATOM      1  C   UNL     1      -1.282   6.612  -3.713  1.00  0.00     0.136 C 
ATOM      2  O   UNL     1      -1.758   7.173  -2.734  1.00  0.00    -0.299 OA
ENDROOT
BRANCH   1   3
ATOM      3  C   UNL     1      -1.280   7.306  -5.062  1.00  0.00     0.053 C 
ATOM      4  C   UNL     1      -0.633   8.697  -5.001  1.00  0.00     0.016 C 
BRANCH   3   5
ATOM      5  C   UNL     1      -0.639   6.423  -6.152  1.00  0.00     0.015 C 
BRANCH   5   6
ATOM      6  C   UNL     1       0.791   6.848  -6.549  1.00  0.00     0.028 C 
BRANCH   6   7
ATOM      7  C   UNL     1       1.699   5.649  -6.651  1.00  0.00    -0.028 C 
ATOM      8  C   UNL     1       2.385   5.110  -5.615  1.00  0.00    -0.070 CG0
ATOM      9  C   UNL     1       3.187   3.860  -5.870  1.00  0.00     0.039 C 
ATOM     10  G   UNL     1       2.375   5.701  -4.213  1.00  0.00     0.000 G0
ENDBRANCH   6   7
ENDBRANCH   5   6
ENDBRANCH   3   5
ENDBRANCH   1   3
BRANCH   1  11
ATOM     11  C   UNL     1      -0.701   5.227  -3.549  1.00  0.00     0.087 C 
BRANCH  11  12
ATOM     12  C   UNL     1       0.441   5.190  -2.501  1.00  0.00     0.066 C 
BRANCH  12  13
ATOM     13  C   UNL     1       1.741   4.785  -3.179  1.00  0.00     0.140 C 
ATOM     14  O   UNL     1       2.304   3.756  -2.833  1.00  0.00    -0.299 OA
BRANCH  13  15
ATOM     15  C   UNL     1       2.394   5.692  -4.193  1.00  0.00     0.106 CG0
ATOM     16  G   UNL     1       2.373   5.105  -5.596  1.00  0.00     0.000 G0
ENDBRANCH  13  15
ENDBRANCH  12  13
BRANCH  12  17
ATOM     17  C   UNL     1       0.133   4.232  -1.303  1.00  0.00    -0.006 C 
ATOM     18  C   UNL     1       0.125   5.000   0.032  1.00  0.00     0.008 C 
ATOM     19  C   UNL     1      -1.213   3.501  -1.461  1.00  0.00     0.008 C 
ENDBRANCH  12  17
ENDBRANCH  11  12
ENDBRANCH   1  11
TORSDOF 1
ENDMDL
MODEL 9
REMARK VINA RESULT:    -2.821      2.198      5.352
REMARK INTER + INTRA:          -4.276
REMARK INTER:                  -3.943
REMARK INTRA:                  -0.333
REMARK UNBOUND:                 0.029
REMARK SMILES CC1=CCC[C@H](C)C(=O)C[C@@H](C(C)C)C(=O)C1
REMARK SMILES IDX 8 1 9 2 6 3 7 4 5 5 4 6 3 7 2 8 1 9 10 11 11 12 15 13 16 14
REMARK SMILES IDX 17 15 12 17 13 18 14 19
REMARK H PARENT
REMARK Flexibility Score: 70.00
ROOT
ATOM      1  C   UNL     1       1.807   4.625  -1.459  1.00  0.00     0.136 C 
ATOM      2  O   UNL     1       1.825   3.626  -0.752  1.00  0.00    -0.299 OA
ENDROOT
BRANCH   1   3
ATOM      3  C   UNL     1       3.103   5.197  -2.002  1.00  0.00     0.053 C 
ATOM      4  C   UNL     1       3.523   4.535  -3.322  1.00  0.00     0.016 C 
BRANCH   3   5
ATOM      5  C   UNL     1       3.036   6.733  -2.128  1.00  0.00     0.015 C 
BRANCH   5   6
ATOM      6  C   UNL     1       2.999   7.247  -3.582  1.00  0.00     0.028 C 
BRANCH   6   7
ATOM      7  C   UNL     1       1.983   8.350  -3.738  1.00  0.00    -0.028 C 
ATOM      8  C   UNL     1       0.749   8.191  -4.272  1.00  0.00    -0.070 CG0
ATOM      9  C   UNL     1      -0.177   9.381  -4.280  1.00  0.00     0.039 C 
ATOM     10  G   UNL     1       0.256   6.875  -4.853  1.00  0.00     0.000 G0
ENDBRANCH   6   7
ENDBRANCH   5   6
ENDBRANCH   3   5
ENDBRANCH   1   3
BRANCH   1  11
ATOM     11  C   UNL     1       0.478   5.272  -1.775  1.00  0.00     0.087 C 
BRANCH  11  12
ATOM     12  C   UNL     1      -0.048   4.875  -3.178  1.00  0.00     0.066 C 
BRANCH  12  13
ATOM     13  C   UNL     1      -0.607   6.104  -3.878  1.00  0.00     0.140 C 
ATOM     14  O   UNL     1      -1.780   6.408  -3.714  1.00  0.00    -0.299 OA
BRANCH  13  15
ATOM     15  C   UNL     1       0.239   6.885  -4.854  1.00  0.00     0.106 CG0
ATOM     16  G   UNL     1       0.732   8.200  -4.271  1.00  0.00     0.000 G0
ENDBRANCH  13  15
ENDBRANCH  12  13
BRANCH  12  17
ATOM     17  C   UNL     1      -1.128   3.744  -3.123  1.00  0.00    -0.006 C 
ATOM     18  C   UNL     1      -0.518   2.378  -3.490  1.00  0.00     0.008 C 
ATOM     19  C   UNL     1      -1.796   3.631  -1.740  1.00  0.00     0.008 C 
ENDBRANCH  12  17
ENDBRANCH  11  12
ENDBRANCH   1  11
TORSDOF 1
ENDMDL
