MODEL 1
REMARK VINA RESULT:    -2.944      0.000      0.000
REMARK INTER + INTRA:          -5.921
REMARK INTER:                  -5.182
REMARK INTRA:                  -0.739
REMARK UNBOUND:                -0.739
REMARK SMILES CCCCCCCCCCCCCCC(=O)[O-]
REMARK SMILES IDX 9 1 10 2 11 3 12 4 13 5 14 6 15 7 16 8 17 9 8 10 7 11 6 12
REMARK SMILES IDX 5 13 4 14 3 15 2 16 1 17
REMARK H PARENT
REMARK Flexibility Score: inf
ROOT
ATOM      1  C   UNL     1     -10.991 -10.160  -0.228  1.00  0.00     0.000 C 
ENDROOT
BRANCH   1   2
ATOM      2  C   UNL     1     -10.285 -11.485   0.086  1.00  0.00     0.000 C 
BRANCH   2   3
ATOM      3  C   UNL     1      -8.760 -11.338  -0.021  1.00  0.00     0.000 C 
BRANCH   3   4
ATOM      4  C   UNL     1      -8.017 -12.125   1.081  1.00  0.00     0.000 C 
BRANCH   4   5
ATOM      5  C   UNL     1      -6.927 -11.302   1.795  1.00  0.00     0.006 C 
BRANCH   5   6
ATOM      6  C   UNL     1      -6.594 -11.798   3.210  1.00  0.00     0.053 C 
BRANCH   6   7
ATOM      7  C   UNL     1      -5.410 -11.084   3.787  1.00  0.00     0.041 C 
ATOM      8  O   UNL     1      -5.253 -11.027   5.035  1.00  0.00    -0.550 OA
ATOM      9  O   UNL     1      -4.470 -10.498   2.950  1.00  0.00    -0.550 OA
ENDBRANCH   6   7
ENDBRANCH   5   6
ENDBRANCH   4   5
ENDBRANCH   3   4
ENDBRANCH   2   3
ENDBRANCH   1   2
BRANCH   1  10
ATOM     10  C   UNL     1     -11.234 -10.012  -1.738  1.00  0.00     0.000 C 
BRANCH  10  11
ATOM     11  C   UNL     1     -11.585 -11.346  -2.415  1.00  0.00    -0.000 C 
BRANCH  11  12
ATOM     12  C   UNL     1     -10.696 -11.641  -3.636  1.00  0.00    -0.000 C 
BRANCH  12  13
ATOM     13  C   UNL     1     -10.760 -10.537  -4.706  1.00  0.00    -0.000 C 
BRANCH  13  14
ATOM     14  C   UNL     1      -9.692 -10.634  -5.811  1.00  0.00    -0.000 C 
BRANCH  14  15
ATOM     15  C   UNL     1      -8.987  -9.297  -6.085  1.00  0.00    -0.000 C 
BRANCH  15  16
ATOM     16  C   UNL     1      -7.471  -9.430  -5.909  1.00  0.00    -0.003 C 
ATOM     17  C   UNL     1      -7.125 -10.513  -4.892  1.00  0.00     0.004 C 
ENDBRANCH  15  16
ENDBRANCH  14  15
ENDBRANCH  13  14
ENDBRANCH  12  13
ENDBRANCH  11  12
ENDBRANCH  10  11
ENDBRANCH   1  10
TORSDOF 13
ENDMDL
MODEL 2
REMARK VINA RESULT:    -2.303     21.486     23.269
REMARK INTER + INTRA:          -4.792
REMARK INTER:                  -4.975
REMARK INTRA:                   0.183
REMARK UNBOUND:                -0.739
REMARK SMILES CCCCCCCCCCCCCCC(=O)[O-]
REMARK SMILES IDX 9 1 10 2 11 3 12 4 13 5 14 6 15 7 16 8 17 9 8 10 7 11 6 12
REMARK SMILES IDX 5 13 4 14 3 15 2 16 1 17
REMARK H PARENT
REMARK Flexibility Score: inf
ROOT
ATOM      1  C   UNL     1       4.798   4.686   1.984  1.00  0.00     0.000 C 
ENDROOT
BRANCH   1   2
ATOM      2  C   UNL     1       5.901   3.906   1.258  1.00  0.00     0.000 C 
BRANCH   2   3
ATOM      3  C   UNL     1       6.956   4.857   0.672  1.00  0.00     0.000 C 
BRANCH   3   4
ATOM      4  C   UNL     1       7.865   5.466   1.762  1.00  0.00     0.000 C 
BRANCH   4   5
ATOM      5  C   UNL     1       7.585   6.957   2.032  1.00  0.00     0.006 C 
BRANCH   5   6
ATOM      6  C   UNL     1       8.079   7.898   0.923  1.00  0.00     0.053 C 
BRANCH   6   7
ATOM      7  C   UNL     1       7.407   7.617  -0.387  1.00  0.00     0.041 C 
ATOM      8  O   UNL     1       8.061   7.116  -1.339  1.00  0.00    -0.550 OA
ATOM      9  O   UNL     1       6.055   7.889  -0.552  1.00  0.00    -0.550 OA
ENDBRANCH   6   7
ENDBRANCH   5   6
ENDBRANCH   4   5
ENDBRANCH   3   4
ENDBRANCH   2   3
ENDBRANCH   1   2
BRANCH   1  10
ATOM     10  C   UNL     1       4.100   5.667   1.029  1.00  0.00     0.000 C 
BRANCH  10  11
ATOM     11  C   UNL     1       4.130   7.116   1.542  1.00  0.00    -0.000 C 
BRANCH  11  12
ATOM     12  C   UNL     1       4.819   7.242   2.912  1.00  0.00    -0.000 C 
BRANCH  12  13
ATOM     13  C   UNL     1       4.010   8.085   3.914  1.00  0.00    -0.000 C 
BRANCH  13  14
ATOM     14  C   UNL     1       2.491   8.122   3.662  1.00  0.00    -0.000 C 
BRANCH  14  15
ATOM     15  C   UNL     1       1.701   7.220   4.622  1.00  0.00    -0.000 C 
BRANCH  15  16
ATOM     16  C   UNL     1       0.428   7.920   5.110  1.00  0.00    -0.003 C 
ATOM     17  C   UNL     1       0.216   7.700   6.605  1.00  0.00     0.004 C 
ENDBRANCH  15  16
ENDBRANCH  14  15
ENDBRANCH  13  14
ENDBRANCH  12  13
ENDBRANCH  11  12
ENDBRANCH  10  11
ENDBRANCH   1  10
TORSDOF 13
ENDMDL
MODEL 3
REMARK VINA RESULT:    -2.076      4.750      5.552
REMARK INTER + INTRA:          -4.394
REMARK INTER:                  -3.849
REMARK INTRA:                  -0.545
REMARK UNBOUND:                -0.739
REMARK SMILES CCCCCCCCCCCCCCC(=O)[O-]
REMARK SMILES IDX 9 1 10 2 11 3 12 4 13 5 14 6 15 7 16 8 17 9 8 10 7 11 6 12
REMARK SMILES IDX 5 13 4 14 3 15 2 16 1 17
REMARK H PARENT
REMARK Flexibility Score: inf
ROOT
ATOM      1  C   UNL     1     -11.332 -11.328   2.617  1.00  0.00     0.000 C 
ENDROOT
BRANCH   1   2
ATOM      2  C   UNL     1     -11.257 -12.093   3.945  1.00  0.00     0.000 C 
BRANCH   2   3
ATOM      3  C   UNL     1     -12.109 -11.410   5.026  1.00  0.00     0.000 C 
BRANCH   3   4
ATOM      4  C   UNL     1     -11.994 -12.115   6.395  1.00  0.00     0.000 C 
BRANCH   4   5
ATOM      5  C   UNL     1     -12.101 -11.151   7.592  1.00  0.00     0.006 C 
BRANCH   5   6
ATOM      6  C   UNL     1     -11.674 -11.768   8.933  1.00  0.00     0.053 C 
BRANCH   6   7
ATOM      7  C   UNL     1     -10.837 -10.823   9.740  1.00  0.00     0.041 C 
ATOM      8  O   UNL     1     -10.944 -10.799  10.995  1.00  0.00    -0.550 OA
ATOM      9  O   UNL     1      -9.925  -9.985   9.113  1.00  0.00    -0.550 OA
ENDBRANCH   6   7
ENDBRANCH   5   6
ENDBRANCH   4   5
ENDBRANCH   3   4
ENDBRANCH   2   3
ENDBRANCH   1   2
BRANCH   1  10
ATOM     10  C   UNL     1     -12.125 -12.125   1.569  1.00  0.00     0.000 C 
BRANCH  10  11
ATOM     11  C   UNL     1     -12.033 -11.510   0.164  1.00  0.00    -0.000 C 
BRANCH  11  12
ATOM     12  C   UNL     1     -11.352 -10.130   0.166  1.00  0.00    -0.000 C 
BRANCH  12  13
ATOM     13  C   UNL     1     -10.859  -9.702  -1.228  1.00  0.00    -0.000 C 
BRANCH  13  14
ATOM     14  C   UNL     1     -11.316 -10.604  -2.389  1.00  0.00    -0.000 C 
BRANCH  14  15
ATOM     15  C   UNL     1     -10.170 -11.420  -3.003  1.00  0.00    -0.000 C 
BRANCH  15  16
ATOM     16  C   UNL     1      -9.178 -10.510  -3.735  1.00  0.00    -0.003 C 
ATOM     17  C   UNL     1      -9.550 -10.359  -5.207  1.00  0.00     0.004 C 
ENDBRANCH  15  16
ENDBRANCH  14  15
ENDBRANCH  13  14
ENDBRANCH  12  13
ENDBRANCH  11  12
ENDBRANCH  10  11
ENDBRANCH   1  10
TORSDOF 13
ENDMDL
MODEL 4
REMARK VINA RESULT:    -1.916     20.935     22.834
REMARK INTER + INTRA:          -4.111
REMARK INTER:                  -4.182
REMARK INTRA:                   0.071
REMARK UNBOUND:                -0.739
REMARK SMILES CCCCCCCCCCCCCCC(=O)[O-]
REMARK SMILES IDX 9 1 10 2 11 3 12 4 13 5 14 6 15 7 16 8 17 9 8 10 7 11 6 12
REMARK SMILES IDX 5 13 4 14 3 15 2 16 1 17
REMARK H PARENT
REMARK Flexibility Score: inf
ROOT
ATOM      1  C   UNL     1       6.023   8.119   3.289  1.00  0.00     0.000 C 
ENDROOT
BRANCH   1   2
ATOM      2  C   UNL     1       6.692   7.678   1.981  1.00  0.00     0.000 C 
BRANCH   2   3
ATOM      3  C   UNL     1       8.026   6.968   2.255  1.00  0.00     0.000 C 
BRANCH   3   4
ATOM      4  C   UNL     1       7.844   5.453   2.498  1.00  0.00     0.000 C 
BRANCH   4   5
ATOM      5  C   UNL     1       7.466   4.669   1.227  1.00  0.00     0.006 C 
BRANCH   5   6
ATOM      6  C   UNL     1       6.111   3.951   1.313  1.00  0.00     0.053 C 
BRANCH   6   7
ATOM      7  C   UNL     1       5.113   4.526   0.355  1.00  0.00     0.041 C 
ATOM      8  O   UNL     1       3.887   4.520   0.640  1.00  0.00    -0.550 OA
ATOM      9  O   UNL     1       5.536   5.088  -0.842  1.00  0.00    -0.550 OA
ENDBRANCH   6   7
ENDBRANCH   5   6
ENDBRANCH   4   5
ENDBRANCH   3   4
ENDBRANCH   2   3
ENDBRANCH   1   2
BRANCH   1  10
ATOM     10  C   UNL     1       4.695   7.375   3.504  1.00  0.00     0.000 C 
BRANCH  10  11
ATOM     11  C   UNL     1       4.017   6.981   2.182  1.00  0.00    -0.000 C 
BRANCH  11  12
ATOM     12  C   UNL     1       3.020   8.044   1.690  1.00  0.00    -0.000 C 
BRANCH  12  13
ATOM     13  C   UNL     1       1.735   8.100   2.536  1.00  0.00    -0.000 C 
BRANCH  13  14
ATOM     14  C   UNL     1       1.857   7.499   3.949  1.00  0.00    -0.000 C 
BRANCH  14  15
ATOM     15  C   UNL     1       0.879   8.124   4.954  1.00  0.00    -0.000 C 
BRANCH  15  16
ATOM     16  C   UNL     1       0.677   7.209   6.167  1.00  0.00    -0.003 C 
ATOM     17  C   UNL     1      -0.321   7.810   7.152  1.00  0.00     0.004 C 
ENDBRANCH  15  16
ENDBRANCH  14  15
ENDBRANCH  13  14
ENDBRANCH  12  13
ENDBRANCH  11  12
ENDBRANCH  10  11
ENDBRANCH   1  10
TORSDOF 13
ENDMDL
MODEL 5
REMARK VINA RESULT:    -1.915     21.276     23.420
REMARK INTER + INTRA:          -4.111
REMARK INTER:                  -4.281
REMARK INTRA:                   0.170
REMARK UNBOUND:                -0.739
REMARK SMILES CCCCCCCCCCCCCCC(=O)[O-]
REMARK SMILES IDX 9 1 10 2 11 3 12 4 13 5 14 6 15 7 16 8 17 9 8 10 7 11 6 12
REMARK SMILES IDX 5 13 4 14 3 15 2 16 1 17
REMARK H PARENT
REMARK Flexibility Score: inf
ROOT
ATOM      1  C   UNL     1       5.582   7.961   4.324  1.00  0.00     0.000 C 
ENDROOT
BRANCH   1   2
ATOM      2  C   UNL     1       6.262   8.107   2.956  1.00  0.00     0.000 C 
BRANCH   2   3
ATOM      3  C   UNL     1       7.473   7.170   2.839  1.00  0.00     0.000 C 
BRANCH   3   4
ATOM      4  C   UNL     1       8.125   7.226   1.439  1.00  0.00     0.000 C 
BRANCH   4   5
ATOM      5  C   UNL     1       7.330   8.074   0.427  1.00  0.00     0.006 C 
BRANCH   5   6
ATOM      6  C   UNL     1       6.795   7.277  -0.772  1.00  0.00     0.053 C 
BRANCH   6   7
ATOM      7  C   UNL     1       5.499   7.834  -1.278  1.00  0.00     0.041 C 
ATOM      8  O   UNL     1       5.331   8.023  -2.512  1.00  0.00    -0.550 OA
ATOM      9  O   UNL     1       4.470   8.125  -0.393  1.00  0.00    -0.550 OA
ENDBRANCH   6   7
ENDBRANCH   5   6
ENDBRANCH   4   5
ENDBRANCH   3   4
ENDBRANCH   2   3
ENDBRANCH   1   2
BRANCH   1  10
ATOM     10  C   UNL     1       4.052   7.945   4.175  1.00  0.00     0.000 C 
BRANCH  10  11
ATOM     11  C   UNL     1       3.525   6.617   3.610  1.00  0.00    -0.000 C 
BRANCH  11  12
ATOM     12  C   UNL     1       3.603   6.557   2.074  1.00  0.00    -0.000 C 
BRANCH  12  13
ATOM     13  C   UNL     1       4.039   5.178   1.548  1.00  0.00    -0.000 C 
BRANCH  13  14
ATOM     14  C   UNL     1       5.496   5.097   1.055  1.00  0.00    -0.000 C 
BRANCH  14  15
ATOM     15  C   UNL     1       6.050   3.665   1.051  1.00  0.00    -0.000 C 
BRANCH  15  16
ATOM     16  C   UNL     1       7.582   3.668   1.091  1.00  0.00    -0.003 C 
ATOM     17  C   UNL     1       8.100   4.322   2.368  1.00  0.00     0.004 C 
ENDBRANCH  15  16
ENDBRANCH  14  15
ENDBRANCH  13  14
ENDBRANCH  12  13
ENDBRANCH  11  12
ENDBRANCH  10  11
ENDBRANCH   1  10
TORSDOF 13
ENDMDL
