MODEL 1
REMARK VINA RESULT:    -4.671      0.000      0.000
REMARK INTER + INTRA:          -6.605
REMARK INTER:                  -6.310
REMARK INTRA:                  -0.296
REMARK UNBOUND:                -0.296
REMARK SMILES CCCCCCC=CC(=O)[O-]
REMARK SMILES IDX 5 1 6 2 7 3 8 4 9 5 10 6 11 7 4 8 3 9 2 10 1 11
REMARK H PARENT
REMARK Flexibility Score: inf
ROOT
ATOM      1  C   UNL     1      12.153  13.037   5.266  1.00  0.00     0.004 C 
ENDROOT
BRANCH   1   2
ATOM      2  C   UNL     1      13.511  13.322   5.924  1.00  0.00     0.027 C 
BRANCH   2   3
ATOM      3  C   UNL     1      14.644  12.955   5.010  1.00  0.00    -0.025 C 
ATOM      4  C   UNL     1      15.184  13.847   4.173  1.00  0.00     0.020 C 
BRANCH   4   5
ATOM      5  C   UNL     1      16.302  13.506   3.281  1.00  0.00     0.064 C 
ATOM      6  O   UNL     1      16.075  12.898   2.204  1.00  0.00    -0.545 OA
ATOM      7  O   UNL     1      17.609  13.846   3.611  1.00  0.00    -0.545 OA
ENDBRANCH   4   5
ENDBRANCH   2   3
ENDBRANCH   1   2
BRANCH   1   8
ATOM      8  C   UNL     1      12.152  11.736   4.448  1.00  0.00     0.000 C 
BRANCH   8   9
ATOM      9  C   UNL     1      10.731  11.260   4.099  1.00  0.00    -0.000 C 
BRANCH   9  10
ATOM     10  C   UNL     1      10.314  10.017   4.902  1.00  0.00    -0.003 C 
ATOM     11  C   UNL     1       9.857  10.353   6.322  1.00  0.00     0.004 C 
ENDBRANCH   9  10
ENDBRANCH   8   9
ENDBRANCH   1   8
TORSDOF 6
ENDMDL
MODEL 2
REMARK VINA RESULT:    -4.594      4.723      6.565
REMARK INTER + INTRA:          -6.501
REMARK INTER:                  -5.851
REMARK INTRA:                  -0.650
REMARK UNBOUND:                -0.296
REMARK SMILES CCCCCCC=CC(=O)[O-]
REMARK SMILES IDX 5 1 6 2 7 3 8 4 9 5 10 6 11 7 4 8 3 9 2 10 1 11
REMARK H PARENT
REMARK Flexibility Score: inf
ROOT
ATOM      1  C   UNL     1      10.261  11.235   3.797  1.00  0.00     0.004 C 
ENDROOT
BRANCH   1   2
ATOM      2  C   UNL     1      10.506  10.258   4.957  1.00  0.00     0.027 C 
BRANCH   2   3
ATOM      3  C   UNL     1       9.595  10.551   6.114  1.00  0.00    -0.025 C 
ATOM      4  C   UNL     1       8.625  11.467   6.024  1.00  0.00     0.020 C 
BRANCH   4   5
ATOM      5  C   UNL     1       7.716  11.755   7.144  1.00  0.00     0.064 C 
ATOM      6  O   UNL     1       6.547  12.153   6.909  1.00  0.00    -0.545 OA
ATOM      7  O   UNL     1       8.131  11.596   8.461  1.00  0.00    -0.545 OA
ENDBRANCH   4   5
ENDBRANCH   2   3
ENDBRANCH   1   2
BRANCH   1   8
ATOM      8  C   UNL     1      11.450  12.178   3.554  1.00  0.00     0.000 C 
BRANCH   8   9
ATOM      9  C   UNL     1      12.730  11.706   4.265  1.00  0.00    -0.000 C 
BRANCH   9  10
ATOM     10  C   UNL     1      13.333  12.792   5.171  1.00  0.00    -0.003 C 
ATOM     11  C   UNL     1      12.338  13.324   6.202  1.00  0.00     0.004 C 
ENDBRANCH   9  10
ENDBRANCH   8   9
ENDBRANCH   1   8
TORSDOF 6
ENDMDL
MODEL 3
REMARK VINA RESULT:    -4.454      1.643      2.157
REMARK INTER + INTRA:          -6.312
REMARK INTER:                  -6.121
REMARK INTRA:                  -0.191
REMARK UNBOUND:                -0.296
REMARK SMILES CCCCCCC=CC(=O)[O-]
REMARK SMILES IDX 5 1 6 2 7 3 8 4 9 5 10 6 11 7 4 8 3 9 2 10 1 11
REMARK H PARENT
REMARK Flexibility Score: inf
ROOT
ATOM      1  C   UNL     1      12.616  13.398   3.062  1.00  0.00     0.004 C 
ENDROOT
BRANCH   1   2
ATOM      2  C   UNL     1      13.464  13.546   1.790  1.00  0.00     0.027 C 
BRANCH   2   3
ATOM      3  C   UNL     1      14.929  13.574   2.117  1.00  0.00    -0.025 C 
ATOM      4  C   UNL     1      15.462  14.551   2.857  1.00  0.00     0.020 C 
BRANCH   4   5
ATOM      5  C   UNL     1      16.893  14.584   3.197  1.00  0.00     0.064 C 
ATOM      6  O   UNL     1      17.553  15.637   3.005  1.00  0.00    -0.545 OA
ATOM      7  O   UNL     1      17.528  13.467   3.726  1.00  0.00    -0.545 OA
ENDBRANCH   4   5
ENDBRANCH   2   3
ENDBRANCH   1   2
BRANCH   1   8
ATOM      8  C   UNL     1      12.020  11.990   3.217  1.00  0.00     0.000 C 
BRANCH   8   9
ATOM      9  C   UNL     1      11.648  11.664   4.674  1.00  0.00    -0.000 C 
BRANCH   9  10
ATOM     10  C   UNL     1      10.202  11.162   4.814  1.00  0.00    -0.003 C 
ATOM     11  C   UNL     1      10.119   9.731   5.345  1.00  0.00     0.004 C 
ENDBRANCH   9  10
ENDBRANCH   8   9
ENDBRANCH   1   8
TORSDOF 6
ENDMDL
MODEL 4
REMARK VINA RESULT:    -4.419      1.759      2.848
REMARK INTER + INTRA:          -6.264
REMARK INTER:                  -5.766
REMARK INTRA:                  -0.499
REMARK UNBOUND:                -0.296
REMARK SMILES CCCCCCC=CC(=O)[O-]
REMARK SMILES IDX 5 1 6 2 7 3 8 4 9 5 10 6 11 7 4 8 3 9 2 10 1 11
REMARK H PARENT
REMARK Flexibility Score: inf
ROOT
ATOM      1  C   UNL     1      12.495  13.564   2.631  1.00  0.00     0.004 C 
ENDROOT
BRANCH   1   2
ATOM      2  C   UNL     1      13.531  13.560   1.496  1.00  0.00     0.027 C 
BRANCH   2   3
ATOM      3  C   UNL     1      14.930  13.515   2.041  1.00  0.00    -0.025 C 
ATOM      4  C   UNL     1      15.508  14.596   2.572  1.00  0.00     0.020 C 
BRANCH   4   5
ATOM      5  C   UNL     1      16.872  14.564   3.121  1.00  0.00     0.064 C 
ATOM      6  O   UNL     1      17.302  13.510   3.656  1.00  0.00    -0.545 OA
ATOM      7  O   UNL     1      17.695  15.683   3.059  1.00  0.00    -0.545 OA
ENDBRANCH   4   5
ENDBRANCH   2   3
ENDBRANCH   1   2
BRANCH   1   8
ATOM      8  C   UNL     1      12.206  12.156   3.175  1.00  0.00     0.000 C 
BRANCH   8   9
ATOM      9  C   UNL     1      12.036  12.139   4.705  1.00  0.00    -0.000 C 
BRANCH   9  10
ATOM     10  C   UNL     1      13.203  12.824   5.433  1.00  0.00    -0.003 C 
ATOM     11  C   UNL     1      12.745  13.678   6.616  1.00  0.00     0.004 C 
ENDBRANCH   9  10
ENDBRANCH   8   9
ENDBRANCH   1   8
TORSDOF 6
ENDMDL
MODEL 5
REMARK VINA RESULT:    -4.386      2.259      3.252
REMARK INTER + INTRA:          -6.219
REMARK INTER:                  -5.532
REMARK INTRA:                  -0.688
REMARK UNBOUND:                -0.296
REMARK SMILES CCCCCCC=CC(=O)[O-]
REMARK SMILES IDX 5 1 6 2 7 3 8 4 9 5 10 6 11 7 4 8 3 9 2 10 1 11
REMARK H PARENT
REMARK Flexibility Score: inf
ROOT
ATOM      1  C   UNL     1      12.677  13.861   1.115  1.00  0.00     0.004 C 
ENDROOT
BRANCH   1   2
ATOM      2  C   UNL     1      14.107  14.359   0.857  1.00  0.00     0.027 C 
BRANCH   2   3
ATOM      3  C   UNL     1      14.904  14.400   2.128  1.00  0.00    -0.025 C 
ATOM      4  C   UNL     1      15.667  13.370   2.509  1.00  0.00     0.020 C 
BRANCH   4   5
ATOM      5  C   UNL     1      16.463  13.401   3.745  1.00  0.00     0.064 C 
ATOM      6  O   UNL     1      17.707  13.579   3.678  1.00  0.00    -0.545 OA
ATOM      7  O   UNL     1      15.863  13.236   4.988  1.00  0.00    -0.545 OA
ENDBRANCH   4   5
ENDBRANCH   2   3
ENDBRANCH   1   2
BRANCH   1   8
ATOM      8  C   UNL     1      11.965  14.652   2.224  1.00  0.00     0.000 C 
BRANCH   8   9
ATOM      9  C   UNL     1      11.670  13.791   3.465  1.00  0.00    -0.000 C 
BRANCH   9  10
ATOM     10  C   UNL     1      11.932  12.297   3.219  1.00  0.00    -0.003 C 
ATOM     11  C   UNL     1      12.827  11.668   4.287  1.00  0.00     0.004 C 
ENDBRANCH   9  10
ENDBRANCH   8   9
ENDBRANCH   1   8
TORSDOF 6
ENDMDL
MODEL 6
REMARK VINA RESULT:    -4.384      4.976      7.088
REMARK INTER + INTRA:          -6.218
REMARK INTER:                  -6.032
REMARK INTRA:                  -0.186
REMARK UNBOUND:                -0.296
REMARK SMILES CCCCCCC=CC(=O)[O-]
REMARK SMILES IDX 5 1 6 2 7 3 8 4 9 5 10 6 11 7 4 8 3 9 2 10 1 11
REMARK H PARENT
REMARK Flexibility Score: inf
ROOT
ATOM      1  C   UNL     1      10.411  11.074   4.375  1.00  0.00     0.004 C 
ENDROOT
BRANCH   1   2
ATOM      2  C   UNL     1      10.180  10.188   5.609  1.00  0.00     0.027 C 
BRANCH   2   3
ATOM      3  C   UNL     1       9.172  10.804   6.536  1.00  0.00    -0.025 C 
ATOM      4  C   UNL     1       8.144  11.523   6.073  1.00  0.00     0.020 C 
BRANCH   4   5
ATOM      5  C   UNL     1       7.141  12.121   6.967  1.00  0.00     0.064 C 
ATOM      6  O   UNL     1       6.613  13.220   6.661  1.00  0.00    -0.545 OA
ATOM      7  O   UNL     1       6.769  11.489   8.148  1.00  0.00    -0.545 OA
ENDBRANCH   4   5
ENDBRANCH   2   3
ENDBRANCH   1   2
BRANCH   1   8
ATOM      8  C   UNL     1      11.901  11.283   4.065  1.00  0.00     0.000 C 
BRANCH   8   9
ATOM      9  C   UNL     1      12.143  12.447   3.088  1.00  0.00    -0.000 C 
BRANCH   9  10
ATOM     10  C   UNL     1      13.617  12.878   3.041  1.00  0.00    -0.003 C 
ATOM     11  C   UNL     1      13.997  13.548   1.720  1.00  0.00     0.004 C 
ENDBRANCH   9  10
ENDBRANCH   8   9
ENDBRANCH   1   8
TORSDOF 6
ENDMDL
MODEL 7
REMARK VINA RESULT:    -4.371      3.780      5.792
REMARK INTER + INTRA:          -6.200
REMARK INTER:                  -5.535
REMARK INTRA:                  -0.665
REMARK UNBOUND:                -0.296
REMARK SMILES CCCCCCC=CC(=O)[O-]
REMARK SMILES IDX 5 1 6 2 7 3 8 4 9 5 10 6 11 7 4 8 3 9 2 10 1 11
REMARK H PARENT
REMARK Flexibility Score: inf
ROOT
ATOM      1  C   UNL     1      12.621  14.871   1.049  1.00  0.00     0.004 C 
ENDROOT
BRANCH   1   2
ATOM      2  C   UNL     1      13.624  13.710   0.978  1.00  0.00     0.027 C 
BRANCH   2   3
ATOM      3  C   UNL     1      14.348  13.539   2.283  1.00  0.00    -0.025 C 
ATOM      4  C   UNL     1      15.683  13.572   2.351  1.00  0.00     0.020 C 
BRANCH   4   5
ATOM      5  C   UNL     1      16.405  13.420   3.623  1.00  0.00     0.064 C 
ATOM      6  O   UNL     1      15.767  13.139   4.670  1.00  0.00    -0.545 OA
ATOM      7  O   UNL     1      17.784  13.584   3.687  1.00  0.00    -0.545 OA
ENDBRANCH   4   5
ENDBRANCH   2   3
ENDBRANCH   1   2
BRANCH   1   8
ATOM      8  C   UNL     1      13.023  16.059   0.161  1.00  0.00     0.000 C 
BRANCH   8   9
ATOM      9  C   UNL     1      14.281  15.768  -0.676  1.00  0.00    -0.000 C 
BRANCH   9  10
ATOM     10  C   UNL     1      15.351  16.862  -0.529  1.00  0.00    -0.003 C 
ATOM     11  C   UNL     1      15.895  16.973   0.895  1.00  0.00     0.004 C 
ENDBRANCH   9  10
ENDBRANCH   8   9
ENDBRANCH   1   8
TORSDOF 6
ENDMDL
MODEL 8
REMARK VINA RESULT:    -4.273      1.615      3.040
REMARK INTER + INTRA:          -6.068
REMARK INTER:                  -5.461
REMARK INTRA:                  -0.606
REMARK UNBOUND:                -0.296
REMARK SMILES CCCCCCC=CC(=O)[O-]
REMARK SMILES IDX 5 1 6 2 7 3 8 4 9 5 10 6 11 7 4 8 3 9 2 10 1 11
REMARK H PARENT
REMARK Flexibility Score: inf
ROOT
ATOM      1  C   UNL     1      10.868  10.105   4.411  1.00  0.00     0.004 C 
ENDROOT
BRANCH   1   2
ATOM      2  C   UNL     1      10.654  11.503   3.810  1.00  0.00     0.027 C 
BRANCH   2   3
ATOM      3  C   UNL     1      11.965  12.162   3.491  1.00  0.00    -0.025 C 
ATOM      4  C   UNL     1      13.003  12.096   4.331  1.00  0.00     0.020 C 
BRANCH   4   5
ATOM      5  C   UNL     1      14.297  12.724   4.026  1.00  0.00     0.064 C 
ATOM      6  O   UNL     1      15.077  13.027   4.965  1.00  0.00    -0.545 OA
ATOM      7  O   UNL     1      14.672  12.990   2.714  1.00  0.00    -0.545 OA
ENDBRANCH   4   5
ENDBRANCH   2   3
ENDBRANCH   1   2
BRANCH   1   8
ATOM      8  C   UNL     1       9.952   9.830   5.614  1.00  0.00     0.000 C 
BRANCH   8   9
ATOM      9  C   UNL     1       9.009  11.007   5.917  1.00  0.00    -0.000 C 
BRANCH   9  10
ATOM     10  C   UNL     1       9.257  11.617   7.306  1.00  0.00    -0.003 C 
ATOM     11  C   UNL     1      10.167  12.845   7.262  1.00  0.00     0.004 C 
ENDBRANCH   9  10
ENDBRANCH   8   9
ENDBRANCH   1   8
TORSDOF 6
ENDMDL
MODEL 9
REMARK VINA RESULT:    -4.252      3.834      5.174
REMARK INTER + INTRA:          -6.039
REMARK INTER:                  -5.465
REMARK INTRA:                  -0.574
REMARK UNBOUND:                -0.296
REMARK SMILES CCCCCCC=CC(=O)[O-]
REMARK SMILES IDX 5 1 6 2 7 3 8 4 9 5 10 6 11 7 4 8 3 9 2 10 1 11
REMARK H PARENT
REMARK Flexibility Score: inf
ROOT
ATOM      1  C   UNL     1      16.443  14.219   3.082  1.00  0.00     0.004 C 
ENDROOT
BRANCH   1   2
ATOM      2  C   UNL     1      15.817  15.622   3.065  1.00  0.00     0.027 C 
BRANCH   2   3
ATOM      3  C   UNL     1      16.097  16.324   1.767  1.00  0.00    -0.025 C 
ATOM      4  C   UNL     1      15.187  16.376   0.790  1.00  0.00     0.020 C 
BRANCH   4   5
ATOM      5  C   UNL     1      15.443  17.071  -0.481  1.00  0.00     0.064 C 
ATOM      6  O   UNL     1      16.086  18.152  -0.479  1.00  0.00    -0.545 OA
ATOM      7  O   UNL     1      14.982  16.553  -1.685  1.00  0.00    -0.545 OA
ENDBRANCH   4   5
ENDBRANCH   2   3
ENDBRANCH   1   2
BRANCH   1   8
ATOM      8  C   UNL     1      15.513  13.147   2.492  1.00  0.00     0.000 C 
BRANCH   8   9
ATOM      9  C   UNL     1      14.239  12.945   3.332  1.00  0.00    -0.000 C 
BRANCH   9  10
ATOM     10  C   UNL     1      12.957  13.232   2.534  1.00  0.00    -0.003 C 
ATOM     11  C   UNL     1      13.224  13.469   1.048  1.00  0.00     0.004 C 
ENDBRANCH   9  10
ENDBRANCH   8   9
ENDBRANCH   1   8
TORSDOF 6
ENDMDL
