MODEL 1
REMARK VINA RESULT:    -3.104      0.000      0.000
REMARK INTER + INTRA:          -7.175
REMARK INTER:                  -5.372
REMARK INTRA:                  -1.803
REMARK UNBOUND:                -1.803
REMARK SMILES CCCCCCCCCCCCCCO
REMARK SMILES IDX 8 1 7 2 6 3 5 4 4 5 3 6 2 7 1 8 9 9 10 10 11 11 12 12 13 13
REMARK SMILES IDX 14 14 15 15
REMARK H PARENT 15 16
REMARK Flexibility Score: inf
ROOT
ATOM      1  C   UNL     1     162.652 175.196 165.659  1.00  0.00     0.000 C 
ENDROOT
BRANCH   1   2
ATOM      2  C   UNL     1     161.581 175.713 166.636  1.00  0.00    -0.000 C 
BRANCH   2   3
ATOM      3  C   UNL     1     160.151 175.384 166.177  1.00  0.00    -0.000 C 
BRANCH   3   4
ATOM      4  C   UNL     1     159.361 174.590 167.227  1.00  0.00    -0.000 C 
BRANCH   4   5
ATOM      5  C   UNL     1     159.713 175.054 168.646  1.00  0.00    -0.000 C 
BRANCH   5   6
ATOM      6  C   UNL     1     159.975 173.854 169.568  1.00  0.00    -0.000 C 
BRANCH   6   7
ATOM      7  C   UNL     1     159.550 172.520 168.936  1.00  0.00    -0.003 C 
ATOM      8  C   UNL     1     159.621 171.352 169.920  1.00  0.00     0.004 C 
ENDBRANCH   6   7
ENDBRANCH   5   6
ENDBRANCH   4   5
ENDBRANCH   3   4
ENDBRANCH   2   3
ENDBRANCH   1   2
BRANCH   1   9
ATOM      9  C   UNL     1     163.609 174.185 166.327  1.00  0.00     0.000 C 
BRANCH   9  10
ATOM     10  C   UNL     1     163.152 173.737 167.726  1.00  0.00     0.000 C 
BRANCH  10  11
ATOM     11  C   UNL     1     163.107 172.211 167.880  1.00  0.00     0.000 C 
BRANCH  11  12
ATOM     12  C   UNL     1     163.418 171.795 169.325  1.00  0.00     0.002 C 
BRANCH  12  13
ATOM     13  C   UNL     1     163.571 172.999 170.270  1.00  0.00     0.028 C 
BRANCH  13  14
ATOM     14  C   UNL     1     164.885 172.995 171.065  1.00  0.00     0.156 C 
BRANCH  14  15
ATOM     15  O   UNL     1     165.703 174.073 170.696  1.00  0.00    -0.396 OA
ATOM     16  H   UNL     1     165.372 174.392 169.817  1.00  0.00     0.210 HD
ENDBRANCH  14  15
ENDBRANCH  13  14
ENDBRANCH  12  13
ENDBRANCH  11  12
ENDBRANCH  10  11
ENDBRANCH   9  10
ENDBRANCH   1   9
TORSDOF 13
ENDMDL
MODEL 2
REMARK VINA RESULT:    -2.937      2.378      4.863
REMARK INTER + INTRA:          -6.885
REMARK INTER:                  -5.136
REMARK INTRA:                  -1.749
REMARK UNBOUND:                -1.803
REMARK SMILES CCCCCCCCCCCCCCO
REMARK SMILES IDX 8 1 7 2 6 3 5 4 4 5 3 6 2 7 1 8 9 9 10 10 11 11 12 12 13 13
REMARK SMILES IDX 14 14 15 15
REMARK H PARENT 15 16
REMARK Flexibility Score: inf
ROOT
ATOM      1  C   UNL     1     162.467 174.372 168.037  1.00  0.00     0.000 C 
ENDROOT
BRANCH   1   2
ATOM      2  C   UNL     1     163.334 173.393 167.226  1.00  0.00    -0.000 C 
BRANCH   2   3
ATOM      3  C   UNL     1     163.415 171.999 167.869  1.00  0.00    -0.000 C 
BRANCH   3   4
ATOM      4  C   UNL     1     162.389 171.807 168.996  1.00  0.00    -0.000 C 
BRANCH   4   5
ATOM      5  C   UNL     1     163.087 171.498 170.326  1.00  0.00    -0.000 C 
BRANCH   5   6
ATOM      6  C   UNL     1     162.753 172.562 171.382  1.00  0.00    -0.000 C 
BRANCH   6   7
ATOM      7  C   UNL     1     163.773 173.710 171.405  1.00  0.00    -0.003 C 
ATOM      8  C   UNL     1     165.201 173.238 171.134  1.00  0.00     0.004 C 
ENDBRANCH   6   7
ENDBRANCH   5   6
ENDBRANCH   4   5
ENDBRANCH   3   4
ENDBRANCH   2   3
ENDBRANCH   1   2
BRANCH   1   9
ATOM      9  C   UNL     1     161.279 174.916 167.216  1.00  0.00     0.000 C 
BRANCH   9  10
ATOM     10  C   UNL     1     159.941 174.887 167.976  1.00  0.00     0.000 C 
BRANCH  10  11
ATOM     11  C   UNL     1     160.110 175.060 169.491  1.00  0.00     0.000 C 
BRANCH  11  12
ATOM     12  C   UNL     1     159.529 173.858 170.249  1.00  0.00     0.002 C 
BRANCH  12  13
ATOM     13  C   UNL     1     158.490 173.081 169.423  1.00  0.00     0.028 C 
BRANCH  13  14
ATOM     14  C   UNL     1     158.846 171.601 169.221  1.00  0.00     0.156 C 
BRANCH  14  15
ATOM     15  O   UNL     1     158.579 171.193 167.906  1.00  0.00    -0.396 OA
ATOM     16  H   UNL     1     159.438 171.247 167.413  1.00  0.00     0.210 HD
ENDBRANCH  14  15
ENDBRANCH  13  14
ENDBRANCH  12  13
ENDBRANCH  11  12
ENDBRANCH  10  11
ENDBRANCH   9  10
ENDBRANCH   1   9
TORSDOF 13
ENDMDL
MODEL 3
REMARK VINA RESULT:    -2.909      1.463      2.111
REMARK INTER + INTRA:          -6.838
REMARK INTER:                  -4.876
REMARK INTRA:                  -1.961
REMARK UNBOUND:                -1.803
REMARK SMILES CCCCCCCCCCCCCCO
REMARK SMILES IDX 8 1 7 2 6 3 5 4 4 5 3 6 2 7 1 8 9 9 10 10 11 11 12 12 13 13
REMARK SMILES IDX 14 14 15 15
REMARK H PARENT 15 16
REMARK Flexibility Score: inf
ROOT
ATOM      1  C   UNL     1     161.995 174.187 169.147  1.00  0.00     0.000 C 
ENDROOT
BRANCH   1   2
ATOM      2  C   UNL     1     160.817 175.072 168.700  1.00  0.00    -0.000 C 
BRANCH   2   3
ATOM      3  C   UNL     1     159.879 174.358 167.715  1.00  0.00    -0.000 C 
BRANCH   3   4
ATOM      4  C   UNL     1     158.683 173.694 168.412  1.00  0.00    -0.000 C 
BRANCH   4   5
ATOM      5  C   UNL     1     158.770 172.165 168.315  1.00  0.00    -0.000 C 
BRANCH   5   6
ATOM      6  C   UNL     1     159.128 171.547 169.674  1.00  0.00    -0.000 C 
BRANCH   6   7
ATOM      7  C   UNL     1     158.794 172.476 170.852  1.00  0.00    -0.003 C 
ATOM      8  C   UNL     1     159.933 172.576 171.866  1.00  0.00     0.004 C 
ENDBRANCH   6   7
ENDBRANCH   5   6
ENDBRANCH   4   5
ENDBRANCH   3   4
ENDBRANCH   2   3
ENDBRANCH   1   2
BRANCH   1   9
ATOM      9  C   UNL     1     162.631 173.424 167.965  1.00  0.00     0.000 C 
BRANCH   9  10
ATOM     10  C   UNL     1     163.232 172.065 168.361  1.00  0.00     0.000 C 
BRANCH  10  11
ATOM     11  C   UNL     1     162.712 171.551 169.711  1.00  0.00     0.000 C 
BRANCH  11  12
ATOM     12  C   UNL     1     163.868 171.339 170.700  1.00  0.00     0.002 C 
BRANCH  12  13
ATOM     13  C   UNL     1     164.056 172.527 171.657  1.00  0.00     0.028 C 
BRANCH  13  14
ATOM     14  C   UNL     1     165.428 173.205 171.535  1.00  0.00     0.156 C 
BRANCH  14  15
ATOM     15  O   UNL     1     165.519 173.954 170.353  1.00  0.00    -0.396 OA
ATOM     16  H   UNL     1     166.485 174.094 170.180  1.00  0.00     0.210 HD
ENDBRANCH  14  15
ENDBRANCH  13  14
ENDBRANCH  12  13
ENDBRANCH  11  12
ENDBRANCH  10  11
ENDBRANCH   9  10
ENDBRANCH   1   9
TORSDOF 13
ENDMDL
MODEL 4
REMARK VINA RESULT:    -2.893      8.814      9.971
REMARK INTER + INTRA:          -6.811
REMARK INTER:                  -6.219
REMARK INTRA:                  -0.592
REMARK UNBOUND:                -1.803
REMARK SMILES CCCCCCCCCCCCCCO
REMARK SMILES IDX 8 1 7 2 6 3 5 4 4 5 3 6 2 7 1 8 9 9 10 10 11 11 12 12 13 13
REMARK SMILES IDX 14 14 15 15
REMARK H PARENT 15 16
REMARK Flexibility Score: inf
ROOT
ATOM      1  C   UNL     1     164.948 166.124 168.882  1.00  0.00     0.000 C 
ENDROOT
BRANCH   1   2
ATOM      2  C   UNL     1     163.696 165.230 168.893  1.00  0.00    -0.000 C 
BRANCH   2   3
ATOM      3  C   UNL     1     163.458 164.558 170.255  1.00  0.00    -0.000 C 
BRANCH   3   4
ATOM      4  C   UNL     1     162.050 163.958 170.381  1.00  0.00    -0.000 C 
BRANCH   4   5
ATOM      5  C   UNL     1     161.430 163.719 168.999  1.00  0.00    -0.000 C 
BRANCH   5   6
ATOM      6  C   UNL     1     160.437 162.548 169.036  1.00  0.00    -0.000 C 
BRANCH   6   7
ATOM      7  C   UNL     1     159.319 162.754 170.070  1.00  0.00    -0.003 C 
ATOM      8  C   UNL     1     157.928 162.491 169.495  1.00  0.00     0.004 C 
ENDBRANCH   6   7
ENDBRANCH   5   6
ENDBRANCH   4   5
ENDBRANCH   3   4
ENDBRANCH   2   3
ENDBRANCH   1   2
BRANCH   1   9
ATOM      9  C   UNL     1     165.681 166.116 170.240  1.00  0.00     0.000 C 
BRANCH   9  10
ATOM     10  C   UNL     1     167.142 165.640 170.149  1.00  0.00     0.000 C 
BRANCH  10  11
ATOM     11  C   UNL     1     167.876 166.194 168.921  1.00  0.00     0.000 C 
BRANCH  11  12
ATOM     12  C   UNL     1     169.106 167.012 169.339  1.00  0.00     0.002 C 
BRANCH  12  13
ATOM     13  C   UNL     1     170.114 167.199 168.192  1.00  0.00     0.028 C 
BRANCH  13  14
ATOM     14  C   UNL     1     169.762 166.402 166.928  1.00  0.00     0.156 C 
BRANCH  14  15
ATOM     15  O   UNL     1     170.863 166.311 166.065  1.00  0.00    -0.396 OA
ATOM     16  H   UNL     1     171.191 167.237 165.925  1.00  0.00     0.210 HD
ENDBRANCH  14  15
ENDBRANCH  13  14
ENDBRANCH  12  13
ENDBRANCH  11  12
ENDBRANCH  10  11
ENDBRANCH   9  10
ENDBRANCH   1   9
TORSDOF 13
ENDMDL
MODEL 5
REMARK VINA RESULT:    -2.883     15.463     17.452
REMARK INTER + INTRA:          -6.793
REMARK INTER:                  -4.794
REMARK INTRA:                  -2.000
REMARK UNBOUND:                -1.803
REMARK SMILES CCCCCCCCCCCCCCO
REMARK SMILES IDX 8 1 7 2 6 3 5 4 4 5 3 6 2 7 1 8 9 9 10 10 11 11 12 12 13 13
REMARK SMILES IDX 14 14 15 15
REMARK H PARENT 15 16
REMARK Flexibility Score: inf
ROOT
ATOM      1  C   UNL     1     168.256 159.225 168.214  1.00  0.00     0.000 C 
ENDROOT
BRANCH   1   2
ATOM      2  C   UNL     1     168.167 159.999 169.542  1.00  0.00    -0.000 C 
BRANCH   2   3
ATOM      3  C   UNL     1     169.418 159.821 170.417  1.00  0.00    -0.000 C 
BRANCH   3   4
ATOM      4  C   UNL     1     169.079 159.643 171.904  1.00  0.00    -0.000 C 
BRANCH   4   5
ATOM      5  C   UNL     1     169.367 158.208 172.365  1.00  0.00    -0.000 C 
BRANCH   5   6
ATOM      6  C   UNL     1     168.085 157.520 172.856  1.00  0.00    -0.000 C 
BRANCH   6   7
ATOM      7  C   UNL     1     167.211 157.007 171.701  1.00  0.00    -0.003 C 
ATOM      8  C   UNL     1     165.873 157.740 171.604  1.00  0.00     0.004 C 
ENDBRANCH   6   7
ENDBRANCH   5   6
ENDBRANCH   4   5
ENDBRANCH   3   4
ENDBRANCH   2   3
ENDBRANCH   1   2
BRANCH   1   9
ATOM      9  C   UNL     1     168.011 157.713 168.404  1.00  0.00     0.000 C 
BRANCH   9  10
ATOM     10  C   UNL     1     169.179 156.835 167.922  1.00  0.00     0.000 C 
BRANCH  10  11
ATOM     11  C   UNL     1     169.922 156.141 169.071  1.00  0.00     0.000 C 
BRANCH  11  12
ATOM     12  C   UNL     1     171.200 156.908 169.441  1.00  0.00     0.002 C 
BRANCH  12  13
ATOM     13  C   UNL     1     171.745 157.750 168.275  1.00  0.00     0.028 C 
BRANCH  13  14
ATOM     14  C   UNL     1     172.635 158.918 168.723  1.00  0.00     0.156 C 
BRANCH  14  15
ATOM     15  O   UNL     1     172.449 160.039 167.902  1.00  0.00    -0.396 OA
ATOM     16  H   UNL     1     172.979 159.879 167.079  1.00  0.00     0.210 HD
ENDBRANCH  14  15
ENDBRANCH  13  14
ENDBRANCH  12  13
ENDBRANCH  11  12
ENDBRANCH  10  11
ENDBRANCH   9  10
ENDBRANCH   1   9
TORSDOF 13
ENDMDL
MODEL 6
REMARK VINA RESULT:    -2.877     15.731     17.992
REMARK INTER + INTRA:          -6.781
REMARK INTER:                  -4.704
REMARK INTRA:                  -2.077
REMARK UNBOUND:                -1.803
REMARK SMILES CCCCCCCCCCCCCCO
REMARK SMILES IDX 8 1 7 2 6 3 5 4 4 5 3 6 2 7 1 8 9 9 10 10 11 11 12 12 13 13
REMARK SMILES IDX 14 14 15 15
REMARK H PARENT 15 16
REMARK Flexibility Score: inf
ROOT
ATOM      1  C   UNL     1     169.249 156.851 169.136  1.00  0.00     0.000 C 
ENDROOT
BRANCH   1   2
ATOM      2  C   UNL     1     170.587 156.162 168.816  1.00  0.00    -0.000 C 
BRANCH   2   3
ATOM      3  C   UNL     1     171.459 156.978 167.849  1.00  0.00    -0.000 C 
BRANCH   3   4
ATOM      4  C   UNL     1     172.510 157.831 168.575  1.00  0.00    -0.000 C 
BRANCH   4   5
ATOM      5  C   UNL     1     172.066 159.297 168.656  1.00  0.00    -0.000 C 
BRANCH   5   6
ATOM      6  C   UNL     1     171.973 159.763 170.116  1.00  0.00    -0.000 C 
BRANCH   6   7
ATOM      7  C   UNL     1     172.272 158.636 171.116  1.00  0.00    -0.003 C 
ATOM      8  C   UNL     1     171.103 158.360 172.061  1.00  0.00     0.004 C 
ENDBRANCH   6   7
ENDBRANCH   5   6
ENDBRANCH   4   5
ENDBRANCH   3   4
ENDBRANCH   2   3
ENDBRANCH   1   2
BRANCH   1   9
ATOM      9  C   UNL     1     168.699 157.641 167.929  1.00  0.00     0.000 C 
BRANCH   9  10
ATOM     10  C   UNL     1     168.048 158.981 168.316  1.00  0.00     0.000 C 
BRANCH  10  11
ATOM     11  C   UNL     1     168.435 159.450 169.725  1.00  0.00     0.000 C 
BRANCH  11  12
ATOM     12  C   UNL     1     167.208 159.492 170.646  1.00  0.00     0.002 C 
BRANCH  12  13
ATOM     13  C   UNL     1     167.313 158.505 171.821  1.00  0.00     0.028 C 
BRANCH  13  14
ATOM     14  C   UNL     1     166.365 157.303 171.702  1.00  0.00     0.156 C 
BRANCH  14  15
ATOM     15  O   UNL     1     165.675 157.322 170.481  1.00  0.00    -0.396 OA
ATOM     16  H   UNL     1     166.100 156.636 169.904  1.00  0.00     0.210 HD
ENDBRANCH  14  15
ENDBRANCH  13  14
ENDBRANCH  12  13
ENDBRANCH  11  12
ENDBRANCH  10  11
ENDBRANCH   9  10
ENDBRANCH   1   9
TORSDOF 13
ENDMDL
MODEL 7
REMARK VINA RESULT:    -2.852      2.670      4.814
REMARK INTER + INTRA:          -6.740
REMARK INTER:                  -5.079
REMARK INTRA:                  -1.660
REMARK UNBOUND:                -1.803
REMARK SMILES CCCCCCCCCCCCCCO
REMARK SMILES IDX 8 1 7 2 6 3 5 4 4 5 3 6 2 7 1 8 9 9 10 10 11 11 12 12 13 13
REMARK SMILES IDX 14 14 15 15
REMARK H PARENT 15 16
REMARK Flexibility Score: inf
ROOT
ATOM      1  C   UNL     1     161.087 175.004 168.829  1.00  0.00     0.000 C 
ENDROOT
BRANCH   1   2
ATOM      2  C   UNL     1     161.991 174.563 167.664  1.00  0.00    -0.000 C 
BRANCH   2   3
ATOM      3  C   UNL     1     163.279 173.873 168.140  1.00  0.00    -0.000 C 
BRANCH   3   4
ATOM      4  C   UNL     1     163.322 172.382 167.771  1.00  0.00    -0.000 C 
BRANCH   4   5
ATOM      5  C   UNL     1     162.597 171.535 168.824  1.00  0.00    -0.000 C 
BRANCH   5   6
ATOM      6  C   UNL     1     163.377 171.515 170.147  1.00  0.00    -0.000 C 
BRANCH   6   7
ATOM      7  C   UNL     1     162.732 170.600 171.199  1.00  0.00    -0.003 C 
ATOM      8  C   UNL     1     163.601 169.390 171.541  1.00  0.00     0.004 C 
ENDBRANCH   6   7
ENDBRANCH   5   6
ENDBRANCH   4   5
ENDBRANCH   3   4
ENDBRANCH   2   3
ENDBRANCH   1   2
BRANCH   1   9
ATOM      9  C   UNL     1     161.790 174.863 170.196  1.00  0.00     0.000 C 
BRANCH   9  10
ATOM     10  C   UNL     1     160.876 174.308 171.303  1.00  0.00     0.000 C 
BRANCH  10  11
ATOM     11  C   UNL     1     159.479 173.931 170.792  1.00  0.00     0.000 C 
BRANCH  11  12
ATOM     12  C   UNL     1     159.111 172.498 171.207  1.00  0.00     0.002 C 
BRANCH  12  13
ATOM     13  C   UNL     1     159.306 171.482 170.069  1.00  0.00     0.028 C 
BRANCH  13  14
ATOM     14  C   UNL     1     158.993 172.049 168.677  1.00  0.00     0.156 C 
BRANCH  14  15
ATOM     15  O   UNL     1     158.399 171.079 167.857  1.00  0.00    -0.396 OA
ATOM     16  H   UNL     1     158.638 171.311 166.923  1.00  0.00     0.210 HD
ENDBRANCH  14  15
ENDBRANCH  13  14
ENDBRANCH  12  13
ENDBRANCH  11  12
ENDBRANCH  10  11
ENDBRANCH   9  10
ENDBRANCH   1   9
TORSDOF 13
ENDMDL
MODEL 8
REMARK VINA RESULT:    -2.814     15.982     18.755
REMARK INTER + INTRA:          -6.673
REMARK INTER:                  -5.062
REMARK INTRA:                  -1.612
REMARK UNBOUND:                -1.803
REMARK SMILES CCCCCCCCCCCCCCO
REMARK SMILES IDX 8 1 7 2 6 3 5 4 4 5 3 6 2 7 1 8 9 9 10 10 11 11 12 12 13 13
REMARK SMILES IDX 14 14 15 15
REMARK H PARENT 15 16
REMARK Flexibility Score: inf
ROOT
ATOM      1  C   UNL     1     172.191 159.258 168.621  1.00  0.00     0.000 C 
ENDROOT
BRANCH   1   2
ATOM      2  C   UNL     1     172.093 157.750 168.330  1.00  0.00    -0.000 C 
BRANCH   2   3
ATOM      3  C   UNL     1     173.061 156.916 169.184  1.00  0.00    -0.000 C 
BRANCH   3   4
ATOM      4  C   UNL     1     172.401 156.364 170.457  1.00  0.00    -0.000 C 
BRANCH   4   5
ATOM      5  C   UNL     1     173.081 156.922 171.713  1.00  0.00    -0.000 C 
BRANCH   5   6
ATOM      6  C   UNL     1     174.284 157.802 171.343  1.00  0.00    -0.000 C 
BRANCH   6   7
ATOM      7  C   UNL     1     174.211 159.200 171.977  1.00  0.00    -0.003 C 
ATOM      8  C   UNL     1     172.901 159.440 172.726  1.00  0.00     0.004 C 
ENDBRANCH   6   7
ENDBRANCH   5   6
ENDBRANCH   4   5
ENDBRANCH   3   4
ENDBRANCH   2   3
ENDBRANCH   1   2
BRANCH   1   9
ATOM      9  C   UNL     1     171.077 159.740 169.574  1.00  0.00     0.000 C 
BRANCH   9  10
ATOM     10  C   UNL     1     169.828 158.841 169.566  1.00  0.00     0.000 C 
BRANCH  10  11
ATOM     11  C   UNL     1     168.540 159.609 169.237  1.00  0.00     0.000 C 
BRANCH  11  12
ATOM     12  C   UNL     1     167.931 159.119 167.916  1.00  0.00     0.002 C 
BRANCH  12  13
ATOM     13  C   UNL     1     168.283 157.654 167.606  1.00  0.00     0.028 C 
BRANCH  13  14
ATOM     14  C   UNL     1     167.462 157.053 166.457  1.00  0.00     0.156 C 
BRANCH  14  15
ATOM     15  O   UNL     1     166.524 157.974 165.970  1.00  0.00    -0.396 OA
ATOM     16  H   UNL     1     165.630 157.633 166.230  1.00  0.00     0.210 HD
ENDBRANCH  14  15
ENDBRANCH  13  14
ENDBRANCH  12  13
ENDBRANCH  11  12
ENDBRANCH  10  11
ENDBRANCH   9  10
ENDBRANCH   1   9
TORSDOF 13
ENDMDL
MODEL 9
REMARK VINA RESULT:    -2.813      1.698      4.445
REMARK INTER + INTRA:          -6.671
REMARK INTER:                  -5.659
REMARK INTRA:                  -1.013
REMARK UNBOUND:                -1.803
REMARK SMILES CCCCCCCCCCCCCCO
REMARK SMILES IDX 8 1 7 2 6 3 5 4 4 5 3 6 2 7 1 8 9 9 10 10 11 11 12 12 13 13
REMARK SMILES IDX 14 14 15 15
REMARK H PARENT 15 16
REMARK Flexibility Score: inf
ROOT
ATOM      1  C   UNL     1     158.663 173.868 167.491  1.00  0.00     0.000 C 
ENDROOT
BRANCH   1   2
ATOM      2  C   UNL     1     158.547 173.469 168.973  1.00  0.00    -0.000 C 
BRANCH   2   3
ATOM      3  C   UNL     1     159.069 172.050 169.248  1.00  0.00    -0.000 C 
BRANCH   3   4
ATOM      4  C   UNL     1     160.193 172.026 170.295  1.00  0.00    -0.000 C 
BRANCH   4   5
ATOM      5  C   UNL     1     161.250 173.095 169.990  1.00  0.00    -0.000 C 
BRANCH   5   6
ATOM      6  C   UNL     1     162.276 172.579 168.970  1.00  0.00    -0.000 C 
BRANCH   6   7
ATOM      7  C   UNL     1     162.956 171.278 169.424  1.00  0.00    -0.003 C 
ATOM      8  C   UNL     1     163.855 171.477 170.644  1.00  0.00     0.004 C 
ENDBRANCH   6   7
ENDBRANCH   5   6
ENDBRANCH   4   5
ENDBRANCH   3   4
ENDBRANCH   2   3
ENDBRANCH   1   2
BRANCH   1   9
ATOM      9  C   UNL     1     159.715 174.974 167.266  1.00  0.00     0.000 C 
BRANCH   9  10
ATOM     10  C   UNL     1     159.585 175.679 165.904  1.00  0.00     0.000 C 
BRANCH  10  11
ATOM     11  C   UNL     1     160.906 175.726 165.126  1.00  0.00     0.000 C 
BRANCH  11  12
ATOM     12  C   UNL     1     162.088 175.339 166.026  1.00  0.00     0.002 C 
BRANCH  12  13
ATOM     13  C   UNL     1     163.433 175.357 165.280  1.00  0.00     0.028 C 
BRANCH  13  14
ATOM     14  C   UNL     1     164.365 174.197 165.661  1.00  0.00     0.156 C 
BRANCH  14  15
ATOM     15  O   UNL     1     165.637 174.667 166.018  1.00  0.00    -0.396 OA
ATOM     16  H   UNL     1     165.708 175.591 165.664  1.00  0.00     0.210 HD
ENDBRANCH  14  15
ENDBRANCH  13  14
ENDBRANCH  12  13
ENDBRANCH  11  12
ENDBRANCH  10  11
ENDBRANCH   9  10
ENDBRANCH   1   9
TORSDOF 13
ENDMDL
