MODEL 1
REMARK VINA RESULT:    -4.841      0.000      0.000
REMARK INTER + INTRA:          -5.145
REMARK INTER:                  -5.124
REMARK INTRA:                  -0.021
REMARK UNBOUND:                -0.021
REMARK SMILES O=C([O-])c1cccnc1
REMARK SMILES IDX 4 1 5 2 9 3 6 4 8 5 7 6 2 7 1 8 3 9
REMARK H PARENT
REMARK Flexibility Score: inf
ROOT
ATOM      1  C   UNL     1       7.987 -15.993 -29.453  1.00  0.00     0.016 A 
ATOM      2  C   UNL     1       8.289 -16.803 -28.346  1.00  0.00     0.013 A 
ATOM      3  C   UNL     1       7.289 -14.792 -29.230  1.00  0.00     0.120 A 
ATOM      4  C   UNL     1       7.899 -16.413 -27.064  1.00  0.00     0.021 A 
ATOM      5  N   UNL     1       6.921 -14.436 -27.970  1.00  0.00    -0.264 NA
ATOM      6  C   UNL     1       7.209 -15.213 -26.894  1.00  0.00     0.111 A 
ENDROOT
BRANCH   1   7
ATOM      7  C   UNL     1       8.395 -16.395 -30.816  1.00  0.00     0.073 C 
ATOM      8  O   UNL     1       7.654 -16.149 -31.805  1.00  0.00    -0.545 OA
ATOM      9  O   UNL     1       9.603 -17.051 -31.024  1.00  0.00    -0.545 OA
ENDBRANCH   1   7
TORSDOF 1
ENDMDL
MODEL 2
REMARK VINA RESULT:    -4.764      2.308      2.903
REMARK INTER + INTRA:          -5.064
REMARK INTER:                  -5.043
REMARK INTRA:                  -0.021
REMARK UNBOUND:                -0.021
REMARK SMILES O=C([O-])c1cccnc1
REMARK SMILES IDX 4 1 5 2 9 3 6 4 8 5 7 6 2 7 1 8 3 9
REMARK H PARENT
REMARK Flexibility Score: inf
ROOT
ATOM      1  C   UNL     1       8.388 -16.548 -29.083  1.00  0.00     0.016 A 
ATOM      2  C   UNL     1       8.232 -16.595 -27.688  1.00  0.00     0.013 A 
ATOM      3  C   UNL     1       9.337 -17.398 -29.679  1.00  0.00     0.120 A 
ATOM      4  C   UNL     1       9.007 -17.470 -26.925  1.00  0.00     0.021 A 
ATOM      5  N   UNL     1      10.079 -18.241 -28.912  1.00  0.00    -0.264 NA
ATOM      6  C   UNL     1       9.936 -18.295 -27.562  1.00  0.00     0.111 A 
ENDROOT
BRANCH   1   7
ATOM      7  C   UNL     1       7.572 -15.626 -29.902  1.00  0.00     0.073 C 
ATOM      8  O   UNL     1       7.223 -15.944 -31.071  1.00  0.00    -0.545 OA
ATOM      9  O   UNL     1       7.179 -14.393 -29.394  1.00  0.00    -0.545 OA
ENDBRANCH   1   7
TORSDOF 1
ENDMDL
MODEL 3
REMARK VINA RESULT:    -4.691      4.010      4.740
REMARK INTER + INTRA:          -4.986
REMARK INTER:                  -4.965
REMARK INTRA:                  -0.021
REMARK UNBOUND:                -0.021
REMARK SMILES O=C([O-])c1cccnc1
REMARK SMILES IDX 4 1 5 2 9 3 6 4 8 5 7 6 2 7 1 8 3 9
REMARK H PARENT
REMARK Flexibility Score: inf
ROOT
ATOM      1  C   UNL     1      10.825 -18.180 -27.580  1.00  0.00     0.016 A 
ATOM      2  C   UNL     1      12.139 -18.672 -27.647  1.00  0.00     0.013 A 
ATOM      3  C   UNL     1      10.265 -17.940 -26.312  1.00  0.00     0.120 A 
ATOM      4  C   UNL     1      12.858 -18.911 -26.475  1.00  0.00     0.021 A 
ATOM      5  N   UNL     1      10.989 -18.181 -25.186  1.00  0.00    -0.264 NA
ATOM      6  C   UNL     1      12.260 -18.657 -25.240  1.00  0.00     0.111 A 
ENDROOT
BRANCH   1   7
ATOM      7  C   UNL     1      10.053 -17.923 -28.815  1.00  0.00     0.073 C 
ATOM      8  O   UNL     1      10.608 -17.407 -29.822  1.00  0.00    -0.545 OA
ATOM      9  O   UNL     1       8.702 -18.245 -28.881  1.00  0.00    -0.545 OA
ENDBRANCH   1   7
TORSDOF 1
ENDMDL
MODEL 4
REMARK VINA RESULT:    -4.653      3.571      4.327
REMARK INTER + INTRA:          -4.945
REMARK INTER:                  -4.929
REMARK INTRA:                  -0.017
REMARK UNBOUND:                -0.021
REMARK SMILES O=C([O-])c1cccnc1
REMARK SMILES IDX 4 1 5 2 9 3 6 4 8 5 7 6 2 7 1 8 3 9
REMARK H PARENT
REMARK Flexibility Score: inf
ROOT
ATOM      1  C   UNL     1       9.089 -17.424 -27.477  1.00  0.00     0.016 A 
ATOM      2  C   UNL     1      10.105 -17.745 -26.561  1.00  0.00     0.013 A 
ATOM      3  C   UNL     1       9.371 -17.529 -28.851  1.00  0.00     0.120 A 
ATOM      4  C   UNL     1      11.358 -18.155 -27.019  1.00  0.00     0.021 A 
ATOM      5  N   UNL     1      10.601 -17.932 -29.270  1.00  0.00    -0.264 NA
ATOM      6  C   UNL     1      11.590 -18.244 -28.392  1.00  0.00     0.111 A 
ENDROOT
BRANCH   1   7
ATOM      7  C   UNL     1       7.757 -16.988 -27.004  1.00  0.00     0.073 C 
ATOM      8  O   UNL     1       6.941 -17.823 -26.529  1.00  0.00    -0.545 OA
ATOM      9  O   UNL     1       7.387 -15.650 -27.078  1.00  0.00    -0.545 OA
ENDBRANCH   1   7
TORSDOF 1
ENDMDL
MODEL 5
REMARK VINA RESULT:    -4.568      5.475      6.411
REMARK INTER + INTRA:          -4.856
REMARK INTER:                  -4.834
REMARK INTRA:                  -0.022
REMARK UNBOUND:                -0.021
REMARK SMILES O=C([O-])c1cccnc1
REMARK SMILES IDX 4 1 5 2 9 3 6 4 8 5 7 6 2 7 1 8 3 9
REMARK H PARENT
REMARK Flexibility Score: inf
ROOT
ATOM      1  C   UNL     1      11.429 -19.032 -26.738  1.00  0.00     0.016 A 
ATOM      2  C   UNL     1      11.857 -20.235 -26.151  1.00  0.00     0.013 A 
ATOM      3  C   UNL     1      11.403 -18.947 -28.142  1.00  0.00     0.120 A 
ATOM      4  C   UNL     1      12.244 -21.308 -26.954  1.00  0.00     0.021 A 
ATOM      5  N   UNL     1      11.784 -20.009 -28.901  1.00  0.00    -0.264 NA
ATOM      6  C   UNL     1      12.200 -21.176 -28.343  1.00  0.00     0.111 A 
ENDROOT
BRANCH   1   7
ATOM      7  C   UNL     1      11.017 -17.888 -25.897  1.00  0.00     0.073 C 
ATOM      8  O   UNL     1      10.213 -17.025 -26.340  1.00  0.00    -0.545 OA
ATOM      9  O   UNL     1      11.512 -17.748 -24.606  1.00  0.00    -0.545 OA
ENDBRANCH   1   7
TORSDOF 1
ENDMDL
MODEL 6
REMARK VINA RESULT:    -4.550      5.496      6.511
REMARK INTER + INTRA:          -4.836
REMARK INTER:                  -4.814
REMARK INTRA:                  -0.023
REMARK UNBOUND:                -0.021
REMARK SMILES O=C([O-])c1cccnc1
REMARK SMILES IDX 4 1 5 2 9 3 6 4 8 5 7 6 2 7 1 8 3 9
REMARK H PARENT
REMARK Flexibility Score: inf
ROOT
ATOM      1  C   UNL     1      11.431 -19.149 -26.777  1.00  0.00     0.016 A 
ATOM      2  C   UNL     1      11.873 -20.338 -26.172  1.00  0.00     0.013 A 
ATOM      3  C   UNL     1      11.363 -19.099 -28.181  1.00  0.00     0.120 A 
ATOM      4  C   UNL     1      12.233 -21.433 -26.959  1.00  0.00     0.021 A 
ATOM      5  N   UNL     1      11.719 -20.182 -28.924  1.00  0.00    -0.264 NA
ATOM      6  C   UNL     1      12.148 -21.335 -28.348  1.00  0.00     0.111 A 
ENDROOT
BRANCH   1   7
ATOM      7  C   UNL     1      11.047 -17.982 -25.954  1.00  0.00     0.073 C 
ATOM      8  O   UNL     1      11.495 -17.848 -24.784  1.00  0.00    -0.545 OA
ATOM      9  O   UNL     1      10.184 -17.017 -26.460  1.00  0.00    -0.545 OA
ENDBRANCH   1   7
TORSDOF 1
ENDMDL
MODEL 7
REMARK VINA RESULT:    -4.541      3.971      4.829
REMARK INTER + INTRA:          -4.827
REMARK INTER:                  -4.808
REMARK INTRA:                  -0.019
REMARK UNBOUND:                -0.021
REMARK SMILES O=C([O-])c1cccnc1
REMARK SMILES IDX 4 1 5 2 9 3 6 4 8 5 7 6 2 7 1 8 3 9
REMARK H PARENT
REMARK Flexibility Score: inf
ROOT
ATOM      1  C   UNL     1      10.150 -18.137 -27.079  1.00  0.00     0.016 A 
ATOM      2  C   UNL     1       8.862 -17.646 -26.809  1.00  0.00     0.013 A 
ATOM      3  C   UNL     1      10.569 -18.212 -28.419  1.00  0.00     0.120 A 
ATOM      4  C   UNL     1       8.030 -17.247 -27.856  1.00  0.00     0.021 A 
ATOM      5  N   UNL     1       9.739 -17.815 -29.421  1.00  0.00    -0.264 NA
ATOM      6  C   UNL     1       8.491 -17.339 -29.170  1.00  0.00     0.111 A 
ENDROOT
BRANCH   1   7
ATOM      7  C   UNL     1      11.040 -18.563 -25.978  1.00  0.00     0.073 C 
ATOM      8  O   UNL     1      11.310 -17.776 -25.031  1.00  0.00    -0.545 OA
ATOM      9  O   UNL     1      11.594 -19.838 -25.973  1.00  0.00    -0.545 OA
ENDBRANCH   1   7
TORSDOF 1
ENDMDL
MODEL 8
REMARK VINA RESULT:    -4.372      3.529      4.142
REMARK INTER + INTRA:          -4.648
REMARK INTER:                  -4.626
REMARK INTRA:                  -0.022
REMARK UNBOUND:                -0.021
REMARK SMILES O=C([O-])c1cccnc1
REMARK SMILES IDX 4 1 5 2 9 3 6 4 8 5 7 6 2 7 1 8 3 9
REMARK H PARENT
REMARK Flexibility Score: inf
ROOT
ATOM      1  C   UNL     1       9.896 -17.712 -28.048  1.00  0.00     0.016 A 
ATOM      2  C   UNL     1       9.866 -17.803 -26.646  1.00  0.00     0.013 A 
ATOM      3  C   UNL     1      11.080 -18.075 -28.715  1.00  0.00     0.120 A 
ATOM      4  C   UNL     1      10.991 -18.244 -25.948  1.00  0.00     0.021 A 
ATOM      5  N   UNL     1      12.162 -18.502 -28.010  1.00  0.00    -0.264 NA
ATOM      6  C   UNL     1      12.142 -18.594 -26.654  1.00  0.00     0.111 A 
ENDROOT
BRANCH   1   7
ATOM      7  C   UNL     1       8.711 -17.246 -28.799  1.00  0.00     0.073 C 
ATOM      8  O   UNL     1       7.922 -16.404 -28.293  1.00  0.00    -0.545 OA
ATOM      9  O   UNL     1       8.450 -17.733 -30.074  1.00  0.00    -0.545 OA
ENDBRANCH   1   7
TORSDOF 1
ENDMDL
MODEL 9
REMARK VINA RESULT:    -4.261      6.321      7.267
REMARK INTER + INTRA:          -4.531
REMARK INTER:                  -4.515
REMARK INTRA:                  -0.016
REMARK UNBOUND:                -0.021
REMARK SMILES O=C([O-])c1cccnc1
REMARK SMILES IDX 4 1 5 2 9 3 6 4 8 5 7 6 2 7 1 8 3 9
REMARK H PARENT
REMARK Flexibility Score: inf
ROOT
ATOM      1  C   UNL     1      12.179 -21.127 -27.304  1.00  0.00     0.016 A 
ATOM      2  C   UNL     1      12.119 -20.163 -26.284  1.00  0.00     0.013 A 
ATOM      3  C   UNL     1      11.983 -20.706 -28.632  1.00  0.00     0.120 A 
ATOM      4  C   UNL     1      11.871 -18.826 -26.596  1.00  0.00     0.021 A 
ATOM      5  N   UNL     1      11.743 -19.396 -28.908  1.00  0.00    -0.264 NA
ATOM      6  C   UNL     1      11.684 -18.457 -27.929  1.00  0.00     0.111 A 
ENDROOT
BRANCH   1   7
ATOM      7  C   UNL     1      12.442 -22.547 -26.986  1.00  0.00     0.073 C 
ATOM      8  O   UNL     1      13.616 -23.004 -27.018  1.00  0.00    -0.545 OA
ATOM      9  O   UNL     1      11.396 -23.398 -26.649  1.00  0.00    -0.545 OA
ENDBRANCH   1   7
TORSDOF 1
ENDMDL
