MODEL 1
REMARK VINA RESULT:    -3.415      0.000      0.000
REMARK INTER + INTRA:          -5.266
REMARK INTER:                  -4.713
REMARK INTRA:                  -0.553
REMARK UNBOUND:                -0.553
REMARK SMILES CCCCCCCCO
REMARK SMILES IDX 5 1 4 2 3 3 2 4 1 5 6 6 7 7 8 8 9 9
REMARK H PARENT 9 10
REMARK Flexibility Score: inf
ROOT
ATOM      1  C   UNL     1      -1.221  32.018 -42.687  1.00  0.00     0.000 C 
ENDROOT
BRANCH   1   2
ATOM      2  C   UNL     1      -1.469  30.576 -42.222  1.00  0.00    -0.000 C 
BRANCH   2   3
ATOM      3  C   UNL     1      -0.174  29.755 -42.258  1.00  0.00    -0.000 C 
BRANCH   3   4
ATOM      4  C   UNL     1      -0.375  28.442 -43.023  1.00  0.00    -0.003 C 
ATOM      5  C   UNL     1      -1.847  28.218 -43.354  1.00  0.00     0.004 C 
ENDBRANCH   3   4
ENDBRANCH   2   3
ENDBRANCH   1   2
BRANCH   1   6
ATOM      6  C   UNL     1      -0.155  32.097 -43.801  1.00  0.00     0.002 C 
BRANCH   6   7
ATOM      7  C   UNL     1      -0.746  32.301 -45.208  1.00  0.00     0.028 C 
BRANCH   7   8
ATOM      8  C   UNL     1      -1.256  31.012 -45.857  1.00  0.00     0.156 C 
BRANCH   8   9
ATOM      9  O   UNL     1      -2.637  30.883 -45.664  1.00  0.00    -0.396 OA
ATOM     10  H   UNL     1      -2.751  30.251 -44.907  1.00  0.00     0.210 HD
ENDBRANCH   8   9
ENDBRANCH   7   8
ENDBRANCH   6   7
ENDBRANCH   1   6
TORSDOF 7
ENDMDL
MODEL 2
REMARK VINA RESULT:    -3.267      0.998      3.090
REMARK INTER + INTRA:          -5.062
REMARK INTER:                  -4.520
REMARK INTRA:                  -0.542
REMARK UNBOUND:                -0.553
REMARK SMILES CCCCCCCCO
REMARK SMILES IDX 5 1 4 2 3 3 2 4 1 5 6 6 7 7 8 8 9 9
REMARK H PARENT 9 10
REMARK Flexibility Score: inf
ROOT
ATOM      1  C   UNL     1      -1.479  28.551 -42.960  1.00  0.00     0.000 C 
ENDROOT
BRANCH   1   2
ATOM      2  C   UNL     1      -0.683  29.788 -42.516  1.00  0.00    -0.000 C 
BRANCH   2   3
ATOM      3  C   UNL     1      -1.622  30.942 -42.141  1.00  0.00    -0.000 C 
BRANCH   3   4
ATOM      4  C   UNL     1      -1.209  32.238 -42.847  1.00  0.00    -0.003 C 
ATOM      5  C   UNL     1       0.084  32.050 -43.633  1.00  0.00     0.004 C 
ENDBRANCH   3   4
ENDBRANCH   2   3
ENDBRANCH   1   2
BRANCH   1   6
ATOM      6  C   UNL     1      -1.072  28.070 -44.369  1.00  0.00     0.002 C 
BRANCH   6   7
ATOM      7  C   UNL     1      -2.058  28.493 -45.475  1.00  0.00     0.028 C 
BRANCH   7   8
ATOM      8  C   UNL     1      -1.793  29.892 -46.037  1.00  0.00     0.156 C 
BRANCH   8   9
ATOM      9  O   UNL     1      -2.859  30.747 -45.733  1.00  0.00    -0.396 OA
ATOM     10  H   UNL     1      -3.645  30.162 -45.573  1.00  0.00     0.210 HD
ENDBRANCH   8   9
ENDBRANCH   7   8
ENDBRANCH   6   7
ENDBRANCH   1   6
TORSDOF 7
ENDMDL
MODEL 3
REMARK VINA RESULT:    -3.137      1.090      2.402
REMARK INTER + INTRA:          -4.882
REMARK INTER:                  -4.462
REMARK INTRA:                  -0.420
REMARK UNBOUND:                -0.553
REMARK SMILES CCCCCCCCO
REMARK SMILES IDX 5 1 4 2 3 3 2 4 1 5 6 6 7 7 8 8 9 9
REMARK H PARENT 9 10
REMARK Flexibility Score: inf
ROOT
ATOM      1  C   UNL     1      -0.763  32.075 -45.142  1.00  0.00     0.000 C 
ENDROOT
BRANCH   1   2
ATOM      2  C   UNL     1      -0.076  32.151 -43.771  1.00  0.00    -0.000 C 
BRANCH   2   3
ATOM      3  C   UNL     1      -1.108  32.229 -42.639  1.00  0.00    -0.000 C 
BRANCH   3   4
ATOM      4  C   UNL     1      -1.553  30.829 -42.203  1.00  0.00    -0.003 C 
ATOM      5  C   UNL     1      -0.419  29.820 -42.347  1.00  0.00     0.004 C 
ENDBRANCH   3   4
ENDBRANCH   2   3
ENDBRANCH   1   2
BRANCH   1   6
ATOM      6  C   UNL     1      -0.228  30.908 -45.999  1.00  0.00     0.002 C 
BRANCH   6   7
ATOM      7  C   UNL     1      -1.330  29.961 -46.509  1.00  0.00     0.028 C 
BRANCH   7   8
ATOM      8  C   UNL     1      -2.461  29.730 -45.503  1.00  0.00     0.156 C 
BRANCH   8   9
ATOM      9  O   UNL     1      -3.636  30.354 -45.941  1.00  0.00    -0.396 OA
ATOM     10  H   UNL     1      -4.094  29.697 -46.527  1.00  0.00     0.210 HD
ENDBRANCH   8   9
ENDBRANCH   7   8
ENDBRANCH   6   7
ENDBRANCH   1   6
TORSDOF 7
ENDMDL
MODEL 4
REMARK VINA RESULT:    -3.110     11.615     12.869
REMARK INTER + INTRA:          -4.845
REMARK INTER:                  -4.550
REMARK INTRA:                  -0.296
REMARK UNBOUND:                -0.553
REMARK SMILES CCCCCCCCO
REMARK SMILES IDX 5 1 4 2 3 3 2 4 1 5 6 6 7 7 8 8 9 9
REMARK H PARENT 9 10
REMARK Flexibility Score: inf
ROOT
ATOM      1  C   UNL     1     -10.271  28.712 -37.557  1.00  0.00     0.000 C 
ENDROOT
BRANCH   1   2
ATOM      2  C   UNL     1     -11.596  29.482 -37.642  1.00  0.00    -0.000 C 
BRANCH   2   3
ATOM      3  C   UNL     1     -11.370  30.990 -37.473  1.00  0.00    -0.000 C 
BRANCH   3   4
ATOM      4  C   UNL     1     -10.299  31.270 -36.413  1.00  0.00    -0.003 C 
ATOM      5  C   UNL     1      -9.434  32.463 -36.806  1.00  0.00     0.004 C 
ENDBRANCH   3   4
ENDBRANCH   2   3
ENDBRANCH   1   2
BRANCH   1   6
ATOM      6  C   UNL     1     -10.429  27.359 -36.830  1.00  0.00     0.002 C 
BRANCH   6   7
ATOM      7  C   UNL     1     -10.122  27.428 -35.322  1.00  0.00     0.028 C 
BRANCH   7   8
ATOM      8  C   UNL     1      -9.482  26.155 -34.763  1.00  0.00     0.156 C 
BRANCH   8   9
ATOM      9  O   UNL     1     -10.049  25.828 -33.525  1.00  0.00    -0.396 OA
ATOM     10  H   UNL     1     -10.180  26.688 -33.047  1.00  0.00     0.210 HD
ENDBRANCH   8   9
ENDBRANCH   7   8
ENDBRANCH   6   7
ENDBRANCH   1   6
TORSDOF 7
ENDMDL
MODEL 5
REMARK VINA RESULT:    -3.072     11.707     12.790
REMARK INTER + INTRA:          -4.792
REMARK INTER:                  -4.569
REMARK INTRA:                  -0.223
REMARK UNBOUND:                -0.553
REMARK SMILES CCCCCCCCO
REMARK SMILES IDX 5 1 4 2 3 3 2 4 1 5 6 6 7 7 8 8 9 9
REMARK H PARENT 9 10
REMARK Flexibility Score: inf
ROOT
ATOM      1  C   UNL     1     -11.014  27.041 -37.500  1.00  0.00     0.000 C 
ENDROOT
BRANCH   1   2
ATOM      2  C   UNL     1     -10.895  28.464 -38.065  1.00  0.00    -0.000 C 
BRANCH   2   3
ATOM      3  C   UNL     1     -10.033  29.348 -37.155  1.00  0.00    -0.000 C 
BRANCH   3   4
ATOM      4  C   UNL     1     -10.667  30.731 -36.970  1.00  0.00    -0.003 C 
ATOM      5  C   UNL     1      -9.615  31.775 -36.608  1.00  0.00     0.004 C 
ENDBRANCH   3   4
ENDBRANCH   2   3
ENDBRANCH   1   2
BRANCH   1   6
ATOM      6  C   UNL     1      -9.634  26.402 -37.236  1.00  0.00     0.002 C 
BRANCH   6   7
ATOM      7  C   UNL     1      -9.511  25.750 -35.846  1.00  0.00     0.028 C 
BRANCH   7   8
ATOM      8  C   UNL     1     -10.151  26.568 -34.722  1.00  0.00     0.156 C 
BRANCH   8   9
ATOM      9  O   UNL     1     -10.117  25.852 -33.519  1.00  0.00    -0.396 OA
ATOM     10  H   UNL     1      -9.369  26.235 -32.991  1.00  0.00     0.210 HD
ENDBRANCH   8   9
ENDBRANCH   7   8
ENDBRANCH   6   7
ENDBRANCH   1   6
TORSDOF 7
ENDMDL
MODEL 6
REMARK VINA RESULT:    -3.031     10.861     11.683
REMARK INTER + INTRA:          -4.736
REMARK INTER:                  -4.434
REMARK INTRA:                  -0.302
REMARK UNBOUND:                -0.553
REMARK SMILES CCCCCCCCO
REMARK SMILES IDX 5 1 4 2 3 3 2 4 1 5 6 6 7 7 8 8 9 9
REMARK H PARENT 9 10
REMARK Flexibility Score: inf
ROOT
ATOM      1  C   UNL     1     -11.043  29.029 -37.591  1.00  0.00     0.000 C 
ENDROOT
BRANCH   1   2
ATOM      2  C   UNL     1     -11.145  27.680 -36.865  1.00  0.00    -0.000 C 
BRANCH   2   3
ATOM      3  C   UNL     1     -10.222  27.641 -35.641  1.00  0.00    -0.000 C 
BRANCH   3   4
ATOM      4  C   UNL     1      -9.571  26.263 -35.485  1.00  0.00    -0.003 C 
ATOM      5  C   UNL     1      -9.463  25.550 -36.829  1.00  0.00     0.004 C 
ENDBRANCH   3   4
ENDBRANCH   2   3
ENDBRANCH   1   2
BRANCH   1   6
ATOM      6  C   UNL     1      -9.841  29.866 -37.101  1.00  0.00     0.002 C 
BRANCH   6   7
ATOM      7  C   UNL     1     -10.219  31.294 -36.666  1.00  0.00     0.028 C 
BRANCH   7   8
ATOM      8  C   UNL     1      -9.058  32.289 -36.735  1.00  0.00     0.156 C 
BRANCH   8   9
ATOM      9  O   UNL     1      -7.836  31.621 -36.581  1.00  0.00    -0.396 OA
ATOM     10  H   UNL     1      -7.898  30.802 -37.138  1.00  0.00     0.210 HD
ENDBRANCH   8   9
ENDBRANCH   7   8
ENDBRANCH   6   7
ENDBRANCH   1   6
TORSDOF 7
ENDMDL
MODEL 7
REMARK VINA RESULT:    -2.998      1.547      3.130
REMARK INTER + INTRA:          -4.690
REMARK INTER:                  -4.253
REMARK INTRA:                  -0.437
REMARK UNBOUND:                -0.553
REMARK SMILES CCCCCCCCO
REMARK SMILES IDX 5 1 4 2 3 3 2 4 1 5 6 6 7 7 8 8 9 9
REMARK H PARENT 9 10
REMARK Flexibility Score: inf
ROOT
ATOM      1  C   UNL     1      -0.570  28.406 -42.567  1.00  0.00     0.000 C 
ENDROOT
BRANCH   1   2
ATOM      2  C   UNL     1      -1.773  28.061 -43.457  1.00  0.00    -0.000 C 
BRANCH   2   3
ATOM      3  C   UNL     1      -1.315  27.474 -44.798  1.00  0.00    -0.000 C 
BRANCH   3   4
ATOM      4  C   UNL     1      -1.889  28.272 -45.974  1.00  0.00    -0.003 C 
ATOM      5  C   UNL     1      -2.771  29.416 -45.484  1.00  0.00     0.004 C 
ENDBRANCH   3   4
ENDBRANCH   2   3
ENDBRANCH   1   2
BRANCH   1   6
ATOM      6  C   UNL     1      -0.237  29.913 -42.595  1.00  0.00     0.002 C 
BRANCH   6   7
ATOM      7  C   UNL     1      -1.422  30.816 -42.206  1.00  0.00     0.028 C 
BRANCH   7   8
ATOM      8  C   UNL     1      -1.265  32.270 -42.658  1.00  0.00     0.156 C 
BRANCH   8   9
ATOM      9  O   UNL     1      -1.915  32.472 -43.882  1.00  0.00    -0.396 OA
ATOM     10  H   UNL     1      -1.241  32.876 -44.488  1.00  0.00     0.210 HD
ENDBRANCH   8   9
ENDBRANCH   7   8
ENDBRANCH   6   7
ENDBRANCH   1   6
TORSDOF 7
ENDMDL
MODEL 8
REMARK VINA RESULT:    -2.971     11.860     13.154
REMARK INTER + INTRA:          -4.653
REMARK INTER:                  -4.417
REMARK INTRA:                  -0.235
REMARK UNBOUND:                -0.553
REMARK SMILES CCCCCCCCO
REMARK SMILES IDX 5 1 4 2 3 3 2 4 1 5 6 6 7 7 8 8 9 9
REMARK H PARENT 9 10
REMARK Flexibility Score: inf
ROOT
ATOM      1  C   UNL     1      -9.267  25.799 -35.278  1.00  0.00     0.000 C 
ENDROOT
BRANCH   1   2
ATOM      2  C   UNL     1     -10.122  27.064 -35.123  1.00  0.00    -0.000 C 
BRANCH   2   3
ATOM      3  C   UNL     1     -10.695  27.512 -36.473  1.00  0.00    -0.000 C 
BRANCH   3   4
ATOM      4  C   UNL     1      -9.971  28.758 -36.993  1.00  0.00    -0.003 C 
ATOM      5  C   UNL     1     -10.963  29.847 -37.389  1.00  0.00     0.004 C 
ENDBRANCH   3   4
ENDBRANCH   2   3
ENDBRANCH   1   2
BRANCH   1   6
ATOM      6  C   UNL     1      -9.637  24.996 -36.544  1.00  0.00     0.002 C 
BRANCH   6   7
ATOM      7  C   UNL     1      -9.306  23.496 -36.443  1.00  0.00     0.028 C 
BRANCH   7   8
ATOM      8  C   UNL     1      -8.807  23.065 -35.061  1.00  0.00     0.156 C 
BRANCH   8   9
ATOM      9  O   UNL     1      -7.537  22.483 -35.162  1.00  0.00    -0.396 OA
ATOM     10  H   UNL     1      -6.886  23.228 -35.079  1.00  0.00     0.210 HD
ENDBRANCH   8   9
ENDBRANCH   7   8
ENDBRANCH   6   7
ENDBRANCH   1   6
TORSDOF 7
ENDMDL
MODEL 9
REMARK VINA RESULT:    -2.958     12.438     13.816
REMARK INTER + INTRA:          -4.635
REMARK INTER:                  -4.136
REMARK INTRA:                  -0.499
REMARK UNBOUND:                -0.553
REMARK SMILES CCCCCCCCO
REMARK SMILES IDX 5 1 4 2 3 3 2 4 1 5 6 6 7 7 8 8 9 9
REMARK H PARENT 9 10
REMARK Flexibility Score: inf
ROOT
ATOM      1  C   UNL     1     -10.216  26.777 -37.315  1.00  0.00     0.000 C 
ENDROOT
BRANCH   1   2
ATOM      2  C   UNL     1     -11.518  26.382 -38.026  1.00  0.00    -0.000 C 
BRANCH   2   3
ATOM      3  C   UNL     1     -12.130  25.124 -37.397  1.00  0.00    -0.000 C 
BRANCH   3   4
ATOM      4  C   UNL     1     -13.342  25.477 -36.528  1.00  0.00    -0.003 C 
ATOM      5  C   UNL     1     -13.956  26.807 -36.953  1.00  0.00     0.004 C 
ENDBRANCH   3   4
ENDBRANCH   2   3
ENDBRANCH   1   2
BRANCH   1   6
ATOM      6  C   UNL     1     -10.437  27.891 -36.269  1.00  0.00     0.002 C 
BRANCH   6   7
ATOM      7  C   UNL     1     -10.219  27.427 -34.817  1.00  0.00     0.028 C 
BRANCH   7   8
ATOM      8  C   UNL     1      -9.513  26.073 -34.700  1.00  0.00     0.156 C 
BRANCH   8   9
ATOM      9  O   UNL     1      -9.786  25.488 -33.458  1.00  0.00    -0.396 OA
ATOM     10  H   UNL     1      -9.557  26.172 -32.776  1.00  0.00     0.210 HD
ENDBRANCH   8   9
ENDBRANCH   7   8
ENDBRANCH   6   7
ENDBRANCH   1   6
TORSDOF 7
ENDMDL
