MODEL 1
REMARK VINA RESULT:    -3.666      0.000      0.000
REMARK INTER + INTRA:          -4.129
REMARK INTER:                  -5.166
REMARK INTRA:                   1.037
REMARK UNBOUND:                 1.037
REMARK SMILES CC1=CCCC(C)=CCC(C)(C)C=CC1
REMARK SMILES IDX 2 1 3 2 1 3 4 4 5 5 6 6 7 7 8 8 15 10 14 11 13 12 10 13
REMARK SMILES IDX 11 14 12 15 9 16
REMARK H PARENT
REMARK Flexibility Score: 60.00
ROOT
ATOM      1  C   UNL     1      31.503  23.120  11.574  1.00  0.00    -0.074 C 
ATOM      2  C   UNL     1      30.676  22.727  12.578  1.00  0.00    -0.027 C 
ATOM      3  C   UNL     1      31.944  22.103  10.552  1.00  0.00     0.039 C 
ENDROOT
BRANCH   2   4
ATOM      4  C   UNL     1      30.077  23.633  13.630  1.00  0.00     0.032 C 
BRANCH   4   5
ATOM      5  C   UNL     1      28.539  23.614  13.648  1.00  0.00     0.034 C 
BRANCH   5   6
ATOM      6  C   UNL     1      27.984  24.368  12.452  1.00  0.00    -0.077 C 
ATOM      7  C   UNL     1      26.855  23.728  11.682  1.00  0.00     0.039 C 
ATOM      8  C   UNL     1      28.478  25.542  11.984  1.00  0.00    -0.027 CG0
ATOM      9  G   UNL     1      29.583  26.375  12.604  1.00  0.00     0.000 G0
ENDBRANCH   5   6
ENDBRANCH   4   5
ENDBRANCH   2   4
BRANCH   1  10
ATOM     10  C   UNL     1      32.123  24.505  11.487  1.00  0.00     0.057 C 
BRANCH  10  11
ATOM     11  C   UNL     1      31.614  25.281  10.303  1.00  0.00    -0.026 C 
ATOM     12  C   UNL     1      30.861  26.402  10.332  1.00  0.00    -0.024 C 
BRANCH  12  13
ATOM     13  C   UNL     1      30.406  27.222  11.548  1.00  0.00    -0.014 C 
ATOM     14  C   UNL     1      31.621  27.880  12.239  1.00  0.00     0.016 C 
ATOM     15  C   UNL     1      29.508  28.373  11.026  1.00  0.00     0.016 C 
BRANCH  13  16
ATOM     16  C   UNL     1      29.592  26.391  12.589  1.00  0.00     0.038 CG0
ATOM     17  G   UNL     1      28.494  25.541  11.980  1.00  0.00     0.000 G0
ENDBRANCH  13  16
ENDBRANCH  12  13
ENDBRANCH  10  11
ENDBRANCH   1  10
TORSDOF 0
ENDMDL
MODEL 2
REMARK VINA RESULT:    -3.442      1.500      3.806
REMARK INTER + INTRA:          -3.814
REMARK INTER:                  -4.804
REMARK INTRA:                   0.990
REMARK UNBOUND:                 1.037
REMARK SMILES CC1=CCCC(C)=CCC(C)(C)C=CC1
REMARK SMILES IDX 2 1 3 2 1 3 4 4 5 5 6 6 7 7 8 8 15 10 14 11 13 12 10 13
REMARK SMILES IDX 11 14 12 15 9 16
REMARK H PARENT
REMARK Flexibility Score: 60.00
ROOT
ATOM      1  C   UNL     1      31.105  22.052  13.955  1.00  0.00    -0.074 C 
ATOM      2  C   UNL     1      32.099  22.960  14.135  1.00  0.00    -0.027 C 
ATOM      3  C   UNL     1      31.316  20.635  14.428  1.00  0.00     0.039 C 
ENDROOT
BRANCH   2   4
ATOM      4  C   UNL     1      32.018  24.432  13.796  1.00  0.00     0.032 C 
BRANCH   4   5
ATOM      5  C   UNL     1      32.122  24.718  12.289  1.00  0.00     0.034 C 
BRANCH   5   6
ATOM      6  C   UNL     1      31.307  25.947  11.925  1.00  0.00    -0.077 C 
ATOM      7  C   UNL     1      31.966  27.296  12.081  1.00  0.00     0.039 C 
ATOM      8  C   UNL     1      30.007  25.923  11.536  1.00  0.00    -0.027 CG0
ATOM      9  G   UNL     1      29.155  24.693  11.288  1.00  0.00     0.000 G0
ENDBRANCH   5   6
ENDBRANCH   4   5
ENDBRANCH   2   4
BRANCH   1  10
ATOM     10  C   UNL     1      29.828  22.342  13.184  1.00  0.00     0.057 C 
BRANCH  10  11
ATOM     11  C   UNL     1      28.840  23.130  13.999  1.00  0.00    -0.026 C 
ATOM     12  C   UNL     1      28.027  24.114  13.557  1.00  0.00    -0.024 C 
BRANCH  12  13
ATOM     13  C   UNL     1      27.829  24.625  12.122  1.00  0.00    -0.014 C 
ATOM     14  C   UNL     1      26.780  23.762  11.384  1.00  0.00     0.016 C 
ATOM     15  C   UNL     1      27.247  26.058  12.212  1.00  0.00     0.016 C 
BRANCH  13  16
ATOM     16  C   UNL     1      29.150  24.676  11.292  1.00  0.00     0.038 CG0
ATOM     17  G   UNL     1      29.984  25.920  11.533  1.00  0.00     0.000 G0
ENDBRANCH  13  16
ENDBRANCH  12  13
ENDBRANCH  10  11
ENDBRANCH   1  10
TORSDOF 0
ENDMDL
MODEL 3
REMARK VINA RESULT:    -3.411      1.348      2.217
REMARK INTER + INTRA:          -3.771
REMARK INTER:                  -5.011
REMARK INTRA:                   1.240
REMARK UNBOUND:                 1.037
REMARK SMILES CC1=CCCC(C)=CCC(C)(C)C=CC1
REMARK SMILES IDX 2 1 3 2 1 3 4 4 5 5 6 6 7 7 8 8 15 10 14 11 13 12 10 13
REMARK SMILES IDX 11 14 12 15 9 16
REMARK H PARENT
REMARK Flexibility Score: 60.00
ROOT
ATOM      1  C   UNL     1      31.654  24.306  12.890  1.00  0.00    -0.074 C 
ATOM      2  C   UNL     1      30.787  23.458  12.277  1.00  0.00    -0.027 C 
ATOM      3  C   UNL     1      32.088  24.007  14.303  1.00  0.00     0.039 C 
ENDROOT
BRANCH   2   4
ATOM      4  C   UNL     1      30.318  23.565  10.843  1.00  0.00     0.032 C 
BRANCH   4   5
ATOM      5  C   UNL     1      28.854  24.018  10.711  1.00  0.00     0.034 C 
BRANCH   5   6
ATOM      6  C   UNL     1      28.479  24.944  11.855  1.00  0.00    -0.077 C 
ATOM      7  C   UNL     1      27.664  24.368  12.985  1.00  0.00     0.039 C 
ATOM      8  C   UNL     1      28.765  26.270  11.897  1.00  0.00    -0.027 CG0
ATOM      9  G   UNL     1      29.588  27.056  10.895  1.00  0.00     0.000 G0
ENDBRANCH   5   6
ENDBRANCH   4   5
ENDBRANCH   2   4
BRANCH   1  10
ATOM     10  C   UNL     1      32.119  25.619  12.284  1.00  0.00     0.057 C 
BRANCH  10  11
ATOM     11  C   UNL     1      31.782  26.797  13.157  1.00  0.00    -0.026 C 
ATOM     12  C   UNL     1      31.101  27.906  12.793  1.00  0.00    -0.024 C 
BRANCH  12  13
ATOM     13  C   UNL     1      30.425  28.222  11.451  1.00  0.00    -0.014 C 
ATOM     14  C   UNL     1      29.526  29.472  11.583  1.00  0.00     0.016 C 
ATOM     15  C   UNL     1      31.541  28.577  10.437  1.00  0.00     0.016 C 
BRANCH  13  16
ATOM     16  C   UNL     1      29.594  27.031  10.879  1.00  0.00     0.038 CG0
ATOM     17  G   UNL     1      28.776  26.290  11.919  1.00  0.00     0.000 G0
ENDBRANCH  13  16
ENDBRANCH  12  13
ENDBRANCH  10  11
ENDBRANCH   1  10
TORSDOF 0
ENDMDL
MODEL 4
REMARK VINA RESULT:    -3.396      1.450      4.343
REMARK INTER + INTRA:          -3.749
REMARK INTER:                  -5.258
REMARK INTRA:                   1.508
REMARK UNBOUND:                 1.037
REMARK SMILES CC1=CCCC(C)=CCC(C)(C)C=CC1
REMARK SMILES IDX 2 1 3 2 1 3 4 4 5 5 6 6 7 7 8 8 15 10 14 11 13 12 10 13
REMARK SMILES IDX 11 14 12 15 9 16
REMARK H PARENT
REMARK Flexibility Score: 60.00
ROOT
ATOM      1  C   UNL     1      30.536  27.889  11.249  1.00  0.00    -0.074 C 
ATOM      2  C   UNL     1      31.648  27.405  11.861  1.00  0.00    -0.027 C 
ATOM      3  C   UNL     1      30.344  29.383  11.161  1.00  0.00     0.039 C 
ENDROOT
BRANCH   2   4
ATOM      4  C   UNL     1      32.033  25.945  11.960  1.00  0.00     0.032 C 
BRANCH   4   5
ATOM      5  C   UNL     1      31.725  25.324  13.332  1.00  0.00     0.034 C 
BRANCH   5   6
ATOM      6  C   UNL     1      31.331  23.865  13.179  1.00  0.00    -0.077 C 
ATOM      7  C   UNL     1      32.118  22.841  13.959  1.00  0.00     0.039 C 
ATOM      8  C   UNL     1      30.369  23.412  12.337  1.00  0.00    -0.027 CG0
ATOM      9  G   UNL     1      29.440  24.251  11.480  1.00  0.00     0.000 G0
ENDBRANCH   5   6
ENDBRANCH   4   5
ENDBRANCH   2   4
BRANCH   1  10
ATOM     10  C   UNL     1      29.397  27.013  10.755  1.00  0.00     0.057 C 
BRANCH  10  11
ATOM     11  C   UNL     1      28.229  27.012  11.703  1.00  0.00    -0.026 C 
ATOM     12  C   UNL     1      27.627  25.932  12.245  1.00  0.00    -0.024 C 
BRANCH  12  13
ATOM     13  C   UNL     1      28.013  24.451  12.117  1.00  0.00    -0.014 C 
ATOM     14  C   UNL     1      27.939  23.754  13.494  1.00  0.00     0.016 C 
ATOM     15  C   UNL     1      26.957  23.769  11.211  1.00  0.00     0.016 C 
BRANCH  13  16
ATOM     16  C   UNL     1      29.424  24.229  11.488  1.00  0.00     0.038 CG0
ATOM     17  G   UNL     1      30.364  23.407  12.349  1.00  0.00     0.000 G0
ENDBRANCH  13  16
ENDBRANCH  12  13
ENDBRANCH  10  11
ENDBRANCH   1  10
TORSDOF 0
ENDMDL
MODEL 5
REMARK VINA RESULT:    -3.280      1.289      3.371
REMARK INTER + INTRA:          -3.586
REMARK INTER:                  -5.124
REMARK INTRA:                   1.538
REMARK UNBOUND:                 1.037
REMARK SMILES CC1=CCCC(C)=CCC(C)(C)C=CC1
REMARK SMILES IDX 2 1 3 2 1 3 4 4 5 5 6 6 7 7 8 8 15 10 14 11 13 12 10 13
REMARK SMILES IDX 11 14 12 15 9 16
REMARK H PARENT
REMARK Flexibility Score: 60.00
ROOT
ATOM      1  C   UNL     1      28.070  23.954  12.649  1.00  0.00    -0.074 C 
ATOM      2  C   UNL     1      28.741  23.289  13.626  1.00  0.00    -0.027 C 
ATOM      3  C   UNL     1      26.594  23.698  12.476  1.00  0.00     0.039 C 
ENDROOT
BRANCH   2   4
ATOM      4  C   UNL     1      30.196  23.490  13.987  1.00  0.00     0.032 C 
BRANCH   4   5
ATOM      5  C   UNL     1      31.132  22.448  13.351  1.00  0.00     0.034 C 
BRANCH   5   6
ATOM      6  C   UNL     1      31.740  22.993  12.070  1.00  0.00    -0.077 C 
ATOM      7  C   UNL     1      32.090  22.005  10.985  1.00  0.00     0.039 C 
ATOM      8  C   UNL     1      32.056  24.296  11.861  1.00  0.00    -0.027 CG0
ATOM      9  G   UNL     1      31.777  25.461  12.791  1.00  0.00     0.000 G0
ENDBRANCH   5   6
ENDBRANCH   4   5
ENDBRANCH   2   4
BRANCH   1  10
ATOM     10  C   UNL     1      28.744  24.851  11.626  1.00  0.00     0.057 C 
BRANCH  10  11
ATOM     11  C   UNL     1      28.737  26.296  12.046  1.00  0.00    -0.026 C 
ATOM     12  C   UNL     1      29.814  27.085  12.252  1.00  0.00    -0.024 C 
BRANCH  12  13
ATOM     13  C   UNL     1      31.299  26.760  12.033  1.00  0.00    -0.014 C 
ATOM     14  C   UNL     1      31.605  26.631  10.523  1.00  0.00     0.016 C 
ATOM     15  C   UNL     1      32.123  27.963  12.557  1.00  0.00     0.016 C 
BRANCH  13  16
ATOM     16  C   UNL     1      31.770  25.473  12.779  1.00  0.00     0.038 CG0
ATOM     17  G   UNL     1      32.056  24.297  11.866  1.00  0.00     0.000 G0
ENDBRANCH  13  16
ENDBRANCH  12  13
ENDBRANCH  10  11
ENDBRANCH   1  10
TORSDOF 0
ENDMDL
MODEL 6
REMARK VINA RESULT:    -3.241      1.358      3.958
REMARK INTER + INTRA:          -3.530
REMARK INTER:                  -4.548
REMARK INTRA:                   1.017
REMARK UNBOUND:                 1.037
REMARK SMILES CC1=CCCC(C)=CCC(C)(C)C=CC1
REMARK SMILES IDX 2 1 3 2 1 3 4 4 5 5 6 6 7 7 8 8 15 10 14 11 13 12 10 13
REMARK SMILES IDX 11 14 12 15 9 16
REMARK H PARENT
REMARK Flexibility Score: 60.00
ROOT
ATOM      1  C   UNL     1      31.135  27.237  11.899  1.00  0.00    -0.074 C 
ATOM      2  C   UNL     1      30.142  27.156  10.975  1.00  0.00    -0.027 C 
ATOM      3  C   UNL     1      31.948  28.504  11.985  1.00  0.00     0.039 C 
ENDROOT
BRANCH   2   4
ATOM      4  C   UNL     1      29.183  25.997  10.813  1.00  0.00     0.032 C 
BRANCH   4   5
ATOM      5  C   UNL     1      28.249  25.804  12.020  1.00  0.00     0.034 C 
BRANCH   5   6
ATOM      6  C   UNL     1      27.919  24.333  12.206  1.00  0.00    -0.077 C 
ATOM      7  C   UNL     1      26.694  23.796  11.508  1.00  0.00     0.039 C 
ATOM      8  C   UNL     1      28.606  23.485  13.013  1.00  0.00    -0.027 CG0
ATOM      9  G   UNL     1      29.873  23.793  13.787  1.00  0.00     0.000 G0
ENDBRANCH   5   6
ENDBRANCH   4   5
ENDBRANCH   2   4
BRANCH   1  10
ATOM     10  C   UNL     1      31.567  26.073  12.775  1.00  0.00     0.057 C 
BRANCH  10  11
ATOM     11  C   UNL     1      32.094  24.920  11.965  1.00  0.00    -0.026 C 
ATOM     12  C   UNL     1      31.938  23.605  12.232  1.00  0.00    -0.024 C 
BRANCH  12  13
ATOM     13  C   UNL     1      31.127  22.942  13.355  1.00  0.00    -0.014 C 
ATOM     14  C   UNL     1      30.681  21.524  12.931  1.00  0.00     0.016 C 
ATOM     15  C   UNL     1      32.067  22.771  14.574  1.00  0.00     0.016 C 
BRANCH  13  16
ATOM     16  C   UNL     1      29.884  23.775  13.799  1.00  0.00     0.038 CG0
ATOM     17  G   UNL     1      28.625  23.481  13.007  1.00  0.00     0.000 G0
ENDBRANCH  13  16
ENDBRANCH  12  13
ENDBRANCH  10  11
ENDBRANCH   1  10
TORSDOF 0
ENDMDL
MODEL 7
REMARK VINA RESULT:    -2.680      1.216      3.760
REMARK INTER + INTRA:          -2.740
REMARK INTER:                  -4.325
REMARK INTRA:                   1.585
REMARK UNBOUND:                 1.037
REMARK SMILES CC1=CCCC(C)=CCC(C)(C)C=CC1
REMARK SMILES IDX 2 1 3 2 1 3 4 4 5 5 6 6 7 7 8 8 15 10 14 11 13 12 10 13
REMARK SMILES IDX 11 14 12 15 9 16
REMARK H PARENT
REMARK Flexibility Score: 60.00
ROOT
ATOM      1  C   UNL     1      31.828  25.067  13.140  1.00  0.00    -0.074 C 
ATOM      2  C   UNL     1      32.122  26.344  13.498  1.00  0.00    -0.027 C 
ATOM      3  C   UNL     1      31.803  23.998  14.204  1.00  0.00     0.039 C 
ENDROOT
BRANCH   2   4
ATOM      4  C   UNL     1      32.107  27.542  12.575  1.00  0.00     0.032 C 
BRANCH   4   5
ATOM      5  C   UNL     1      31.101  27.410  11.420  1.00  0.00     0.034 C 
BRANCH   5   6
ATOM      6  C   UNL     1      29.686  27.646  11.918  1.00  0.00    -0.077 C 
ATOM      7  C   UNL     1      29.415  28.919  12.682  1.00  0.00     0.039 C 
ATOM      8  C   UNL     1      28.665  26.761  11.788  1.00  0.00    -0.027 CG0
ATOM      9  G   UNL     1      28.697  25.440  11.044  1.00  0.00     0.000 G0
ENDBRANCH   5   6
ENDBRANCH   4   5
ENDBRANCH   2   4
BRANCH   1  10
ATOM     10  C   UNL     1      31.647  24.616  11.700  1.00  0.00     0.057 C 
BRANCH  10  11
ATOM     11  C   UNL     1      30.913  23.306  11.604  1.00  0.00    -0.026 C 
ATOM     12  C   UNL     1      29.580  23.115  11.711  1.00  0.00    -0.024 C 
BRANCH  12  13
ATOM     13  C   UNL     1      28.468  24.162  11.866  1.00  0.00    -0.014 C 
ATOM     14  C   UNL     1      27.095  23.545  11.516  1.00  0.00     0.016 C 
ATOM     15  C   UNL     1      28.411  24.566  13.361  1.00  0.00     0.016 C 
BRANCH  13  16
ATOM     16  C   UNL     1      28.702  25.448  11.013  1.00  0.00     0.038 CG0
ATOM     17  G   UNL     1      28.653  26.737  11.810  1.00  0.00     0.000 G0
ENDBRANCH  13  16
ENDBRANCH  12  13
ENDBRANCH  10  11
ENDBRANCH   1  10
TORSDOF 0
ENDMDL
MODEL 8
REMARK VINA RESULT:    -2.650      1.412      4.428
REMARK INTER + INTRA:          -2.698
REMARK INTER:                  -4.548
REMARK INTRA:                   1.850
REMARK UNBOUND:                 1.037
REMARK SMILES CC1=CCCC(C)=CCC(C)(C)C=CC1
REMARK SMILES IDX 2 1 3 2 1 3 4 4 5 5 6 6 7 7 8 8 15 10 14 11 13 12 10 13
REMARK SMILES IDX 11 14 12 15 9 16
REMARK H PARENT
REMARK Flexibility Score: 60.00
ROOT
ATOM      1  C   UNL     1      28.132  25.174  12.252  1.00  0.00    -0.074 C 
ATOM      2  C   UNL     1      28.051  26.413  11.700  1.00  0.00    -0.027 C 
ATOM      3  C   UNL     1      27.132  24.124  11.836  1.00  0.00     0.039 C 
ENDROOT
BRANCH   2   4
ATOM      4  C   UNL     1      29.020  27.549  11.942  1.00  0.00     0.032 C 
BRANCH   4   5
ATOM      5  C   UNL     1      30.402  27.080  12.426  1.00  0.00     0.034 C 
BRANCH   5   6
ATOM      6  C   UNL     1      31.315  26.808  11.243  1.00  0.00    -0.077 C 
ATOM      7  C   UNL     1      31.447  27.887  10.197  1.00  0.00     0.039 C 
ATOM      8  C   UNL     1      31.965  25.637  11.025  1.00  0.00    -0.027 CG0
ATOM      9  G   UNL     1      32.000  24.431  11.944  1.00  0.00     0.000 G0
ENDBRANCH   5   6
ENDBRANCH   4   5
ENDBRANCH   2   4
BRANCH   1  10
ATOM     10  C   UNL     1      29.096  24.811  13.369  1.00  0.00     0.057 C 
BRANCH  10  11
ATOM     11  C   UNL     1      29.398  23.337  13.400  1.00  0.00    -0.026 C 
ATOM     12  C   UNL     1      30.235  22.665  12.581  1.00  0.00    -0.024 C 
BRANCH  12  13
ATOM     13  C   UNL     1      31.151  23.217  11.479  1.00  0.00    -0.014 C 
ATOM     14  C   UNL     1      32.049  22.094  10.913  1.00  0.00     0.016 C 
ATOM     15  C   UNL     1      30.247  23.698  10.316  1.00  0.00     0.016 C 
BRANCH  13  16
ATOM     16  C   UNL     1      32.036  24.414  11.949  1.00  0.00     0.038 CG0
ATOM     17  G   UNL     1      31.962  25.630  11.045  1.00  0.00     0.000 G0
ENDBRANCH  13  16
ENDBRANCH  12  13
ENDBRANCH  10  11
ENDBRANCH   1  10
TORSDOF 0
ENDMDL
MODEL 9
REMARK VINA RESULT:    -2.486      1.399      3.935
REMARK INTER + INTRA:          -2.466
REMARK INTER:                  -3.758
REMARK INTRA:                   1.291
REMARK UNBOUND:                 1.037
REMARK SMILES CC1=CCCC(C)=CCC(C)(C)C=CC1
REMARK SMILES IDX 2 1 3 2 1 3 4 4 5 5 6 6 7 7 8 8 15 10 14 11 13 12 10 13
REMARK SMILES IDX 11 14 12 15 9 16
REMARK H PARENT
REMARK Flexibility Score: 60.00
ROOT
ATOM      1  C   UNL     1      29.828  28.318  11.312  1.00  0.00    -0.074 C 
ATOM      2  C   UNL     1      28.527  28.231  11.696  1.00  0.00    -0.027 C 
ATOM      3  C   UNL     1      30.558  29.624  11.502  1.00  0.00     0.039 C 
ENDROOT
BRANCH   2   4
ATOM      4  C   UNL     1      27.679  26.979  11.654  1.00  0.00     0.032 C 
BRANCH   4   5
ATOM      5  C   UNL     1      28.159  25.884  12.621  1.00  0.00     0.034 C 
BRANCH   5   6
ATOM      6  C   UNL     1      27.860  24.507  12.054  1.00  0.00    -0.077 C 
ATOM      7  C   UNL     1      26.692  23.749  12.635  1.00  0.00     0.039 C 
ATOM      8  C   UNL     1      28.611  23.881  11.114  1.00  0.00    -0.027 CG0
ATOM      9  G   UNL     1      29.807  24.453  10.376  1.00  0.00     0.000 G0
ENDBRANCH   5   6
ENDBRANCH   4   5
ENDBRANCH   2   4
BRANCH   1  10
ATOM     10  C   UNL     1      30.565  27.212  10.578  1.00  0.00     0.057 C 
BRANCH  10  11
ATOM     11  C   UNL     1      31.667  26.614  11.411  1.00  0.00    -0.026 C 
ATOM     12  C   UNL     1      31.904  25.301  11.618  1.00  0.00    -0.024 C 
BRANCH  12  13
ATOM     13  C   UNL     1      31.191  24.087  11.005  1.00  0.00    -0.014 C 
ATOM     14  C   UNL     1      32.093  23.409   9.949  1.00  0.00     0.016 C 
ATOM     15  C   UNL     1      30.970  23.053  12.137  1.00  0.00     0.016 C 
BRANCH  13  16
ATOM     16  C   UNL     1      29.807  24.434  10.372  1.00  0.00     0.038 CG0
ATOM     17  G   UNL     1      28.620  23.874  11.133  1.00  0.00     0.000 G0
ENDBRANCH  13  16
ENDBRANCH  12  13
ENDBRANCH  10  11
ENDBRANCH   1  10
TORSDOF 0
ENDMDL
