MODEL 1
REMARK VINA RESULT:    -6.779      0.000      0.000
REMARK INTER + INTRA:          -8.651
REMARK INTER:                  -8.364
REMARK INTRA:                  -0.287
REMARK UNBOUND:                -0.287
REMARK SMILES O=c1c(O)c(-c2cc(O)c(O)c(O)c2)oc2cc(O)cc(O)c12
REMARK SMILES IDX 5 1 3 2 2 3 1 4 23 5 21 6 20 7 18 8 17 9 16 10 15 11 6 12
REMARK SMILES IDX 7 13 8 14 14 15 10 16 12 17 9 18 11 20 13 22 4 24 22 26
REMARK SMILES IDX 19 28
REMARK H PARENT 9 19 11 21 13 23 4 25 22 27 19 29
REMARK Flexibility Score: inf
ROOT
ATOM      1  C   UNL     1      -4.014   5.648 -39.642  1.00  0.00     0.180 A 
ATOM      2  C   UNL     1      -2.906   5.531 -40.498  1.00  0.00     0.208 A 
ATOM      3  C   UNL     1      -1.706   5.007 -39.990  1.00  0.00     0.238 A 
ATOM      4  O   UNL     1      -0.733   4.854 -40.774  1.00  0.00    -0.285 OA
ATOM      5  C   UNL     1      -1.624   4.622 -38.631  1.00  0.00     0.111 A 
ATOM      6  C   UNL     1      -0.448   4.117 -38.000  1.00  0.00     0.134 A 
ATOM      7  C   UNL     1      -0.517   3.645 -36.683  1.00  0.00     0.093 A 
ATOM      8  C   UNL     1      -1.706   3.722 -35.953  1.00  0.00     0.123 A 
ATOM      9  C   UNL     1      -2.845   4.268 -36.541  1.00  0.00     0.094 A 
ATOM     10  C   UNL     1      -2.815   4.714 -37.864  1.00  0.00     0.146 A 
ATOM     11  O   UNL     1      -3.926   5.217 -38.388  1.00  0.00    -0.452 OA
ENDROOT
BRANCH   1  12
ATOM     12  C   UNL     1      -5.305   6.213 -40.097  1.00  0.00     0.029 A 
ATOM     13  C   UNL     1      -6.158   5.434 -40.893  1.00  0.00     0.062 A 
ATOM     14  C   UNL     1      -7.394   5.940 -41.318  1.00  0.00     0.162 A 
ATOM     15  C   UNL     1      -5.722   7.496 -39.700  1.00  0.00     0.062 A 
ATOM     16  C   UNL     1      -7.794   7.227 -40.938  1.00  0.00     0.200 A 
ATOM     17  C   UNL     1      -6.957   8.006 -40.122  1.00  0.00     0.162 A 
BRANCH  14  18
ATOM     18  O   UNL     1      -8.231   5.166 -42.122  1.00  0.00    -0.504 OA
ATOM     19  H   UNL     1      -7.863   4.573 -42.856  1.00  0.00     0.293 HD
ENDBRANCH  14  18
BRANCH  16  20
ATOM     20  O   UNL     1      -9.027   7.714 -41.374  1.00  0.00    -0.502 OA
ATOM     21  H   UNL     1      -9.190   8.701 -41.534  1.00  0.00     0.293 HD
ENDBRANCH  16  20
BRANCH  17  22
ATOM     22  O   UNL     1      -7.358   9.282 -39.729  1.00  0.00    -0.504 OA
ATOM     23  H   UNL     1      -8.222   9.434 -39.222  1.00  0.00     0.293 HD
ENDBRANCH  17  22
ENDBRANCH   1  12
BRANCH   2  24
ATOM     24  O   UNL     1      -3.014   5.896 -41.843  1.00  0.00    -0.502 OA
ATOM     25  H   UNL     1      -3.891   5.853 -42.349  1.00  0.00     0.293 HD
ENDBRANCH   2  24
BRANCH   6  26
ATOM     26  O   UNL     1       0.811   4.083 -38.609  1.00  0.00    -0.507 OA
ATOM     27  H   UNL     1       1.685   3.975 -38.115  1.00  0.00     0.293 HD
ENDBRANCH   6  26
BRANCH   8  28
ATOM     28  O   UNL     1      -1.763   3.265 -34.638  1.00  0.00    -0.508 OA
ATOM     29  H   UNL     1      -1.357   2.376 -34.368  1.00  0.00     0.293 HD
ENDBRANCH   8  28
TORSDOF 7
ENDMDL
MODEL 2
REMARK VINA RESULT:    -6.755      0.108      1.752
REMARK INTER + INTRA:          -8.622
REMARK INTER:                  -8.313
REMARK INTRA:                  -0.309
REMARK UNBOUND:                -0.287
REMARK SMILES O=c1c(O)c(-c2cc(O)c(O)c(O)c2)oc2cc(O)cc(O)c12
REMARK SMILES IDX 5 1 3 2 2 3 1 4 23 5 21 6 20 7 18 8 17 9 16 10 15 11 6 12
REMARK SMILES IDX 7 13 8 14 14 15 10 16 12 17 9 18 11 20 13 22 4 24 22 26
REMARK SMILES IDX 19 28
REMARK H PARENT 9 19 11 21 13 23 4 25 22 27 19 29
REMARK Flexibility Score: inf
ROOT
ATOM      1  C   UNL     1      -4.054   5.570 -39.622  1.00  0.00     0.180 A 
ATOM      2  C   UNL     1      -2.941   5.483 -40.474  1.00  0.00     0.208 A 
ATOM      3  C   UNL     1      -1.739   4.955 -39.973  1.00  0.00     0.238 A 
ATOM      4  O   UNL     1      -0.762   4.829 -40.756  1.00  0.00    -0.285 OA
ATOM      5  C   UNL     1      -1.663   4.536 -38.624  1.00  0.00     0.111 A 
ATOM      6  C   UNL     1      -0.486   4.023 -38.000  1.00  0.00     0.134 A 
ATOM      7  C   UNL     1      -0.559   3.517 -36.696  1.00  0.00     0.093 A 
ATOM      8  C   UNL     1      -1.752   3.567 -35.971  1.00  0.00     0.123 A 
ATOM      9  C   UNL     1      -2.892   4.120 -36.551  1.00  0.00     0.094 A 
ATOM     10  C   UNL     1      -2.859   4.599 -37.862  1.00  0.00     0.146 A 
ATOM     11  O   UNL     1      -3.970   5.108 -38.379  1.00  0.00    -0.452 OA
ENDROOT
BRANCH   1  12
ATOM     12  C   UNL     1      -5.347   6.139 -40.069  1.00  0.00     0.029 A 
ATOM     13  C   UNL     1      -5.680   7.456 -39.719  1.00  0.00     0.062 A 
ATOM     14  C   UNL     1      -6.888   8.023 -40.149  1.00  0.00     0.162 A 
ATOM     15  C   UNL     1      -6.224   5.405 -40.887  1.00  0.00     0.062 A 
ATOM     16  C   UNL     1      -7.767   7.279 -40.945  1.00  0.00     0.200 A 
ATOM     17  C   UNL     1      -7.432   5.967 -41.320  1.00  0.00     0.162 A 
BRANCH  14  18
ATOM     18  O   UNL     1      -7.221   9.327 -39.786  1.00  0.00    -0.504 OA
ATOM     19  H   UNL     1      -7.758   9.929 -40.400  1.00  0.00     0.293 HD
ENDBRANCH  14  18
BRANCH  16  20
ATOM     20  O   UNL     1      -8.967   7.860 -41.361  1.00  0.00    -0.502 OA
ATOM     21  H   UNL     1      -9.075   8.863 -41.456  1.00  0.00     0.293 HD
ENDBRANCH  16  20
BRANCH  17  22
ATOM     22  O   UNL     1      -8.299   5.229 -42.125  1.00  0.00    -0.504 OA
ATOM     23  H   UNL     1      -8.692   5.616 -42.975  1.00  0.00     0.293 HD
ENDBRANCH  17  22
ENDBRANCH   1  12
BRANCH   2  24
ATOM     24  O   UNL     1      -3.044   5.882 -41.810  1.00  0.00    -0.502 OA
ATOM     25  H   UNL     1      -3.666   5.427 -42.467  1.00  0.00     0.293 HD
ENDBRANCH   2  24
BRANCH   6  26
ATOM     26  O   UNL     1       0.776   4.013 -38.602  1.00  0.00    -0.507 OA
ATOM     27  H   UNL     1       1.555   3.451 -38.293  1.00  0.00     0.293 HD
ENDBRANCH   6  26
BRANCH   8  28
ATOM     28  O   UNL     1      -1.814   3.076 -34.668  1.00  0.00    -0.508 OA
ATOM     29  H   UNL     1      -2.606   3.268 -34.066  1.00  0.00     0.293 HD
ENDBRANCH   8  28
TORSDOF 7
ENDMDL
MODEL 3
REMARK VINA RESULT:    -6.451      1.473      7.215
REMARK INTER + INTRA:          -8.247
REMARK INTER:                  -8.082
REMARK INTRA:                  -0.165
REMARK UNBOUND:                -0.287
REMARK SMILES O=c1c(O)c(-c2cc(O)c(O)c(O)c2)oc2cc(O)cc(O)c12
REMARK SMILES IDX 5 1 3 2 2 3 1 4 23 5 21 6 20 7 18 8 17 9 16 10 15 11 6 12
REMARK SMILES IDX 7 13 8 14 14 15 10 16 12 17 9 18 11 20 13 22 4 24 22 26
REMARK SMILES IDX 19 28
REMARK H PARENT 9 19 11 21 13 23 4 25 22 27 19 29
REMARK Flexibility Score: inf
ROOT
ATOM      1  C   UNL     1      -4.212   6.681 -39.254  1.00  0.00     0.180 A 
ATOM      2  C   UNL     1      -4.515   7.874 -38.576  1.00  0.00     0.208 A 
ATOM      3  C   UNL     1      -5.770   8.472 -38.779  1.00  0.00     0.238 A 
ATOM      4  O   UNL     1      -6.056   9.511 -38.128  1.00  0.00    -0.285 OA
ATOM      5  C   UNL     1      -6.697   7.880 -39.668  1.00  0.00     0.111 A 
ATOM      6  C   UNL     1      -7.980   8.421 -39.980  1.00  0.00     0.134 A 
ATOM      7  C   UNL     1      -8.868   7.683 -40.773  1.00  0.00     0.093 A 
ATOM      8  C   UNL     1      -8.492   6.453 -41.319  1.00  0.00     0.123 A 
ATOM      9  C   UNL     1      -7.220   5.945 -41.069  1.00  0.00     0.094 A 
ATOM     10  C   UNL     1      -6.326   6.641 -40.253  1.00  0.00     0.146 A 
ATOM     11  O   UNL     1      -5.128   6.115 -40.031  1.00  0.00    -0.452 OA
ENDROOT
BRANCH   1  12
ATOM     12  C   UNL     1      -2.902   6.005 -39.111  1.00  0.00     0.029 A 
ATOM     13  C   UNL     1      -2.050   5.908 -40.222  1.00  0.00     0.062 A 
ATOM     14  C   UNL     1      -0.797   5.291 -40.106  1.00  0.00     0.162 A 
ATOM     15  C   UNL     1      -2.468   5.506 -37.870  1.00  0.00     0.062 A 
ATOM     16  C   UNL     1      -0.379   4.778 -38.872  1.00  0.00     0.200 A 
ATOM     17  C   UNL     1      -1.215   4.890 -37.749  1.00  0.00     0.162 A 
BRANCH  14  18
ATOM     18  O   UNL     1       0.040   5.185 -41.217  1.00  0.00    -0.504 OA
ATOM     19  H   UNL     1       0.122   5.935 -41.893  1.00  0.00     0.293 HD
ENDBRANCH  14  18
BRANCH  16  20
ATOM     20  O   UNL     1       0.871   4.164 -38.778  1.00  0.00    -0.502 OA
ATOM     21  H   UNL     1       1.423   4.195 -37.929  1.00  0.00     0.293 HD
ENDBRANCH  16  20
BRANCH  17  22
ATOM     22  O   UNL     1      -0.797   4.392 -36.516  1.00  0.00    -0.504 OA
ATOM     23  H   UNL     1       0.180   4.205 -36.323  1.00  0.00     0.293 HD
ENDBRANCH  17  22
ENDBRANCH   1  12
BRANCH   2  24
ATOM     24  O   UNL     1      -3.593   8.431 -37.685  1.00  0.00    -0.502 OA
ATOM     25  H   UNL     1      -3.764   8.486 -36.688  1.00  0.00     0.293 HD
ENDBRANCH   2  24
BRANCH   6  26
ATOM     26  O   UNL     1      -8.419   9.682 -39.562  1.00  0.00    -0.507 OA
ATOM     27  H   UNL     1      -8.200  10.099 -38.670  1.00  0.00     0.293 HD
ENDBRANCH   6  26
BRANCH   8  28
ATOM     28  O   UNL     1      -9.375   5.732 -42.120  1.00  0.00    -0.508 OA
ATOM     29  H   UNL     1      -9.058   5.238 -42.947  1.00  0.00     0.293 HD
ENDBRANCH   8  28
TORSDOF 7
ENDMDL
MODEL 4
REMARK VINA RESULT:    -6.430     17.119     20.152
REMARK INTER + INTRA:          -8.220
REMARK INTER:                  -7.863
REMARK INTRA:                  -0.357
REMARK UNBOUND:                -0.287
REMARK SMILES O=c1c(O)c(-c2cc(O)c(O)c(O)c2)oc2cc(O)cc(O)c12
REMARK SMILES IDX 5 1 3 2 2 3 1 4 23 5 21 6 20 7 18 8 17 9 16 10 15 11 6 12
REMARK SMILES IDX 7 13 8 14 14 15 10 16 12 17 9 18 11 20 13 22 4 24 22 26
REMARK SMILES IDX 19 28
REMARK H PARENT 9 19 11 21 13 23 4 25 22 27 19 29
REMARK Flexibility Score: inf
ROOT
ATOM      1  C   UNL     1     -14.776  14.800 -26.512  1.00  0.00     0.180 A 
ATOM      2  C   UNL     1     -15.344  15.054 -25.252  1.00  0.00     0.208 A 
ATOM      3  C   UNL     1     -15.567  16.385 -24.862  1.00  0.00     0.238 A 
ATOM      4  O   UNL     1     -16.125  16.604 -23.755  1.00  0.00    -0.285 OA
ATOM      5  C   UNL     1     -15.205  17.443 -25.728  1.00  0.00     0.111 A 
ATOM      6  C   UNL     1     -15.348  18.829 -25.418  1.00  0.00     0.134 A 
ATOM      7  C   UNL     1     -15.078  19.789 -26.402  1.00  0.00     0.093 A 
ATOM      8  C   UNL     1     -14.607  19.414 -27.663  1.00  0.00     0.123 A 
ATOM      9  C   UNL     1     -14.408  18.066 -27.955  1.00  0.00     0.094 A 
ATOM     10  C   UNL     1     -14.702  17.085 -27.006  1.00  0.00     0.146 A 
ATOM     11  O   UNL     1     -14.508  15.812 -27.329  1.00  0.00    -0.452 OA
ENDROOT
BRANCH   1  12
ATOM     12  C   UNL     1     -14.488  13.426 -26.984  1.00  0.00     0.029 A 
ATOM     13  C   UNL     1     -15.379  12.798 -27.868  1.00  0.00     0.062 A 
ATOM     14  C   UNL     1     -15.117  11.507 -28.345  1.00  0.00     0.162 A 
ATOM     15  C   UNL     1     -13.310  12.756 -26.610  1.00  0.00     0.062 A 
ATOM     16  C   UNL     1     -13.952  10.836 -27.951  1.00  0.00     0.200 A 
ATOM     17  C   UNL     1     -13.043  11.465 -27.084  1.00  0.00     0.162 A 
BRANCH  14  18
ATOM     18  O   UNL     1     -16.013  10.883 -29.212  1.00  0.00    -0.504 OA
ATOM     19  H   UNL     1     -16.566  10.085 -28.921  1.00  0.00     0.293 HD
ENDBRANCH  14  18
BRANCH  16  20
ATOM     20  O   UNL     1     -13.711   9.549 -28.435  1.00  0.00    -0.502 OA
ATOM     21  H   UNL     1     -12.941   9.345 -29.061  1.00  0.00     0.293 HD
ENDBRANCH  16  20
BRANCH  17  22
ATOM     22  O   UNL     1     -11.876  10.806 -26.702  1.00  0.00    -0.504 OA
ATOM     23  H   UNL     1     -11.872  10.128 -25.948  1.00  0.00     0.293 HD
ENDBRANCH  17  22
ENDBRANCH   1  12
BRANCH   2  24
ATOM     24  O   UNL     1     -15.714  13.993 -24.420  1.00  0.00    -0.502 OA
ATOM     25  H   UNL     1     -16.508  13.397 -24.620  1.00  0.00     0.293 HD
ENDBRANCH   2  24
BRANCH   6  26
ATOM     26  O   UNL     1     -15.722  19.314 -24.161  1.00  0.00    -0.507 OA
ATOM     27  H   UNL     1     -16.640  19.664 -23.931  1.00  0.00     0.293 HD
ENDBRANCH   6  26
BRANCH   8  28
ATOM     28  O   UNL     1     -14.327  20.375 -28.632  1.00  0.00    -0.508 OA
ATOM     29  H   UNL     1     -15.028  21.041 -28.936  1.00  0.00     0.293 HD
ENDBRANCH   8  28
TORSDOF 7
ENDMDL
MODEL 5
REMARK VINA RESULT:    -6.381      5.875      8.597
REMARK INTER + INTRA:          -8.160
REMARK INTER:                  -8.042
REMARK INTRA:                  -0.118
REMARK UNBOUND:                -0.287
REMARK SMILES O=c1c(O)c(-c2cc(O)c(O)c(O)c2)oc2cc(O)cc(O)c12
REMARK SMILES IDX 5 1 3 2 2 3 1 4 23 5 21 6 20 7 18 8 17 9 16 10 15 11 6 12
REMARK SMILES IDX 7 13 8 14 14 15 10 16 12 17 9 18 11 20 13 22 4 24 22 26
REMARK SMILES IDX 19 28
REMARK H PARENT 9 19 11 21 13 23 4 25 22 27 19 29
REMARK Flexibility Score: inf
ROOT
ATOM      1  C   UNL     1      -8.407   9.904 -38.530  1.00  0.00     0.180 A 
ATOM      2  C   UNL     1      -7.108  10.380 -38.282  1.00  0.00     0.208 A 
ATOM      3  C   UNL     1      -6.947  11.665 -37.737  1.00  0.00     0.238 A 
ATOM      4  O   UNL     1      -5.784  12.064 -37.467  1.00  0.00    -0.285 OA
ATOM      5  C   UNL     1      -8.083  12.462 -37.463  1.00  0.00     0.111 A 
ATOM      6  C   UNL     1      -8.034  13.792 -36.948  1.00  0.00     0.134 A 
ATOM      7  C   UNL     1      -9.224  14.439 -36.592  1.00  0.00     0.093 A 
ATOM      8  C   UNL     1     -10.464  13.827 -36.793  1.00  0.00     0.123 A 
ATOM      9  C   UNL     1     -10.524  12.552 -37.350  1.00  0.00     0.094 A 
ATOM     10  C   UNL     1      -9.353  11.868 -37.682  1.00  0.00     0.146 A 
ATOM     11  O   UNL     1      -9.456  10.650 -38.200  1.00  0.00    -0.452 OA
ENDROOT
BRANCH   1  12
ATOM     12  C   UNL     1      -8.658   8.571 -39.125  1.00  0.00     0.029 A 
ATOM     13  C   UNL     1      -9.536   7.683 -38.486  1.00  0.00     0.062 A 
ATOM     14  C   UNL     1      -9.805   6.425 -39.041  1.00  0.00     0.162 A 
ATOM     15  C   UNL     1      -8.078   8.197 -40.350  1.00  0.00     0.062 A 
ATOM     16  C   UNL     1      -9.208   6.050 -40.251  1.00  0.00     0.200 A 
ATOM     17  C   UNL     1      -8.345   6.941 -40.910  1.00  0.00     0.162 A 
BRANCH  14  18
ATOM     18  O   UNL     1     -10.667   5.541 -38.393  1.00  0.00    -0.504 OA
ATOM     19  H   UNL     1     -11.263   4.905 -38.911  1.00  0.00     0.293 HD
ENDBRANCH  14  18
BRANCH  16  20
ATOM     20  O   UNL     1      -9.486   4.791 -40.786  1.00  0.00    -0.502 OA
ATOM     21  H   UNL     1      -9.019   4.443 -41.615  1.00  0.00     0.293 HD
ENDBRANCH  16  20
BRANCH  17  22
ATOM     22  O   UNL     1      -7.760   6.576 -42.122  1.00  0.00    -0.504 OA
ATOM     23  H   UNL     1      -7.037   5.867 -42.169  1.00  0.00     0.293 HD
ENDBRANCH  17  22
ENDBRANCH   1  12
BRANCH   2  24
ATOM     24  O   UNL     1      -6.000   9.568 -38.540  1.00  0.00    -0.502 OA
ATOM     25  H   UNL     1      -5.156   9.921 -38.976  1.00  0.00     0.293 HD
ENDBRANCH   2  24
BRANCH   6  26
ATOM     26  O   UNL     1      -6.855  14.528 -36.795  1.00  0.00    -0.507 OA
ATOM     27  H   UNL     1      -6.342  14.616 -35.931  1.00  0.00     0.293 HD
ENDBRANCH   6  26
BRANCH   8  28
ATOM     28  O   UNL     1     -11.644  14.484 -36.450  1.00  0.00    -0.508 OA
ATOM     29  H   UNL     1     -11.798  14.844 -35.515  1.00  0.00     0.293 HD
ENDBRANCH   8  28
TORSDOF 7
ENDMDL
MODEL 6
REMARK VINA RESULT:    -6.325     17.157     20.226
REMARK INTER + INTRA:          -8.091
REMARK INTER:                  -7.760
REMARK INTRA:                  -0.331
REMARK UNBOUND:                -0.287
REMARK SMILES O=c1c(O)c(-c2cc(O)c(O)c(O)c2)oc2cc(O)cc(O)c12
REMARK SMILES IDX 5 1 3 2 2 3 1 4 23 5 21 6 20 7 18 8 17 9 16 10 15 11 6 12
REMARK SMILES IDX 7 13 8 14 14 15 10 16 12 17 9 18 11 20 13 22 4 24 22 26
REMARK SMILES IDX 19 28
REMARK H PARENT 9 19 11 21 13 23 4 25 22 27 19 29
REMARK Flexibility Score: inf
ROOT
ATOM      1  C   UNL     1     -14.783  14.854 -26.537  1.00  0.00     0.180 A 
ATOM      2  C   UNL     1     -15.342  15.084 -25.268  1.00  0.00     0.208 A 
ATOM      3  C   UNL     1     -15.574  16.407 -24.857  1.00  0.00     0.238 A 
ATOM      4  O   UNL     1     -16.125  16.604 -23.742  1.00  0.00    -0.285 OA
ATOM      5  C   UNL     1     -15.231  17.481 -25.711  1.00  0.00     0.111 A 
ATOM      6  C   UNL     1     -15.386  18.861 -25.380  1.00  0.00     0.134 A 
ATOM      7  C   UNL     1     -15.135  19.837 -26.352  1.00  0.00     0.093 A 
ATOM      8  C   UNL     1     -14.672  19.486 -27.623  1.00  0.00     0.123 A 
ATOM      9  C   UNL     1     -14.461  18.144 -27.935  1.00  0.00     0.094 A 
ATOM     10  C   UNL     1     -14.737  17.146 -26.999  1.00  0.00     0.146 A 
ATOM     11  O   UNL     1     -14.532  15.881 -27.342  1.00  0.00    -0.452 OA
ENDROOT
BRANCH   1  12
ATOM     12  C   UNL     1     -14.485  13.490 -27.032  1.00  0.00     0.029 A 
ATOM     13  C   UNL     1     -13.322  12.837 -26.597  1.00  0.00     0.062 A 
ATOM     14  C   UNL     1     -13.029  11.538 -27.034  1.00  0.00     0.162 A 
ATOM     15  C   UNL     1     -15.373  12.811 -27.884  1.00  0.00     0.062 A 
ATOM     16  C   UNL     1     -13.907  10.875 -27.901  1.00  0.00     0.200 A 
ATOM     17  C   UNL     1     -15.086  11.512 -28.324  1.00  0.00     0.162 A 
BRANCH  14  18
ATOM     18  O   UNL     1     -11.865  10.899 -26.610  1.00  0.00    -0.504 OA
ATOM     19  H   UNL     1     -11.263  11.305 -25.903  1.00  0.00     0.293 HD
ENDBRANCH  14  18
BRANCH  16  20
ATOM     20  O   UNL     1     -13.597   9.583 -28.328  1.00  0.00    -0.502 OA
ATOM     21  H   UNL     1     -14.121   9.116 -29.058  1.00  0.00     0.293 HD
ENDBRANCH  16  20
BRANCH  17  22
ATOM     22  O   UNL     1     -15.969  10.850 -29.175  1.00  0.00    -0.504 OA
ATOM     23  H   UNL     1     -16.772  10.346 -28.819  1.00  0.00     0.293 HD
ENDBRANCH  17  22
ENDBRANCH   1  12
BRANCH   2  24
ATOM     24  O   UNL     1     -15.693  14.007 -24.449  1.00  0.00    -0.502 OA
ATOM     25  H   UNL     1     -16.632  13.881 -24.091  1.00  0.00     0.293 HD
ENDBRANCH   2  24
BRANCH   6  26
ATOM     26  O   UNL     1     -15.754  19.324 -24.113  1.00  0.00    -0.507 OA
ATOM     27  H   UNL     1     -16.659  19.181 -23.690  1.00  0.00     0.293 HD
ENDBRANCH   6  26
BRANCH   8  28
ATOM     28  O   UNL     1     -14.409  20.464 -28.580  1.00  0.00    -0.508 OA
ATOM     29  H   UNL     1     -14.491  21.451 -28.364  1.00  0.00     0.293 HD
ENDBRANCH   8  28
TORSDOF 7
ENDMDL
MODEL 7
REMARK VINA RESULT:    -6.181      5.694      8.533
REMARK INTER + INTRA:          -7.913
REMARK INTER:                  -7.591
REMARK INTRA:                  -0.322
REMARK UNBOUND:                -0.287
REMARK SMILES O=c1c(O)c(-c2cc(O)c(O)c(O)c2)oc2cc(O)cc(O)c12
REMARK SMILES IDX 5 1 3 2 2 3 1 4 23 5 21 6 20 7 18 8 17 9 16 10 15 11 6 12
REMARK SMILES IDX 7 13 8 14 14 15 10 16 12 17 9 18 11 20 13 22 4 24 22 26
REMARK SMILES IDX 19 28
REMARK H PARENT 9 19 11 21 13 23 4 25 22 27 19 29
REMARK Flexibility Score: inf
ROOT
ATOM      1  C   UNL     1      -8.581   9.493 -37.974  1.00  0.00     0.180 A 
ATOM      2  C   UNL     1      -7.475   9.591 -37.113  1.00  0.00     0.208 A 
ATOM      3  C   UNL     1      -7.346  10.727 -36.297  1.00  0.00     0.238 A 
ATOM      4  O   UNL     1      -6.382  10.784 -35.489  1.00  0.00    -0.285 OA
ATOM      5  C   UNL     1      -8.314  11.756 -36.365  1.00  0.00     0.111 A 
ATOM      6  C   UNL     1      -8.261  12.969 -35.614  1.00  0.00     0.134 A 
ATOM      7  C   UNL     1      -9.341  13.860 -35.662  1.00  0.00     0.093 A 
ATOM      8  C   UNL     1     -10.442  13.612 -36.486  1.00  0.00     0.123 A 
ATOM      9  C   UNL     1     -10.475  12.459 -37.268  1.00  0.00     0.094 A 
ATOM     10  C   UNL     1      -9.430  11.535 -37.214  1.00  0.00     0.146 A 
ATOM     11  O   UNL     1      -9.507  10.445 -37.967  1.00  0.00    -0.452 OA
ENDROOT
BRANCH   1  12
ATOM     12  C   UNL     1      -8.773   8.339 -38.882  1.00  0.00     0.029 A 
ATOM     13  C   UNL     1      -8.032   8.265 -40.072  1.00  0.00     0.062 A 
ATOM     14  C   UNL     1      -8.181   7.172 -40.937  1.00  0.00     0.162 A 
ATOM     15  C   UNL     1      -9.642   7.284 -38.550  1.00  0.00     0.062 A 
ATOM     16  C   UNL     1      -9.064   6.135 -40.611  1.00  0.00     0.200 A 
ATOM     17  C   UNL     1      -9.794   6.189 -39.411  1.00  0.00     0.162 A 
BRANCH  14  18
ATOM     18  O   UNL     1      -7.454   7.111 -42.124  1.00  0.00    -0.504 OA
ATOM     19  H   UNL     1      -7.836   6.685 -42.961  1.00  0.00     0.293 HD
ENDBRANCH  14  18
BRANCH  16  20
ATOM     20  O   UNL     1      -9.201   5.057 -41.487  1.00  0.00    -0.502 OA
ATOM     21  H   UNL     1      -9.444   4.128 -41.163  1.00  0.00     0.293 HD
ENDBRANCH  16  20
BRANCH  17  22
ATOM     22  O   UNL     1     -10.663   5.151 -39.077  1.00  0.00    -0.504 OA
ATOM     23  H   UNL     1     -10.437   4.484 -38.348  1.00  0.00     0.293 HD
ENDBRANCH  17  22
ENDBRANCH   1  12
BRANCH   2  24
ATOM     24  O   UNL     1      -6.542   8.552 -37.046  1.00  0.00    -0.502 OA
ATOM     25  H   UNL     1      -5.651   8.589 -37.527  1.00  0.00     0.293 HD
ENDBRANCH   2  24
BRANCH   6  26
ATOM     26  O   UNL     1      -7.169  13.357 -34.832  1.00  0.00    -0.507 OA
ATOM     27  H   UNL     1      -7.220  13.600 -33.854  1.00  0.00     0.293 HD
ENDBRANCH   6  26
BRANCH   8  28
ATOM     28  O   UNL     1     -11.505  14.510 -36.541  1.00  0.00    -0.508 OA
ATOM     29  H   UNL     1     -12.456  14.197 -36.701  1.00  0.00     0.293 HD
ENDBRANCH   8  28
TORSDOF 7
ENDMDL
MODEL 8
REMARK VINA RESULT:    -6.145      5.286      8.760
REMARK INTER + INTRA:          -7.869
REMARK INTER:                  -7.545
REMARK INTRA:                  -0.324
REMARK UNBOUND:                -0.287
REMARK SMILES O=c1c(O)c(-c2cc(O)c(O)c(O)c2)oc2cc(O)cc(O)c12
REMARK SMILES IDX 5 1 3 2 2 3 1 4 23 5 21 6 20 7 18 8 17 9 16 10 15 11 6 12
REMARK SMILES IDX 7 13 8 14 14 15 10 16 12 17 9 18 11 20 13 22 4 24 22 26
REMARK SMILES IDX 19 28
REMARK H PARENT 9 19 11 21 13 23 4 25 22 27 19 29
REMARK Flexibility Score: inf
ROOT
ATOM      1  C   UNL     1      -8.960  11.868 -38.844  1.00  0.00     0.180 A 
ATOM      2  C   UNL     1      -9.322  11.691 -40.190  1.00  0.00     0.208 A 
ATOM      3  C   UNL     1      -8.968  10.496 -40.839  1.00  0.00     0.238 A 
ATOM      4  O   UNL     1      -9.342  10.321 -42.028  1.00  0.00    -0.285 OA
ATOM      5  C   UNL     1      -8.243   9.503 -40.139  1.00  0.00     0.111 A 
ATOM      6  C   UNL     1      -7.797   8.273 -40.708  1.00  0.00     0.134 A 
ATOM      7  C   UNL     1      -7.201   7.307 -39.888  1.00  0.00     0.093 A 
ATOM      8  C   UNL     1      -6.977   7.554 -38.531  1.00  0.00     0.123 A 
ATOM      9  C   UNL     1      -7.355   8.776 -37.979  1.00  0.00     0.094 A 
ATOM     10  C   UNL     1      -7.983   9.745 -38.764  1.00  0.00     0.146 A 
ATOM     11  O   UNL     1      -8.337  10.890 -38.196  1.00  0.00    -0.452 OA
ENDROOT
BRANCH   1  12
ATOM     12  C   UNL     1      -9.275  13.110 -38.100  1.00  0.00     0.029 A 
ATOM     13  C   UNL     1     -10.300  13.098 -37.142  1.00  0.00     0.062 A 
ATOM     14  C   UNL     1     -10.604  14.255 -36.410  1.00  0.00     0.162 A 
ATOM     15  C   UNL     1      -8.531  14.287 -38.292  1.00  0.00     0.062 A 
ATOM     16  C   UNL     1      -9.872  15.430 -36.622  1.00  0.00     0.200 A 
ATOM     17  C   UNL     1      -8.829  15.445 -37.563  1.00  0.00     0.162 A 
BRANCH  14  18
ATOM     18  O   UNL     1     -11.633  14.242 -35.470  1.00  0.00    -0.504 OA
ATOM     19  H   UNL     1     -12.553  14.608 -35.685  1.00  0.00     0.293 HD
ENDBRANCH  14  18
BRANCH  16  20
ATOM     20  O   UNL     1     -10.191  16.573 -35.886  1.00  0.00    -0.502 OA
ATOM     21  H   UNL     1     -11.149  16.870 -35.740  1.00  0.00     0.293 HD
ENDBRANCH  16  20
BRANCH  17  22
ATOM     22  O   UNL     1      -8.090  16.610 -37.766  1.00  0.00    -0.504 OA
ATOM     23  H   UNL     1      -8.010  17.319 -37.046  1.00  0.00     0.293 HD
ENDBRANCH  17  22
ENDBRANCH   1  12
BRANCH   2  24
ATOM     24  O   UNL     1     -10.057  12.676 -40.857  1.00  0.00    -0.502 OA
ATOM     25  H   UNL     1     -11.032  12.859 -40.653  1.00  0.00     0.293 HD
ENDBRANCH   2  24
BRANCH   6  26
ATOM     26  O   UNL     1      -7.889   7.963 -42.069  1.00  0.00    -0.507 OA
ATOM     27  H   UNL     1      -7.872   8.643 -42.815  1.00  0.00     0.293 HD
ENDBRANCH   6  26
BRANCH   8  28
ATOM     28  O   UNL     1      -6.370   6.594 -37.724  1.00  0.00    -0.508 OA
ATOM     29  H   UNL     1      -6.516   5.603 -37.879  1.00  0.00     0.293 HD
ENDBRANCH   8  28
TORSDOF 7
ENDMDL
