MODEL 1
REMARK VINA RESULT:    -2.963      0.000      0.000
REMARK INTER + INTRA:          -5.723
REMARK INTER:                  -5.734
REMARK INTRA:                   0.011
REMARK UNBOUND:                 0.011
REMARK SMILES CCCCCCCCCCCCCCCCCC(=O)[O-]
REMARK SMILES IDX 10 1 11 2 12 3 13 4 14 5 15 6 16 7 17 8 18 9 19 10 20 11
REMARK SMILES IDX 9 12 8 13 7 14 6 15 5 16 4 17 3 18 2 19 1 20
REMARK H PARENT
REMARK Flexibility Score: inf
ROOT
ATOM      1  C   UNL     1      26.028  19.225  25.211  1.00  0.00     0.000 C 
ENDROOT
BRANCH   1   2
ATOM      2  C   UNL     1      25.349  19.495  23.853  1.00  0.00     0.000 C 
BRANCH   2   3
ATOM      3  C   UNL     1      26.053  18.875  22.632  1.00  0.00     0.000 C 
BRANCH   3   4
ATOM      4  C   UNL     1      27.586  18.920  22.740  1.00  0.00     0.000 C 
BRANCH   4   5
ATOM      5  C   UNL     1      28.113  20.290  23.204  1.00  0.00     0.000 C 
BRANCH   5   6
ATOM      6  C   UNL     1      28.914  20.277  24.521  1.00  0.00     0.000 C 
BRANCH   6   7
ATOM      7  C   UNL     1      30.443  20.208  24.357  1.00  0.00     0.006 C 
BRANCH   7   8
ATOM      8  C   UNL     1      30.915  18.889  23.731  1.00  0.00     0.053 C 
BRANCH   8   9
ATOM      9  C   UNL     1      31.398  19.118  22.334  1.00  0.00     0.041 C 
ATOM     10  O   UNL     1      30.594  19.484  21.438  1.00  0.00    -0.550 OA
ATOM     11  O   UNL     1      32.728  18.877  22.011  1.00  0.00    -0.550 OA
ENDBRANCH   8   9
ENDBRANCH   7   8
ENDBRANCH   6   7
ENDBRANCH   5   6
ENDBRANCH   4   5
ENDBRANCH   3   4
ENDBRANCH   2   3
ENDBRANCH   1   2
BRANCH   1  12
ATOM     12  C   UNL     1      25.275  19.775  26.439  1.00  0.00     0.000 C 
BRANCH  12  13
ATOM     13  C   UNL     1      23.887  19.148  26.680  1.00  0.00    -0.000 C 
BRANCH  13  14
ATOM     14  C   UNL     1      22.693  20.000  26.203  1.00  0.00    -0.000 C 
BRANCH  14  15
ATOM     15  C   UNL     1      21.867  20.658  27.324  1.00  0.00    -0.000 C 
BRANCH  15  16
ATOM     16  C   UNL     1      22.146  22.164  27.467  1.00  0.00    -0.000 C 
BRANCH  16  17
ATOM     17  C   UNL     1      23.360  22.629  26.641  1.00  0.00    -0.000 C 
BRANCH  17  18
ATOM     18  C   UNL     1      23.505  24.157  26.488  1.00  0.00    -0.000 C 
BRANCH  18  19
ATOM     19  C   UNL     1      24.590  24.799  27.371  1.00  0.00    -0.003 C 
ATOM     20  C   UNL     1      25.588  25.637  26.573  1.00  0.00     0.004 C 
ENDBRANCH  18  19
ENDBRANCH  17  18
ENDBRANCH  16  17
ENDBRANCH  15  16
ENDBRANCH  14  15
ENDBRANCH  13  14
ENDBRANCH  12  13
ENDBRANCH   1  12
TORSDOF 16
ENDMDL
MODEL 2
REMARK VINA RESULT:    -2.905      1.158      1.627
REMARK INTER + INTRA:          -5.612
REMARK INTER:                  -4.817
REMARK INTRA:                  -0.795
REMARK UNBOUND:                 0.011
REMARK SMILES CCCCCCCCCCCCCCCCCC(=O)[O-]
REMARK SMILES IDX 10 1 11 2 12 3 13 4 14 5 15 6 16 7 17 8 18 9 19 10 20 11
REMARK SMILES IDX 9 12 8 13 7 14 6 15 5 16 4 17 3 18 2 19 1 20
REMARK H PARENT
REMARK Flexibility Score: inf
ROOT
ATOM      1  C   UNL     1      24.618  18.875  24.831  1.00  0.00     0.000 C 
ENDROOT
BRANCH   1   2
ATOM      2  C   UNL     1      25.251  19.121  23.447  1.00  0.00     0.000 C 
BRANCH   2   3
ATOM      3  C   UNL     1      26.738  19.520  23.467  1.00  0.00     0.000 C 
BRANCH   3   4
ATOM      4  C   UNL     1      27.360  19.436  24.870  1.00  0.00     0.000 C 
BRANCH   4   5
ATOM      5  C   UNL     1      27.710  20.818  25.453  1.00  0.00     0.000 C 
BRANCH   5   6
ATOM      6  C   UNL     1      29.054  21.411  24.986  1.00  0.00     0.000 C 
BRANCH   6   7
ATOM      7  C   UNL     1      30.027  20.403  24.347  1.00  0.00     0.006 C 
BRANCH   7   8
ATOM      8  C   UNL     1      30.102  20.534  22.821  1.00  0.00     0.053 C 
BRANCH   8   9
ATOM      9  C   UNL     1      30.898  19.410  22.238  1.00  0.00     0.041 C 
ATOM     10  O   UNL     1      30.546  18.881  21.152  1.00  0.00    -0.550 OA
ATOM     11  O   UNL     1      32.001  18.912  22.922  1.00  0.00    -0.550 OA
ENDBRANCH   8   9
ENDBRANCH   7   8
ENDBRANCH   6   7
ENDBRANCH   5   6
ENDBRANCH   4   5
ENDBRANCH   3   4
ENDBRANCH   2   3
ENDBRANCH   1   2
BRANCH   1  12
ATOM     12  C   UNL     1      23.443  19.808  25.187  1.00  0.00     0.000 C 
BRANCH  12  13
ATOM     13  C   UNL     1      23.090  19.864  26.686  1.00  0.00    -0.000 C 
BRANCH  13  14
ATOM     14  C   UNL     1      22.004  20.891  27.065  1.00  0.00    -0.000 C 
BRANCH  14  15
ATOM     15  C   UNL     1      22.464  22.361  27.070  1.00  0.00    -0.000 C 
BRANCH  15  16
ATOM     16  C   UNL     1      23.992  22.510  26.986  1.00  0.00    -0.000 C 
BRANCH  16  17
ATOM     17  C   UNL     1      24.469  23.949  27.256  1.00  0.00    -0.000 C 
BRANCH  17  18
ATOM     18  C   UNL     1      24.120  24.976  26.158  1.00  0.00    -0.000 C 
BRANCH  18  19
ATOM     19  C   UNL     1      25.320  25.751  25.587  1.00  0.00    -0.003 C 
ATOM     20  C   UNL     1      24.932  26.699  24.453  1.00  0.00     0.004 C 
ENDBRANCH  18  19
ENDBRANCH  17  18
ENDBRANCH  16  17
ENDBRANCH  15  16
ENDBRANCH  14  15
ENDBRANCH  13  14
ENDBRANCH  12  13
ENDBRANCH   1  12
TORSDOF 16
ENDMDL
MODEL 3
REMARK VINA RESULT:    -2.895      3.376      7.608
REMARK INTER + INTRA:          -5.591
REMARK INTER:                  -4.685
REMARK INTRA:                  -0.906
REMARK UNBOUND:                 0.011
REMARK SMILES CCCCCCCCCCCCCCCCCC(=O)[O-]
REMARK SMILES IDX 10 1 11 2 12 3 13 4 14 5 15 6 16 7 17 8 18 9 19 10 20 11
REMARK SMILES IDX 9 12 8 13 7 14 6 15 5 16 4 17 3 18 2 19 1 20
REMARK H PARENT
REMARK Flexibility Score: inf
ROOT
ATOM      1  C   UNL     1      25.658  19.178  26.025  1.00  0.00     0.000 C 
ENDROOT
BRANCH   1   2
ATOM      2  C   UNL     1      24.773  19.244  24.763  1.00  0.00     0.000 C 
BRANCH   2   3
ATOM      3  C   UNL     1      23.273  19.475  25.024  1.00  0.00     0.000 C 
BRANCH   3   4
ATOM      4  C   UNL     1      22.906  19.385  26.515  1.00  0.00     0.000 C 
BRANCH   4   5
ATOM      5  C   UNL     1      22.668  20.765  27.156  1.00  0.00     0.000 C 
BRANCH   5   6
ATOM      6  C   UNL     1      23.419  21.938  26.494  1.00  0.00     0.000 C 
BRANCH   6   7
ATOM      7  C   UNL     1      23.014  23.337  26.990  1.00  0.00     0.006 C 
BRANCH   7   8
ATOM      8  C   UNL     1      24.204  24.148  27.520  1.00  0.00     0.053 C 
BRANCH   8   9
ATOM      9  C   UNL     1      24.781  24.999  26.434  1.00  0.00     0.041 C 
ATOM     10  O   UNL     1      25.691  25.828  26.695  1.00  0.00    -0.550 OA
ATOM     11  O   UNL     1      24.278  24.913  25.141  1.00  0.00    -0.550 OA
ENDBRANCH   8   9
ENDBRANCH   7   8
ENDBRANCH   6   7
ENDBRANCH   5   6
ENDBRANCH   4   5
ENDBRANCH   3   4
ENDBRANCH   2   3
ENDBRANCH   1   2
BRANCH   1  12
ATOM     12  C   UNL     1      26.347  20.503  26.409  1.00  0.00     0.000 C 
BRANCH  12  13
ATOM     13  C   UNL     1      27.135  21.177  25.269  1.00  0.00    -0.000 C 
BRANCH  13  14
ATOM     14  C   UNL     1      28.562  20.632  25.049  1.00  0.00    -0.000 C 
BRANCH  14  15
ATOM     15  C   UNL     1      28.643  19.284  24.309  1.00  0.00    -0.000 C 
BRANCH  15  16
ATOM     16  C   UNL     1      29.032  19.436  22.829  1.00  0.00    -0.000 C 
BRANCH  16  17
ATOM     17  C   UNL     1      30.088  20.533  22.597  1.00  0.00    -0.000 C 
BRANCH  17  18
ATOM     18  C   UNL     1      31.400  20.056  21.940  1.00  0.00    -0.000 C 
BRANCH  18  19
ATOM     19  C   UNL     1      32.090  18.876  22.647  1.00  0.00    -0.003 C 
ATOM     20  C   UNL     1      32.122  19.028  24.167  1.00  0.00     0.004 C 
ENDBRANCH  18  19
ENDBRANCH  17  18
ENDBRANCH  16  17
ENDBRANCH  15  16
ENDBRANCH  14  15
ENDBRANCH  13  14
ENDBRANCH  12  13
ENDBRANCH   1  12
TORSDOF 16
ENDMDL
MODEL 4
REMARK VINA RESULT:    -2.464      3.316      7.557
REMARK INTER + INTRA:          -4.758
REMARK INTER:                  -4.607
REMARK INTRA:                  -0.151
REMARK UNBOUND:                 0.011
REMARK SMILES CCCCCCCCCCCCCCCCCC(=O)[O-]
REMARK SMILES IDX 10 1 11 2 12 3 13 4 14 5 15 6 16 7 17 8 18 9 19 10 20 11
REMARK SMILES IDX 9 12 8 13 7 14 6 15 5 16 4 17 3 18 2 19 1 20
REMARK H PARENT
REMARK Flexibility Score: inf
ROOT
ATOM      1  C   UNL     1      24.710  18.875  24.403  1.00  0.00     0.000 C 
ENDROOT
BRANCH   1   2
ATOM      2  C   UNL     1      25.354  19.785  25.468  1.00  0.00     0.000 C 
BRANCH   2   3
ATOM      3  C   UNL     1      24.514  20.003  26.741  1.00  0.00     0.000 C 
BRANCH   3   4
ATOM      4  C   UNL     1      23.018  19.726  26.522  1.00  0.00     0.000 C 
BRANCH   4   5
ATOM      5  C   UNL     1      22.198  21.010  26.301  1.00  0.00     0.000 C 
BRANCH   5   6
ATOM      6  C   UNL     1      22.689  22.248  27.079  1.00  0.00     0.000 C 
BRANCH   6   7
ATOM      7  C   UNL     1      23.901  22.969  26.464  1.00  0.00     0.006 C 
BRANCH   7   8
ATOM      8  C   UNL     1      24.307  24.225  27.246  1.00  0.00     0.053 C 
BRANCH   8   9
ATOM      9  C   UNL     1      24.844  25.268  26.318  1.00  0.00     0.041 C 
ATOM     10  O   UNL     1      24.466  25.304  25.119  1.00  0.00    -0.550 OA
ATOM     11  O   UNL     1      25.802  26.169  26.766  1.00  0.00    -0.550 OA
ENDBRANCH   8   9
ENDBRANCH   7   8
ENDBRANCH   6   7
ENDBRANCH   5   6
ENDBRANCH   4   5
ENDBRANCH   3   4
ENDBRANCH   2   3
ENDBRANCH   1   2
BRANCH   1  12
ATOM     12  C   UNL     1      25.170  19.139  22.955  1.00  0.00     0.000 C 
BRANCH  12  13
ATOM     13  C   UNL     1      26.566  19.780  22.825  1.00  0.00    -0.000 C 
BRANCH  13  14
ATOM     14  C   UNL     1      27.727  18.939  23.394  1.00  0.00    -0.000 C 
BRANCH  14  15
ATOM     15  C   UNL     1      28.346  19.472  24.700  1.00  0.00    -0.000 C 
BRANCH  15  16
ATOM     16  C   UNL     1      29.087  20.806  24.510  1.00  0.00    -0.000 C 
BRANCH  16  17
ATOM     17  C   UNL     1      30.492  20.630  23.906  1.00  0.00    -0.000 C 
BRANCH  17  18
ATOM     18  C   UNL     1      30.526  20.322  22.395  1.00  0.00    -0.000 C 
BRANCH  18  19
ATOM     19  C   UNL     1      31.089  18.938  22.025  1.00  0.00    -0.003 C 
ATOM     20  C   UNL     1      32.614  18.877  22.098  1.00  0.00     0.004 C 
ENDBRANCH  18  19
ENDBRANCH  17  18
ENDBRANCH  16  17
ENDBRANCH  15  16
ENDBRANCH  14  15
ENDBRANCH  13  14
ENDBRANCH  12  13
ENDBRANCH   1  12
TORSDOF 16
ENDMDL
MODEL 5
REMARK VINA RESULT:    -2.061      3.323      7.324
REMARK INTER + INTRA:          -3.977
REMARK INTER:                  -3.358
REMARK INTRA:                  -0.619
REMARK UNBOUND:                 0.011
REMARK SMILES CCCCCCCCCCCCCCCCCC(=O)[O-]
REMARK SMILES IDX 10 1 11 2 12 3 13 4 14 5 15 6 16 7 17 8 18 9 19 10 20 11
REMARK SMILES IDX 9 12 8 13 7 14 6 15 5 16 4 17 3 18 2 19 1 20
REMARK H PARENT
REMARK Flexibility Score: inf
ROOT
ATOM      1  C   UNL     1      25.807  19.038  22.686  1.00  0.00     0.000 C 
ENDROOT
BRANCH   1   2
ATOM      2  C   UNL     1      25.083  19.051  24.048  1.00  0.00     0.000 C 
BRANCH   2   3
ATOM      3  C   UNL     1      23.547  18.965  23.977  1.00  0.00     0.000 C 
BRANCH   3   4
ATOM      4  C   UNL     1      22.887  18.929  25.365  1.00  0.00     0.000 C 
BRANCH   4   5
ATOM      5  C   UNL     1      23.504  19.942  26.347  1.00  0.00     0.000 C 
BRANCH   5   6
ATOM      6  C   UNL     1      22.495  20.695  27.238  1.00  0.00     0.000 C 
BRANCH   6   7
ATOM      7  C   UNL     1      22.524  22.228  27.109  1.00  0.00     0.006 C 
BRANCH   7   8
ATOM      8  C   UNL     1      23.707  22.733  26.273  1.00  0.00     0.053 C 
BRANCH   8   9
ATOM      9  C   UNL     1      24.176  24.060  26.779  1.00  0.00     0.041 C 
ATOM     10  O   UNL     1      24.961  24.760  26.089  1.00  0.00    -0.550 OA
ATOM     11  O   UNL     1      23.785  24.501  28.038  1.00  0.00    -0.550 OA
ENDBRANCH   8   9
ENDBRANCH   7   8
ENDBRANCH   6   7
ENDBRANCH   5   6
ENDBRANCH   4   5
ENDBRANCH   3   4
ENDBRANCH   2   3
ENDBRANCH   1   2
BRANCH   1  12
ATOM     12  C   UNL     1      27.206  19.685  22.684  1.00  0.00     0.000 C 
BRANCH  12  13
ATOM     13  C   UNL     1      28.292  18.875  21.948  1.00  0.00    -0.000 C 
BRANCH  13  14
ATOM     14  C   UNL     1      29.618  19.627  21.708  1.00  0.00    -0.000 C 
BRANCH  14  15
ATOM     15  C   UNL     1      30.809  19.146  22.558  1.00  0.00    -0.000 C 
BRANCH  15  16
ATOM     16  C   UNL     1      30.824  19.760  23.968  1.00  0.00    -0.000 C 
BRANCH  16  17
ATOM     17  C   UNL     1      29.793  20.891  24.140  1.00  0.00    -0.000 C 
BRANCH  17  18
ATOM     18  C   UNL     1      29.337  21.152  25.590  1.00  0.00    -0.000 C 
BRANCH  18  19
ATOM     19  C   UNL     1      27.846  21.499  25.751  1.00  0.00    -0.003 C 
ATOM     20  C   UNL     1      26.980  20.279  26.060  1.00  0.00     0.004 C 
ENDBRANCH  18  19
ENDBRANCH  17  18
ENDBRANCH  16  17
ENDBRANCH  15  16
ENDBRANCH  14  15
ENDBRANCH  13  14
ENDBRANCH  12  13
ENDBRANCH   1  12
TORSDOF 16
ENDMDL
MODEL 6
REMARK VINA RESULT:    -2.017      2.509      6.829
REMARK INTER + INTRA:          -3.893
REMARK INTER:                  -3.803
REMARK INTRA:                  -0.089
REMARK UNBOUND:                 0.011
REMARK SMILES CCCCCCCCCCCCCCCCCC(=O)[O-]
REMARK SMILES IDX 10 1 11 2 12 3 13 4 14 5 15 6 16 7 17 8 18 9 19 10 20 11
REMARK SMILES IDX 9 12 8 13 7 14 6 15 5 16 4 17 3 18 2 19 1 20
REMARK H PARENT
REMARK Flexibility Score: inf
ROOT
ATOM      1  C   UNL     1      23.783  23.844  27.226  1.00  0.00     0.000 C 
ENDROOT
BRANCH   1   2
ATOM      2  C   UNL     1      22.464  23.063  27.057  1.00  0.00     0.000 C 
BRANCH   2   3
ATOM      3  C   UNL     1      22.620  21.544  26.863  1.00  0.00     0.000 C 
BRANCH   3   4
ATOM      4  C   UNL     1      21.719  20.727  27.804  1.00  0.00     0.000 C 
BRANCH   4   5
ATOM      5  C   UNL     1      22.302  19.340  28.133  1.00  0.00     0.000 C 
BRANCH   5   6
ATOM      6  C   UNL     1      23.518  18.917  27.285  1.00  0.00     0.000 C 
BRANCH   6   7
ATOM      7  C   UNL     1      23.293  18.935  25.763  1.00  0.00     0.006 C 
BRANCH   7   8
ATOM      8  C   UNL     1      24.603  18.883  24.967  1.00  0.00     0.053 C 
BRANCH   8   9
ATOM      9  C   UNL     1      24.323  18.887  23.498  1.00  0.00     0.041 C 
ATOM     10  O   UNL     1      25.270  18.946  22.672  1.00  0.00    -0.550 OA
ATOM     11  O   UNL     1      23.010  18.875  23.042  1.00  0.00    -0.550 OA
ENDBRANCH   8   9
ENDBRANCH   7   8
ENDBRANCH   6   7
ENDBRANCH   5   6
ENDBRANCH   4   5
ENDBRANCH   3   4
ENDBRANCH   2   3
ENDBRANCH   1   2
BRANCH   1  12
ATOM     12  C   UNL     1      24.870  23.524  26.180  1.00  0.00     0.000 C 
BRANCH  12  13
ATOM     13  C   UNL     1      25.999  22.602  26.681  1.00  0.00    -0.000 C 
BRANCH  13  14
ATOM     14  C   UNL     1      26.128  21.260  25.930  1.00  0.00    -0.000 C 
BRANCH  14  15
ATOM     15  C   UNL     1      27.568  20.842  25.577  1.00  0.00    -0.000 C 
BRANCH  15  16
ATOM     16  C   UNL     1      27.689  19.348  25.234  1.00  0.00    -0.000 C 
BRANCH  16  17
ATOM     17  C   UNL     1      28.688  19.074  24.094  1.00  0.00    -0.000 C 
BRANCH  17  18
ATOM     18  C   UNL     1      29.882  20.048  24.016  1.00  0.00    -0.000 C 
BRANCH  18  19
ATOM     19  C   UNL     1      30.286  20.469  22.592  1.00  0.00    -0.003 C 
ATOM     20  C   UNL     1      31.209  19.459  21.913  1.00  0.00     0.004 C 
ENDBRANCH  18  19
ENDBRANCH  17  18
ENDBRANCH  16  17
ENDBRANCH  15  16
ENDBRANCH  14  15
ENDBRANCH  13  14
ENDBRANCH  12  13
ENDBRANCH   1  12
TORSDOF 16
ENDMDL
MODEL 7
REMARK VINA RESULT:    -1.885      1.191      2.362
REMARK INTER + INTRA:          -3.637
REMARK INTER:                  -4.379
REMARK INTRA:                   0.742
REMARK UNBOUND:                 0.011
REMARK SMILES CCCCCCCCCCCCCCCCCC(=O)[O-]
REMARK SMILES IDX 10 1 11 2 12 3 13 4 14 5 15 6 16 7 17 8 18 9 19 10 20 11
REMARK SMILES IDX 9 12 8 13 7 14 6 15 5 16 4 17 3 18 2 19 1 20
REMARK H PARENT
REMARK Flexibility Score: inf
ROOT
ATOM      1  C   UNL     1      23.499  19.480  26.554  1.00  0.00     0.000 C 
ENDROOT
BRANCH   1   2
ATOM      2  C   UNL     1      24.952  18.979  26.435  1.00  0.00     0.000 C 
BRANCH   2   3
ATOM      3  C   UNL     1      25.704  19.441  25.173  1.00  0.00     0.000 C 
BRANCH   3   4
ATOM      4  C   UNL     1      24.930  19.149  23.877  1.00  0.00     0.000 C 
BRANCH   4   5
ATOM      5  C   UNL     1      25.854  18.899  22.671  1.00  0.00     0.000 C 
BRANCH   5   6
ATOM      6  C   UNL     1      27.176  19.695  22.677  1.00  0.00     0.000 C 
BRANCH   6   7
ATOM      7  C   UNL     1      28.431  18.875  23.023  1.00  0.00     0.006 C 
BRANCH   7   8
ATOM      8  C   UNL     1      29.535  19.003  21.966  1.00  0.00     0.053 C 
BRANCH   8   9
ATOM      9  C   UNL     1      30.619  19.913  22.449  1.00  0.00     0.041 C 
ATOM     10  O   UNL     1      31.748  19.904  21.895  1.00  0.00    -0.550 OA
ATOM     11  O   UNL     1      30.396  20.739  23.545  1.00  0.00    -0.550 OA
ENDBRANCH   8   9
ENDBRANCH   7   8
ENDBRANCH   6   7
ENDBRANCH   5   6
ENDBRANCH   4   5
ENDBRANCH   3   4
ENDBRANCH   2   3
ENDBRANCH   1   2
BRANCH   1  12
ATOM     12  C   UNL     1      22.734  18.974  27.794  1.00  0.00     0.000 C 
BRANCH  12  13
ATOM     13  C   UNL     1      21.499  19.814  28.180  1.00  0.00    -0.000 C 
BRANCH  13  14
ATOM     14  C   UNL     1      21.478  21.246  27.608  1.00  0.00    -0.000 C 
BRANCH  14  15
ATOM     15  C   UNL     1      22.788  21.708  26.943  1.00  0.00    -0.000 C 
BRANCH  15  16
ATOM     16  C   UNL     1      22.973  23.234  26.983  1.00  0.00    -0.000 C 
BRANCH  16  17
ATOM     17  C   UNL     1      24.450  23.660  26.891  1.00  0.00    -0.000 C 
BRANCH  17  18
ATOM     18  C   UNL     1      24.705  25.178  26.998  1.00  0.00    -0.000 C 
BRANCH  18  19
ATOM     19  C   UNL     1      25.645  25.757  25.926  1.00  0.00    -0.003 C 
ATOM     20  C   UNL     1      24.895  26.412  24.768  1.00  0.00     0.004 C 
ENDBRANCH  18  19
ENDBRANCH  17  18
ENDBRANCH  16  17
ENDBRANCH  15  16
ENDBRANCH  14  15
ENDBRANCH  13  14
ENDBRANCH  12  13
ENDBRANCH   1  12
TORSDOF 16
ENDMDL
MODEL 8
REMARK VINA RESULT:    -1.547      1.711      2.307
REMARK INTER + INTRA:          -2.983
REMARK INTER:                  -2.140
REMARK INTRA:                  -0.844
REMARK UNBOUND:                 0.011
REMARK SMILES CCCCCCCCCCCCCCCCCC(=O)[O-]
REMARK SMILES IDX 10 1 11 2 12 3 13 4 14 5 15 6 16 7 17 8 18 9 19 10 20 11
REMARK SMILES IDX 9 12 8 13 7 14 6 15 5 16 4 17 3 18 2 19 1 20
REMARK H PARENT
REMARK Flexibility Score: inf
ROOT
ATOM      1  C   UNL     1      25.410  19.747  25.997  1.00  0.00     0.000 C 
ENDROOT
BRANCH   1   2
ATOM      2  C   UNL     1      26.078  19.064  24.788  1.00  0.00     0.000 C 
BRANCH   2   3
ATOM      3  C   UNL     1      25.600  19.555  23.409  1.00  0.00     0.000 C 
BRANCH   3   4
ATOM      4  C   UNL     1      26.646  19.340  22.303  1.00  0.00     0.000 C 
BRANCH   4   5
ATOM      5  C   UNL     1      28.008  18.875  22.850  1.00  0.00     0.000 C 
BRANCH   5   6
ATOM      6  C   UNL     1      29.240  19.556  22.219  1.00  0.00     0.000 C 
BRANCH   6   7
ATOM      7  C   UNL     1      30.548  19.412  23.017  1.00  0.00     0.006 C 
BRANCH   7   8
ATOM      8  C   UNL     1      30.329  19.466  24.534  1.00  0.00     0.053 C 
BRANCH   8   9
ATOM      9  C   UNL     1      29.684  20.758  24.924  1.00  0.00     0.041 C 
ATOM     10  O   UNL     1      30.060  21.837  24.398  1.00  0.00    -0.550 OA
ATOM     11  O   UNL     1      28.701  20.775  25.906  1.00  0.00    -0.550 OA
ENDBRANCH   8   9
ENDBRANCH   7   8
ENDBRANCH   6   7
ENDBRANCH   5   6
ENDBRANCH   4   5
ENDBRANCH   3   4
ENDBRANCH   2   3
ENDBRANCH   1   2
BRANCH   1  12
ATOM     12  C   UNL     1      24.345  18.898  26.721  1.00  0.00     0.000 C 
BRANCH  12  13
ATOM     13  C   UNL     1      23.173  19.701  27.319  1.00  0.00    -0.000 C 
BRANCH  13  14
ATOM     14  C   UNL     1      22.486  20.679  26.344  1.00  0.00    -0.000 C 
BRANCH  14  15
ATOM     15  C   UNL     1      22.516  22.159  26.769  1.00  0.00    -0.000 C 
BRANCH  15  16
ATOM     16  C   UNL     1      23.943  22.722  26.878  1.00  0.00    -0.000 C 
BRANCH  16  17
ATOM     17  C   UNL     1      23.972  24.208  27.279  1.00  0.00    -0.000 C 
BRANCH  17  18
ATOM     18  C   UNL     1      25.102  25.041  26.639  1.00  0.00    -0.000 C 
BRANCH  18  19
ATOM     19  C   UNL     1      24.944  25.303  25.131  1.00  0.00    -0.003 C 
ATOM     20  C   UNL     1      24.951  26.790  24.782  1.00  0.00     0.004 C 
ENDBRANCH  18  19
ENDBRANCH  17  18
ENDBRANCH  16  17
ENDBRANCH  15  16
ENDBRANCH  14  15
ENDBRANCH  13  14
ENDBRANCH  12  13
ENDBRANCH   1  12
TORSDOF 16
ENDMDL
