MODEL 1
REMARK VINA RESULT:    -4.353      0.000      0.000
REMARK INTER + INTRA:          -4.481
REMARK INTER:                  -4.481
REMARK INTRA:                   0.000
REMARK UNBOUND:                 0.000
REMARK SMILES Oc1ccc2[nH]ccc2c1
REMARK SMILES IDX 3 1 4 2 5 3 9 4 8 5 7 6 6 7 10 8 2 9 1 11
REMARK H PARENT 6 10 1 12
REMARK Flexibility Score: inf
ROOT
ATOM      1  C   UNL     1      41.864 -41.988  -6.298  1.00  0.00     0.048 A 
ATOM      2  C   UNL     1      40.927 -41.221  -5.580  1.00  0.00     0.030 A 
ATOM      3  C   UNL     1      41.381 -40.512  -4.470  1.00  0.00     0.046 A 
ATOM      4  C   UNL     1      42.692 -40.551  -4.077  1.00  0.00     0.003 A 
ATOM      5  C   UNL     1      42.811 -39.754  -2.959  1.00  0.00     0.028 A 
ATOM      6  C   UNL     1      41.532 -39.260  -2.727  1.00  0.00     0.083 A 
ATOM      7  N   UNL     1      40.661 -39.725  -3.652  1.00  0.00    -0.361 N 
ATOM      8  C   UNL     1      43.643 -41.301  -4.765  1.00  0.00     0.056 A 
ATOM      9  C   UNL     1      43.218 -42.031  -5.894  1.00  0.00     0.116 A 
ATOM     10  H   UNL     1      39.640 -39.515  -3.714  1.00  0.00     0.166 HD
ENDROOT
BRANCH   9  11
ATOM     11  O   UNL     1      44.125 -42.798  -6.622  1.00  0.00    -0.508 OA
ATOM     12  H   UNL     1      44.643 -43.554  -6.191  1.00  0.00     0.293 HD
ENDBRANCH   9  11
TORSDOF 1
ENDMDL
MODEL 2
REMARK VINA RESULT:    -4.344      2.579      3.952
REMARK INTER + INTRA:          -4.470
REMARK INTER:                  -4.470
REMARK INTRA:                   0.000
REMARK UNBOUND:                 0.000
REMARK SMILES Oc1ccc2[nH]ccc2c1
REMARK SMILES IDX 3 1 4 2 5 3 9 4 8 5 7 6 6 7 10 8 2 9 1 11
REMARK H PARENT 6 10 1 12
REMARK Flexibility Score: inf
ROOT
ATOM      1  C   UNL     1      41.338 -39.312  -4.063  1.00  0.00     0.048 A 
ATOM      2  C   UNL     1      42.675 -39.725  -4.212  1.00  0.00     0.030 A 
ATOM      3  C   UNL     1      42.932 -40.800  -5.060  1.00  0.00     0.046 A 
ATOM      4  C   UNL     1      41.929 -41.444  -5.733  1.00  0.00     0.003 A 
ATOM      5  C   UNL     1      42.508 -42.449  -6.476  1.00  0.00     0.028 A 
ATOM      6  C   UNL     1      43.870 -42.359  -6.208  1.00  0.00     0.083 A 
ATOM      7  N   UNL     1      44.125 -41.351  -5.343  1.00  0.00    -0.361 N 
ATOM      8  C   UNL     1      40.595 -41.060  -5.607  1.00  0.00     0.056 A 
ATOM      9  C   UNL     1      40.298 -39.975  -4.756  1.00  0.00     0.116 A 
ATOM     10  H   UNL     1      45.058 -41.063  -4.972  1.00  0.00     0.166 HD
ENDROOT
BRANCH   9  11
ATOM     11  O   UNL     1      38.984 -39.545  -4.591  1.00  0.00    -0.508 OA
ATOM     12  H   UNL     1      38.769 -38.591  -4.328  1.00  0.00     0.293 HD
ENDBRANCH   9  11
TORSDOF 1
ENDMDL
MODEL 3
REMARK VINA RESULT:    -4.298      1.028      2.259
REMARK INTER + INTRA:          -4.423
REMARK INTER:                  -4.423
REMARK INTRA:                   0.000
REMARK UNBOUND:                 0.000
REMARK SMILES Oc1ccc2[nH]ccc2c1
REMARK SMILES IDX 3 1 4 2 5 3 9 4 8 5 7 6 6 7 10 8 2 9 1 11
REMARK H PARENT 6 10 1 12
REMARK Flexibility Score: inf
ROOT
ATOM      1  C   UNL     1      43.428 -41.089  -4.510  1.00  0.00     0.048 A 
ATOM      2  C   UNL     1      42.588 -40.286  -3.717  1.00  0.00     0.030 A 
ATOM      3  C   UNL     1      41.251 -40.175  -4.091  1.00  0.00     0.046 A 
ATOM      4  C   UNL     1      40.755 -40.819  -5.192  1.00  0.00     0.003 A 
ATOM      5  C   UNL     1      39.416 -40.507  -5.285  1.00  0.00     0.028 A 
ATOM      6  C   UNL     1      39.164 -39.666  -4.206  1.00  0.00     0.083 A 
ATOM      7  N   UNL     1      40.287 -39.466  -3.479  1.00  0.00    -0.361 N 
ATOM      8  C   UNL     1      41.559 -41.621  -5.999  1.00  0.00     0.056 A 
ATOM      9  C   UNL     1      42.919 -41.756  -5.649  1.00  0.00     0.116 A 
ATOM     10  H   UNL     1      40.382 -38.880  -2.620  1.00  0.00     0.166 HD
ENDROOT
BRANCH   9  11
ATOM     11  O   UNL     1      43.771 -42.545  -6.418  1.00  0.00    -0.508 OA
ATOM     12  H   UNL     1      43.849 -42.417  -7.420  1.00  0.00     0.293 HD
ENDBRANCH   9  11
TORSDOF 1
ENDMDL
MODEL 4
REMARK VINA RESULT:    -4.220      1.182      1.399
REMARK INTER + INTRA:          -4.344
REMARK INTER:                  -4.344
REMARK INTRA:                   0.000
REMARK UNBOUND:                 0.000
REMARK SMILES Oc1ccc2[nH]ccc2c1
REMARK SMILES IDX 3 1 4 2 5 3 9 4 8 5 7 6 6 7 10 8 2 9 1 11
REMARK H PARENT 6 10 1 12
REMARK Flexibility Score: inf
ROOT
ATOM      1  C   UNL     1      41.668 -41.345  -5.781  1.00  0.00     0.048 A 
ATOM      2  C   UNL     1      40.451 -41.146  -5.103  1.00  0.00     0.030 A 
ATOM      3  C   UNL     1      40.502 -40.604  -3.820  1.00  0.00     0.046 A 
ATOM      4  C   UNL     1      41.689 -40.272  -3.225  1.00  0.00     0.003 A 
ATOM      5  C   UNL     1      41.398 -39.768  -1.976  1.00  0.00     0.028 A 
ATOM      6  C   UNL     1      40.011 -39.823  -1.877  1.00  0.00     0.083 A 
ATOM      7  N   UNL     1      39.468 -40.334  -3.006  1.00  0.00    -0.361 N 
ATOM      8  C   UNL     1      42.910 -40.456  -3.868  1.00  0.00     0.056 A 
ATOM      9  C   UNL     1      42.896 -41.003  -5.169  1.00  0.00     0.116 A 
ATOM     10  H   UNL     1      38.453 -40.487  -3.200  1.00  0.00     0.166 HD
ENDROOT
BRANCH   9  11
ATOM     11  O   UNL     1      44.087 -41.211  -5.861  1.00  0.00    -0.508 OA
ATOM     12  H   UNL     1      44.101 -41.685  -6.756  1.00  0.00     0.293 HD
ENDBRANCH   9  11
TORSDOF 1
ENDMDL
MODEL 5
REMARK VINA RESULT:    -4.009      2.685      3.977
REMARK INTER + INTRA:          -4.126
REMARK INTER:                  -4.126
REMARK INTRA:                   0.000
REMARK UNBOUND:                 0.000
REMARK SMILES Oc1ccc2[nH]ccc2c1
REMARK SMILES IDX 3 1 4 2 5 3 9 4 8 5 7 6 6 7 10 8 2 9 1 11
REMARK H PARENT 6 10 1 12
REMARK Flexibility Score: inf
ROOT
ATOM      1  C   UNL     1      40.157 -39.959  -2.762  1.00  0.00     0.048 A 
ATOM      2  C   UNL     1      41.554 -39.920  -2.927  1.00  0.00     0.030 A 
ATOM      3  C   UNL     1      42.092 -40.526  -4.060  1.00  0.00     0.046 A 
ATOM      4  C   UNL     1      41.301 -41.144  -4.991  1.00  0.00     0.003 A 
ATOM      5  C   UNL     1      42.130 -41.637  -5.975  1.00  0.00     0.028 A 
ATOM      6  C   UNL     1      43.415 -41.281  -5.579  1.00  0.00     0.083 A 
ATOM      7  N   UNL     1      43.387 -40.603  -4.409  1.00  0.00    -0.361 N 
ATOM      8  C   UNL     1      39.916 -41.201  -4.857  1.00  0.00     0.056 A 
ATOM      9  C   UNL     1      39.337 -40.597  -3.721  1.00  0.00     0.116 A 
ATOM     10  H   UNL     1      44.207 -40.221  -3.886  1.00  0.00     0.166 HD
ENDROOT
BRANCH   9  11
ATOM     11  O   UNL     1      37.957 -40.622  -3.534  1.00  0.00    -0.508 OA
ATOM     12  H   UNL     1      37.436 -41.490  -3.558  1.00  0.00     0.293 HD
ENDBRANCH   9  11
TORSDOF 1
ENDMDL
MODEL 6
REMARK VINA RESULT:    -3.967     22.304     23.382
REMARK INTER + INTRA:          -4.083
REMARK INTER:                  -4.083
REMARK INTRA:                   0.000
REMARK UNBOUND:                 0.000
REMARK SMILES Oc1ccc2[nH]ccc2c1
REMARK SMILES IDX 3 1 4 2 5 3 9 4 8 5 7 6 6 7 10 8 2 9 1 11
REMARK H PARENT 6 10 1 12
REMARK Flexibility Score: inf
ROOT
ATOM      1  C   UNL     1      28.079 -24.866  -7.704  1.00  0.00     0.048 A 
ATOM      2  C   UNL     1      26.748 -25.067  -8.115  1.00  0.00     0.030 A 
ATOM      3  C   UNL     1      25.752 -24.330  -7.477  1.00  0.00     0.046 A 
ATOM      4  C   UNL     1      26.042 -23.437  -6.481  1.00  0.00     0.003 A 
ATOM      5  C   UNL     1      24.852 -22.882  -6.064  1.00  0.00     0.028 A 
ATOM      6  C   UNL     1      23.876 -23.484  -6.852  1.00  0.00     0.083 A 
ATOM      7  N   UNL     1      24.430 -24.367  -7.713  1.00  0.00    -0.361 N 
ATOM      8  C   UNL     1      27.348 -23.215  -6.050  1.00  0.00     0.056 A 
ATOM      9  C   UNL     1      28.383 -23.945  -6.675  1.00  0.00     0.116 A 
ATOM     10  H   UNL     1      23.929 -24.957  -8.416  1.00  0.00     0.166 HD
ENDROOT
BRANCH   9  11
ATOM     11  O   UNL     1      29.708 -23.765  -6.286  1.00  0.00    -0.508 OA
ATOM     12  H   UNL     1      30.099 -24.263  -5.496  1.00  0.00     0.293 HD
ENDBRANCH   9  11
TORSDOF 1
ENDMDL
MODEL 7
REMARK VINA RESULT:    -3.678      2.733      3.413
REMARK INTER + INTRA:          -3.785
REMARK INTER:                  -3.785
REMARK INTRA:                   0.000
REMARK UNBOUND:                 0.000
REMARK SMILES Oc1ccc2[nH]ccc2c1
REMARK SMILES IDX 3 1 4 2 5 3 9 4 8 5 7 6 6 7 10 8 2 9 1 11
REMARK H PARENT 6 10 1 12
REMARK Flexibility Score: inf
ROOT
ATOM      1  C   UNL     1      39.827 -41.125  -5.230  1.00  0.00     0.048 A 
ATOM      2  C   UNL     1      41.190 -40.798  -5.095  1.00  0.00     0.030 A 
ATOM      3  C   UNL     1      41.656 -40.466  -3.825  1.00  0.00     0.046 A 
ATOM      4  C   UNL     1      40.830 -40.453  -2.734  1.00  0.00     0.003 A 
ATOM      5  C   UNL     1      41.589 -40.088  -1.645  1.00  0.00     0.028 A 
ATOM      6  C   UNL     1      42.873 -39.894  -2.146  1.00  0.00     0.083 A 
ATOM      7  N   UNL     1      42.909 -40.126  -3.478  1.00  0.00    -0.361 N 
ATOM      8  C   UNL     1      39.477 -40.771  -2.833  1.00  0.00     0.056 A 
ATOM      9  C   UNL     1      38.970 -41.112  -4.105  1.00  0.00     0.116 A 
ATOM     10  H   UNL     1      43.741 -40.053  -4.105  1.00  0.00     0.166 HD
ENDROOT
BRANCH   9  11
ATOM     11  O   UNL     1      37.626 -41.439  -4.265  1.00  0.00    -0.508 OA
ATOM     12  H   UNL     1      37.096 -41.877  -3.521  1.00  0.00     0.293 HD
ENDBRANCH   9  11
TORSDOF 1
ENDMDL
MODEL 8
REMARK VINA RESULT:    -3.646     18.891     20.076
REMARK INTER + INTRA:          -3.753
REMARK INTER:                  -3.753
REMARK INTRA:                   0.000
REMARK UNBOUND:                 0.000
REMARK SMILES Oc1ccc2[nH]ccc2c1
REMARK SMILES IDX 3 1 4 2 5 3 9 4 8 5 7 6 6 7 10 8 2 9 1 11
REMARK H PARENT 6 10 1 12
REMARK Flexibility Score: inf
ROOT
ATOM      1  C   UNL     1      28.436 -30.618   6.790  1.00  0.00     0.048 A 
ATOM      2  C   UNL     1      29.388 -30.008   5.952  1.00  0.00     0.030 A 
ATOM      3  C   UNL     1      29.210 -30.123   4.575  1.00  0.00     0.046 A 
ATOM      4  C   UNL     1      28.150 -30.803   4.039  1.00  0.00     0.003 A 
ATOM      5  C   UNL     1      28.264 -30.732   2.668  1.00  0.00     0.028 A 
ATOM      6  C   UNL     1      29.419 -29.990   2.438  1.00  0.00     0.083 A 
ATOM      7  N   UNL     1      29.993 -29.621   3.605  1.00  0.00    -0.361 N 
ATOM      8  C   UNL     1      27.191 -31.418   4.841  1.00  0.00     0.056 A 
ATOM      9  C   UNL     1      27.340 -31.322   6.241  1.00  0.00     0.116 A 
ATOM     10  H   UNL     1      30.867 -29.061   3.725  1.00  0.00     0.166 HD
ENDROOT
BRANCH   9  11
ATOM     11  O   UNL     1      26.412 -31.917   7.092  1.00  0.00    -0.508 OA
ATOM     12  H   UNL     1      26.682 -32.274   8.001  1.00  0.00     0.293 HD
ENDBRANCH   9  11
TORSDOF 1
ENDMDL
MODEL 9
REMARK VINA RESULT:    -3.581     23.279     24.225
REMARK INTER + INTRA:          -3.686
REMARK INTER:                  -3.686
REMARK INTRA:                   0.000
REMARK UNBOUND:                 0.000
REMARK SMILES Oc1ccc2[nH]ccc2c1
REMARK SMILES IDX 3 1 4 2 5 3 9 4 8 5 7 6 6 7 10 8 2 9 1 11
REMARK H PARENT 6 10 1 12
REMARK Flexibility Score: inf
ROOT
ATOM      1  C   UNL     1      25.704 -25.788  -9.750  1.00  0.00     0.048 A 
ATOM      2  C   UNL     1      26.222 -25.574  -8.458  1.00  0.00     0.030 A 
ATOM      3  C   UNL     1      25.546 -24.686  -7.625  1.00  0.00     0.046 A 
ATOM      4  C   UNL     1      24.414 -24.034  -8.034  1.00  0.00     0.003 A 
ATOM      5  C   UNL     1      23.995 -23.239  -6.990  1.00  0.00     0.028 A 
ATOM      6  C   UNL     1      24.921 -23.457  -5.974  1.00  0.00     0.083 A 
ATOM      7  N   UNL     1      25.866 -24.341  -6.366  1.00  0.00    -0.361 N 
ATOM      8  C   UNL     1      23.875 -24.223  -9.305  1.00  0.00     0.056 A 
ATOM      9  C   UNL     1      24.535 -25.116 -10.175  1.00  0.00     0.116 A 
ATOM     10  H   UNL     1      26.678 -24.683  -5.804  1.00  0.00     0.166 HD
ENDROOT
BRANCH   9  11
ATOM     11  O   UNL     1      24.043 -25.345 -11.458  1.00  0.00    -0.508 OA
ATOM     12  H   UNL     1      24.204 -26.224 -11.937  1.00  0.00     0.293 HD
ENDBRANCH   9  11
TORSDOF 1
ENDMDL
