MODEL 1
REMARK VINA RESULT:    -3.977      0.000      0.000
REMARK INTER + INTRA:          -5.597
REMARK INTER:                  -5.139
REMARK INTRA:                  -0.458
REMARK UNBOUND:                -0.458
REMARK SMILES CCO[C@@H]1O[C@H](CO)[C@H](O)[C@@H](O)[C@@H]1O
REMARK SMILES IDX 4 1 13 2 11 3 9 4 6 5 5 6 3 7 2 8 1 9 14 10 12 12 7 14 8 15
REMARK SMILES IDX 10 17
REMARK H PARENT 14 11 12 13 8 16 10 18
REMARK Flexibility Score: inf
ROOT
ATOM      1  C   UNL     1       8.286  -8.770   2.453  1.00  0.00     0.281 C 
ATOM      2  C   UNL     1       8.524  -7.858   3.674  1.00  0.00     0.202 C 
ATOM      3  C   UNL     1       7.226  -7.642   4.467  1.00  0.00     0.179 C 
ATOM      4  C   UNL     1       6.632  -9.014   4.816  1.00  0.00     0.177 C 
ATOM      5  C   UNL     1       6.520  -9.944   3.577  1.00  0.00     0.178 C 
ATOM      6  O   UNL     1       7.724 -10.028   2.819  1.00  0.00    -0.341 OA
ENDROOT
BRANCH   1   7
ATOM      7  O   UNL     1       7.492  -8.114   1.481  1.00  0.00    -0.350 OA
BRANCH   7   8
ATOM      8  C   UNL     1       7.818  -8.575   0.186  1.00  0.00     0.160 C 
ATOM      9  C   UNL     1       6.681  -8.237  -0.766  1.00  0.00     0.035 C 
ENDBRANCH   7   8
ENDBRANCH   1   7
BRANCH   2  10
ATOM     10  O   UNL     1       9.099  -6.634   3.283  1.00  0.00    -0.385 OA
ATOM     11  H   UNL     1       8.931  -5.973   4.004  1.00  0.00     0.211 HD
ENDBRANCH   2  10
BRANCH   3  12
ATOM     12  O   UNL     1       7.500  -6.944   5.654  1.00  0.00    -0.387 OA
ATOM     13  H   UNL     1       6.629  -6.776   6.099  1.00  0.00     0.211 HD
ENDBRANCH   3  12
BRANCH   5  14
ATOM     14  C   UNL     1       5.267  -9.755   2.689  1.00  0.00     0.191 C 
BRANCH  14  15
ATOM     15  O   UNL     1       4.974  -8.404   2.468  1.00  0.00    -0.394 OA
ATOM     16  H   UNL     1       5.034  -7.959   3.353  1.00  0.00     0.210 HD
ENDBRANCH  14  15
ENDBRANCH   5  14
BRANCH   4  17
ATOM     17  O   UNL     1       5.404  -8.899   5.494  1.00  0.00    -0.387 OA
ATOM     18  H   UNL     1       4.917  -9.758   5.402  1.00  0.00     0.211 HD
ENDBRANCH   4  17
TORSDOF 7
ENDMDL
MODEL 2
REMARK VINA RESULT:    -3.660      1.810      4.805
REMARK INTER + INTRA:          -5.189
REMARK INTER:                  -4.710
REMARK INTRA:                  -0.479
REMARK UNBOUND:                -0.458
REMARK SMILES CCO[C@@H]1O[C@H](CO)[C@H](O)[C@@H](O)[C@@H]1O
REMARK SMILES IDX 4 1 13 2 11 3 9 4 6 5 5 6 3 7 2 8 1 9 14 10 12 12 7 14 8 15
REMARK SMILES IDX 10 17
REMARK H PARENT 14 11 12 13 8 16 10 18
REMARK Flexibility Score: inf
ROOT
ATOM      1  C   UNL     1       6.660  -9.145   2.161  1.00  0.00     0.281 C 
ATOM      2  C   UNL     1       5.601  -8.985   1.050  1.00  0.00     0.202 C 
ATOM      3  C   UNL     1       6.210  -8.354  -0.211  1.00  0.00     0.179 C 
ATOM      4  C   UNL     1       7.437  -9.180  -0.627  1.00  0.00     0.177 C 
ATOM      5  C   UNL     1       8.419  -9.418   0.552  1.00  0.00     0.178 C 
ATOM      6  O   UNL     1       7.784  -9.907   1.731  1.00  0.00    -0.341 OA
ENDROOT
BRANCH   1   7
ATOM      7  O   UNL     1       7.056  -7.883   2.666  1.00  0.00    -0.350 OA
BRANCH   7   8
ATOM      8  C   UNL     1       7.567  -8.015   3.976  1.00  0.00     0.160 C 
ATOM      9  C   UNL     1       6.710  -7.199   4.931  1.00  0.00     0.035 C 
ENDBRANCH   7   8
ENDBRANCH   1   7
BRANCH   2  10
ATOM     10  O   UNL     1       4.495  -8.247   1.513  1.00  0.00    -0.385 OA
ATOM     11  H   UNL     1       3.672  -8.742   1.260  1.00  0.00     0.211 HD
ENDBRANCH   2  10
BRANCH   3  12
ATOM     12  O   UNL     1       5.272  -8.366  -1.255  1.00  0.00    -0.387 OA
ATOM     13  H   UNL     1       5.684  -7.885  -2.020  1.00  0.00     0.211 HD
ENDBRANCH   3  12
BRANCH   5  14
ATOM     14  C   UNL     1       9.427  -8.281   0.845  1.00  0.00     0.191 C 
BRANCH  14  15
ATOM     15  O   UNL     1       8.933  -7.026   0.469  1.00  0.00    -0.394 OA
ATOM     16  H   UNL     1       9.311  -6.375   1.115  1.00  0.00     0.210 HD
ENDBRANCH  14  15
ENDBRANCH   5  14
BRANCH   4  17
ATOM     17  O   UNL     1       8.089  -8.626  -1.745  1.00  0.00    -0.387 OA
ATOM     18  H   UNL     1       7.919  -7.649  -1.752  1.00  0.00     0.211 HD
ENDBRANCH   4  17
TORSDOF 7
ENDMDL
MODEL 3
REMARK VINA RESULT:    -3.558     13.507     15.296
REMARK INTER + INTRA:          -5.056
REMARK INTER:                  -4.562
REMARK INTRA:                  -0.494
REMARK UNBOUND:                -0.458
REMARK SMILES CCO[C@@H]1O[C@H](CO)[C@H](O)[C@@H](O)[C@@H]1O
REMARK SMILES IDX 4 1 13 2 11 3 9 4 6 5 5 6 3 7 2 8 1 9 14 10 12 12 7 14 8 15
REMARK SMILES IDX 10 17
REMARK H PARENT 14 11 12 13 8 16 10 18
REMARK Flexibility Score: inf
ROOT
ATOM      1  C   UNL     1      -3.984  -6.363  -8.599  1.00  0.00     0.281 C 
ATOM      2  C   UNL     1      -3.274  -5.152  -7.960  1.00  0.00     0.202 C 
ATOM      3  C   UNL     1      -2.098  -5.600  -7.079  1.00  0.00     0.179 C 
ATOM      4  C   UNL     1      -1.175  -6.498  -7.916  1.00  0.00     0.177 C 
ATOM      5  C   UNL     1      -1.950  -7.635  -8.637  1.00  0.00     0.178 C 
ATOM      6  O   UNL     1      -3.092  -7.176  -9.356  1.00  0.00    -0.341 OA
ENDROOT
BRANCH   1   7
ATOM      7  O   UNL     1      -4.667  -7.123  -7.618  1.00  0.00    -0.350 OA
BRANCH   7   8
ATOM      8  C   UNL     1      -5.860  -7.658  -8.151  1.00  0.00     0.160 C 
ATOM      9  C   UNL     1      -6.581  -6.579  -8.944  1.00  0.00     0.035 C 
ENDBRANCH   7   8
ENDBRANCH   1   7
BRANCH   2  10
ATOM     10  O   UNL     1      -4.185  -4.358  -7.238  1.00  0.00    -0.385 OA
ATOM     11  H   UNL     1      -4.057  -4.548  -6.272  1.00  0.00     0.211 HD
ENDBRANCH   2  10
BRANCH   3  12
ATOM     12  O   UNL     1      -1.374  -4.479  -6.640  1.00  0.00    -0.387 OA
ATOM     13  H   UNL     1      -0.945  -4.731  -5.781  1.00  0.00     0.211 HD
ENDBRANCH   3  12
BRANCH   5  14
ATOM     14  C   UNL     1      -2.240  -8.904  -7.802  1.00  0.00     0.191 C 
BRANCH  14  15
ATOM     15  O   UNL     1      -1.077  -9.631  -7.522  1.00  0.00    -0.394 OA
ATOM     16  H   UNL     1      -1.377 -10.514  -7.184  1.00  0.00     0.210 HD
ENDBRANCH  14  15
ENDBRANCH   5  14
BRANCH   4  17
ATOM     17  O   UNL     1      -0.101  -7.000  -7.158  1.00  0.00    -0.387 OA
ATOM     18  H   UNL     1       0.745  -6.705  -7.583  1.00  0.00     0.211 HD
ENDBRANCH   4  17
TORSDOF 7
ENDMDL
MODEL 4
REMARK VINA RESULT:    -3.533     13.313     15.153
REMARK INTER + INTRA:          -5.023
REMARK INTER:                  -4.519
REMARK INTRA:                  -0.505
REMARK UNBOUND:                -0.458
REMARK SMILES CCO[C@@H]1O[C@H](CO)[C@H](O)[C@@H](O)[C@@H]1O
REMARK SMILES IDX 4 1 13 2 11 3 9 4 6 5 5 6 3 7 2 8 1 9 14 10 12 12 7 14 8 15
REMARK SMILES IDX 10 17
REMARK H PARENT 14 11 12 13 8 16 10 18
REMARK Flexibility Score: inf
ROOT
ATOM      1  C   UNL     1       9.547   5.669   6.397  1.00  0.00     0.281 C 
ATOM      2  C   UNL     1       9.710   4.592   5.304  1.00  0.00     0.202 C 
ATOM      3  C   UNL     1       8.914   4.958   4.042  1.00  0.00     0.179 C 
ATOM      4  C   UNL     1       9.322   6.370   3.598  1.00  0.00     0.177 C 
ATOM      5  C   UNL     1       9.257   7.399   4.760  1.00  0.00     0.178 C 
ATOM      6  O   UNL     1       9.925   6.964   5.942  1.00  0.00    -0.341 OA
ENDROOT
BRANCH   1   7
ATOM      7  O   UNL     1       8.227   5.668   6.912  1.00  0.00    -0.350 OA
BRANCH   7   8
ATOM      8  C   UNL     1       8.246   5.499   8.314  1.00  0.00     0.160 C 
ATOM      9  C   UNL     1       7.477   4.237   8.675  1.00  0.00     0.035 C 
ENDBRANCH   7   8
ENDBRANCH   1   7
BRANCH   2  10
ATOM     10  O   UNL     1       9.349   3.322   5.791  1.00  0.00    -0.385 OA
ATOM     11  H   UNL     1       8.586   3.440   6.416  1.00  0.00     0.211 HD
ENDBRANCH   2  10
BRANCH   3  12
ATOM     12  O   UNL     1       9.204   4.050   3.012  1.00  0.00    -0.387 OA
ATOM     13  H   UNL     1       8.386   3.971   2.455  1.00  0.00     0.211 HD
ENDBRANCH   3  12
BRANCH   5  14
ATOM     14  C   UNL     1       7.869   8.016   5.052  1.00  0.00     0.191 C 
BRANCH  14  15
ATOM     15  O   UNL     1       6.825   7.121   4.789  1.00  0.00    -0.394 OA
ATOM     16  H   UNL     1       6.969   6.792   3.864  1.00  0.00     0.210 HD
ENDBRANCH  14  15
ENDBRANCH   5  14
BRANCH   4  17
ATOM     17  O   UNL     1       8.588   6.803   2.478  1.00  0.00    -0.387 OA
ATOM     18  H   UNL     1       7.943   7.495   2.777  1.00  0.00     0.211 HD
ENDBRANCH   4  17
TORSDOF 7
ENDMDL
MODEL 5
REMARK VINA RESULT:    -3.488      3.800      6.957
REMARK INTER + INTRA:          -4.965
REMARK INTER:                  -4.500
REMARK INTRA:                  -0.465
REMARK UNBOUND:                -0.458
REMARK SMILES CCO[C@@H]1O[C@H](CO)[C@H](O)[C@@H](O)[C@@H]1O
REMARK SMILES IDX 4 1 13 2 11 3 9 4 6 5 5 6 3 7 2 8 1 9 14 10 12 12 7 14 8 15
REMARK SMILES IDX 10 17
REMARK H PARENT 14 11 12 13 8 16 10 18
REMARK Flexibility Score: inf
ROOT
ATOM      1  C   UNL     1       6.441  -9.117  -1.507  1.00  0.00     0.281 C 
ATOM      2  C   UNL     1       5.353  -9.387  -2.568  1.00  0.00     0.202 C 
ATOM      3  C   UNL     1       5.197  -8.191  -3.519  1.00  0.00     0.179 C 
ATOM      4  C   UNL     1       6.575  -7.849  -4.106  1.00  0.00     0.177 C 
ATOM      5  C   UNL     1       7.666  -7.703  -3.009  1.00  0.00     0.178 C 
ATOM      6  O   UNL     1       7.699  -8.793  -2.092  1.00  0.00    -0.341 OA
ENDROOT
BRANCH   1   7
ATOM      7  O   UNL     1       6.021  -8.114  -0.599  1.00  0.00    -0.350 OA
BRANCH   7   8
ATOM      8  C   UNL     1       6.258  -8.524   0.731  1.00  0.00     0.160 C 
ATOM      9  C   UNL     1       4.936  -8.584   1.479  1.00  0.00     0.035 C 
ENDBRANCH   7   8
ENDBRANCH   1   7
BRANCH   2  10
ATOM     10  O   UNL     1       4.130  -9.725  -1.960  1.00  0.00    -0.385 OA
ATOM     11  H   UNL     1       4.315  -9.959  -1.013  1.00  0.00     0.211 HD
ENDBRANCH   2  10
BRANCH   3  12
ATOM     12  O   UNL     1       4.322  -8.522  -4.566  1.00  0.00    -0.387 OA
ATOM     13  H   UNL     1       4.690  -9.332  -5.007  1.00  0.00     0.211 HD
ENDBRANCH   3  12
BRANCH   5  14
ATOM     14  C   UNL     1       7.750  -6.327  -2.306  1.00  0.00     0.191 C 
BRANCH  14  15
ATOM     15  O   UNL     1       8.426  -6.399  -1.082  1.00  0.00    -0.394 OA
ATOM     16  H   UNL     1       7.753  -6.197  -0.382  1.00  0.00     0.210 HD
ENDBRANCH  14  15
ENDBRANCH   5  14
BRANCH   4  17
ATOM     17  O   UNL     1       6.525  -6.720  -4.944  1.00  0.00    -0.387 OA
ATOM     18  H   UNL     1       7.248  -6.800  -5.618  1.00  0.00     0.211 HD
ENDBRANCH   4  17
TORSDOF 7
ENDMDL
MODEL 6
REMARK VINA RESULT:    -3.469     20.637     21.653
REMARK INTER + INTRA:          -4.941
REMARK INTER:                  -4.562
REMARK INTRA:                  -0.379
REMARK UNBOUND:                -0.458
REMARK SMILES CCO[C@@H]1O[C@H](CO)[C@H](O)[C@@H](O)[C@@H]1O
REMARK SMILES IDX 4 1 13 2 11 3 9 4 6 5 5 6 3 7 2 8 1 9 14 10 12 12 7 14 8 15
REMARK SMILES IDX 10 17
REMARK H PARENT 14 11 12 13 8 16 10 18
REMARK Flexibility Score: inf
ROOT
ATOM      1  C   UNL     1      -6.939   9.022   1.726  1.00  0.00     0.281 C 
ATOM      2  C   UNL     1      -6.846   7.483   1.663  1.00  0.00     0.202 C 
ATOM      3  C   UNL     1      -5.394   7.023   1.462  1.00  0.00     0.179 C 
ATOM      4  C   UNL     1      -4.523   7.660   2.556  1.00  0.00     0.177 C 
ATOM      5  C   UNL     1      -4.737   9.195   2.664  1.00  0.00     0.178 C 
ATOM      6  O   UNL     1      -6.109   9.573   2.745  1.00  0.00    -0.341 OA
ENDROOT
BRANCH   1   7
ATOM      7  O   UNL     1      -6.655   9.597   0.463  1.00  0.00    -0.350 OA
BRANCH   7   8
ATOM      8  C   UNL     1      -7.832  10.125  -0.113  1.00  0.00     0.160 C 
ATOM      9  C   UNL     1      -7.853   9.793  -1.597  1.00  0.00     0.035 C 
ENDBRANCH   7   8
ENDBRANCH   1   7
BRANCH   2  10
ATOM     10  O   UNL     1      -7.692   6.969   0.663  1.00  0.00    -0.385 OA
ATOM     11  H   UNL     1      -8.054   7.736   0.146  1.00  0.00     0.211 HD
ENDBRANCH   2  10
BRANCH   3  12
ATOM     12  O   UNL     1      -5.315   5.625   1.568  1.00  0.00    -0.387 OA
ATOM     13  H   UNL     1      -6.110   5.255   1.103  1.00  0.00     0.211 HD
ENDBRANCH   3  12
BRANCH   5  14
ATOM     14  C   UNL     1      -3.934  10.071   1.674  1.00  0.00     0.191 C 
BRANCH  14  15
ATOM     15  O   UNL     1      -3.634   9.390   0.488  1.00  0.00    -0.394 OA
ATOM     16  H   UNL     1      -3.220   8.530   0.760  1.00  0.00     0.210 HD
ENDBRANCH  14  15
ENDBRANCH   5  14
BRANCH   4  17
ATOM     17  O   UNL     1      -3.163   7.334   2.402  1.00  0.00    -0.387 OA
ATOM     18  H   UNL     1      -3.020   6.420   2.761  1.00  0.00     0.211 HD
ENDBRANCH   4  17
TORSDOF 7
ENDMDL
MODEL 7
REMARK VINA RESULT:    -3.441     14.172     16.667
REMARK INTER + INTRA:          -4.905
REMARK INTER:                  -4.450
REMARK INTRA:                  -0.455
REMARK UNBOUND:                -0.458
REMARK SMILES CCO[C@@H]1O[C@H](CO)[C@H](O)[C@@H](O)[C@@H]1O
REMARK SMILES IDX 4 1 13 2 11 3 9 4 6 5 5 6 3 7 2 8 1 9 14 10 12 12 7 14 8 15
REMARK SMILES IDX 10 17
REMARK H PARENT 14 11 12 13 8 16 10 18
REMARK Flexibility Score: inf
ROOT
ATOM      1  C   UNL     1      -4.941  -6.542  -9.555  1.00  0.00     0.281 C 
ATOM      2  C   UNL     1      -5.554  -5.335  -8.816  1.00  0.00     0.202 C 
ATOM      3  C   UNL     1      -4.756  -4.997  -7.547  1.00  0.00     0.179 C 
ATOM      4  C   UNL     1      -3.280  -4.814  -7.932  1.00  0.00     0.177 C 
ATOM      5  C   UNL     1      -2.737  -6.000  -8.777  1.00  0.00     0.178 C 
ATOM      6  O   UNL     1      -3.570  -6.337  -9.883  1.00  0.00    -0.341 OA
ENDROOT
BRANCH   1   7
ATOM      7  O   UNL     1      -5.120  -7.733  -8.810  1.00  0.00    -0.350 OA
BRANCH   7   8
ATOM      8  C   UNL     1      -5.661  -8.750  -9.628  1.00  0.00     0.160 C 
ATOM      9  C   UNL     1      -7.036  -9.134  -9.103  1.00  0.00     0.035 C 
ENDBRANCH   7   8
ENDBRANCH   1   7
BRANCH   2  10
ATOM     10  O   UNL     1      -6.913  -5.560  -8.526  1.00  0.00    -0.385 OA
ATOM     11  H   UNL     1      -7.454  -5.066  -9.196  1.00  0.00     0.211 HD
ENDBRANCH   2  10
BRANCH   3  12
ATOM     12  O   UNL     1      -5.235  -3.804  -6.983  1.00  0.00    -0.387 OA
ATOM     13  H   UNL     1      -4.574  -3.522  -6.298  1.00  0.00     0.211 HD
ENDBRANCH   3  12
BRANCH   5  14
ATOM     14  C   UNL     1      -2.260  -7.242  -7.988  1.00  0.00     0.191 C 
BRANCH  14  15
ATOM     15  O   UNL     1      -1.003  -7.047  -7.404  1.00  0.00    -0.394 OA
ATOM     16  H   UNL     1      -1.173  -6.694  -6.492  1.00  0.00     0.210 HD
ENDBRANCH  14  15
ENDBRANCH   5  14
BRANCH   4  17
ATOM     17  O   UNL     1      -2.471  -4.562  -6.808  1.00  0.00    -0.387 OA
ATOM     18  H   UNL     1      -1.980  -3.715  -6.963  1.00  0.00     0.211 HD
ENDBRANCH   4  17
TORSDOF 7
ENDMDL
MODEL 8
REMARK VINA RESULT:    -3.416     13.138     15.520
REMARK INTER + INTRA:          -4.873
REMARK INTER:                  -4.397
REMARK INTRA:                  -0.475
REMARK UNBOUND:                -0.458
REMARK SMILES CCO[C@@H]1O[C@H](CO)[C@H](O)[C@@H](O)[C@@H]1O
REMARK SMILES IDX 4 1 13 2 11 3 9 4 6 5 5 6 3 7 2 8 1 9 14 10 12 12 7 14 8 15
REMARK SMILES IDX 10 17
REMARK H PARENT 14 11 12 13 8 16 10 18
REMARK Flexibility Score: inf
ROOT
ATOM      1  C   UNL     1      -2.927  -8.131  -8.818  1.00  0.00     0.281 C 
ATOM      2  C   UNL     1      -4.460  -7.986  -8.712  1.00  0.00     0.202 C 
ATOM      3  C   UNL     1      -4.845  -6.871  -7.729  1.00  0.00     0.179 C 
ATOM      4  C   UNL     1      -4.120  -5.582  -8.143  1.00  0.00     0.177 C 
ATOM      5  C   UNL     1      -2.597  -5.800  -8.354  1.00  0.00     0.178 C 
ATOM      6  O   UNL     1      -2.293  -6.912  -9.193  1.00  0.00    -0.341 OA
ENDROOT
BRANCH   1   7
ATOM      7  O   UNL     1      -2.385  -8.645  -7.615  1.00  0.00    -0.350 OA
BRANCH   7   8
ATOM      8  C   UNL     1      -1.370  -9.587  -7.895  1.00  0.00     0.160 C 
ATOM      9  C   UNL     1      -0.062  -9.107  -7.287  1.00  0.00     0.035 C 
ENDBRANCH   7   8
ENDBRANCH   1   7
BRANCH   2  10
ATOM     10  O   UNL     1      -5.057  -9.212  -8.362  1.00  0.00    -0.385 OA
ATOM     11  H   UNL     1      -6.040  -9.110  -8.458  1.00  0.00     0.211 HD
ENDBRANCH   2  10
BRANCH   3  12
ATOM     12  O   UNL     1      -6.232  -6.653  -7.771  1.00  0.00    -0.387 OA
ATOM     13  H   UNL     1      -6.592  -7.218  -8.504  1.00  0.00     0.211 HD
ENDBRANCH   3  12
BRANCH   5  14
ATOM     14  C   UNL     1      -1.715  -5.753  -7.084  1.00  0.00     0.191 C 
BRANCH  14  15
ATOM     15  O   UNL     1      -1.460  -4.442  -6.665  1.00  0.00    -0.394 OA
ATOM     16  H   UNL     1      -0.639  -4.154  -7.141  1.00  0.00     0.210 HD
ENDBRANCH  14  15
ENDBRANCH   5  14
BRANCH   4  17
ATOM     17  O   UNL     1      -4.376  -4.525  -7.250  1.00  0.00    -0.387 OA
ATOM     18  H   UNL     1      -3.976  -3.698  -7.625  1.00  0.00     0.211 HD
ENDBRANCH   4  17
TORSDOF 7
ENDMDL
MODEL 9
REMARK VINA RESULT:    -3.413     12.969     14.913
REMARK INTER + INTRA:          -4.869
REMARK INTER:                  -4.295
REMARK INTRA:                  -0.574
REMARK UNBOUND:                -0.458
REMARK SMILES CCO[C@@H]1O[C@H](CO)[C@H](O)[C@@H](O)[C@@H]1O
REMARK SMILES IDX 4 1 13 2 11 3 9 4 6 5 5 6 3 7 2 8 1 9 14 10 12 12 7 14 8 15
REMARK SMILES IDX 10 17
REMARK H PARENT 14 11 12 13 8 16 10 18
REMARK Flexibility Score: inf
ROOT
ATOM      1  C   UNL     1      -2.853  -6.056  -8.406  1.00  0.00     0.281 C 
ATOM      2  C   UNL     1      -1.437  -5.899  -7.813  1.00  0.00     0.202 C 
ATOM      3  C   UNL     1      -0.818  -7.265  -7.484  1.00  0.00     0.179 C 
ATOM      4  C   UNL     1      -0.878  -8.145  -8.742  1.00  0.00     0.177 C 
ATOM      5  C   UNL     1      -2.297  -8.180  -9.374  1.00  0.00     0.178 C 
ATOM      6  O   UNL     1      -2.867  -6.887  -9.563  1.00  0.00    -0.341 OA
ENDROOT
BRANCH   1   7
ATOM      7  O   UNL     1      -3.761  -6.524  -7.424  1.00  0.00    -0.350 OA
BRANCH   7   8
ATOM      8  C   UNL     1      -5.027  -5.922  -7.597  1.00  0.00     0.160 C 
ATOM      9  C   UNL     1      -4.881  -4.412  -7.491  1.00  0.00     0.035 C 
ENDBRANCH   7   8
ENDBRANCH   1   7
BRANCH   2  10
ATOM     10  O   UNL     1      -1.455  -5.056  -6.686  1.00  0.00    -0.385 OA
ATOM     11  H   UNL     1      -1.010  -4.204  -6.936  1.00  0.00     0.211 HD
ENDBRANCH   2  10
BRANCH   3  12
ATOM     12  O   UNL     1       0.522  -7.104  -7.100  1.00  0.00    -0.387 OA
ATOM     13  H   UNL     1       0.828  -7.979  -6.742  1.00  0.00     0.211 HD
ENDBRANCH   3  12
BRANCH   5  14
ATOM     14  C   UNL     1      -3.296  -9.189  -8.759  1.00  0.00     0.191 C 
BRANCH  14  15
ATOM     15  O   UNL     1      -3.063  -9.402  -7.396  1.00  0.00    -0.394 OA
ATOM     16  H   UNL     1      -3.463  -8.628  -6.922  1.00  0.00     0.210 HD
ENDBRANCH  14  15
ENDBRANCH   5  14
BRANCH   4  17
ATOM     17  O   UNL     1      -0.383  -9.440  -8.503  1.00  0.00    -0.387 OA
ATOM     18  H   UNL     1       0.562  -9.363  -8.211  1.00  0.00     0.211 HD
ENDBRANCH   4  17
TORSDOF 7
ENDMDL
