MODEL 1
REMARK VINA RESULT:    -4.477      0.000      0.000
REMARK INTER + INTRA:          -9.197
REMARK INTER:                  -7.617
REMARK INTRA:                  -1.580
REMARK UNBOUND:                -1.580
REMARK SMILES CCCCCCCCCCCCCC(=O)[O-]
REMARK SMILES IDX 8 1 9 2 10 3 11 4 12 5 13 6 14 7 15 8 16 9 7 10 6 11 5 12
REMARK SMILES IDX 4 13 3 14 2 15 1 16
REMARK H PARENT
REMARK Flexibility Score: inf
ROOT
ATOM      1  C   UNL     1       7.647  11.495   7.944  1.00  0.00     0.000 C 
ENDROOT
BRANCH   1   2
ATOM      2  C   UNL     1       6.959  12.497   8.883  1.00  0.00     0.000 C 
BRANCH   2   3
ATOM      3  C   UNL     1       5.698  13.125   8.264  1.00  0.00     0.000 C 
BRANCH   3   4
ATOM      4  C   UNL     1       4.491  13.084   9.217  1.00  0.00     0.000 C 
BRANCH   4   5
ATOM      5  C   UNL     1       4.093  11.649   9.601  1.00  0.00     0.006 C 
BRANCH   5   6
ATOM      6  C   UNL     1       3.430  10.888   8.445  1.00  0.00     0.053 C 
BRANCH   6   7
ATOM      7  C   UNL     1       4.003   9.510   8.331  1.00  0.00     0.041 C 
ATOM      8  O   UNL     1       3.367   8.607   7.728  1.00  0.00    -0.550 OA
ATOM      9  O   UNL     1       5.218   9.211   8.934  1.00  0.00    -0.550 OA
ENDBRANCH   6   7
ENDBRANCH   5   6
ENDBRANCH   4   5
ENDBRANCH   3   4
ENDBRANCH   2   3
ENDBRANCH   1   2
BRANCH   1  10
ATOM     10  C   UNL     1       9.041  11.997   7.535  1.00  0.00     0.000 C 
BRANCH  10  11
ATOM     11  C   UNL     1       9.440  11.554   6.118  1.00  0.00    -0.000 C 
BRANCH  11  12
ATOM     12  C   UNL     1       9.460  12.723   5.117  1.00  0.00    -0.000 C 
BRANCH  12  13
ATOM     13  C   UNL     1       8.490  12.513   3.943  1.00  0.00    -0.000 C 
BRANCH  13  14
ATOM     14  C   UNL     1       7.014  12.588   4.373  1.00  0.00    -0.000 C 
BRANCH  14  15
ATOM     15  C   UNL     1       6.298  11.234   4.254  1.00  0.00    -0.003 C 
ATOM     16  C   UNL     1       5.119  11.101   5.219  1.00  0.00     0.004 C 
ENDBRANCH  14  15
ENDBRANCH  13  14
ENDBRANCH  12  13
ENDBRANCH  11  12
ENDBRANCH  10  11
ENDBRANCH   1  10
TORSDOF 12
ENDMDL
MODEL 2
REMARK VINA RESULT:    -4.361      1.795      2.011
REMARK INTER + INTRA:          -8.999
REMARK INTER:                  -7.673
REMARK INTRA:                  -1.327
REMARK UNBOUND:                -1.580
REMARK SMILES CCCCCCCCCCCCCC(=O)[O-]
REMARK SMILES IDX 8 1 9 2 10 3 11 4 12 5 13 6 14 7 15 8 16 9 7 10 6 11 5 12
REMARK SMILES IDX 4 13 3 14 2 15 1 16
REMARK H PARENT
REMARK Flexibility Score: inf
ROOT
ATOM      1  C   UNL     1       8.001  10.842   7.370  1.00  0.00     0.000 C 
ENDROOT
BRANCH   1   2
ATOM      2  C   UNL     1       6.922  10.880   8.462  1.00  0.00     0.000 C 
BRANCH   2   3
ATOM      3  C   UNL     1       6.548  12.312   8.881  1.00  0.00     0.000 C 
BRANCH   3   4
ATOM      4  C   UNL     1       5.028  12.510   9.013  1.00  0.00     0.000 C 
BRANCH   4   5
ATOM      5  C   UNL     1       4.303  11.225   9.446  1.00  0.00     0.006 C 
BRANCH   5   6
ATOM      6  C   UNL     1       2.903  11.099   8.831  1.00  0.00     0.053 C 
BRANCH   6   7
ATOM      7  C   UNL     1       1.853  11.348   9.868  1.00  0.00     0.041 C 
ATOM      8  O   UNL     1       1.594  10.469  10.731  1.00  0.00    -0.550 OA
ATOM      9  O   UNL     1       1.125  12.531   9.851  1.00  0.00    -0.550 OA
ENDBRANCH   6   7
ENDBRANCH   5   6
ENDBRANCH   4   5
ENDBRANCH   3   4
ENDBRANCH   2   3
ENDBRANCH   1   2
BRANCH   1  10
ATOM     10  C   UNL     1       8.940  12.053   7.487  1.00  0.00     0.000 C 
BRANCH  10  11
ATOM     11  C   UNL     1       8.744  13.070   6.351  1.00  0.00    -0.000 C 
BRANCH  11  12
ATOM     12  C   UNL     1       9.333  12.584   5.015  1.00  0.00    -0.000 C 
BRANCH  12  13
ATOM     13  C   UNL     1       8.251  12.284   3.965  1.00  0.00    -0.000 C 
BRANCH  13  14
ATOM     14  C   UNL     1       6.827  12.527   4.496  1.00  0.00    -0.000 C 
BRANCH  14  15
ATOM     15  C   UNL     1       5.897  11.328   4.252  1.00  0.00    -0.003 C 
ATOM     16  C   UNL     1       4.944  11.070   5.419  1.00  0.00     0.004 C 
ENDBRANCH  14  15
ENDBRANCH  13  14
ENDBRANCH  12  13
ENDBRANCH  11  12
ENDBRANCH  10  11
ENDBRANCH   1  10
TORSDOF 12
ENDMDL
MODEL 3
REMARK VINA RESULT:    -4.359      1.039      2.660
REMARK INTER + INTRA:          -8.996
REMARK INTER:                  -7.281
REMARK INTRA:                  -1.714
REMARK UNBOUND:                -1.580
REMARK SMILES CCCCCCCCCCCCCC(=O)[O-]
REMARK SMILES IDX 8 1 9 2 10 3 11 4 12 5 13 6 14 7 15 8 16 9 7 10 6 11 5 12
REMARK SMILES IDX 4 13 3 14 2 15 1 16
REMARK H PARENT
REMARK Flexibility Score: inf
ROOT
ATOM      1  C   UNL     1       6.929  10.682   6.644  1.00  0.00     0.000 C 
ENDROOT
BRANCH   1   2
ATOM      2  C   UNL     1       6.828  11.123   8.112  1.00  0.00     0.000 C 
BRANCH   2   3
ATOM      3  C   UNL     1       6.498  12.617   8.264  1.00  0.00     0.000 C 
BRANCH   3   4
ATOM      4  C   UNL     1       5.266  12.861   9.152  1.00  0.00     0.000 C 
BRANCH   4   5
ATOM      5  C   UNL     1       4.624  11.552   9.640  1.00  0.00     0.006 C 
BRANCH   5   6
ATOM      6  C   UNL     1       3.213  11.338   9.076  1.00  0.00     0.053 C 
BRANCH   6   7
ATOM      7  C   UNL     1       3.194  10.160   8.153  1.00  0.00     0.041 C 
ATOM      8  O   UNL     1       3.901   9.149   8.401  1.00  0.00    -0.550 OA
ATOM      9  O   UNL     1       2.433  10.200   6.992  1.00  0.00    -0.550 OA
ENDBRANCH   6   7
ENDBRANCH   5   6
ENDBRANCH   4   5
ENDBRANCH   3   4
ENDBRANCH   2   3
ENDBRANCH   1   2
BRANCH   1  10
ATOM     10  C   UNL     1       5.801  11.305   5.807  1.00  0.00     0.000 C 
BRANCH  10  11
ATOM     11  C   UNL     1       6.243  11.646   4.374  1.00  0.00    -0.000 C 
BRANCH  11  12
ATOM     12  C   UNL     1       7.773  11.659   4.215  1.00  0.00    -0.000 C 
BRANCH  12  13
ATOM     13  C   UNL     1       8.369  13.071   4.347  1.00  0.00    -0.000 C 
BRANCH  13  14
ATOM     14  C   UNL     1       9.850  13.052   4.767  1.00  0.00    -0.000 C 
BRANCH  14  15
ATOM     15  C   UNL     1      10.125  12.053   5.902  1.00  0.00    -0.003 C 
ATOM     16  C   UNL     1      10.112  12.708   7.283  1.00  0.00     0.004 C 
ENDBRANCH  14  15
ENDBRANCH  13  14
ENDBRANCH  12  13
ENDBRANCH  11  12
ENDBRANCH  10  11
ENDBRANCH   1  10
TORSDOF 12
ENDMDL
MODEL 4
REMARK VINA RESULT:    -4.307      2.001      5.216
REMARK INTER + INTRA:          -8.908
REMARK INTER:                  -7.584
REMARK INTRA:                  -1.324
REMARK UNBOUND:                -1.580
REMARK SMILES CCCCCCCCCCCCCC(=O)[O-]
REMARK SMILES IDX 8 1 9 2 10 3 11 4 12 5 13 6 14 7 15 8 16 9 7 10 6 11 5 12
REMARK SMILES IDX 4 13 3 14 2 15 1 16
REMARK H PARENT
REMARK Flexibility Score: inf
ROOT
ATOM      1  C   UNL     1       7.899  10.868   7.683  1.00  0.00     0.000 C 
ENDROOT
BRANCH   1   2
ATOM      2  C   UNL     1       8.748  12.143   7.800  1.00  0.00     0.000 C 
BRANCH   2   3
ATOM      3  C   UNL     1       9.238  12.660   6.437  1.00  0.00     0.000 C 
BRANCH   3   4
ATOM      4  C   UNL     1       8.637  11.876   5.258  1.00  0.00     0.000 C 
BRANCH   4   5
ATOM      5  C   UNL     1       7.687  12.733   4.405  1.00  0.00     0.006 C 
BRANCH   5   6
ATOM      6  C   UNL     1       6.262  12.781   4.972  1.00  0.00     0.053 C 
BRANCH   6   7
ATOM      7  C   UNL     1       5.585  11.458   4.792  1.00  0.00     0.041 C 
ATOM      8  O   UNL     1       5.776  10.786   3.745  1.00  0.00    -0.550 OA
ATOM      9  O   UNL     1       4.704  10.991   5.759  1.00  0.00    -0.550 OA
ENDBRANCH   6   7
ENDBRANCH   5   6
ENDBRANCH   4   5
ENDBRANCH   3   4
ENDBRANCH   2   3
ENDBRANCH   1   2
BRANCH   1  10
ATOM     10  C   UNL     1       6.623  10.980   8.532  1.00  0.00     0.000 C 
BRANCH  10  11
ATOM     11  C   UNL     1       6.179  12.435   8.748  1.00  0.00    -0.000 C 
BRANCH  11  12
ATOM     12  C   UNL     1       4.745  12.539   9.298  1.00  0.00    -0.000 C 
BRANCH  12  13
ATOM     13  C   UNL     1       4.121  11.164   9.585  1.00  0.00    -0.000 C 
BRANCH  13  14
ATOM     14  C   UNL     1       2.712  11.016   8.985  1.00  0.00    -0.000 C 
BRANCH  14  15
ATOM     15  C   UNL     1       1.604  11.336  10.001  1.00  0.00    -0.003 C 
ATOM     16  C   UNL     1       0.861  12.632   9.678  1.00  0.00     0.004 C 
ENDBRANCH  14  15
ENDBRANCH  13  14
ENDBRANCH  12  13
ENDBRANCH  11  12
ENDBRANCH  10  11
ENDBRANCH   1  10
TORSDOF 12
ENDMDL
MODEL 5
REMARK VINA RESULT:    -4.235      2.033      3.400
REMARK INTER + INTRA:          -8.786
REMARK INTER:                  -7.688
REMARK INTRA:                  -1.097
REMARK UNBOUND:                -1.580
REMARK SMILES CCCCCCCCCCCCCC(=O)[O-]
REMARK SMILES IDX 8 1 9 2 10 3 11 4 12 5 13 6 14 7 15 8 16 9 7 10 6 11 5 12
REMARK SMILES IDX 4 13 3 14 2 15 1 16
REMARK H PARENT
REMARK Flexibility Score: inf
ROOT
ATOM      1  C   UNL     1       6.031  11.860   6.852  1.00  0.00     0.000 C 
ENDROOT
BRANCH   1   2
ATOM      2  C   UNL     1       5.948  10.873   8.026  1.00  0.00     0.000 C 
BRANCH   2   3
ATOM      3  C   UNL     1       4.957   9.725   7.770  1.00  0.00     0.000 C 
BRANCH   3   4
ATOM      4  C   UNL     1       3.817   9.687   8.803  1.00  0.00     0.000 C 
BRANCH   4   5
ATOM      5  C   UNL     1       3.887  10.858   9.799  1.00  0.00     0.006 C 
BRANCH   5   6
ATOM      6  C   UNL     1       2.992  12.036   9.391  1.00  0.00     0.053 C 
BRANCH   6   7
ATOM      7  C   UNL     1       1.612  11.857   9.940  1.00  0.00     0.041 C 
ATOM      8  O   UNL     1       0.699  12.669   9.638  1.00  0.00    -0.550 OA
ATOM      9  O   UNL     1       1.345  10.820  10.826  1.00  0.00    -0.550 OA
ENDBRANCH   6   7
ENDBRANCH   5   6
ENDBRANCH   4   5
ENDBRANCH   3   4
ENDBRANCH   2   3
ENDBRANCH   1   2
BRANCH   1  10
ATOM     10  C   UNL     1       5.660  11.169   5.530  1.00  0.00     0.000 C 
BRANCH  10  11
ATOM     11  C   UNL     1       6.203  11.912   4.298  1.00  0.00    -0.000 C 
BRANCH  11  12
ATOM     12  C   UNL     1       7.714  11.696   4.097  1.00  0.00    -0.000 C 
BRANCH  12  13
ATOM     13  C   UNL     1       8.529  12.982   4.313  1.00  0.00    -0.000 C 
BRANCH  13  14
ATOM     14  C   UNL     1       9.887  12.716   4.986  1.00  0.00    -0.000 C 
BRANCH  14  15
ATOM     15  C   UNL     1       9.782  11.716   6.148  1.00  0.00    -0.003 C 
ATOM     16  C   UNL     1       9.562  12.398   7.498  1.00  0.00     0.004 C 
ENDBRANCH  14  15
ENDBRANCH  13  14
ENDBRANCH  12  13
ENDBRANCH  11  12
ENDBRANCH  10  11
ENDBRANCH   1  10
TORSDOF 12
ENDMDL
MODEL 6
REMARK VINA RESULT:    -4.220      1.976      3.426
REMARK INTER + INTRA:          -8.760
REMARK INTER:                  -7.463
REMARK INTRA:                  -1.296
REMARK UNBOUND:                -1.580
REMARK SMILES CCCCCCCCCCCCCC(=O)[O-]
REMARK SMILES IDX 8 1 9 2 10 3 11 4 12 5 13 6 14 7 15 8 16 9 7 10 6 11 5 12
REMARK SMILES IDX 4 13 3 14 2 15 1 16
REMARK H PARENT
REMARK Flexibility Score: inf
ROOT
ATOM      1  C   UNL     1       5.777  10.794   6.071  1.00  0.00     0.000 C 
ENDROOT
BRANCH   1   2
ATOM      2  C   UNL     1       4.288  10.581   6.380  1.00  0.00     0.000 C 
BRANCH   2   3
ATOM      3  C   UNL     1       4.055   9.635   7.570  1.00  0.00     0.000 C 
BRANCH   3   4
ATOM      4  C   UNL     1       4.963   9.961   8.769  1.00  0.00     0.000 C 
BRANCH   4   5
ATOM      5  C   UNL     1       4.205  10.667   9.906  1.00  0.00     0.006 C 
BRANCH   5   6
ATOM      6  C   UNL     1       3.459  11.921   9.431  1.00  0.00     0.053 C 
BRANCH   6   7
ATOM      7  C   UNL     1       2.036  11.887   9.892  1.00  0.00     0.041 C 
ATOM      8  O   UNL     1       1.569  10.850  10.433  1.00  0.00    -0.550 OA
ATOM      9  O   UNL     1       1.210  12.983   9.678  1.00  0.00    -0.550 OA
ENDBRANCH   6   7
ENDBRANCH   5   6
ENDBRANCH   4   5
ENDBRANCH   3   4
ENDBRANCH   2   3
ENDBRANCH   1   2
BRANCH   1  10
ATOM     10  C   UNL     1       6.194  12.244   6.363  1.00  0.00     0.000 C 
BRANCH  10  11
ATOM     11  C   UNL     1       7.386  12.337   7.330  1.00  0.00    -0.000 C 
BRANCH  11  12
ATOM     12  C   UNL     1       8.316  11.114   7.239  1.00  0.00    -0.000 C 
BRANCH  12  13
ATOM     13  C   UNL     1       9.388  11.266   6.147  1.00  0.00    -0.000 C 
BRANCH  13  14
ATOM     14  C   UNL     1       9.807  12.731   5.927  1.00  0.00    -0.000 C 
BRANCH  14  15
ATOM     15  C   UNL     1       9.927  13.090   4.438  1.00  0.00    -0.003 C 
ATOM     16  C   UNL     1       8.716  12.641   3.620  1.00  0.00     0.004 C 
ENDBRANCH  14  15
ENDBRANCH  13  14
ENDBRANCH  12  13
ENDBRANCH  11  12
ENDBRANCH  10  11
ENDBRANCH   1  10
TORSDOF 12
ENDMDL
MODEL 7
REMARK VINA RESULT:    -4.211      1.702      5.023
REMARK INTER + INTRA:          -8.744
REMARK INTER:                  -7.229
REMARK INTRA:                  -1.516
REMARK UNBOUND:                -1.580
REMARK SMILES CCCCCCCCCCCCCC(=O)[O-]
REMARK SMILES IDX 8 1 9 2 10 3 11 4 12 5 13 6 14 7 15 8 16 9 7 10 6 11 5 12
REMARK SMILES IDX 4 13 3 14 2 15 1 16
REMARK H PARENT
REMARK Flexibility Score: inf
ROOT
ATOM      1  C   UNL     1       7.775  11.429   8.043  1.00  0.00     0.000 C 
ENDROOT
BRANCH   1   2
ATOM      2  C   UNL     1       9.085  11.799   7.331  1.00  0.00     0.000 C 
BRANCH   2   3
ATOM      3  C   UNL     1       8.935  13.016   6.403  1.00  0.00     0.000 C 
BRANCH   3   4
ATOM      4  C   UNL     1       9.431  12.733   4.974  1.00  0.00     0.000 C 
BRANCH   4   5
ATOM      5  C   UNL     1       8.277  12.598   3.967  1.00  0.00     0.006 C 
BRANCH   5   6
ATOM      6  C   UNL     1       6.897  12.708   4.629  1.00  0.00     0.053 C 
BRANCH   6   7
ATOM      7  C   UNL     1       6.250  11.361   4.711  1.00  0.00     0.041 C 
ATOM      8  O   UNL     1       4.995  11.260   4.713  1.00  0.00    -0.550 OA
ATOM      9  O   UNL     1       7.032  10.220   4.836  1.00  0.00    -0.550 OA
ENDBRANCH   6   7
ENDBRANCH   5   6
ENDBRANCH   4   5
ENDBRANCH   3   4
ENDBRANCH   2   3
ENDBRANCH   1   2
BRANCH   1  10
ATOM     10  C   UNL     1       7.084  12.683   8.603  1.00  0.00     0.000 C 
BRANCH  10  11
ATOM     11  C   UNL     1       5.635  12.832   8.113  1.00  0.00    -0.000 C 
BRANCH  11  12
ATOM     12  C   UNL     1       4.619  12.844   9.269  1.00  0.00    -0.000 C 
BRANCH  12  13
ATOM     13  C   UNL     1       3.621  11.676   9.192  1.00  0.00    -0.000 C 
BRANCH  13  14
ATOM     14  C   UNL     1       4.136  10.410   9.899  1.00  0.00    -0.000 C 
BRANCH  14  15
ATOM     15  C   UNL     1       4.789   9.418   8.924  1.00  0.00    -0.003 C 
ATOM     16  C   UNL     1       4.139   9.431   7.541  1.00  0.00     0.004 C 
ENDBRANCH  14  15
ENDBRANCH  13  14
ENDBRANCH  12  13
ENDBRANCH  11  12
ENDBRANCH  10  11
ENDBRANCH   1  10
TORSDOF 12
ENDMDL
MODEL 8
REMARK VINA RESULT:    -4.024      2.035      5.702
REMARK INTER + INTRA:          -8.427
REMARK INTER:                  -7.526
REMARK INTRA:                  -0.901
REMARK UNBOUND:                -1.580
REMARK SMILES CCCCCCCCCCCCCC(=O)[O-]
REMARK SMILES IDX 8 1 9 2 10 3 11 4 12 5 13 6 14 7 15 8 16 9 7 10 6 11 5 12
REMARK SMILES IDX 4 13 3 14 2 15 1 16
REMARK H PARENT
REMARK Flexibility Score: inf
ROOT
ATOM      1  C   UNL     1       5.952  11.021   5.079  1.00  0.00     0.000 C 
ENDROOT
BRANCH   1   2
ATOM      2  C   UNL     1       5.966  12.425   4.456  1.00  0.00     0.000 C 
BRANCH   2   3
ATOM      3  C   UNL     1       7.335  13.117   4.578  1.00  0.00     0.000 C 
BRANCH   3   4
ATOM      4  C   UNL     1       8.499  12.113   4.644  1.00  0.00     0.000 C 
BRANCH   4   5
ATOM      5  C   UNL     1       9.460  12.403   5.810  1.00  0.00     0.006 C 
BRANCH   5   6
ATOM      6  C   UNL     1       8.751  13.025   7.020  1.00  0.00     0.053 C 
BRANCH   6   7
ATOM      7  C   UNL     1       8.062  11.965   7.822  1.00  0.00     0.041 C 
ATOM      8  O   UNL     1       7.233  12.284   8.714  1.00  0.00    -0.550 OA
ATOM      9  O   UNL     1       8.371  10.627   7.617  1.00  0.00    -0.550 OA
ENDBRANCH   6   7
ENDBRANCH   5   6
ENDBRANCH   4   5
ENDBRANCH   3   4
ENDBRANCH   2   3
ENDBRANCH   1   2
BRANCH   1  10
ATOM     10  C   UNL     1       4.847  10.906   6.142  1.00  0.00     0.000 C 
BRANCH  10  11
ATOM     11  C   UNL     1       5.118   9.788   7.162  1.00  0.00    -0.000 C 
BRANCH  11  12
ATOM     12  C   UNL     1       3.854   9.378   7.939  1.00  0.00    -0.000 C 
BRANCH  12  13
ATOM     13  C   UNL     1       2.868  10.544   8.119  1.00  0.00    -0.000 C 
BRANCH  13  14
ATOM     14  C   UNL     1       2.956  11.183   9.516  1.00  0.00    -0.000 C 
BRANCH  14  15
ATOM     15  C   UNL     1       1.573  11.405  10.149  1.00  0.00    -0.003 C 
ATOM     16  C   UNL     1       0.929  12.723   9.718  1.00  0.00     0.004 C 
ENDBRANCH  14  15
ENDBRANCH  13  14
ENDBRANCH  12  13
ENDBRANCH  11  12
ENDBRANCH  10  11
ENDBRANCH   1  10
TORSDOF 12
ENDMDL
MODEL 9
REMARK VINA RESULT:    -3.829      2.367      5.554
REMARK INTER + INTRA:          -8.094
REMARK INTER:                  -6.653
REMARK INTRA:                  -1.441
REMARK UNBOUND:                -1.580
REMARK SMILES CCCCCCCCCCCCCC(=O)[O-]
REMARK SMILES IDX 8 1 9 2 10 3 11 4 12 5 13 6 14 7 15 8 16 9 7 10 6 11 5 12
REMARK SMILES IDX 4 13 3 14 2 15 1 16
REMARK H PARENT
REMARK Flexibility Score: inf
ROOT
ATOM      1  C   UNL     1       6.141  10.195   6.332  1.00  0.00     0.000 C 
ENDROOT
BRANCH   1   2
ATOM      2  C   UNL     1       5.337  11.293   5.621  1.00  0.00     0.000 C 
BRANCH   2   3
ATOM      3  C   UNL     1       6.035  11.818   4.355  1.00  0.00     0.000 C 
BRANCH   3   4
ATOM      4  C   UNL     1       7.112  12.871   4.668  1.00  0.00     0.000 C 
BRANCH   4   5
ATOM      5  C   UNL     1       8.454  12.561   3.985  1.00  0.00     0.006 C 
BRANCH   5   6
ATOM      6  C   UNL     1       9.662  12.987   4.830  1.00  0.00     0.053 C 
BRANCH   6   7
ATOM      7  C   UNL     1       9.710  12.202   6.103  1.00  0.00     0.041 C 
ATOM      8  O   UNL     1       9.516  10.958   6.089  1.00  0.00    -0.550 OA
ATOM      9  O   UNL     1       9.920  12.851   7.313  1.00  0.00    -0.550 OA
ENDBRANCH   6   7
ENDBRANCH   5   6
ENDBRANCH   4   5
ENDBRANCH   3   4
ENDBRANCH   2   3
ENDBRANCH   1   2
BRANCH   1  10
ATOM     10  C   UNL     1       6.017  10.326   7.858  1.00  0.00     0.000 C 
BRANCH  10  11
ATOM     11  C   UNL     1       6.734  11.569   8.408  1.00  0.00    -0.000 C 
BRANCH  11  12
ATOM     12  C   UNL     1       5.838  12.405   9.339  1.00  0.00    -0.000 C 
BRANCH  12  13
ATOM     13  C   UNL     1       4.473  12.729   8.711  1.00  0.00    -0.000 C 
BRANCH  13  14
ATOM     14  C   UNL     1       3.298  12.415   9.654  1.00  0.00    -0.000 C 
BRANCH  14  15
ATOM     15  C   UNL     1       2.789  10.973   9.499  1.00  0.00    -0.003 C 
ATOM     16  C   UNL     1       2.540  10.586   8.041  1.00  0.00     0.004 C 
ENDBRANCH  14  15
ENDBRANCH  13  14
ENDBRANCH  12  13
ENDBRANCH  11  12
ENDBRANCH  10  11
ENDBRANCH   1  10
TORSDOF 12
ENDMDL
