MODEL 1
REMARK VINA RESULT:    -4.036      0.000      0.000
REMARK INTER + INTRA:         -12.390
REMARK INTER:                 -10.524
REMARK INTRA:                  -1.866
REMARK UNBOUND:                -1.866
REMARK SMILES CCCCCCCCCCCCCCCCCCCCCCCCCCCCCO
REMARK SMILES IDX 16 1 15 2 14 3 13 4 12 5 11 6 10 7 9 8 8 9 7 10 6 11 5 12
REMARK SMILES IDX 4 13 3 14 2 15 1 16 17 17 18 18 19 19 20 20 21 21 22 22
REMARK SMILES IDX 23 23 24 24 25 25 26 26 27 27 28 28 29 29 30 30
REMARK H PARENT 30 31
REMARK Flexibility Score: inf
ROOT
ATOM      1  C   UNL     1       3.650  28.716  13.284  1.00  0.00     0.000 C 
ENDROOT
BRANCH   1   2
ATOM      2  C   UNL     1       2.678  27.621  12.828  1.00  0.00     0.000 C 
BRANCH   2   3
ATOM      3  C   UNL     1       2.791  27.363  11.316  1.00  0.00     0.000 C 
BRANCH   3   4
ATOM      4  C   UNL     1       3.119  25.893  11.011  1.00  0.00     0.000 C 
BRANCH   4   5
ATOM      5  C   UNL     1       2.781  25.501   9.560  1.00  0.00     0.000 C 
BRANCH   5   6
ATOM      6  C   UNL     1       2.740  23.974   9.361  1.00  0.00     0.000 C 
BRANCH   6   7
ATOM      7  C   UNL     1       1.328  23.409   9.092  1.00  0.00     0.000 C 
BRANCH   7   8
ATOM      8  C   UNL     1       1.244  21.871   8.974  1.00  0.00    -0.000 C 
BRANCH   8   9
ATOM      9  C   UNL     1      -0.139  21.269   9.287  1.00  0.00    -0.000 C 
BRANCH   9  10
ATOM     10  C   UNL     1      -0.232  20.701  10.715  1.00  0.00    -0.000 C 
BRANCH  10  11
ATOM     11  C   UNL     1      -0.331  21.806  11.781  1.00  0.00    -0.000 C 
BRANCH  11  12
ATOM     12  C   UNL     1      -1.772  22.022  12.267  1.00  0.00    -0.000 C 
BRANCH  12  13
ATOM     13  C   UNL     1      -2.407  20.695  12.703  1.00  0.00    -0.000 C 
BRANCH  13  14
ATOM     14  C   UNL     1      -3.885  20.573  12.287  1.00  0.00    -0.000 C 
BRANCH  14  15
ATOM     15  C   UNL     1      -4.640  19.391  12.924  1.00  0.00    -0.003 C 
ATOM     16  C   UNL     1      -6.014  19.151  12.301  1.00  0.00     0.004 C 
ENDBRANCH  14  15
ENDBRANCH  13  14
ENDBRANCH  12  13
ENDBRANCH  11  12
ENDBRANCH  10  11
ENDBRANCH   9  10
ENDBRANCH   8   9
ENDBRANCH   7   8
ENDBRANCH   6   7
ENDBRANCH   5   6
ENDBRANCH   4   5
ENDBRANCH   3   4
ENDBRANCH   2   3
ENDBRANCH   1   2
BRANCH   1  17
ATOM     17  C   UNL     1       3.999  29.649  12.114  1.00  0.00     0.000 C 
BRANCH  17  18
ATOM     18  C   UNL     1       4.998  30.756  12.496  1.00  0.00     0.000 C 
BRANCH  18  19
ATOM     19  C   UNL     1       5.257  31.813  11.404  1.00  0.00     0.000 C 
BRANCH  19  20
ATOM     20  C   UNL     1       6.569  31.640  10.619  1.00  0.00     0.000 C 
BRANCH  20  21
ATOM     21  C   UNL     1       7.784  31.399  11.527  1.00  0.00     0.000 C 
BRANCH  21  22
ATOM     22  C   UNL     1       8.068  29.897  11.664  1.00  0.00     0.000 C 
BRANCH  22  23
ATOM     23  C   UNL     1       9.118  29.393  10.661  1.00  0.00     0.000 C 
BRANCH  23  24
ATOM     24  C   UNL     1       8.514  29.088   9.278  1.00  0.00     0.000 C 
BRANCH  24  25
ATOM     25  C   UNL     1       7.651  27.817   9.278  1.00  0.00     0.000 C 
BRANCH  25  26
ATOM     26  C   UNL     1       8.359  26.616   9.930  1.00  0.00     0.000 C 
BRANCH  26  27
ATOM     27  C   UNL     1       8.003  25.285   9.233  1.00  0.00     0.002 C 
BRANCH  27  28
ATOM     28  C   UNL     1       6.503  24.945   9.287  1.00  0.00     0.028 C 
BRANCH  28  29
ATOM     29  C   UNL     1       6.182  23.790  10.238  1.00  0.00     0.156 C 
BRANCH  29  30
ATOM     30  O   UNL     1       6.219  24.252  11.558  1.00  0.00    -0.396 OA
ATOM     31  H   UNL     1       6.797  23.620  12.058  1.00  0.00     0.210 HD
ENDBRANCH  29  30
ENDBRANCH  28  29
ENDBRANCH  27  28
ENDBRANCH  26  27
ENDBRANCH  25  26
ENDBRANCH  24  25
ENDBRANCH  23  24
ENDBRANCH  22  23
ENDBRANCH  21  22
ENDBRANCH  20  21
ENDBRANCH  19  20
ENDBRANCH  18  19
ENDBRANCH  17  18
ENDBRANCH   1  17
TORSDOF 28
ENDMDL
MODEL 2
REMARK VINA RESULT:    -3.554      1.460      3.244
REMARK INTER + INTRA:         -11.133
REMARK INTER:                  -8.628
REMARK INTRA:                  -2.505
REMARK UNBOUND:                -1.866
REMARK SMILES CCCCCCCCCCCCCCCCCCCCCCCCCCCCCO
REMARK SMILES IDX 16 1 15 2 14 3 13 4 12 5 11 6 10 7 9 8 8 9 7 10 6 11 5 12
REMARK SMILES IDX 4 13 3 14 2 15 1 16 17 17 18 18 19 19 20 20 21 21 22 22
REMARK SMILES IDX 23 23 24 24 25 25 26 26 27 27 28 28 29 29 30 30
REMARK H PARENT 30 31
REMARK Flexibility Score: inf
ROOT
ATOM      1  C   UNL     1       3.676  27.693  11.366  1.00  0.00     0.000 C 
ENDROOT
BRANCH   1   2
ATOM      2  C   UNL     1       3.777  26.698  10.205  1.00  0.00     0.000 C 
BRANCH   2   3
ATOM      3  C   UNL     1       3.918  25.253  10.713  1.00  0.00     0.000 C 
BRANCH   3   4
ATOM      4  C   UNL     1       3.161  24.258   9.819  1.00  0.00     0.000 C 
BRANCH   4   5
ATOM      5  C   UNL     1       1.952  24.899   9.113  1.00  0.00     0.000 C 
BRANCH   5   6
ATOM      6  C   UNL     1       0.810  23.892   8.875  1.00  0.00     0.000 C 
BRANCH   6   7
ATOM      7  C   UNL     1       1.143  22.447   9.302  1.00  0.00     0.000 C 
BRANCH   7   8
ATOM      8  C   UNL     1       0.191  21.833  10.351  1.00  0.00    -0.000 C 
BRANCH   8   9
ATOM      9  C   UNL     1       0.029  22.655  11.644  1.00  0.00    -0.000 C 
BRANCH   9  10
ATOM     10  C   UNL     1      -1.356  22.474  12.294  1.00  0.00    -0.000 C 
BRANCH  10  11
ATOM     11  C   UNL     1      -2.103  21.244  11.751  1.00  0.00    -0.000 C 
BRANCH  11  12
ATOM     12  C   UNL     1      -3.470  21.046  12.424  1.00  0.00    -0.000 C 
BRANCH  12  13
ATOM     13  C   UNL     1      -3.699  19.569  12.772  1.00  0.00    -0.000 C 
BRANCH  13  14
ATOM     14  C   UNL     1      -5.150  19.272  13.194  1.00  0.00    -0.000 C 
BRANCH  14  15
ATOM     15  C   UNL     1      -6.195  19.436  12.075  1.00  0.00    -0.003 C 
ATOM     16  C   UNL     1      -5.694  18.964  10.711  1.00  0.00     0.004 C 
ENDBRANCH  14  15
ENDBRANCH  13  14
ENDBRANCH  12  13
ENDBRANCH  11  12
ENDBRANCH  10  11
ENDBRANCH   9  10
ENDBRANCH   8   9
ENDBRANCH   7   8
ENDBRANCH   6   7
ENDBRANCH   5   6
ENDBRANCH   4   5
ENDBRANCH   3   4
ENDBRANCH   2   3
ENDBRANCH   1   2
BRANCH   1  17
ATOM     17  C   UNL     1       2.515  27.318  12.300  1.00  0.00     0.000 C 
BRANCH  17  18
ATOM     18  C   UNL     1       2.174  28.419  13.321  1.00  0.00     0.000 C 
BRANCH  18  19
ATOM     19  C   UNL     1       1.246  29.534  12.798  1.00  0.00     0.000 C 
BRANCH  19  20
ATOM     20  C   UNL     1       1.961  30.779  12.243  1.00  0.00     0.000 C 
BRANCH  20  21
ATOM     21  C   UNL     1       1.871  30.889  10.713  1.00  0.00     0.000 C 
BRANCH  21  22
ATOM     22  C   UNL     1       2.736  32.050  10.203  1.00  0.00     0.000 C 
BRANCH  22  23
ATOM     23  C   UNL     1       3.914  31.580   9.334  1.00  0.00     0.000 C 
BRANCH  23  24
ATOM     24  C   UNL     1       5.238  31.524  10.116  1.00  0.00     0.000 C 
BRANCH  24  25
ATOM     25  C   UNL     1       6.301  30.662   9.418  1.00  0.00     0.000 C 
BRANCH  25  26
ATOM     26  C   UNL     1       6.839  29.535  10.317  1.00  0.00     0.000 C 
BRANCH  26  27
ATOM     27  C   UNL     1       7.166  28.259   9.512  1.00  0.00     0.002 C 
BRANCH  27  28
ATOM     28  C   UNL     1       8.369  27.475  10.063  1.00  0.00     0.028 C 
BRANCH  28  29
ATOM     29  C   UNL     1       8.440  26.038   9.542  1.00  0.00     0.156 C 
BRANCH  29  30
ATOM     30  O   UNL     1       7.395  25.291  10.098  1.00  0.00    -0.396 OA
ATOM     31  H   UNL     1       7.467  24.381   9.709  1.00  0.00     0.210 HD
ENDBRANCH  29  30
ENDBRANCH  28  29
ENDBRANCH  27  28
ENDBRANCH  26  27
ENDBRANCH  25  26
ENDBRANCH  24  25
ENDBRANCH  23  24
ENDBRANCH  22  23
ENDBRANCH  21  22
ENDBRANCH  20  21
ENDBRANCH  19  20
ENDBRANCH  18  19
ENDBRANCH  17  18
ENDBRANCH   1  17
TORSDOF 28
ENDMDL
MODEL 3
REMARK VINA RESULT:    -3.254      1.407      2.019
REMARK INTER + INTRA:         -10.351
REMARK INTER:                  -8.038
REMARK INTRA:                  -2.313
REMARK UNBOUND:                -1.866
REMARK SMILES CCCCCCCCCCCCCCCCCCCCCCCCCCCCCO
REMARK SMILES IDX 16 1 15 2 14 3 13 4 12 5 11 6 10 7 9 8 8 9 7 10 6 11 5 12
REMARK SMILES IDX 4 13 3 14 2 15 1 16 17 17 18 18 19 19 20 20 21 21 22 22
REMARK SMILES IDX 23 23 24 24 25 25 26 26 27 27 28 28 29 29 30 30
REMARK H PARENT 30 31
REMARK Flexibility Score: inf
ROOT
ATOM      1  C   UNL     1       3.148  28.785  12.364  1.00  0.00     0.000 C 
ENDROOT
BRANCH   1   2
ATOM      2  C   UNL     1       3.160  27.252  12.381  1.00  0.00     0.000 C 
BRANCH   2   3
ATOM      3  C   UNL     1       1.755  26.676  12.134  1.00  0.00     0.000 C 
BRANCH   3   4
ATOM      4  C   UNL     1       1.677  25.918  10.798  1.00  0.00     0.000 C 
BRANCH   4   5
ATOM      5  C   UNL     1       2.728  24.798  10.692  1.00  0.00     0.000 C 
BRANCH   5   6
ATOM      6  C   UNL     1       2.376  23.765   9.605  1.00  0.00     0.000 C 
BRANCH   6   7
ATOM      7  C   UNL     1       0.881  23.383   9.555  1.00  0.00     0.000 C 
BRANCH   7   8
ATOM      8  C   UNL     1       0.146  23.414  10.913  1.00  0.00    -0.000 C 
BRANCH   8   9
ATOM      9  C   UNL     1       0.174  22.089  11.699  1.00  0.00    -0.000 C 
BRANCH   9  10
ATOM     10  C   UNL     1      -0.482  20.928  10.929  1.00  0.00    -0.000 C 
BRANCH  10  11
ATOM     11  C   UNL     1      -2.007  20.879  11.127  1.00  0.00    -0.000 C 
BRANCH  11  12
ATOM     12  C   UNL     1      -2.437  21.432  12.495  1.00  0.00    -0.000 C 
BRANCH  12  13
ATOM     13  C   UNL     1      -3.776  20.824  12.933  1.00  0.00    -0.000 C 
BRANCH  13  14
ATOM     14  C   UNL     1      -4.275  19.724  11.977  1.00  0.00    -0.000 C 
BRANCH  14  15
ATOM     15  C   UNL     1      -5.715  19.244  12.240  1.00  0.00    -0.003 C 
ATOM     16  C   UNL     1      -5.922  18.713  13.658  1.00  0.00     0.004 C 
ENDBRANCH  14  15
ENDBRANCH  13  14
ENDBRANCH  12  13
ENDBRANCH  11  12
ENDBRANCH  10  11
ENDBRANCH   9  10
ENDBRANCH   8   9
ENDBRANCH   7   8
ENDBRANCH   6   7
ENDBRANCH   5   6
ENDBRANCH   4   5
ENDBRANCH   3   4
ENDBRANCH   2   3
ENDBRANCH   1   2
BRANCH   1  17
ATOM     17  C   UNL     1       1.712  29.315  12.505  1.00  0.00     0.000 C 
BRANCH  17  18
ATOM     18  C   UNL     1       1.597  30.832  12.266  1.00  0.00     0.000 C 
BRANCH  18  19
ATOM     19  C   UNL     1       1.900  31.295  10.826  1.00  0.00     0.000 C 
BRANCH  19  20
ATOM     20  C   UNL     1       3.241  32.027  10.639  1.00  0.00     0.000 C 
BRANCH  20  21
ATOM     21  C   UNL     1       4.307  31.158   9.953  1.00  0.00     0.000 C 
BRANCH  21  22
ATOM     22  C   UNL     1       5.678  31.364  10.612  1.00  0.00     0.000 C 
BRANCH  22  23
ATOM     23  C   UNL     1       6.493  30.065  10.712  1.00  0.00     0.000 C 
BRANCH  23  24
ATOM     24  C   UNL     1       7.280  29.762   9.425  1.00  0.00     0.000 C 
BRANCH  24  25
ATOM     25  C   UNL     1       6.996  28.356   8.876  1.00  0.00     0.000 C 
BRANCH  25  26
ATOM     26  C   UNL     1       5.849  27.647   9.618  1.00  0.00     0.000 C 
BRANCH  26  27
ATOM     27  C   UNL     1       5.695  26.176   9.176  1.00  0.00     0.002 C 
BRANCH  27  28
ATOM     28  C   UNL     1       6.887  25.287   9.569  1.00  0.00     0.028 C 
BRANCH  28  29
ATOM     29  C   UNL     1       6.465  23.977  10.238  1.00  0.00     0.156 C 
BRANCH  29  30
ATOM     30  O   UNL     1       5.912  24.254  11.493  1.00  0.00    -0.396 OA
ATOM     31  H   UNL     1       6.604  24.756  11.997  1.00  0.00     0.210 HD
ENDBRANCH  29  30
ENDBRANCH  28  29
ENDBRANCH  27  28
ENDBRANCH  26  27
ENDBRANCH  25  26
ENDBRANCH  24  25
ENDBRANCH  23  24
ENDBRANCH  22  23
ENDBRANCH  21  22
ENDBRANCH  20  21
ENDBRANCH  19  20
ENDBRANCH  18  19
ENDBRANCH  17  18
ENDBRANCH   1  17
TORSDOF 28
ENDMDL
MODEL 4
REMARK VINA RESULT:    -3.187      1.412      3.928
REMARK INTER + INTRA:         -10.176
REMARK INTER:                  -8.447
REMARK INTRA:                  -1.729
REMARK UNBOUND:                -1.866
REMARK SMILES CCCCCCCCCCCCCCCCCCCCCCCCCCCCCO
REMARK SMILES IDX 16 1 15 2 14 3 13 4 12 5 11 6 10 7 9 8 8 9 7 10 6 11 5 12
REMARK SMILES IDX 4 13 3 14 2 15 1 16 17 17 18 18 19 19 20 20 21 21 22 22
REMARK SMILES IDX 23 23 24 24 25 25 26 26 27 27 28 28 29 29 30 30
REMARK H PARENT 30 31
REMARK Flexibility Score: inf
ROOT
ATOM      1  C   UNL     1       5.595  25.384   9.909  1.00  0.00     0.000 C 
ENDROOT
BRANCH   1   2
ATOM      2  C   UNL     1       4.458  26.113   9.184  1.00  0.00     0.000 C 
BRANCH   2   3
ATOM      3  C   UNL     1       3.287  25.164   8.878  1.00  0.00     0.000 C 
BRANCH   3   4
ATOM      4  C   UNL     1       2.223  25.197   9.987  1.00  0.00     0.000 C 
BRANCH   4   5
ATOM      5  C   UNL     1       1.140  24.117   9.799  1.00  0.00     0.000 C 
BRANCH   5   6
ATOM      6  C   UNL     1       1.685  22.858   9.098  1.00  0.00     0.000 C 
BRANCH   6   7
ATOM      7  C   UNL     1       0.632  21.751   8.877  1.00  0.00     0.000 C 
BRANCH   7   8
ATOM      8  C   UNL     1       0.425  20.790  10.068  1.00  0.00    -0.000 C 
BRANCH   8   9
ATOM      9  C   UNL     1       0.026  21.469  11.392  1.00  0.00    -0.000 C 
BRANCH   9  10
ATOM     10  C   UNL     1      -1.269  20.890  11.991  1.00  0.00    -0.000 C 
BRANCH  10  11
ATOM     11  C   UNL     1      -1.958  21.868  12.958  1.00  0.00    -0.000 C 
BRANCH  11  12
ATOM     12  C   UNL     1      -3.489  21.747  12.919  1.00  0.00    -0.000 C 
BRANCH  12  13
ATOM     13  C   UNL     1      -3.917  20.444  12.232  1.00  0.00    -0.000 C 
BRANCH  13  14
ATOM     14  C   UNL     1      -4.764  19.536  13.145  1.00  0.00    -0.000 C 
BRANCH  14  15
ATOM     15  C   UNL     1      -5.887  18.765  12.427  1.00  0.00    -0.003 C 
ATOM     16  C   UNL     1      -6.128  19.246  10.998  1.00  0.00     0.004 C 
ENDBRANCH  14  15
ENDBRANCH  13  14
ENDBRANCH  12  13
ENDBRANCH  11  12
ENDBRANCH  10  11
ENDBRANCH   9  10
ENDBRANCH   8   9
ENDBRANCH   7   8
ENDBRANCH   6   7
ENDBRANCH   5   6
ENDBRANCH   4   5
ENDBRANCH   3   4
ENDBRANCH   2   3
ENDBRANCH   1   2
BRANCH   1  17
ATOM     17  C   UNL     1       6.845  25.309   9.018  1.00  0.00     0.000 C 
BRANCH  17  18
ATOM     18  C   UNL     1       7.998  26.202   9.511  1.00  0.00     0.000 C 
BRANCH  18  19
ATOM     19  C   UNL     1       7.803  27.714   9.279  1.00  0.00     0.000 C 
BRANCH  19  20
ATOM     20  C   UNL     1       9.047  28.584   9.532  1.00  0.00     0.000 C 
BRANCH  20  21
ATOM     21  C   UNL     1       9.011  29.303  10.889  1.00  0.00     0.000 C 
BRANCH  21  22
ATOM     22  C   UNL     1       8.342  30.679  10.754  1.00  0.00     0.000 C 
BRANCH  22  23
ATOM     23  C   UNL     1       6.874  30.588  10.306  1.00  0.00     0.000 C 
BRANCH  23  24
ATOM     24  C   UNL     1       5.891  30.973  11.425  1.00  0.00     0.000 C 
BRANCH  24  25
ATOM     25  C   UNL     1       5.171  29.755  12.024  1.00  0.00     0.000 C 
BRANCH  25  26
ATOM     26  C   UNL     1       4.036  29.233  11.124  1.00  0.00     0.000 C 
BRANCH  26  27
ATOM     27  C   UNL     1       3.071  28.304  11.892  1.00  0.00     0.002 C 
BRANCH  27  28
ATOM     28  C   UNL     1       2.125  29.054  12.846  1.00  0.00     0.028 C 
BRANCH  28  29
ATOM     29  C   UNL     1       2.182  28.532  14.283  1.00  0.00     0.156 C 
BRANCH  29  30
ATOM     30  O   UNL     1       2.475  27.164  14.268  1.00  0.00    -0.396 OA
ATOM     31  H   UNL     1       2.833  26.967  13.364  1.00  0.00     0.210 HD
ENDBRANCH  29  30
ENDBRANCH  28  29
ENDBRANCH  27  28
ENDBRANCH  26  27
ENDBRANCH  25  26
ENDBRANCH  24  25
ENDBRANCH  23  24
ENDBRANCH  22  23
ENDBRANCH  21  22
ENDBRANCH  20  21
ENDBRANCH  19  20
ENDBRANCH  18  19
ENDBRANCH  17  18
ENDBRANCH   1  17
TORSDOF 28
ENDMDL
MODEL 5
REMARK VINA RESULT:    -3.163      2.494      8.711
REMARK INTER + INTRA:         -10.114
REMARK INTER:                  -7.740
REMARK INTRA:                  -2.374
REMARK UNBOUND:                -1.866
REMARK SMILES CCCCCCCCCCCCCCCCCCCCCCCCCCCCCO
REMARK SMILES IDX 16 1 15 2 14 3 13 4 12 5 11 6 10 7 9 8 8 9 7 10 6 11 5 12
REMARK SMILES IDX 4 13 3 14 2 15 1 16 17 17 18 18 19 19 20 20 21 21 22 22
REMARK SMILES IDX 23 23 24 24 25 25 26 26 27 27 28 28 29 29 30 30
REMARK H PARENT 30 31
REMARK Flexibility Score: inf
ROOT
ATOM      1  C   UNL     1       1.288  31.051  12.096  1.00  0.00     0.000 C 
ENDROOT
BRANCH   1   2
ATOM      2  C   UNL     1       2.227  32.049  11.408  1.00  0.00     0.000 C 
BRANCH   2   3
ATOM      3  C   UNL     1       3.086  31.363  10.333  1.00  0.00     0.000 C 
BRANCH   3   4
ATOM      4  C   UNL     1       4.451  32.052  10.168  1.00  0.00     0.000 C 
BRANCH   4   5
ATOM      5  C   UNL     1       5.461  31.186   9.393  1.00  0.00     0.000 C 
BRANCH   5   6
ATOM      6  C   UNL     1       6.667  30.776  10.259  1.00  0.00     0.000 C 
BRANCH   6   7
ATOM      7  C   UNL     1       6.935  29.256  10.292  1.00  0.00     0.000 C 
BRANCH   7   8
ATOM      8  C   UNL     1       8.115  28.774   9.420  1.00  0.00    -0.000 C 
BRANCH   8   9
ATOM      9  C   UNL     1       9.125  27.859  10.139  1.00  0.00    -0.000 C 
BRANCH   9  10
ATOM     10  C   UNL     1       9.050  26.398   9.656  1.00  0.00    -0.000 C 
BRANCH  10  11
ATOM     11  C   UNL     1       7.724  26.082   8.945  1.00  0.00    -0.000 C 
BRANCH  11  12
ATOM     12  C   UNL     1       7.242  24.648   9.217  1.00  0.00    -0.000 C 
BRANCH  12  13
ATOM     13  C   UNL     1       5.732  24.622   9.491  1.00  0.00    -0.000 C 
BRANCH  13  14
ATOM     14  C   UNL     1       5.160  26.013   9.820  1.00  0.00    -0.000 C 
BRANCH  14  15
ATOM     15  C   UNL     1       4.041  26.492   8.876  1.00  0.00    -0.003 C 
ATOM     16  C   UNL     1       3.852  28.008   8.889  1.00  0.00     0.004 C 
ENDBRANCH  14  15
ENDBRANCH  13  14
ENDBRANCH  12  13
ENDBRANCH  11  12
ENDBRANCH  10  11
ENDBRANCH   9  10
ENDBRANCH   8   9
ENDBRANCH   7   8
ENDBRANCH   6   7
ENDBRANCH   5   6
ENDBRANCH   4   5
ENDBRANCH   3   4
ENDBRANCH   2   3
ENDBRANCH   1   2
BRANCH   1  17
ATOM     17  C   UNL     1       1.824  29.618  11.951  1.00  0.00     0.000 C 
BRANCH  17  18
ATOM     18  C   UNL     1       2.877  29.251  13.012  1.00  0.00     0.000 C 
BRANCH  18  19
ATOM     19  C   UNL     1       2.474  28.115  13.973  1.00  0.00     0.000 C 
BRANCH  19  20
ATOM     20  C   UNL     1       2.752  26.690  13.461  1.00  0.00     0.000 C 
BRANCH  20  21
ATOM     21  C   UNL     1       2.561  26.551  11.943  1.00  0.00     0.000 C 
BRANCH  21  22
ATOM     22  C   UNL     1       2.346  25.081  11.557  1.00  0.00     0.000 C 
BRANCH  22  23
ATOM     23  C   UNL     1       1.009  24.842  10.838  1.00  0.00     0.000 C 
BRANCH  23  24
ATOM     24  C   UNL     1       1.154  23.920   9.614  1.00  0.00     0.000 C 
BRANCH  24  25
ATOM     25  C   UNL     1       0.441  22.572   9.801  1.00  0.00     0.000 C 
BRANCH  25  26
ATOM     26  C   UNL     1       0.083  22.287  11.271  1.00  0.00     0.000 C 
BRANCH  26  27
ATOM     27  C   UNL     1      -1.131  21.342  11.398  1.00  0.00     0.002 C 
BRANCH  27  28
ATOM     28  C   UNL     1      -1.824  21.411  12.770  1.00  0.00     0.028 C 
BRANCH  28  29
ATOM     29  C   UNL     1      -3.160  20.666  12.807  1.00  0.00     0.156 C 
BRANCH  29  30
ATOM     30  O   UNL     1      -3.725  20.664  11.528  1.00  0.00    -0.396 OA
ATOM     31  H   UNL     1      -3.977  21.603  11.334  1.00  0.00     0.210 HD
ENDBRANCH  29  30
ENDBRANCH  28  29
ENDBRANCH  27  28
ENDBRANCH  26  27
ENDBRANCH  25  26
ENDBRANCH  24  25
ENDBRANCH  23  24
ENDBRANCH  22  23
ENDBRANCH  21  22
ENDBRANCH  20  21
ENDBRANCH  19  20
ENDBRANCH  18  19
ENDBRANCH  17  18
ENDBRANCH   1  17
TORSDOF 28
ENDMDL
MODEL 6
REMARK VINA RESULT:    -3.075      2.413      9.739
REMARK INTER + INTRA:          -9.884
REMARK INTER:                  -8.614
REMARK INTRA:                  -1.270
REMARK UNBOUND:                -1.866
REMARK SMILES CCCCCCCCCCCCCCCCCCCCCCCCCCCCCO
REMARK SMILES IDX 16 1 15 2 14 3 13 4 12 5 11 6 10 7 9 8 8 9 7 10 6 11 5 12
REMARK SMILES IDX 4 13 3 14 2 15 1 16 17 17 18 18 19 19 20 20 21 21 22 22
REMARK SMILES IDX 23 23 24 24 25 25 26 26 27 27 28 28 29 29 30 30
REMARK H PARENT 30 31
REMARK Flexibility Score: inf
ROOT
ATOM      1  C   UNL     1       2.686  28.518  11.585  1.00  0.00     0.000 C 
ENDROOT
BRANCH   1   2
ATOM      2  C   UNL     1       3.639  29.640  12.011  1.00  0.00     0.000 C 
BRANCH   2   3
ATOM      3  C   UNL     1       3.659  30.782  10.981  1.00  0.00     0.000 C 
BRANCH   3   4
ATOM      4  C   UNL     1       4.708  31.850  11.333  1.00  0.00     0.000 C 
BRANCH   4   5
ATOM      5  C   UNL     1       5.632  31.412  12.485  1.00  0.00     0.000 C 
BRANCH   5   6
ATOM      6  C   UNL     1       7.006  32.107  12.430  1.00  0.00     0.000 C 
BRANCH   6   7
ATOM      7  C   UNL     1       8.072  31.338  11.620  1.00  0.00     0.000 C 
BRANCH   7   8
ATOM      8  C   UNL     1       7.526  30.481  10.457  1.00  0.00    -0.000 C 
BRANCH   8   9
ATOM      9  C   UNL     1       8.479  29.378   9.958  1.00  0.00    -0.000 C 
BRANCH   9  10
ATOM     10  C   UNL     1       7.818  28.442   8.930  1.00  0.00    -0.000 C 
BRANCH  10  11
ATOM     11  C   UNL     1       6.350  28.137   9.272  1.00  0.00    -0.000 C 
BRANCH  11  12
ATOM     12  C   UNL     1       5.941  26.710   8.876  1.00  0.00    -0.000 C 
BRANCH  12  13
ATOM     13  C   UNL     1       5.462  25.919  10.100  1.00  0.00    -0.000 C 
BRANCH  13  14
ATOM     14  C   UNL     1       5.719  24.405   9.972  1.00  0.00    -0.000 C 
BRANCH  14  15
ATOM     15  C   UNL     1       6.927  24.027   9.095  1.00  0.00    -0.003 C 
ATOM     16  C   UNL     1       8.065  25.042   9.170  1.00  0.00     0.004 C 
ENDBRANCH  14  15
ENDBRANCH  13  14
ENDBRANCH  12  13
ENDBRANCH  11  12
ENDBRANCH  10  11
ENDBRANCH   9  10
ENDBRANCH   8   9
ENDBRANCH   7   8
ENDBRANCH   6   7
ENDBRANCH   5   6
ENDBRANCH   4   5
ENDBRANCH   3   4
ENDBRANCH   2   3
ENDBRANCH   1   2
BRANCH   1  17
ATOM     17  C   UNL     1       2.967  27.237  12.386  1.00  0.00     0.000 C 
BRANCH  17  18
ATOM     18  C   UNL     1       1.793  26.242  12.375  1.00  0.00     0.000 C 
BRANCH  18  19
ATOM     19  C   UNL     1       1.920  25.087  11.360  1.00  0.00     0.000 C 
BRANCH  19  20
ATOM     20  C   UNL     1       2.196  25.515   9.908  1.00  0.00     0.000 C 
BRANCH  20  21
ATOM     21  C   UNL     1       2.151  24.342   8.918  1.00  0.00     0.000 C 
BRANCH  21  22
ATOM     22  C   UNL     1       0.979  23.405   9.242  1.00  0.00     0.000 C 
BRANCH  22  23
ATOM     23  C   UNL     1       1.406  21.934   9.366  1.00  0.00     0.000 C 
BRANCH  23  24
ATOM     24  C   UNL     1       0.227  20.960   9.195  1.00  0.00     0.000 C 
BRANCH  24  25
ATOM     25  C   UNL     1      -0.303  20.433  10.537  1.00  0.00     0.000 C 
BRANCH  25  26
ATOM     26  C   UNL     1      -0.934  21.537  11.404  1.00  0.00     0.000 C 
BRANCH  26  27
ATOM     27  C   UNL     1      -1.700  20.957  12.612  1.00  0.00     0.002 C 
BRANCH  27  28
ATOM     28  C   UNL     1      -3.228  21.094  12.495  1.00  0.00     0.028 C 
BRANCH  28  29
ATOM     29  C   UNL     1      -3.957  19.748  12.529  1.00  0.00     0.156 C 
BRANCH  29  30
ATOM     30  O   UNL     1      -4.895  19.703  11.492  1.00  0.00    -0.396 OA
ATOM     31  H   UNL     1      -5.149  18.749  11.389  1.00  0.00     0.210 HD
ENDBRANCH  29  30
ENDBRANCH  28  29
ENDBRANCH  27  28
ENDBRANCH  26  27
ENDBRANCH  25  26
ENDBRANCH  24  25
ENDBRANCH  23  24
ENDBRANCH  22  23
ENDBRANCH  21  22
ENDBRANCH  20  21
ENDBRANCH  19  20
ENDBRANCH  18  19
ENDBRANCH  17  18
ENDBRANCH   1  17
TORSDOF 28
ENDMDL
MODEL 7
REMARK VINA RESULT:    -2.994      1.620      3.235
REMARK INTER + INTRA:          -9.674
REMARK INTER:                  -7.716
REMARK INTRA:                  -1.958
REMARK UNBOUND:                -1.866
REMARK SMILES CCCCCCCCCCCCCCCCCCCCCCCCCCCCCO
REMARK SMILES IDX 16 1 15 2 14 3 13 4 12 5 11 6 10 7 9 8 8 9 7 10 6 11 5 12
REMARK SMILES IDX 4 13 3 14 2 15 1 16 17 17 18 18 19 19 20 20 21 21 22 22
REMARK SMILES IDX 23 23 24 24 25 25 26 26 27 27 28 28 29 29 30 30
REMARK H PARENT 30 31
REMARK Flexibility Score: inf
ROOT
ATOM      1  C   UNL     1       2.402  30.789   9.136  1.00  0.00     0.000 C 
ENDROOT
BRANCH   1   2
ATOM      2  C   UNL     1       3.823  30.243   8.952  1.00  0.00     0.000 C 
BRANCH   2   3
ATOM      3  C   UNL     1       3.830  28.706   8.886  1.00  0.00     0.000 C 
BRANCH   3   4
ATOM      4  C   UNL     1       4.108  28.078  10.261  1.00  0.00     0.000 C 
BRANCH   4   5
ATOM      5  C   UNL     1       2.832  27.538  10.932  1.00  0.00     0.000 C 
BRANCH   5   6
ATOM      6  C   UNL     1       3.131  26.414  11.942  1.00  0.00     0.000 C 
BRANCH   6   7
ATOM      7  C   UNL     1       2.894  24.991  11.393  1.00  0.00     0.000 C 
BRANCH   7   8
ATOM      8  C   UNL     1       3.310  24.773   9.922  1.00  0.00    -0.000 C 
BRANCH   8   9
ATOM      9  C   UNL     1       2.237  25.145   8.880  1.00  0.00    -0.000 C 
BRANCH   9  10
ATOM     10  C   UNL     1       0.933  24.345   9.059  1.00  0.00    -0.000 C 
BRANCH  10  11
ATOM     11  C   UNL     1       1.098  23.162  10.027  1.00  0.00    -0.000 C 
BRANCH  11  12
ATOM     12  C   UNL     1       0.657  21.829   9.403  1.00  0.00    -0.000 C 
BRANCH  12  13
ATOM     13  C   UNL     1      -0.251  21.049  10.365  1.00  0.00    -0.000 C 
BRANCH  13  14
ATOM     14  C   UNL     1      -0.951  21.956  11.394  1.00  0.00    -0.000 C 
BRANCH  14  15
ATOM     15  C   UNL     1      -1.563  21.215  12.598  1.00  0.00    -0.003 C 
ATOM     16  C   UNL     1      -3.002  20.764  12.357  1.00  0.00     0.004 C 
ENDBRANCH  14  15
ENDBRANCH  13  14
ENDBRANCH  12  13
ENDBRANCH  11  12
ENDBRANCH  10  11
ENDBRANCH   9  10
ENDBRANCH   8   9
ENDBRANCH   7   8
ENDBRANCH   6   7
ENDBRANCH   5   6
ENDBRANCH   4   5
ENDBRANCH   3   4
ENDBRANCH   2   3
ENDBRANCH   1   2
BRANCH   1  17
ATOM     17  C   UNL     1       1.994  30.745  10.616  1.00  0.00     0.000 C 
BRANCH  17  18
ATOM     18  C   UNL     1       2.503  31.951  11.425  1.00  0.00     0.000 C 
BRANCH  18  19
ATOM     19  C   UNL     1       4.026  31.986  11.664  1.00  0.00     0.000 C 
BRANCH  19  20
ATOM     20  C   UNL     1       4.588  30.816  12.492  1.00  0.00     0.000 C 
BRANCH  20  21
ATOM     21  C   UNL     1       6.118  30.701  12.406  1.00  0.00     0.000 C 
BRANCH  21  22
ATOM     22  C   UNL     1       6.656  31.513  11.219  1.00  0.00     0.000 C 
BRANCH  22  23
ATOM     23  C   UNL     1       8.115  31.958  11.411  1.00  0.00     0.000 C 
BRANCH  23  24
ATOM     24  C   UNL     1       9.120  30.966  10.798  1.00  0.00     0.000 C 
BRANCH  24  25
ATOM     25  C   UNL     1       8.888  30.744   9.296  1.00  0.00     0.000 C 
BRANCH  25  26
ATOM     26  C   UNL     1       8.869  29.255   8.910  1.00  0.00     0.000 C 
BRANCH  26  27
ATOM     27  C   UNL     1       7.571  28.555   9.368  1.00  0.00     0.002 C 
BRANCH  27  28
ATOM     28  C   UNL     1       7.450  27.101   8.881  1.00  0.00     0.028 C 
BRANCH  28  29
ATOM     29  C   UNL     1       8.547  26.188   9.435  1.00  0.00     0.156 C 
BRANCH  29  30
ATOM     30  O   UNL     1       8.088  24.867   9.446  1.00  0.00    -0.396 OA
ATOM     31  H   UNL     1       7.256  24.867   9.987  1.00  0.00     0.210 HD
ENDBRANCH  29  30
ENDBRANCH  28  29
ENDBRANCH  27  28
ENDBRANCH  26  27
ENDBRANCH  25  26
ENDBRANCH  24  25
ENDBRANCH  23  24
ENDBRANCH  22  23
ENDBRANCH  21  22
ENDBRANCH  20  21
ENDBRANCH  19  20
ENDBRANCH  18  19
ENDBRANCH  17  18
ENDBRANCH   1  17
TORSDOF 28
ENDMDL
MODEL 8
REMARK VINA RESULT:    -2.971      3.002     11.540
REMARK INTER + INTRA:          -9.614
REMARK INTER:                  -8.440
REMARK INTRA:                  -1.174
REMARK UNBOUND:                -1.866
REMARK SMILES CCCCCCCCCCCCCCCCCCCCCCCCCCCCCO
REMARK SMILES IDX 16 1 15 2 14 3 13 4 12 5 11 6 10 7 9 8 8 9 7 10 6 11 5 12
REMARK SMILES IDX 4 13 3 14 2 15 1 16 17 17 18 18 19 19 20 20 21 21 22 22
REMARK SMILES IDX 23 23 24 24 25 25 26 26 27 27 28 28 29 29 30 30
REMARK H PARENT 30 31
REMARK Flexibility Score: inf
ROOT
ATOM      1  C   UNL     1       2.323  26.044  12.287  1.00  0.00     0.000 C 
ENDROOT
BRANCH   1   2
ATOM      2  C   UNL     1       3.071  27.348  11.983  1.00  0.00     0.000 C 
BRANCH   2   3
ATOM      3  C   UNL     1       2.634  28.480  12.928  1.00  0.00     0.000 C 
BRANCH   3   4
ATOM      4  C   UNL     1       1.491  29.315  12.327  1.00  0.00     0.000 C 
BRANCH   4   5
ATOM      5  C   UNL     1       1.938  30.738  11.946  1.00  0.00     0.000 C 
BRANCH   5   6
ATOM      6  C   UNL     1       3.402  30.785  11.467  1.00  0.00     0.000 C 
BRANCH   6   7
ATOM      7  C   UNL     1       4.117  32.124  11.746  1.00  0.00     0.000 C 
BRANCH   7   8
ATOM      8  C   UNL     1       5.274  32.056  12.766  1.00  0.00    -0.000 C 
BRANCH   8   9
ATOM      9  C   UNL     1       6.415  31.090  12.393  1.00  0.00    -0.000 C 
BRANCH   9  10
ATOM     10  C   UNL     1       7.640  31.816  11.807  1.00  0.00    -0.000 C 
BRANCH  10  11
ATOM     11  C   UNL     1       8.677  30.841  11.224  1.00  0.00    -0.000 C 
BRANCH  11  12
ATOM     12  C   UNL     1       8.927  31.080   9.727  1.00  0.00    -0.000 C 
BRANCH  12  13
ATOM     13  C   UNL     1       8.296  29.964   8.883  1.00  0.00    -0.000 C 
BRANCH  13  14
ATOM     14  C   UNL     1       7.244  29.150   9.659  1.00  0.00    -0.000 C 
BRANCH  14  15
ATOM     15  C   UNL     1       7.330  27.625   9.459  1.00  0.00    -0.003 C 
ATOM     16  C   UNL     1       8.752  27.133   9.195  1.00  0.00     0.004 C 
ENDBRANCH  14  15
ENDBRANCH  13  14
ENDBRANCH  12  13
ENDBRANCH  11  12
ENDBRANCH  10  11
ENDBRANCH   9  10
ENDBRANCH   8   9
ENDBRANCH   7   8
ENDBRANCH   6   7
ENDBRANCH   5   6
ENDBRANCH   4   5
ENDBRANCH   3   4
ENDBRANCH   2   3
ENDBRANCH   1   2
BRANCH   1  17
ATOM     17  C   UNL     1       1.511  25.590  11.064  1.00  0.00     0.000 C 
BRANCH  17  18
ATOM     18  C   UNL     1       2.389  25.115   9.892  1.00  0.00     0.000 C 
BRANCH  18  19
ATOM     19  C   UNL     1       1.686  24.189   8.878  1.00  0.00     0.000 C 
BRANCH  19  20
ATOM     20  C   UNL     1       1.781  22.684   9.186  1.00  0.00     0.000 C 
BRANCH  20  21
ATOM     21  C   UNL     1       0.487  22.113   9.787  1.00  0.00     0.000 C 
BRANCH  21  22
ATOM     22  C   UNL     1       0.116  22.855  11.079  1.00  0.00     0.000 C 
BRANCH  22  23
ATOM     23  C   UNL     1      -0.533  21.939  12.129  1.00  0.00     0.000 C 
BRANCH  23  24
ATOM     24  C   UNL     1      -1.821  21.272  11.614  1.00  0.00     0.000 C 
BRANCH  24  25
ATOM     25  C   UNL     1      -2.880  21.105  12.713  1.00  0.00     0.000 C 
BRANCH  25  26
ATOM     26  C   UNL     1      -3.627  19.762  12.622  1.00  0.00     0.000 C 
BRANCH  26  27
ATOM     27  C   UNL     1      -5.121  19.953  12.284  1.00  0.00     0.002 C 
BRANCH  27  28
ATOM     28  C   UNL     1      -6.006  18.773  12.721  1.00  0.00     0.028 C 
BRANCH  28  29
ATOM     29  C   UNL     1      -6.140  18.652  14.241  1.00  0.00     0.156 C 
BRANCH  29  30
ATOM     30  O   UNL     1      -6.169  17.299  14.597  1.00  0.00    -0.396 OA
ATOM     31  H   UNL     1      -5.875  16.795  13.796  1.00  0.00     0.210 HD
ENDBRANCH  29  30
ENDBRANCH  28  29
ENDBRANCH  27  28
ENDBRANCH  26  27
ENDBRANCH  25  26
ENDBRANCH  24  25
ENDBRANCH  23  24
ENDBRANCH  22  23
ENDBRANCH  21  22
ENDBRANCH  20  21
ENDBRANCH  19  20
ENDBRANCH  18  19
ENDBRANCH  17  18
ENDBRANCH   1  17
TORSDOF 28
ENDMDL
MODEL 9
REMARK VINA RESULT:    -2.806      2.285      4.502
REMARK INTER + INTRA:          -9.182
REMARK INTER:                  -7.855
REMARK INTRA:                  -1.328
REMARK UNBOUND:                -1.866
REMARK SMILES CCCCCCCCCCCCCCCCCCCCCCCCCCCCCO
REMARK SMILES IDX 16 1 15 2 14 3 13 4 12 5 11 6 10 7 9 8 8 9 7 10 6 11 5 12
REMARK SMILES IDX 4 13 3 14 2 15 1 16 17 17 18 18 19 19 20 20 21 21 22 22
REMARK SMILES IDX 23 23 24 24 25 25 26 26 27 27 28 28 29 29 30 30
REMARK H PARENT 30 31
REMARK Flexibility Score: inf
ROOT
ATOM      1  C   UNL     1       1.534  25.732  11.200  1.00  0.00     0.000 C 
ENDROOT
BRANCH   1   2
ATOM      2  C   UNL     1       1.076  24.308  10.866  1.00  0.00     0.000 C 
BRANCH   2   3
ATOM      3  C   UNL     1       1.654  23.832   9.523  1.00  0.00     0.000 C 
BRANCH   3   4
ATOM      4  C   UNL     1       0.975  22.541   9.036  1.00  0.00     0.000 C 
BRANCH   4   5
ATOM      5  C   UNL     1       1.968  21.375   8.879  1.00  0.00     0.000 C 
BRANCH   5   6
ATOM      6  C   UNL     1       1.365  20.027   9.321  1.00  0.00     0.000 C 
BRANCH   6   7
ATOM      7  C   UNL     1      -0.110  19.828   8.908  1.00  0.00     0.000 C 
BRANCH   7   8
ATOM      8  C   UNL     1      -1.149  20.102  10.017  1.00  0.00    -0.000 C 
BRANCH   8   9
ATOM      9  C   UNL     1      -0.993  21.456  10.736  1.00  0.00    -0.000 C 
BRANCH   9  10
ATOM     10  C   UNL     1      -0.678  21.300  12.235  1.00  0.00    -0.000 C 
BRANCH  10  11
ATOM     11  C   UNL     1      -1.857  21.719  13.129  1.00  0.00    -0.000 C 
BRANCH  11  12
ATOM     12  C   UNL     1      -3.216  21.505  12.444  1.00  0.00    -0.000 C 
BRANCH  12  13
ATOM     13  C   UNL     1      -3.886  20.220  12.950  1.00  0.00    -0.000 C 
BRANCH  13  14
ATOM     14  C   UNL     1      -4.867  19.615  11.928  1.00  0.00    -0.000 C 
BRANCH  14  15
ATOM     15  C   UNL     1      -5.888  18.624  12.520  1.00  0.00    -0.003 C 
ATOM     16  C   UNL     1      -6.134  18.836  14.013  1.00  0.00     0.004 C 
ENDBRANCH  14  15
ENDBRANCH  13  14
ENDBRANCH  12  13
ENDBRANCH  11  12
ENDBRANCH  10  11
ENDBRANCH   9  10
ENDBRANCH   8   9
ENDBRANCH   7   8
ENDBRANCH   6   7
ENDBRANCH   5   6
ENDBRANCH   4   5
ENDBRANCH   3   4
ENDBRANCH   2   3
ENDBRANCH   1   2
BRANCH   1  17
ATOM     17  C   UNL     1       3.029  25.905  10.890  1.00  0.00     0.000 C 
BRANCH  17  18
ATOM     18  C   UNL     1       3.355  27.235  10.186  1.00  0.00     0.000 C 
BRANCH  18  19
ATOM     19  C   UNL     1       4.775  27.332   9.591  1.00  0.00     0.000 C 
BRANCH  19  20
ATOM     20  C   UNL     1       5.241  28.754   9.232  1.00  0.00     0.000 C 
BRANCH  20  21
ATOM     21  C   UNL     1       6.146  29.378  10.306  1.00  0.00     0.000 C 
BRANCH  21  22
ATOM     22  C   UNL     1       6.038  30.909  10.282  1.00  0.00     0.000 C 
BRANCH  22  23
ATOM     23  C   UNL     1       5.077  31.423   9.199  1.00  0.00     0.000 C 
BRANCH  23  24
ATOM     24  C   UNL     1       3.761  31.963   9.787  1.00  0.00     0.000 C 
BRANCH  24  25
ATOM     25  C   UNL     1       2.688  30.874   9.934  1.00  0.00     0.000 C 
BRANCH  25  26
ATOM     26  C   UNL     1       1.636  31.215  11.004  1.00  0.00     0.000 C 
BRANCH  26  27
ATOM     27  C   UNL     1       2.011  30.643  12.388  1.00  0.00     0.002 C 
BRANCH  27  28
ATOM     28  C   UNL     1       2.272  29.127  12.377  1.00  0.00     0.028 C 
BRANCH  28  29
ATOM     29  C   UNL     1       2.755  28.589  13.726  1.00  0.00     0.156 C 
BRANCH  29  30
ATOM     30  O   UNL     1       1.662  28.093  14.445  1.00  0.00    -0.396 OA
ATOM     31  H   UNL     1       2.015  27.364  15.017  1.00  0.00     0.210 HD
ENDBRANCH  29  30
ENDBRANCH  28  29
ENDBRANCH  27  28
ENDBRANCH  26  27
ENDBRANCH  25  26
ENDBRANCH  24  25
ENDBRANCH  23  24
ENDBRANCH  22  23
ENDBRANCH  21  22
ENDBRANCH  20  21
ENDBRANCH  19  20
ENDBRANCH  18  19
ENDBRANCH  17  18
ENDBRANCH   1  17
TORSDOF 28
ENDMDL
