MODEL 1
REMARK VINA RESULT:    -5.986      0.000      0.000
REMARK INTER + INTRA:          -8.149
REMARK INTER:                  -7.561
REMARK INTRA:                  -0.588
REMARK UNBOUND:                -0.588
REMARK SMILES Oc1cc(O)cc(CCc2ccccc2O)c1
REMARK SMILES IDX 9 1 10 2 12 3 13 4 11 5 14 6 15 7 16 8 8 10 7 11 6 12 17 13
REMARK SMILES IDX 4 14 2 15 3 16 5 17 1 19
REMARK H PARENT 16 9 5 18 1 20
REMARK Flexibility Score: inf
ROOT
ATOM      1  C   UNL     1      16.576 -45.299  29.316  1.00  0.00     0.044 C 
ENDROOT
BRANCH   1   2
ATOM      2  C   UNL     1      17.106 -44.579  28.101  1.00  0.00    -0.006 A 
ATOM      3  C   UNL     1      17.693 -44.608  25.741  1.00  0.00     0.001 A 
ATOM      4  C   UNL     1      18.021 -43.252  25.802  1.00  0.00     0.004 A 
ATOM      5  C   UNL     1      17.233 -45.269  26.884  1.00  0.00     0.007 A 
ATOM      6  C   UNL     1      17.884 -42.552  27.003  1.00  0.00     0.046 A 
ATOM      7  C   UNL     1      17.423 -43.207  28.154  1.00  0.00     0.118 A 
BRANCH   7   8
ATOM      8  O   UNL     1      17.275 -42.497  29.347  1.00  0.00    -0.508 OA
ATOM      9  H   UNL     1      16.942 -41.540  29.357  1.00  0.00     0.293 HD
ENDBRANCH   7   8
ENDBRANCH   1   2
BRANCH   1  10
ATOM     10  C   UNL     1      15.051 -45.420  29.249  1.00  0.00     0.040 C 
BRANCH  10  11
ATOM     11  C   UNL     1      14.407 -44.585  30.322  1.00  0.00    -0.040 A 
ATOM     12  C   UNL     1      15.092 -44.316  31.517  1.00  0.00     0.050 A 
ATOM     13  C   UNL     1      13.093 -44.115  30.159  1.00  0.00     0.050 A 
ATOM     14  C   UNL     1      14.482 -43.568  32.530  1.00  0.00     0.119 A 
ATOM     15  C   UNL     1      12.479 -43.365  31.173  1.00  0.00     0.119 A 
ATOM     16  C   UNL     1      13.177 -43.090  32.354  1.00  0.00     0.092 A 
BRANCH  14  17
ATOM     17  O   UNL     1      15.181 -43.306  33.707  1.00  0.00    -0.508 OA
ATOM     18  H   UNL     1      16.009 -42.722  33.711  1.00  0.00     0.293 HD
ENDBRANCH  14  17
BRANCH  15  19
ATOM     19  O   UNL     1      11.179 -42.890  31.017  1.00  0.00    -0.508 OA
ATOM     20  H   UNL     1      10.602 -42.656  31.816  1.00  0.00     0.293 HD
ENDBRANCH  15  19
ENDBRANCH  10  11
ENDBRANCH   1  10
TORSDOF 6
ENDMDL
MODEL 2
REMARK VINA RESULT:    -5.980      0.092      2.037
REMARK INTER + INTRA:          -8.141
REMARK INTER:                  -7.565
REMARK INTRA:                  -0.576
REMARK UNBOUND:                -0.588
REMARK SMILES Oc1cc(O)cc(CCc2ccccc2O)c1
REMARK SMILES IDX 9 1 10 2 12 3 13 4 11 5 14 6 15 7 16 8 8 10 7 11 6 12 17 13
REMARK SMILES IDX 4 14 2 15 3 16 5 17 1 19
REMARK H PARENT 16 9 5 18 1 20
REMARK Flexibility Score: inf
ROOT
ATOM      1  C   UNL     1      16.590 -45.299  29.278  1.00  0.00     0.044 C 
ENDROOT
BRANCH   1   2
ATOM      2  C   UNL     1      17.131 -44.573  28.072  1.00  0.00    -0.006 A 
ATOM      3  C   UNL     1      17.724 -44.585  25.713  1.00  0.00     0.001 A 
ATOM      4  C   UNL     1      18.067 -43.233  25.789  1.00  0.00     0.004 A 
ATOM      5  C   UNL     1      17.253 -45.252  26.848  1.00  0.00     0.007 A 
ATOM      6  C   UNL     1      17.935 -42.544  26.996  1.00  0.00     0.046 A 
ATOM      7  C   UNL     1      17.463 -43.204  28.139  1.00  0.00     0.118 A 
BRANCH   7   8
ATOM      8  O   UNL     1      17.320 -42.505  29.339  1.00  0.00    -0.508 OA
ATOM      9  H   UNL     1      17.541 -41.519  29.407  1.00  0.00     0.293 HD
ENDBRANCH   7   8
ENDBRANCH   1   2
BRANCH   1  10
ATOM     10  C   UNL     1      15.067 -45.437  29.186  1.00  0.00     0.040 C 
BRANCH  10  11
ATOM     11  C   UNL     1      14.400 -44.692  30.310  1.00  0.00    -0.040 A 
ATOM     12  C   UNL     1      13.084 -44.223  30.165  1.00  0.00     0.050 A 
ATOM     13  C   UNL     1      15.107 -44.408  31.490  1.00  0.00     0.050 A 
ATOM     14  C   UNL     1      12.473 -43.500  31.195  1.00  0.00     0.119 A 
ATOM     15  C   UNL     1      14.497 -43.684  32.524  1.00  0.00     0.119 A 
ATOM     16  C   UNL     1      13.180 -43.235  32.376  1.00  0.00     0.092 A 
BRANCH  14  17
ATOM     17  O   UNL     1      11.164 -43.050  31.036  1.00  0.00    -0.508 OA
ATOM     18  H   UNL     1      10.387 -43.696  30.963  1.00  0.00     0.293 HD
ENDBRANCH  14  17
BRANCH  15  19
ATOM     19  O   UNL     1      15.189 -43.404  33.700  1.00  0.00    -0.508 OA
ATOM     20  H   UNL     1      15.469 -42.460  33.937  1.00  0.00     0.293 HD
ENDBRANCH  15  19
ENDBRANCH  10  11
ENDBRANCH   1  10
TORSDOF 6
ENDMDL
MODEL 3
REMARK VINA RESULT:    -5.947      2.989      4.446
REMARK INTER + INTRA:          -8.099
REMARK INTER:                  -7.295
REMARK INTRA:                  -0.804
REMARK UNBOUND:                -0.588
REMARK SMILES Oc1cc(O)cc(CCc2ccccc2O)c1
REMARK SMILES IDX 9 1 10 2 12 3 13 4 11 5 14 6 15 7 16 8 8 10 7 11 6 12 17 13
REMARK SMILES IDX 4 14 2 15 3 16 5 17 1 19
REMARK H PARENT 16 9 5 18 1 20
REMARK Flexibility Score: inf
ROOT
ATOM      1  C   UNL     1      15.480 -45.114  29.618  1.00  0.00     0.044 C 
ENDROOT
BRANCH   1   2
ATOM      2  C   UNL     1      15.897 -44.651  28.245  1.00  0.00    -0.006 A 
ATOM      3  C   UNL     1      15.566 -43.168  26.346  1.00  0.00     0.001 A 
ATOM      4  C   UNL     1      16.686 -43.716  25.718  1.00  0.00     0.004 A 
ATOM      5  C   UNL     1      15.174 -43.630  27.606  1.00  0.00     0.007 A 
ATOM      6  C   UNL     1      17.421 -44.722  26.350  1.00  0.00     0.046 A 
ATOM      7  C   UNL     1      17.036 -45.191  27.614  1.00  0.00     0.118 A 
BRANCH   7   8
ATOM      8  O   UNL     1      17.784 -46.185  28.245  1.00  0.00    -0.508 OA
ATOM      9  H   UNL     1      17.384 -46.771  28.969  1.00  0.00     0.293 HD
ENDBRANCH   7   8
ENDBRANCH   1   2
BRANCH   1  10
ATOM     10  C   UNL     1      15.651 -43.988  30.642  1.00  0.00     0.040 C 
BRANCH  10  11
ATOM     11  C   UNL     1      17.110 -43.721  30.895  1.00  0.00    -0.040 A 
ATOM     12  C   UNL     1      17.677 -42.490  30.532  1.00  0.00     0.050 A 
ATOM     13  C   UNL     1      17.928 -44.723  31.444  1.00  0.00     0.050 A 
ATOM     14  C   UNL     1      19.041 -42.251  30.736  1.00  0.00     0.119 A 
ATOM     15  C   UNL     1      19.295 -44.487  31.650  1.00  0.00     0.119 A 
ATOM     16  C   UNL     1      19.847 -43.250  31.298  1.00  0.00     0.092 A 
BRANCH  14  17
ATOM     17  O   UNL     1      19.585 -41.020  30.375  1.00  0.00    -0.508 OA
ATOM     18  H   UNL     1      20.565 -40.811  30.524  1.00  0.00     0.293 HD
ENDBRANCH  14  17
BRANCH  15  19
ATOM     19  O   UNL     1      20.111 -45.472  32.200  1.00  0.00    -0.508 OA
ATOM     20  H   UNL     1      21.010 -45.703  31.793  1.00  0.00     0.293 HD
ENDBRANCH  15  19
ENDBRANCH  10  11
ENDBRANCH   1  10
TORSDOF 6
ENDMDL
MODEL 4
REMARK VINA RESULT:    -5.911      2.112      3.330
REMARK INTER + INTRA:          -8.054
REMARK INTER:                  -7.446
REMARK INTRA:                  -0.608
REMARK UNBOUND:                -0.588
REMARK SMILES Oc1cc(O)cc(CCc2ccccc2O)c1
REMARK SMILES IDX 9 1 10 2 12 3 13 4 11 5 14 6 15 7 16 8 8 10 7 11 6 12 17 13
REMARK SMILES IDX 4 14 2 15 3 16 5 17 1 19
REMARK H PARENT 16 9 5 18 1 20
REMARK Flexibility Score: inf
ROOT
ATOM      1  C   UNL     1      16.289 -44.629  28.668  1.00  0.00     0.044 C 
ENDROOT
BRANCH   1   2
ATOM      2  C   UNL     1      17.086 -44.007  27.548  1.00  0.00    -0.006 A 
ATOM      3  C   UNL     1      18.099 -44.194  25.345  1.00  0.00     0.001 A 
ATOM      4  C   UNL     1      18.506 -42.860  25.415  1.00  0.00     0.004 A 
ATOM      5  C   UNL     1      17.387 -44.765  26.404  1.00  0.00     0.007 A 
ATOM      6  C   UNL     1      18.199 -42.093  26.541  1.00  0.00     0.046 A 
ATOM      7  C   UNL     1      17.485 -42.657  27.608  1.00  0.00     0.118 A 
BRANCH   7   8
ATOM      8  O   UNL     1      17.169 -41.879  28.723  1.00  0.00    -0.508 OA
ATOM      9  H   UNL     1      16.215 -41.779  29.047  1.00  0.00     0.293 HD
ENDBRANCH   7   8
ENDBRANCH   1   2
BRANCH   1  10
ATOM     10  C   UNL     1      17.219 -45.297  29.685  1.00  0.00     0.040 C 
BRANCH  10  11
ATOM     11  C   UNL     1      17.300 -44.478  30.945  1.00  0.00    -0.040 A 
ATOM     12  C   UNL     1      16.161 -44.297  31.746  1.00  0.00     0.050 A 
ATOM     13  C   UNL     1      18.501 -43.841  31.298  1.00  0.00     0.050 A 
ATOM     14  C   UNL     1      16.226 -43.508  32.899  1.00  0.00     0.119 A 
ATOM     15  C   UNL     1      18.569 -43.050  32.455  1.00  0.00     0.119 A 
ATOM     16  C   UNL     1      17.432 -42.888  33.254  1.00  0.00     0.092 A 
BRANCH  14  17
ATOM     17  O   UNL     1      15.087 -43.345  33.686  1.00  0.00    -0.508 OA
ATOM     18  H   UNL     1      14.857 -42.452  34.105  1.00  0.00     0.293 HD
ENDBRANCH  14  17
BRANCH  15  19
ATOM     19  O   UNL     1      19.758 -42.421  32.816  1.00  0.00    -0.508 OA
ATOM     20  H   UNL     1      20.640 -42.918  32.817  1.00  0.00     0.293 HD
ENDBRANCH  15  19
ENDBRANCH  10  11
ENDBRANCH   1  10
TORSDOF 6
ENDMDL
MODEL 5
REMARK VINA RESULT:    -5.848      2.103      2.835
REMARK INTER + INTRA:          -7.975
REMARK INTER:                  -7.417
REMARK INTRA:                  -0.558
REMARK UNBOUND:                -0.588
REMARK SMILES Oc1cc(O)cc(CCc2ccccc2O)c1
REMARK SMILES IDX 9 1 10 2 12 3 13 4 11 5 14 6 15 7 16 8 8 10 7 11 6 12 17 13
REMARK SMILES IDX 4 14 2 15 3 16 5 17 1 19
REMARK H PARENT 16 9 5 18 1 20
REMARK Flexibility Score: inf
ROOT
ATOM      1  C   UNL     1      15.490 -43.710  28.146  1.00  0.00     0.044 C 
ENDROOT
BRANCH   1   2
ATOM      2  C   UNL     1      16.624 -43.400  27.202  1.00  0.00    -0.006 A 
ATOM      3  C   UNL     1      18.092 -44.097  25.392  1.00  0.00     0.001 A 
ATOM      4  C   UNL     1      18.687 -42.834  25.383  1.00  0.00     0.004 A 
ATOM      5  C   UNL     1      17.061 -44.379  26.294  1.00  0.00     0.007 A 
ATOM      6  C   UNL     1      18.251 -41.848  26.271  1.00  0.00     0.046 A 
ATOM      7  C   UNL     1      17.218 -42.121  27.179  1.00  0.00     0.118 A 
BRANCH   7   8
ATOM      8  O   UNL     1      16.777 -41.126  28.053  1.00  0.00    -0.508 OA
ATOM      9  H   UNL     1      16.131 -41.330  28.806  1.00  0.00     0.293 HD
ENDBRANCH   7   8
ENDBRANCH   1   2
BRANCH   1  10
ATOM     10  C   UNL     1      15.621 -45.132  28.698  1.00  0.00     0.040 C 
BRANCH  10  11
ATOM     11  C   UNL     1      16.144 -45.106  30.109  1.00  0.00    -0.040 A 
ATOM     12  C   UNL     1      17.526 -45.123  30.352  1.00  0.00     0.050 A 
ATOM     13  C   UNL     1      15.252 -45.124  31.194  1.00  0.00     0.050 A 
ATOM     14  C   UNL     1      18.014 -45.133  31.663  1.00  0.00     0.119 A 
ATOM     15  C   UNL     1      15.738 -45.133  32.510  1.00  0.00     0.119 A 
ATOM     16  C   UNL     1      17.118 -45.134  32.741  1.00  0.00     0.092 A 
BRANCH  14  17
ATOM     17  O   UNL     1      19.390 -45.143  31.885  1.00  0.00    -0.508 OA
ATOM     18  H   UNL     1      19.818 -44.541  32.578  1.00  0.00     0.293 HD
ENDBRANCH  14  17
BRANCH  15  19
ATOM     19  O   UNL     1      14.861 -45.143  33.591  1.00  0.00    -0.508 OA
ATOM     20  H   UNL     1      13.949 -45.581  33.528  1.00  0.00     0.293 HD
ENDBRANCH  15  19
ENDBRANCH  10  11
ENDBRANCH   1  10
TORSDOF 6
ENDMDL
MODEL 6
REMARK VINA RESULT:    -5.823      4.182      6.812
REMARK INTER + INTRA:          -7.943
REMARK INTER:                  -7.434
REMARK INTRA:                  -0.509
REMARK UNBOUND:                -0.588
REMARK SMILES Oc1cc(O)cc(CCc2ccccc2O)c1
REMARK SMILES IDX 9 1 10 2 12 3 13 4 11 5 14 6 15 7 16 8 8 10 7 11 6 12 17 13
REMARK SMILES IDX 4 14 2 15 3 16 5 17 1 19
REMARK H PARENT 16 9 5 18 1 20
REMARK Flexibility Score: inf
ROOT
ATOM      1  C   UNL     1      19.676 -41.881  30.329  1.00  0.00     0.044 C 
ENDROOT
BRANCH   1   2
ATOM      2  C   UNL     1      18.975 -42.878  31.217  1.00  0.00    -0.006 A 
ATOM      3  C   UNL     1      17.166 -43.400  32.757  1.00  0.00     0.001 A 
ATOM      4  C   UNL     1      17.603 -44.724  32.827  1.00  0.00     0.004 A 
ATOM      5  C   UNL     1      17.845 -42.481  31.952  1.00  0.00     0.007 A 
ATOM      6  C   UNL     1      18.715 -45.134  32.089  1.00  0.00     0.046 A 
ATOM      7  C   UNL     1      19.403 -44.220  31.279  1.00  0.00     0.118 A 
BRANCH   7   8
ATOM      8  O   UNL     1      20.505 -44.641  30.533  1.00  0.00    -0.508 OA
ATOM      9  H   UNL     1      21.431 -44.265  30.696  1.00  0.00     0.293 HD
ENDBRANCH   7   8
ENDBRANCH   1   2
BRANCH   1  10
ATOM     10  C   UNL     1      18.688 -40.835  29.806  1.00  0.00     0.040 C 
BRANCH  10  11
ATOM     11  C   UNL     1      18.594 -40.899  28.306  1.00  0.00    -0.040 A 
ATOM     12  C   UNL     1      18.584 -42.140  27.649  1.00  0.00     0.050 A 
ATOM     13  C   UNL     1      18.572 -39.717  27.547  1.00  0.00     0.050 A 
ATOM     14  C   UNL     1      18.531 -42.202  26.252  1.00  0.00     0.119 A 
ATOM     15  C   UNL     1      18.518 -39.776  26.146  1.00  0.00     0.119 A 
ATOM     16  C   UNL     1      18.494 -41.018  25.503  1.00  0.00     0.092 A 
BRANCH  14  17
ATOM     17  O   UNL     1      18.516 -43.443  25.619  1.00  0.00    -0.508 OA
ATOM     18  H   UNL     1      19.289 -44.092  25.708  1.00  0.00     0.293 HD
ENDBRANCH  14  17
BRANCH  15  19
ATOM     19  O   UNL     1      18.490 -38.609  25.387  1.00  0.00    -0.508 OA
ATOM     20  H   UNL     1      19.329 -38.065  25.222  1.00  0.00     0.293 HD
ENDBRANCH  15  19
ENDBRANCH  10  11
ENDBRANCH   1  10
TORSDOF 6
ENDMDL
MODEL 7
REMARK VINA RESULT:    -5.744      2.466      3.441
REMARK INTER + INTRA:          -7.843
REMARK INTER:                  -7.150
REMARK INTRA:                  -0.694
REMARK UNBOUND:                -0.588
REMARK SMILES Oc1cc(O)cc(CCc2ccccc2O)c1
REMARK SMILES IDX 9 1 10 2 12 3 13 4 11 5 14 6 15 7 16 8 8 10 7 11 6 12 17 13
REMARK SMILES IDX 4 14 2 15 3 16 5 17 1 19
REMARK H PARENT 16 9 5 18 1 20
REMARK Flexibility Score: inf
ROOT
ATOM      1  C   UNL     1      15.049 -45.343  29.427  1.00  0.00     0.044 C 
ENDROOT
BRANCH   1   2
ATOM      2  C   UNL     1      15.498 -44.651  28.164  1.00  0.00    -0.006 A 
ATOM      3  C   UNL     1      15.099 -42.991  26.431  1.00  0.00     0.001 A 
ATOM      4  C   UNL     1      16.333 -43.293  25.852  1.00  0.00     0.004 A 
ATOM      5  C   UNL     1      14.684 -43.663  27.585  1.00  0.00     0.007 A 
ATOM      6  C   UNL     1      17.158 -44.263  26.428  1.00  0.00     0.046 A 
ATOM      7  C   UNL     1      16.750 -44.942  27.585  1.00  0.00     0.118 A 
BRANCH   7   8
ATOM      8  O   UNL     1      17.585 -45.899  28.162  1.00  0.00    -0.508 OA
ATOM      9  H   UNL     1      18.523 -45.669  28.469  1.00  0.00     0.293 HD
ENDBRANCH   7   8
ENDBRANCH   1   2
BRANCH   1  10
ATOM     10  C   UNL     1      14.688 -44.316  30.505  1.00  0.00     0.040 C 
BRANCH  10  11
ATOM     11  C   UNL     1      15.911 -43.919  31.287  1.00  0.00    -0.040 A 
ATOM     12  C   UNL     1      16.946 -44.843  31.500  1.00  0.00     0.050 A 
ATOM     13  C   UNL     1      15.999 -42.639  31.860  1.00  0.00     0.050 A 
ATOM     14  C   UNL     1      18.068 -44.486  32.256  1.00  0.00     0.119 A 
ATOM     15  C   UNL     1      17.123 -42.279  32.618  1.00  0.00     0.119 A 
ATOM     16  C   UNL     1      18.156 -43.202  32.811  1.00  0.00     0.092 A 
BRANCH  14  17
ATOM     17  O   UNL     1      19.089 -45.415  32.450  1.00  0.00    -0.508 OA
ATOM     18  H   UNL     1      20.063 -45.164  32.326  1.00  0.00     0.293 HD
ENDBRANCH  14  17
BRANCH  15  19
ATOM     19  O   UNL     1      17.221 -41.010  33.183  1.00  0.00    -0.508 OA
ATOM     20  H   UNL     1      17.509 -40.881  34.146  1.00  0.00     0.293 HD
ENDBRANCH  15  19
ENDBRANCH  10  11
ENDBRANCH   1  10
TORSDOF 6
ENDMDL
MODEL 8
REMARK VINA RESULT:    -5.720      3.108      4.483
REMARK INTER + INTRA:          -7.813
REMARK INTER:                  -7.149
REMARK INTRA:                  -0.664
REMARK UNBOUND:                -0.588
REMARK SMILES Oc1cc(O)cc(CCc2ccccc2O)c1
REMARK SMILES IDX 9 1 10 2 12 3 13 4 11 5 14 6 15 7 16 8 8 10 7 11 6 12 17 13
REMARK SMILES IDX 4 14 2 15 3 16 5 17 1 19
REMARK H PARENT 16 9 5 18 1 20
REMARK Flexibility Score: inf
ROOT
ATOM      1  C   UNL     1      17.801 -41.292  28.664  1.00  0.00     0.044 C 
ENDROOT
BRANCH   1   2
ATOM      2  C   UNL     1      17.809 -42.314  27.554  1.00  0.00    -0.006 A 
ATOM      3  C   UNL     1      18.610 -43.026  25.371  1.00  0.00     0.001 A 
ATOM      4  C   UNL     1      17.905 -44.224  25.499  1.00  0.00     0.004 A 
ATOM      5  C   UNL     1      18.567 -42.076  26.395  1.00  0.00     0.007 A 
ATOM      6  C   UNL     1      17.160 -44.478  26.653  1.00  0.00     0.046 A 
ATOM      7  C   UNL     1      17.112 -43.532  27.686  1.00  0.00     0.118 A 
BRANCH   7   8
ATOM      8  O   UNL     1      16.377 -43.799  28.842  1.00  0.00    -0.508 OA
ATOM      9  H   UNL     1      16.762 -43.635  29.765  1.00  0.00     0.293 HD
ENDBRANCH   7   8
ENDBRANCH   1   2
BRANCH   1  10
ATOM     10  C   UNL     1      19.061 -41.421  29.525  1.00  0.00     0.040 C 
BRANCH  10  11
ATOM     11  C   UNL     1      18.815 -42.342  30.688  1.00  0.00    -0.040 A 
ATOM     12  C   UNL     1      17.806 -42.052  31.621  1.00  0.00     0.050 A 
ATOM     13  C   UNL     1      19.630 -43.470  30.883  1.00  0.00     0.050 A 
ATOM     14  C   UNL     1      17.598 -42.889  32.722  1.00  0.00     0.119 A 
ATOM     15  C   UNL     1      19.423 -44.311  31.986  1.00  0.00     0.119 A 
ATOM     16  C   UNL     1      18.405 -44.021  32.900  1.00  0.00     0.092 A 
BRANCH  14  17
ATOM     17  O   UNL     1      16.587 -42.589  33.633  1.00  0.00    -0.508 OA
ATOM     18  H   UNL     1      16.608 -42.941  34.582  1.00  0.00     0.293 HD
ENDBRANCH  14  17
BRANCH  15  19
ATOM     19  O   UNL     1      20.223 -45.434  32.182  1.00  0.00    -0.508 OA
ATOM     20  H   UNL     1      19.886 -46.367  31.972  1.00  0.00     0.293 HD
ENDBRANCH  15  19
ENDBRANCH  10  11
ENDBRANCH   1  10
TORSDOF 6
ENDMDL
MODEL 9
REMARK VINA RESULT:    -5.718      3.048      4.146
REMARK INTER + INTRA:          -7.810
REMARK INTER:                  -7.117
REMARK INTRA:                  -0.693
REMARK UNBOUND:                -0.588
REMARK SMILES Oc1cc(O)cc(CCc2ccccc2O)c1
REMARK SMILES IDX 9 1 10 2 12 3 13 4 11 5 14 6 15 7 16 8 8 10 7 11 6 12 17 13
REMARK SMILES IDX 4 14 2 15 3 16 5 17 1 19
REMARK H PARENT 16 9 5 18 1 20
REMARK Flexibility Score: inf
ROOT
ATOM      1  C   UNL     1      17.649 -41.431  28.655  1.00  0.00     0.044 C 
ENDROOT
BRANCH   1   2
ATOM      2  C   UNL     1      17.712 -42.458  27.552  1.00  0.00    -0.006 A 
ATOM      3  C   UNL     1      18.555 -43.145  25.377  1.00  0.00     0.001 A 
ATOM      4  C   UNL     1      17.909 -44.376  25.511  1.00  0.00     0.004 A 
ATOM      5  C   UNL     1      18.462 -42.191  26.394  1.00  0.00     0.007 A 
ATOM      6  C   UNL     1      17.174 -44.658  26.664  1.00  0.00     0.046 A 
ATOM      7  C   UNL     1      17.075 -43.708  27.690  1.00  0.00     0.118 A 
BRANCH   7   8
ATOM      8  O   UNL     1      16.351 -44.004  28.846  1.00  0.00    -0.508 OA
ATOM      9  H   UNL     1      16.745 -44.566  29.590  1.00  0.00     0.293 HD
ENDBRANCH   7   8
ENDBRANCH   1   2
BRANCH   1  10
ATOM     10  C   UNL     1      18.919 -41.479  29.510  1.00  0.00     0.040 C 
BRANCH  10  11
ATOM     11  C   UNL     1      18.705 -42.333  30.729  1.00  0.00    -0.040 A 
ATOM     12  C   UNL     1      19.487 -43.480  30.936  1.00  0.00     0.050 A 
ATOM     13  C   UNL     1      17.682 -42.022  31.640  1.00  0.00     0.050 A 
ATOM     14  C   UNL     1      19.267 -44.295  32.052  1.00  0.00     0.119 A 
ATOM     15  C   UNL     1      17.459 -42.837  32.760  1.00  0.00     0.119 A 
ATOM     16  C   UNL     1      18.254 -43.969  32.965  1.00  0.00     0.092 A 
BRANCH  14  17
ATOM     17  O   UNL     1      20.058 -45.426  32.244  1.00  0.00    -0.508 OA
ATOM     18  H   UNL     1      20.893 -45.587  31.693  1.00  0.00     0.293 HD
ENDBRANCH  14  17
BRANCH  15  19
ATOM     19  O   UNL     1      16.451 -42.531  33.671  1.00  0.00    -0.508 OA
ATOM     20  H   UNL     1      15.827 -43.245  34.028  1.00  0.00     0.293 HD
ENDBRANCH  15  19
ENDBRANCH  10  11
ENDBRANCH   1  10
TORSDOF 6
ENDMDL
