MODEL 1
REMARK VINA RESULT:    -1.913      0.000      0.000
REMARK INTER + INTRA:          -1.913
REMARK INTER:                  -1.913
REMARK INTRA:                   0.000
REMARK UNBOUND:                 0.000
REMARK SMILES CC(=O)[O-]
REMARK SMILES IDX 1 1 2 2 3 3 4 4
REMARK H PARENT
REMARK Flexibility Score: inf
ROOT
ATOM      1  C   UNL     1       4.642 113.007 185.103  1.00  0.00     0.063 C 
ATOM      2  C   UNL     1       3.257 112.863 184.567  1.00  0.00     0.038 C 
ATOM      3  O   UNL     1       2.416 113.784 184.734  1.00  0.00    -0.550 OA
ATOM      4  O   UNL     1       2.877 111.690 183.928  1.00  0.00    -0.550 OA
ENDROOT
TORSDOF 0
ENDMDL
MODEL 2
REMARK VINA RESULT:    -1.891      3.761      4.364
REMARK INTER + INTRA:          -1.891
REMARK INTER:                  -1.891
REMARK INTRA:                   0.000
REMARK UNBOUND:                 0.000
REMARK SMILES CC(=O)[O-]
REMARK SMILES IDX 1 1 2 2 3 3 4 4
REMARK H PARENT
REMARK Flexibility Score: inf
ROOT
ATOM      1  C   UNL     1       2.387 108.619 181.875  1.00  0.00     0.063 C 
ATOM      2  C   UNL     1       2.011 109.286 183.154  1.00  0.00     0.038 C 
ATOM      3  O   UNL     1       2.413 110.453 183.401  1.00  0.00    -0.550 OA
ATOM      4  O   UNL     1       1.259 108.602 184.101  1.00  0.00    -0.550 OA
ENDROOT
TORSDOF 0
ENDMDL
MODEL 3
REMARK VINA RESULT:    -1.758      3.835      4.293
REMARK INTER + INTRA:          -1.758
REMARK INTER:                  -1.758
REMARK INTRA:                   0.000
REMARK UNBOUND:                 0.000
REMARK SMILES CC(=O)[O-]
REMARK SMILES IDX 1 1 2 2 3 3 4 4
REMARK H PARENT
REMARK Flexibility Score: inf
ROOT
ATOM      1  C   UNL     1       3.242 110.249 182.922  1.00  0.00     0.063 C 
ATOM      2  C   UNL     1       2.179 109.214 182.768  1.00  0.00     0.038 C 
ATOM      3  O   UNL     1       1.397 108.964 183.722  1.00  0.00    -0.550 OA
ATOM      4  O   UNL     1       2.083 108.485 181.589  1.00  0.00    -0.550 OA
ENDROOT
TORSDOF 0
ENDMDL
MODEL 4
REMARK VINA RESULT:    -1.755      1.677      1.792
REMARK INTER + INTRA:          -1.755
REMARK INTER:                  -1.755
REMARK INTRA:                   0.000
REMARK UNBOUND:                 0.000
REMARK SMILES CC(=O)[O-]
REMARK SMILES IDX 1 1 2 2 3 3 4 4
REMARK H PARENT
REMARK Flexibility Score: inf
ROOT
ATOM      1  C   UNL     1       2.834 113.468 184.754  1.00  0.00     0.063 C 
ATOM      2  C   UNL     1       3.546 112.274 184.214  1.00  0.00     0.038 C 
ATOM      3  O   UNL     1       4.801 112.209 184.267  1.00  0.00    -0.550 OA
ATOM      4  O   UNL     1       2.828 111.253 183.603  1.00  0.00    -0.550 OA
ENDROOT
TORSDOF 0
ENDMDL
MODEL 5
REMARK VINA RESULT:    -1.742      4.694      4.927
REMARK INTER + INTRA:          -1.742
REMARK INTER:                  -1.742
REMARK INTRA:                   0.000
REMARK UNBOUND:                 0.000
REMARK SMILES CC(=O)[O-]
REMARK SMILES IDX 1 1 2 2 3 3 4 4
REMARK H PARENT
REMARK Flexibility Score: inf
ROOT
ATOM      1  C   UNL     1       1.442 109.270 183.618  1.00  0.00     0.063 C 
ATOM      2  C   UNL     1       2.492 108.715 182.716  1.00  0.00     0.038 C 
ATOM      3  O   UNL     1       3.624 108.412 183.175  1.00  0.00    -0.550 OA
ATOM      4  O   UNL     1       2.241 108.578 181.357  1.00  0.00    -0.550 OA
ENDROOT
TORSDOF 0
ENDMDL
MODEL 6
REMARK VINA RESULT:    -1.703     14.801     15.157
REMARK INTER + INTRA:          -1.703
REMARK INTER:                  -1.703
REMARK INTRA:                   0.000
REMARK UNBOUND:                 0.000
REMARK SMILES CC(=O)[O-]
REMARK SMILES IDX 1 1 2 2 3 3 4 4
REMARK H PARENT
REMARK Flexibility Score: inf
ROOT
ATOM      1  C   UNL     1       5.745 102.183 176.383  1.00  0.00     0.063 C 
ATOM      2  C   UNL     1       5.947 101.242 175.243  1.00  0.00     0.038 C 
ATOM      3  O   UNL     1       7.037 101.236 174.615  1.00  0.00    -0.550 OA
ATOM      4  O   UNL     1       4.914 100.407 174.838  1.00  0.00    -0.550 OA
ENDROOT
TORSDOF 0
ENDMDL
MODEL 7
REMARK VINA RESULT:    -1.690     14.465     15.023
REMARK INTER + INTRA:          -1.690
REMARK INTER:                  -1.690
REMARK INTRA:                   0.000
REMARK UNBOUND:                 0.000
REMARK SMILES CC(=O)[O-]
REMARK SMILES IDX 1 1 2 2 3 3 4 4
REMARK H PARENT
REMARK Flexibility Score: inf
ROOT
ATOM      1  C   UNL     1       7.199 101.515 174.726  1.00  0.00     0.063 C 
ATOM      2  C   UNL     1       5.883 101.320 175.401  1.00  0.00     0.038 C 
ATOM      3  O   UNL     1       5.631 101.918 176.479  1.00  0.00    -0.550 OA
ATOM      4  O   UNL     1       4.952 100.437 174.868  1.00  0.00    -0.550 OA
ENDROOT
TORSDOF 0
ENDMDL
MODEL 8
REMARK VINA RESULT:    -1.572      6.082      6.527
REMARK INTER + INTRA:          -1.572
REMARK INTER:                  -1.572
REMARK INTRA:                   0.000
REMARK UNBOUND:                 0.000
REMARK SMILES CC(=O)[O-]
REMARK SMILES IDX 1 1 2 2 3 3 4 4
REMARK H PARENT
REMARK Flexibility Score: inf
ROOT
ATOM      1  C   UNL     1       5.444 106.721 182.754  1.00  0.00     0.063 C 
ATOM      2  C   UNL     1       4.089 106.878 182.152  1.00  0.00     0.038 C 
ATOM      3  O   UNL     1       3.269 107.695 182.647  1.00  0.00    -0.550 OA
ATOM      4  O   UNL     1       3.709 106.086 181.076  1.00  0.00    -0.550 OA
ENDROOT
TORSDOF 0
ENDMDL
MODEL 9
REMARK VINA RESULT:    -1.561      5.171      5.660
REMARK INTER + INTRA:          -1.561
REMARK INTER:                  -1.561
REMARK INTRA:                   0.000
REMARK UNBOUND:                 0.000
REMARK SMILES CC(=O)[O-]
REMARK SMILES IDX 1 1 2 2 3 3 4 4
REMARK H PARENT
REMARK Flexibility Score: inf
ROOT
ATOM      1  C   UNL     1       5.922 106.599 183.289  1.00  0.00     0.063 C 
ATOM      2  C   UNL     1       5.375 107.931 183.677  1.00  0.00     0.038 C 
ATOM      3  O   UNL     1       6.091 108.747 184.315  1.00  0.00    -0.550 OA
ATOM      4  O   UNL     1       4.058 108.256 183.381  1.00  0.00    -0.550 OA
ENDROOT
TORSDOF 0
ENDMDL
