MODEL 1
REMARK VINA RESULT:    -3.557      0.000      0.000
REMARK INTER + INTRA:          -4.092
REMARK INTER:                  -3.868
REMARK INTRA:                  -0.224
REMARK UNBOUND:                -0.224
REMARK SMILES CC(C)(C)[C@H]1C=C[C@H](O)CC1
REMARK SMILES IDX 5 1 11 2 10 3 8 4 7 5 6 6 2 7 1 8 3 9 4 10 9 11
REMARK H PARENT 9 12
REMARK Flexibility Score: inf
ROOT
ATOM      1  C   UNL     1      13.989  12.757  36.240  1.00  0.00     0.017 C 
ATOM      2  C   UNL     1      13.721  14.117  36.941  1.00  0.00     0.011 C 
ATOM      3  C   UNL     1      14.121  14.063  38.416  1.00  0.00     0.037 C 
ATOM      4  C   UNL     1      15.625  13.785  38.540  1.00  0.00     0.137 C 
ATOM      5  C   UNL     1      16.046  12.602  37.701  1.00  0.00     0.000 C 
ATOM      6  C   UNL     1      15.354  12.191  36.626  1.00  0.00    -0.025 C 
ENDROOT
BRANCH   1   7
ATOM      7  C   UNL     1      13.775  12.805  34.676  1.00  0.00    -0.032 C 
ATOM      8  C   UNL     1      12.273  13.004  34.353  1.00  0.00     0.011 C 
ATOM      9  C   UNL     1      14.537  14.000  34.054  1.00  0.00     0.011 C 
ATOM     10  C   UNL     1      14.257  11.506  33.989  1.00  0.00     0.011 C 
ENDBRANCH   1   7
BRANCH   4  11
ATOM     11  O   UNL     1      15.982  13.589  39.885  1.00  0.00    -0.389 OA
ATOM     12  H   UNL     1      16.970  13.497  39.923  1.00  0.00     0.211 HD
ENDBRANCH   4  11
TORSDOF 2
ENDMDL
MODEL 2
REMARK VINA RESULT:    -3.551      0.034      1.316
REMARK INTER + INTRA:          -4.086
REMARK INTER:                  -3.865
REMARK INTRA:                  -0.221
REMARK UNBOUND:                -0.224
REMARK SMILES CC(C)(C)[C@H]1C=C[C@H](O)CC1
REMARK SMILES IDX 5 1 11 2 10 3 8 4 7 5 6 6 2 7 1 8 3 9 4 10 9 11
REMARK H PARENT 9 12
REMARK Flexibility Score: inf
ROOT
ATOM      1  C   UNL     1      13.990  12.777  36.246  1.00  0.00     0.017 C 
ATOM      2  C   UNL     1      13.718  14.125  36.969  1.00  0.00     0.011 C 
ATOM      3  C   UNL     1      14.116  14.048  38.443  1.00  0.00     0.037 C 
ATOM      4  C   UNL     1      15.620  13.771  38.565  1.00  0.00     0.137 C 
ATOM      5  C   UNL     1      16.046  12.603  37.708  1.00  0.00     0.000 C 
ATOM      6  C   UNL     1      15.356  12.207  36.625  1.00  0.00    -0.025 C 
ENDROOT
BRANCH   1   7
ATOM      7  C   UNL     1      13.778  12.849  34.683  1.00  0.00    -0.032 C 
ATOM      8  C   UNL     1      14.283  11.544  34.018  1.00  0.00     0.011 C 
ATOM      9  C   UNL     1      12.275  12.983  34.340  1.00  0.00     0.011 C 
ATOM     10  C   UNL     1      14.532  14.044  34.055  1.00  0.00     0.011 C 
ENDBRANCH   1   7
BRANCH   4  11
ATOM     11  O   UNL     1      15.976  13.554  39.907  1.00  0.00    -0.389 OA
ATOM     12  H   UNL     1      15.195  13.142  40.362  1.00  0.00     0.211 HD
ENDBRANCH   4  11
TORSDOF 2
ENDMDL
MODEL 3
REMARK VINA RESULT:    -2.599      1.109      1.927
REMARK INTER + INTRA:          -3.051
REMARK INTER:                  -2.833
REMARK INTRA:                  -0.218
REMARK UNBOUND:                -0.224
REMARK SMILES CC(C)(C)[C@H]1C=C[C@H](O)CC1
REMARK SMILES IDX 5 1 11 2 10 3 8 4 7 5 6 6 2 7 1 8 3 9 4 10 9 11
REMARK H PARENT 9 12
REMARK Flexibility Score: inf
ROOT
ATOM      1  C   UNL     1      13.948  13.574  35.731  1.00  0.00     0.017 C 
ATOM      2  C   UNL     1      15.395  14.118  35.883  1.00  0.00     0.011 C 
ATOM      3  C   UNL     1      15.827  14.125  37.350  1.00  0.00     0.037 C 
ATOM      4  C   UNL     1      15.826  12.694  37.903  1.00  0.00     0.137 C 
ATOM      5  C   UNL     1      14.530  11.979  37.604  1.00  0.00     0.000 C 
ATOM      6  C   UNL     1      13.728  12.327  36.583  1.00  0.00    -0.025 C 
ENDROOT
BRANCH   1   7
ATOM      7  C   UNL     1      13.513  13.364  34.227  1.00  0.00    -0.032 C 
ATOM      8  C   UNL     1      14.486  14.113  33.283  1.00  0.00     0.011 C 
ATOM      9  C   UNL     1      13.570  11.865  33.845  1.00  0.00     0.011 C 
ATOM     10  C   UNL     1      12.079  13.882  33.966  1.00  0.00     0.011 C 
ENDBRANCH   1   7
BRANCH   4  11
ATOM     11  O   UNL     1      16.080  12.698  39.286  1.00  0.00    -0.389 OA
ATOM     12  H   UNL     1      15.625  11.907  39.677  1.00  0.00     0.211 HD
ENDBRANCH   4  11
TORSDOF 2
ENDMDL
MODEL 4
REMARK VINA RESULT:    -1.634      2.482      4.572
REMARK INTER + INTRA:          -2.001
REMARK INTER:                  -1.783
REMARK INTRA:                  -0.218
REMARK UNBOUND:                -0.224
REMARK SMILES CC(C)(C)[C@H]1C=C[C@H](O)CC1
REMARK SMILES IDX 5 1 11 2 10 3 8 4 7 5 6 6 2 7 1 8 3 9 4 10 9 11
REMARK H PARENT 9 12
REMARK Flexibility Score: inf
ROOT
ATOM      1  C   UNL     1      14.156  12.943  37.170  1.00  0.00     0.017 C 
ATOM      2  C   UNL     1      14.539  11.666  36.371  1.00  0.00     0.011 C 
ATOM      3  C   UNL     1      13.611  11.469  35.172  1.00  0.00     0.037 C 
ATOM      4  C   UNL     1      13.741  12.655  34.208  1.00  0.00     0.137 C 
ATOM      5  C   UNL     1      13.614  13.977  34.927  1.00  0.00     0.000 C 
ATOM      6  C   UNL     1      13.875  14.119  36.237  1.00  0.00    -0.025 C 
ENDROOT
BRANCH   1   7
ATOM      7  C   UNL     1      15.191  13.305  38.306  1.00  0.00    -0.032 C 
ATOM      8  C   UNL     1      15.787  12.011  38.913  1.00  0.00     0.011 C 
ATOM      9  C   UNL     1      16.371  14.125  37.731  1.00  0.00     0.011 C 
ATOM     10  C   UNL     1      14.533  14.123  39.442  1.00  0.00     0.011 C 
ENDBRANCH   1   7
BRANCH   4  11
ATOM     11  O   UNL     1      12.792  12.560  33.176  1.00  0.00    -0.389 OA
ATOM     12  H   UNL     1      12.744  13.446  32.730  1.00  0.00     0.211 HD
ENDBRANCH   4  11
TORSDOF 2
ENDMDL
MODEL 5
REMARK VINA RESULT:    -1.505     19.702     21.698
REMARK INTER + INTRA:          -1.861
REMARK INTER:                  -1.634
REMARK INTRA:                  -0.227
REMARK UNBOUND:                -0.224
REMARK SMILES CC(C)(C)[C@H]1C=C[C@H](O)CC1
REMARK SMILES IDX 5 1 11 2 10 3 8 4 7 5 6 6 2 7 1 8 3 9 4 10 9 11
REMARK H PARENT 9 12
REMARK Flexibility Score: inf
ROOT
ATOM      1  C   UNL     1       7.074  -2.202  23.886  1.00  0.00     0.017 C 
ATOM      2  C   UNL     1       5.752  -1.881  24.637  1.00  0.00     0.011 C 
ATOM      3  C   UNL     1       4.643  -2.853  24.236  1.00  0.00     0.037 C 
ATOM      4  C   UNL     1       5.037  -4.286  24.618  1.00  0.00     0.137 C 
ATOM      5  C   UNL     1       6.423  -4.633  24.129  1.00  0.00     0.000 C 
ATOM      6  C   UNL     1       7.359  -3.702  23.875  1.00  0.00    -0.025 C 
ENDROOT
BRANCH   1   7
ATOM      7  C   UNL     1       8.306  -1.356  24.396  1.00  0.00    -0.032 C 
ATOM      8  C   UNL     1       8.323  -1.324  25.945  1.00  0.00     0.011 C 
ATOM      9  C   UNL     1       9.638  -1.998  23.939  1.00  0.00     0.011 C 
ATOM     10  C   UNL     1       8.259   0.099  23.875  1.00  0.00     0.011 C 
ENDBRANCH   1   7
BRANCH   4  11
ATOM     11  O   UNL     1       4.096  -5.206  24.126  1.00  0.00    -0.389 OA
ATOM     12  H   UNL     1       4.120  -5.161  23.135  1.00  0.00     0.211 HD
ENDBRANCH   4  11
TORSDOF 2
ENDMDL
MODEL 6
REMARK VINA RESULT:    -1.071      2.371      4.415
REMARK INTER + INTRA:          -1.389
REMARK INTER:                  -1.170
REMARK INTRA:                  -0.219
REMARK UNBOUND:                -0.224
REMARK SMILES CC(C)(C)[C@H]1C=C[C@H](O)CC1
REMARK SMILES IDX 5 1 11 2 10 3 8 4 7 5 6 6 2 7 1 8 3 9 4 10 9 11
REMARK H PARENT 9 12
REMARK Flexibility Score: inf
ROOT
ATOM      1  C   UNL     1      15.233  13.123  37.134  1.00  0.00     0.017 C 
ATOM      2  C   UNL     1      14.168  14.062  36.504  1.00  0.00     0.011 C 
ATOM      3  C   UNL     1      13.891  13.681  35.049  1.00  0.00     0.037 C 
ATOM      4  C   UNL     1      13.327  12.256  34.980  1.00  0.00     0.137 C 
ATOM      5  C   UNL     1      14.172  11.281  35.765  1.00  0.00     0.000 C 
ATOM      6  C   UNL     1      14.966  11.662  36.780  1.00  0.00    -0.025 C 
ENDROOT
BRANCH   1   7
ATOM      7  C   UNL     1      15.424  13.344  38.686  1.00  0.00    -0.032 C 
ATOM      8  C   UNL     1      15.543  11.978  39.406  1.00  0.00     0.011 C 
ATOM      9  C   UNL     1      16.730  14.125  38.971  1.00  0.00     0.011 C 
ATOM     10  C   UNL     1      14.241  14.124  39.305  1.00  0.00     0.011 C 
ENDBRANCH   1   7
BRANCH   4  11
ATOM     11  O   UNL     1      13.203  11.837  33.644  1.00  0.00    -0.389 OA
ATOM     12  H   UNL     1      12.321  11.391  33.549  1.00  0.00     0.211 HD
ENDBRANCH   4  11
TORSDOF 2
ENDMDL
MODEL 7
REMARK VINA RESULT:    -0.644      2.371      4.978
REMARK INTER + INTRA:          -0.924
REMARK INTER:                  -0.708
REMARK INTRA:                  -0.215
REMARK UNBOUND:                -0.224
REMARK SMILES CC(C)(C)[C@H]1C=C[C@H](O)CC1
REMARK SMILES IDX 5 1 11 2 10 3 8 4 7 5 6 6 2 7 1 8 3 9 4 10 9 11
REMARK H PARENT 9 12
REMARK Flexibility Score: inf
ROOT
ATOM      1  C   UNL     1      15.864  13.745  38.990  1.00  0.00     0.017 C 
ATOM      2  C   UNL     1      14.343  14.060  39.026  1.00  0.00     0.011 C 
ATOM      3  C   UNL     1      13.761  14.125  37.613  1.00  0.00     0.037 C 
ATOM      4  C   UNL     1      13.920  12.766  36.919  1.00  0.00     0.137 C 
ATOM      5  C   UNL     1      15.334  12.246  37.024  1.00  0.00     0.000 C 
ATOM      6  C   UNL     1      16.178  12.628  37.997  1.00  0.00    -0.025 C 
ENDROOT
BRANCH   1   7
ATOM      7  C   UNL     1      16.483  13.478  40.417  1.00  0.00    -0.032 C 
ATOM      8  C   UNL     1      17.891  14.118  40.513  1.00  0.00     0.011 C 
ATOM      9  C   UNL     1      15.612  14.125  41.522  1.00  0.00     0.011 C 
ATOM     10  C   UNL     1      16.610  11.966  40.715  1.00  0.00     0.011 C 
ENDBRANCH   1   7
BRANCH   4  11
ATOM     11  O   UNL     1      13.524  12.849  35.573  1.00  0.00    -0.389 OA
ATOM     12  H   UNL     1      14.320  13.110  35.040  1.00  0.00     0.211 HD
ENDBRANCH   4  11
TORSDOF 2
ENDMDL
