MODEL 1
REMARK VINA RESULT:    -7.044      0.000      0.000
REMARK INTER + INTRA:         -10.759
REMARK INTER:                  -9.309
REMARK INTRA:                  -1.450
REMARK UNBOUND:                -1.450
REMARK SMILES CC[C@H](C=C[C@H](C)[C@H]1CC[C@H]2[C@@H]3CC=C4C[C@H](O)CC[C@]4(C)[C@@H]3CC[C@]12C)C(C)C
REMARK SMILES IDX 6 1 7 2 5 3 4 4 3 5 2 6 1 7 28 8 29 9 30 10 8 11 9 12 26 13
REMARK SMILES IDX 10 14 11 15 25 16 27 17 12 18 24 19 23 20 13 21 21 22 14 23
REMARK SMILES IDX 15 24 20 25 22 26 16 27 19 28 17 29 18 30
REMARK H PARENT 18 31
REMARK Flexibility Score: inf
ROOT
ATOM      1  C   UNL     1     141.216 132.298 150.519  1.00  0.00     0.012 C 
ATOM      2  C   UNL     1     141.098 130.932 151.215  1.00  0.00     0.012 C 
ENDROOT
BRANCH   1   3
ATOM      3  C   UNL     1     140.136 133.220 151.063  1.00  0.00    -0.028 C 
ATOM      4  C   UNL     1     138.910 133.426 150.545  1.00  0.00    -0.027 C 
BRANCH   4   5
ATOM      5  C   UNL     1     138.286 132.706 149.354  1.00  0.00     0.014 C 
BRANCH   5   6
ATOM      6  C   UNL     1     136.778 132.438 149.617  1.00  0.00     0.004 C 
ATOM      7  C   UNL     1     136.364 130.963 149.655  1.00  0.00     0.004 C 
ENDBRANCH   5   6
BRANCH   5   8
ATOM      8  C   UNL     1     138.644 133.393 147.989  1.00  0.00    -0.011 C 
ATOM      9  C   UNL     1     137.492 133.503 146.968  1.00  0.00     0.008 C 
ATOM     10  C   UNL     1     139.888 132.782 147.323  1.00  0.00     0.008 C 
ENDBRANCH   5   8
ENDBRANCH   4   5
ENDBRANCH   1   3
BRANCH   1  11
ATOM     11  C   UNL     1     142.685 132.848 150.601  1.00  0.00     0.002 C 
ATOM     12  C   UNL     1     143.686 131.893 151.280  1.00  0.00     0.005 C 
ATOM     13  C   UNL     1     143.448 133.353 149.335  1.00  0.00    -0.026 C 
ATOM     14  C   UNL     1     145.085 132.343 150.826  1.00  0.00     0.005 C 
ATOM     15  C   UNL     1     144.837 133.578 149.956  1.00  0.00    -0.001 C 
ATOM     16  C   UNL     1     142.950 134.714 148.780  1.00  0.00     0.007 C 
ATOM     17  C   UNL     1     143.478 132.265 148.208  1.00  0.00     0.012 C 
ATOM     18  C   UNL     1     145.947 133.983 148.946  1.00  0.00     0.000 C 
ATOM     19  C   UNL     1     144.081 135.663 148.289  1.00  0.00     0.005 C 
ATOM     20  C   UNL     1     145.388 134.939 147.808  1.00  0.00     0.003 C 
ATOM     21  C   UNL     1     147.166 134.560 149.729  1.00  0.00     0.031 C 
ATOM     22  C   UNL     1     146.506 135.900 147.229  1.00  0.00    -0.008 C 
ATOM     23  C   UNL     1     147.392 136.033 149.548  1.00  0.00    -0.027 C 
ATOM     24  C   UNL     1     147.166 136.660 148.378  1.00  0.00    -0.065 C 
ATOM     25  C   UNL     1     145.920 136.904 146.178  1.00  0.00     0.014 C 
ATOM     26  C   UNL     1     147.590 135.050 146.502  1.00  0.00     0.016 C 
ATOM     27  C   UNL     1     147.880 137.982 148.141  1.00  0.00     0.063 C 
ATOM     28  C   UNL     1     146.885 138.039 145.817  1.00  0.00     0.033 C 
ATOM     29  C   UNL     1     147.226 138.860 147.063  1.00  0.00     0.118 C 
BRANCH  29  30
ATOM     30  O   UNL     1     146.066 139.473 147.571  1.00  0.00    -0.393 OA
ATOM     31  H   UNL     1     146.252 139.700 148.519  1.00  0.00     0.210 HD
ENDBRANCH  29  30
ENDBRANCH   1  11
TORSDOF 6
ENDMDL
MODEL 2
REMARK VINA RESULT:    -6.946      3.441      6.158
REMARK INTER + INTRA:         -10.629
REMARK INTER:                  -8.992
REMARK INTRA:                  -1.637
REMARK UNBOUND:                -1.450
REMARK SMILES CC[C@H](C=C[C@H](C)[C@H]1CC[C@H]2[C@@H]3CC=C4C[C@H](O)CC[C@]4(C)[C@@H]3CC[C@]12C)C(C)C
REMARK SMILES IDX 6 1 7 2 5 3 4 4 3 5 2 6 1 7 28 8 29 9 30 10 8 11 9 12 26 13
REMARK SMILES IDX 10 14 11 15 25 16 27 17 12 18 24 19 23 20 13 21 21 22 14 23
REMARK SMILES IDX 15 24 20 25 22 26 16 27 19 28 17 29 18 30
REMARK H PARENT 18 31
REMARK Flexibility Score: inf
ROOT
ATOM      1  C   UNL     1     144.386 134.575 147.569  1.00  0.00     0.012 C 
ATOM      2  C   UNL     1     143.987 135.489 146.398  1.00  0.00     0.012 C 
ENDROOT
BRANCH   1   3
ATOM      3  C   UNL     1     143.661 133.247 147.423  1.00  0.00    -0.028 C 
ATOM      4  C   UNL     1     142.997 132.575 148.384  1.00  0.00    -0.027 C 
BRANCH   4   5
ATOM      5  C   UNL     1     142.733 133.043 149.812  1.00  0.00     0.014 C 
BRANCH   5   6
ATOM      6  C   UNL     1     141.217 133.309 150.020  1.00  0.00     0.004 C 
ATOM      7  C   UNL     1     140.766 134.761 149.827  1.00  0.00     0.004 C 
ENDBRANCH   5   6
BRANCH   5   8
ATOM      8  C   UNL     1     143.433 132.126 150.877  1.00  0.00    -0.011 C 
ATOM      9  C   UNL     1     144.033 130.809 150.340  1.00  0.00     0.008 C 
ATOM     10  C   UNL     1     142.543 131.846 152.098  1.00  0.00     0.008 C 
ENDBRANCH   5   8
ENDBRANCH   4   5
ENDBRANCH   1   3
BRANCH   1  11
ATOM     11  C   UNL     1     145.948 134.485 147.706  1.00  0.00     0.002 C 
ATOM     12  C   UNL     1     146.729 135.130 146.543  1.00  0.00     0.005 C 
ATOM     13  C   UNL     1     146.694 134.990 148.983  1.00  0.00    -0.026 C 
ATOM     14  C   UNL     1     148.147 135.397 147.074  1.00  0.00     0.005 C 
ATOM     15  C   UNL     1     148.145 134.838 148.499  1.00  0.00    -0.001 C 
ATOM     16  C   UNL     1     146.514 134.090 150.234  1.00  0.00     0.007 C 
ATOM     17  C   UNL     1     146.336 136.480 149.307  1.00  0.00     0.012 C 
ATOM     18  C   UNL     1     149.222 135.372 149.484  1.00  0.00     0.000 C 
ATOM     19  C   UNL     1     147.799 133.913 151.092  1.00  0.00     0.005 C 
ATOM     20  C   UNL     1     148.824 135.098 150.997  1.00  0.00     0.003 C 
ATOM     21  C   UNL     1     150.617 134.807 149.074  1.00  0.00     0.031 C 
ATOM     22  C   UNL     1     150.093 134.957 151.936  1.00  0.00    -0.008 C 
ATOM     23  C   UNL     1     151.197 133.804 150.030  1.00  0.00    -0.027 C 
ATOM     24  C   UNL     1     151.032 133.896 151.362  1.00  0.00    -0.065 C 
ATOM     25  C   UNL     1     149.690 134.590 153.405  1.00  0.00     0.014 C 
ATOM     26  C   UNL     1     150.848 136.318 151.989  1.00  0.00     0.016 C 
ATOM     27  C   UNL     1     152.036 133.174 152.246  1.00  0.00     0.063 C 
ATOM     28  C   UNL     1     150.876 134.151 154.270  1.00  0.00     0.033 C 
ATOM     29  C   UNL     1     151.533 132.903 153.672  1.00  0.00     0.118 C 
BRANCH  29  30
ATOM     30  O   UNL     1     150.623 131.830 153.672  1.00  0.00    -0.393 OA
ATOM     31  H   UNL     1     150.454 131.596 154.622  1.00  0.00     0.210 HD
ENDBRANCH  29  30
ENDBRANCH   1  11
TORSDOF 6
ENDMDL
MODEL 3
REMARK VINA RESULT:    -6.650      5.034      8.336
REMARK INTER + INTRA:         -10.238
REMARK INTER:                  -9.078
REMARK INTRA:                  -1.160
REMARK UNBOUND:                -1.450
REMARK SMILES CC[C@H](C=C[C@H](C)[C@H]1CC[C@H]2[C@@H]3CC=C4C[C@H](O)CC[C@]4(C)[C@@H]3CC[C@]12C)C(C)C
REMARK SMILES IDX 6 1 7 2 5 3 4 4 3 5 2 6 1 7 28 8 29 9 30 10 8 11 9 12 26 13
REMARK SMILES IDX 10 14 11 15 25 16 27 17 12 18 24 19 23 20 13 21 21 22 14 23
REMARK SMILES IDX 15 24 20 25 22 26 16 27 19 28 17 29 18 30
REMARK H PARENT 18 31
REMARK Flexibility Score: inf
ROOT
ATOM      1  C   UNL     1     146.135 135.656 146.554  1.00  0.00     0.012 C 
ATOM      2  C   UNL     1     144.992 134.657 146.797  1.00  0.00     0.012 C 
ENDROOT
BRANCH   1   3
ATOM      3  C   UNL     1     145.664 137.046 146.952  1.00  0.00    -0.028 C 
ATOM      4  C   UNL     1     145.962 138.209 146.341  1.00  0.00    -0.027 C 
BRANCH   4   5
ATOM      5  C   UNL     1     146.755 138.388 145.051  1.00  0.00     0.014 C 
BRANCH   5   6
ATOM      6  C   UNL     1     145.827 138.904 143.916  1.00  0.00     0.004 C 
ATOM      7  C   UNL     1     144.511 138.140 143.737  1.00  0.00     0.004 C 
ENDBRANCH   5   6
BRANCH   5   8
ATOM      8  C   UNL     1     148.088 139.184 145.278  1.00  0.00    -0.011 C 
ATOM      9  C   UNL     1     149.312 138.689 144.479  1.00  0.00     0.008 C 
ATOM     10  C   UNL     1     148.448 139.332 146.765  1.00  0.00     0.008 C 
ENDBRANCH   5   8
ENDBRANCH   4   5
ENDBRANCH   1   3
BRANCH   1  11
ATOM     11  C   UNL     1     147.463 135.168 147.234  1.00  0.00     0.002 C 
ATOM     12  C   UNL     1     148.751 135.670 146.552  1.00  0.00     0.005 C 
ATOM     13  C   UNL     1     147.738 135.383 148.758  1.00  0.00    -0.026 C 
ATOM     14  C   UNL     1     149.872 135.535 147.598  1.00  0.00     0.005 C 
ATOM     15  C   UNL     1     149.197 134.902 148.817  1.00  0.00    -0.001 C 
ATOM     16  C   UNL     1     146.901 134.476 149.699  1.00  0.00     0.007 C 
ATOM     17  C   UNL     1     147.599 136.890 149.160  1.00  0.00     0.012 C 
ATOM     18  C   UNL     1     149.889 135.081 150.197  1.00  0.00     0.000 C 
ATOM     19  C   UNL     1     147.682 133.925 150.926  1.00  0.00     0.005 C 
ATOM     20  C   UNL     1     148.884 134.817 151.398  1.00  0.00     0.003 C 
ATOM     21  C   UNL     1     151.183 134.211 150.239  1.00  0.00     0.031 C 
ATOM     22  C   UNL     1     149.626 134.298 152.699  1.00  0.00    -0.008 C 
ATOM     23  C   UNL     1     151.122 133.033 151.168  1.00  0.00    -0.027 C 
ATOM     24  C   UNL     1     150.472 133.076 152.346  1.00  0.00    -0.065 C 
ATOM     25  C   UNL     1     148.615 133.949 153.843  1.00  0.00     0.014 C 
ATOM     26  C   UNL     1     150.565 135.420 153.237  1.00  0.00     0.016 C 
ATOM     27  C   UNL     1     150.878 132.067 153.409  1.00  0.00     0.063 C 
ATOM     28  C   UNL     1     149.250 133.169 155.000  1.00  0.00     0.033 C 
ATOM     29  C   UNL     1     149.814 131.838 154.493  1.00  0.00     0.118 C 
BRANCH  29  30
ATOM     30  O   UNL     1     148.775 131.032 153.993  1.00  0.00    -0.393 OA
ATOM     31  H   UNL     1     148.980 130.099 154.263  1.00  0.00     0.210 HD
ENDBRANCH  29  30
ENDBRANCH   1  11
TORSDOF 6
ENDMDL
MODEL 4
REMARK VINA RESULT:    -6.625      1.276      2.663
REMARK INTER + INTRA:         -10.206
REMARK INTER:                  -8.678
REMARK INTRA:                  -1.528
REMARK UNBOUND:                -1.450
REMARK SMILES CC[C@H](C=C[C@H](C)[C@H]1CC[C@H]2[C@@H]3CC=C4C[C@H](O)CC[C@]4(C)[C@@H]3CC[C@]12C)C(C)C
REMARK SMILES IDX 6 1 7 2 5 3 4 4 3 5 2 6 1 7 28 8 29 9 30 10 8 11 9 12 26 13
REMARK SMILES IDX 10 14 11 15 25 16 27 17 12 18 24 19 23 20 13 21 21 22 14 23
REMARK SMILES IDX 15 24 20 25 22 26 16 27 19 28 17 29 18 30
REMARK H PARENT 18 31
REMARK Flexibility Score: inf
ROOT
ATOM      1  C   UNL     1     139.530 132.695 147.247  1.00  0.00     0.012 C 
ATOM      2  C   UNL     1     139.282 131.179 147.185  1.00  0.00     0.012 C 
ENDROOT
BRANCH   1   3
ATOM      3  C   UNL     1     138.285 133.373 147.795  1.00  0.00    -0.028 C 
ATOM      4  C   UNL     1     137.735 133.198 149.012  1.00  0.00    -0.027 C 
BRANCH   4   5
ATOM      5  C   UNL     1     138.292 132.356 150.156  1.00  0.00     0.014 C 
BRANCH   5   6
ATOM      6  C   UNL     1     138.628 133.260 151.374  1.00  0.00     0.004 C 
ATOM      7  C   UNL     1     140.102 133.292 151.789  1.00  0.00     0.004 C 
ENDBRANCH   5   6
BRANCH   5   8
ATOM      8  C   UNL     1     137.409 131.091 150.448  1.00  0.00    -0.011 C 
ATOM      9  C   UNL     1     138.171 129.756 150.580  1.00  0.00     0.008 C 
ATOM     10  C   UNL     1     136.240 130.940 149.462  1.00  0.00     0.008 C 
ENDBRANCH   5   8
ENDBRANCH   4   5
ENDBRANCH   1   3
BRANCH   1  11
ATOM     11  C   UNL     1     140.869 133.016 148.004  1.00  0.00     0.002 C 
ATOM     12  C   UNL     1     141.435 131.841 148.826  1.00  0.00     0.005 C 
ATOM     13  C   UNL     1     142.118 133.590 147.261  1.00  0.00    -0.026 C 
ATOM     14  C   UNL     1     142.924 132.154 149.054  1.00  0.00     0.005 C 
ATOM     15  C   UNL     1     143.140 133.525 148.409  1.00  0.00    -0.001 C 
ATOM     16  C   UNL     1     141.986 135.074 146.827  1.00  0.00     0.007 C 
ATOM     17  C   UNL     1     142.535 132.686 146.052  1.00  0.00     0.012 C 
ATOM     18  C   UNL     1     144.592 133.915 148.015  1.00  0.00     0.000 C 
ATOM     19  C   UNL     1     143.280 135.917 147.011  1.00  0.00     0.005 C 
ATOM     20  C   UNL     1     144.617 135.096 146.954  1.00  0.00     0.003 C 
ATOM     21  C   UNL     1     145.417 134.195 149.308  1.00  0.00     0.031 C 
ATOM     22  C   UNL     1     145.937 135.967 147.056  1.00  0.00    -0.008 C 
ATOM     23  C   UNL     1     145.796 135.633 149.515  1.00  0.00    -0.027 C 
ATOM     24  C   UNL     1     146.115 136.450 148.494  1.00  0.00    -0.065 C 
ATOM     25  C   UNL     1     145.905 137.186 146.072  1.00  0.00     0.014 C 
ATOM     26  C   UNL     1     147.163 135.089 146.666  1.00  0.00     0.016 C 
ATOM     27  C   UNL     1     146.951 137.679 148.813  1.00  0.00     0.063 C 
ATOM     28  C   UNL     1     147.008 138.215 146.343  1.00  0.00     0.033 C 
ATOM     29  C   UNL     1     146.860 138.789 147.755  1.00  0.00     0.118 C 
BRANCH  29  30
ATOM     30  O   UNL     1     145.639 139.476 147.873  1.00  0.00    -0.393 OA
ATOM     31  H   UNL     1     145.193 139.133 148.690  1.00  0.00     0.210 HD
ENDBRANCH  29  30
ENDBRANCH   1  11
TORSDOF 6
ENDMDL
MODEL 5
REMARK VINA RESULT:    -6.591      5.649      9.110
REMARK INTER + INTRA:         -10.160
REMARK INTER:                  -8.818
REMARK INTRA:                  -1.342
REMARK UNBOUND:                -1.450
REMARK SMILES CC[C@H](C=C[C@H](C)[C@H]1CC[C@H]2[C@@H]3CC=C4C[C@H](O)CC[C@]4(C)[C@@H]3CC[C@]12C)C(C)C
REMARK SMILES IDX 6 1 7 2 5 3 4 4 3 5 2 6 1 7 28 8 29 9 30 10 8 11 9 12 26 13
REMARK SMILES IDX 10 14 11 15 25 16 27 17 12 18 24 19 23 20 13 21 21 22 14 23
REMARK SMILES IDX 15 24 20 25 22 26 16 27 19 28 17 29 18 30
REMARK H PARENT 18 31
REMARK Flexibility Score: inf
ROOT
ATOM      1  C   UNL     1     149.845 137.074 148.842  1.00  0.00     0.012 C 
ATOM      2  C   UNL     1     149.722 136.616 147.380  1.00  0.00     0.012 C 
ENDROOT
BRANCH   1   3
ATOM      3  C   UNL     1     149.503 138.553 148.923  1.00  0.00    -0.028 C 
ATOM      4  C   UNL     1     148.334 139.134 148.593  1.00  0.00    -0.027 C 
BRANCH   4   5
ATOM      5  C   UNL     1     147.052 138.431 148.158  1.00  0.00     0.014 C 
BRANCH   5   6
ATOM      6  C   UNL     1     145.909 138.724 149.169  1.00  0.00     0.004 C 
ATOM      7  C   UNL     1     145.002 137.536 149.508  1.00  0.00     0.004 C 
ENDBRANCH   5   6
BRANCH   5   8
ATOM      8  C   UNL     1     146.724 138.675 146.643  1.00  0.00    -0.011 C 
ATOM      9  C   UNL     1     146.189 137.453 145.866  1.00  0.00     0.008 C 
ATOM     10  C   UNL     1     147.889 139.323 145.878  1.00  0.00     0.008 C 
ENDBRANCH   5   8
ENDBRANCH   4   5
ENDBRANCH   1   3
BRANCH   1  11
ATOM     11  C   UNL     1     149.027 136.133 149.797  1.00  0.00     0.002 C 
ATOM     12  C   UNL     1     147.917 135.323 149.099  1.00  0.00     0.005 C 
ATOM     13  C   UNL     1     149.729 135.087 150.723  1.00  0.00    -0.026 C 
ATOM     14  C   UNL     1     147.594 134.143 150.032  1.00  0.00     0.005 C 
ATOM     15  C   UNL     1     148.486 134.356 151.258  1.00  0.00    -0.001 C 
ATOM     16  C   UNL     1     150.479 135.698 151.936  1.00  0.00     0.007 C 
ATOM     17  C   UNL     1     150.664 134.132 149.907  1.00  0.00     0.012 C 
ATOM     18  C   UNL     1     148.787 133.122 152.153  1.00  0.00     0.000 C 
ATOM     19  C   UNL     1     150.333 134.891 153.258  1.00  0.00     0.005 C 
ATOM     20  C   UNL     1     150.064 133.356 153.068  1.00  0.00     0.003 C 
ATOM     21  C   UNL     1     147.497 132.730 152.938  1.00  0.00     0.031 C 
ATOM     22  C   UNL     1     150.000 132.521 154.413  1.00  0.00    -0.008 C 
ATOM     23  C   UNL     1     147.557 132.983 154.416  1.00  0.00    -0.027 C 
ATOM     24  C   UNL     1     148.685 132.818 155.132  1.00  0.00    -0.065 C 
ATOM     25  C   UNL     1     151.216 132.835 155.349  1.00  0.00     0.014 C 
ATOM     26  C   UNL     1     150.055 131.000 154.077  1.00  0.00     0.016 C 
ATOM     27  C   UNL     1     148.541 132.600 156.630  1.00  0.00     0.063 C 
ATOM     28  C   UNL     1     151.046 132.289 156.771  1.00  0.00     0.033 C 
ATOM     29  C   UNL     1     149.813 132.911 157.433  1.00  0.00     0.118 C 
BRANCH  29  30
ATOM     30  O   UNL     1     149.982 134.302 157.559  1.00  0.00    -0.393 OA
ATOM     31  H   UNL     1     149.143 134.724 157.239  1.00  0.00     0.210 HD
ENDBRANCH  29  30
ENDBRANCH   1  11
TORSDOF 6
ENDMDL
MODEL 6
REMARK VINA RESULT:    -6.420      2.721      8.192
REMARK INTER + INTRA:          -9.934
REMARK INTER:                  -8.161
REMARK INTRA:                  -1.773
REMARK UNBOUND:                -1.450
REMARK SMILES CC[C@H](C=C[C@H](C)[C@H]1CC[C@H]2[C@@H]3CC=C4C[C@H](O)CC[C@]4(C)[C@@H]3CC[C@]12C)C(C)C
REMARK SMILES IDX 6 1 7 2 5 3 4 4 3 5 2 6 1 7 28 8 29 9 30 10 8 11 9 12 26 13
REMARK SMILES IDX 10 14 11 15 25 16 27 17 12 18 24 19 23 20 13 21 21 22 14 23
REMARK SMILES IDX 15 24 20 25 22 26 16 27 19 28 17 29 18 30
REMARK H PARENT 18 31
REMARK Flexibility Score: inf
ROOT
ATOM      1  C   UNL     1     149.128 135.492 148.414  1.00  0.00     0.012 C 
ATOM      2  C   UNL     1     150.404 134.893 149.027  1.00  0.00     0.012 C 
ENDROOT
BRANCH   1   3
ATOM      3  C   UNL     1     149.351 135.703 146.925  1.00  0.00    -0.028 C 
ATOM      4  C   UNL     1     149.152 136.838 146.227  1.00  0.00    -0.027 C 
BRANCH   4   5
ATOM      5  C   UNL     1     148.754 138.199 146.789  1.00  0.00     0.014 C 
BRANCH   5   6
ATOM      6  C   UNL     1     149.995 138.919 147.384  1.00  0.00     0.004 C 
ATOM      7  C   UNL     1     149.878 139.337 148.854  1.00  0.00     0.004 C 
ENDBRANCH   5   6
BRANCH   5   8
ATOM      8  C   UNL     1     147.884 139.028 145.778  1.00  0.00    -0.011 C 
ATOM      9  C   UNL     1     146.405 138.606 145.661  1.00  0.00     0.008 C 
ATOM     10  C   UNL     1     148.522 139.124 144.383  1.00  0.00     0.008 C 
ENDBRANCH   5   8
ENDBRANCH   4   5
ENDBRANCH   1   3
BRANCH   1  11
ATOM     11  C   UNL     1     147.866 134.640 148.798  1.00  0.00     0.002 C 
ATOM     12  C   UNL     1     147.841 134.160 150.263  1.00  0.00     0.005 C 
ATOM     13  C   UNL     1     146.413 135.161 148.551  1.00  0.00    -0.026 C 
ATOM     14  C   UNL     1     146.376 133.815 150.578  1.00  0.00     0.005 C 
ATOM     15  C   UNL     1     145.626 134.049 149.264  1.00  0.00    -0.001 C 
ATOM     16  C   UNL     1     145.975 135.171 147.062  1.00  0.00     0.007 C 
ATOM     17  C   UNL     1     146.183 136.561 149.213  1.00  0.00     0.012 C 
ATOM     18  C   UNL     1     144.091 134.281 149.342  1.00  0.00     0.000 C 
ATOM     19  C   UNL     1     144.505 134.727 146.819  1.00  0.00     0.005 C 
ATOM     20  C   UNL     1     143.533 134.973 148.026  1.00  0.00     0.003 C 
ATOM     21  C   UNL     1     143.388 132.939 149.710  1.00  0.00     0.031 C 
ATOM     22  C   UNL     1     142.018 134.598 147.747  1.00  0.00    -0.008 C 
ATOM     23  C   UNL     1     142.569 132.332 148.607  1.00  0.00    -0.027 C 
ATOM     24  C   UNL     1     141.866 133.078 147.735  1.00  0.00    -0.065 C 
ATOM     25  C   UNL     1     141.510 135.207 146.396  1.00  0.00     0.014 C 
ATOM     26  C   UNL     1     141.127 135.182 148.883  1.00  0.00     0.016 C 
ATOM     27  C   UNL     1     140.708 132.409 147.013  1.00  0.00     0.063 C 
ATOM     28  C   UNL     1     140.164 134.632 145.938  1.00  0.00     0.033 C 
ATOM     29  C   UNL     1     140.282 133.121 145.720  1.00  0.00     0.118 C 
BRANCH  29  30
ATOM     30  O   UNL     1     141.200 132.851 144.690  1.00  0.00    -0.393 OA
ATOM     31  H   UNL     1     141.774 133.655 144.597  1.00  0.00     0.210 HD
ENDBRANCH  29  30
ENDBRANCH   1  11
TORSDOF 6
ENDMDL
MODEL 7
REMARK VINA RESULT:    -6.398      2.813      4.550
REMARK INTER + INTRA:          -9.905
REMARK INTER:                  -7.864
REMARK INTRA:                  -2.041
REMARK UNBOUND:                -1.450
REMARK SMILES CC[C@H](C=C[C@H](C)[C@H]1CC[C@H]2[C@@H]3CC=C4C[C@H](O)CC[C@]4(C)[C@@H]3CC[C@]12C)C(C)C
REMARK SMILES IDX 6 1 7 2 5 3 4 4 3 5 2 6 1 7 28 8 29 9 30 10 8 11 9 12 26 13
REMARK SMILES IDX 10 14 11 15 25 16 27 17 12 18 24 19 23 20 13 21 21 22 14 23
REMARK SMILES IDX 15 24 20 25 22 26 16 27 19 28 17 29 18 30
REMARK H PARENT 18 31
REMARK Flexibility Score: inf
ROOT
ATOM      1  C   UNL     1     140.376 133.794 146.171  1.00  0.00     0.012 C 
ATOM      2  C   UNL     1     139.651 132.648 146.895  1.00  0.00     0.012 C 
ENDROOT
BRANCH   1   3
ATOM      3  C   UNL     1     139.374 134.538 145.302  1.00  0.00    -0.028 C 
ATOM      4  C   UNL     1     139.646 135.334 144.250  1.00  0.00    -0.027 C 
BRANCH   4   5
ATOM      5  C   UNL     1     141.014 135.591 143.627  1.00  0.00     0.014 C 
BRANCH   5   6
ATOM      6  C   UNL     1     141.233 134.655 142.406  1.00  0.00     0.004 C 
ATOM      7  C   UNL     1     142.356 133.624 142.553  1.00  0.00     0.004 C 
ENDBRANCH   5   6
BRANCH   5   8
ATOM      8  C   UNL     1     141.283 137.120 143.391  1.00  0.00    -0.011 C 
ATOM      9  C   UNL     1     142.643 137.473 142.752  1.00  0.00     0.008 C 
ATOM     10  C   UNL     1     141.054 137.966 144.654  1.00  0.00     0.008 C 
ENDBRANCH   5   8
ENDBRANCH   4   5
ENDBRANCH   1   3
BRANCH   1  11
ATOM     11  C   UNL     1     141.185 134.679 147.186  1.00  0.00     0.002 C 
ATOM     12  C   UNL     1     140.792 134.476 148.663  1.00  0.00     0.005 C 
ATOM     13  C   UNL     1     142.748 134.685 147.211  1.00  0.00    -0.026 C 
ATOM     14  C   UNL     1     141.974 134.999 149.497  1.00  0.00     0.005 C 
ATOM     15  C   UNL     1     142.972 135.539 148.470  1.00  0.00    -0.001 C 
ATOM     16  C   UNL     1     143.410 135.419 146.015  1.00  0.00     0.007 C 
ATOM     17  C   UNL     1     143.326 133.238 147.373  1.00  0.00     0.012 C 
ATOM     18  C   UNL     1     144.456 135.678 148.911  1.00  0.00     0.000 C 
ATOM     19  C   UNL     1     144.658 136.267 146.391  1.00  0.00     0.005 C 
ATOM     20  C   UNL     1     145.433 135.774 147.663  1.00  0.00     0.003 C 
ATOM     21  C   UNL     1     144.583 136.860 149.919  1.00  0.00     0.031 C 
ATOM     22  C   UNL     1     146.752 136.588 147.996  1.00  0.00    -0.008 C 
ATOM     23  C   UNL     1     145.320 138.059 149.397  1.00  0.00    -0.027 C 
ATOM     24  C   UNL     1     146.374 137.953 148.567  1.00  0.00    -0.065 C 
ATOM     25  C   UNL     1     147.662 136.759 146.731  1.00  0.00     0.014 C 
ATOM     26  C   UNL     1     147.581 135.810 149.061  1.00  0.00     0.016 C 
ATOM     27  C   UNL     1     147.339 139.127 148.504  1.00  0.00     0.063 C 
ATOM     28  C   UNL     1     148.786 137.783 146.925  1.00  0.00     0.033 C 
ATOM     29  C   UNL     1     148.198 139.163 147.231  1.00  0.00     0.118 C 
BRANCH  29  30
ATOM     30  O   UNL     1     147.433 139.615 146.140  1.00  0.00    -0.393 OA
ATOM     31  H   UNL     1     148.067 139.788 145.396  1.00  0.00     0.210 HD
ENDBRANCH  29  30
ENDBRANCH   1  11
TORSDOF 6
ENDMDL
MODEL 8
REMARK VINA RESULT:    -6.307      2.112      3.870
REMARK INTER + INTRA:          -9.786
REMARK INTER:                  -8.092
REMARK INTRA:                  -1.694
REMARK UNBOUND:                -1.450
REMARK SMILES CC[C@H](C=C[C@H](C)[C@H]1CC[C@H]2[C@@H]3CC=C4C[C@H](O)CC[C@]4(C)[C@@H]3CC[C@]12C)C(C)C
REMARK SMILES IDX 6 1 7 2 5 3 4 4 3 5 2 6 1 7 28 8 29 9 30 10 8 11 9 12 26 13
REMARK SMILES IDX 10 14 11 15 25 16 27 17 12 18 24 19 23 20 13 21 21 22 14 23
REMARK SMILES IDX 15 24 20 25 22 26 16 27 19 28 17 29 18 30
REMARK H PARENT 18 31
REMARK Flexibility Score: inf
ROOT
ATOM      1  C   UNL     1     140.316 132.365 146.538  1.00  0.00     0.012 C 
ATOM      2  C   UNL     1     138.916 132.116 147.124  1.00  0.00     0.012 C 
ENDROOT
BRANCH   1   3
ATOM      3  C   UNL     1     140.190 132.564 145.037  1.00  0.00    -0.028 C 
ATOM      4  C   UNL     1     139.590 133.590 144.402  1.00  0.00    -0.027 C 
BRANCH   4   5
ATOM      5  C   UNL     1     138.990 134.837 145.042  1.00  0.00     0.014 C 
BRANCH   5   6
ATOM      6  C   UNL     1     139.652 136.115 144.456  1.00  0.00     0.004 C 
ATOM      7  C   UNL     1     141.072 136.411 144.949  1.00  0.00     0.004 C 
ENDBRANCH   5   6
BRANCH   5   8
ATOM      8  C   UNL     1     137.420 134.806 145.049  1.00  0.00    -0.011 C 
ATOM      9  C   UNL     1     136.765 133.772 144.110  1.00  0.00     0.008 C 
ATOM     10  C   UNL     1     136.795 136.193 144.832  1.00  0.00     0.008 C 
ENDBRANCH   5   8
ENDBRANCH   4   5
ENDBRANCH   1   3
BRANCH   1  11
ATOM     11  C   UNL     1     141.057 133.510 147.317  1.00  0.00     0.002 C 
ATOM     12  C   UNL     1     140.484 133.804 148.718  1.00  0.00     0.005 C 
ATOM     13  C   UNL     1     142.603 133.487 147.542  1.00  0.00    -0.026 C 
ATOM     14  C   UNL     1     141.592 134.540 149.490  1.00  0.00     0.005 C 
ATOM     15  C   UNL     1     142.735 134.696 148.483  1.00  0.00    -0.001 C 
ATOM     16  C   UNL     1     143.445 133.781 146.272  1.00  0.00     0.007 C 
ATOM     17  C   UNL     1     143.065 132.157 148.228  1.00  0.00     0.012 C 
ATOM     18  C   UNL     1     144.163 134.935 149.046  1.00  0.00     0.000 C 
ATOM     19  C   UNL     1     144.693 134.676 146.519  1.00  0.00     0.005 C 
ATOM     20  C   UNL     1     145.283 134.601 147.971  1.00  0.00     0.003 C 
ATOM     21  C   UNL     1     144.248 136.376 149.636  1.00  0.00     0.031 C 
ATOM     22  C   UNL     1     146.604 135.447 148.197  1.00  0.00    -0.008 C 
ATOM     23  C   UNL     1     145.116 137.325 148.861  1.00  0.00    -0.027 C 
ATOM     24  C   UNL     1     146.251 136.933 148.252  1.00  0.00    -0.065 C 
ATOM     25  C   UNL     1     147.663 135.180 147.074  1.00  0.00     0.014 C 
ATOM     26  C   UNL     1     147.253 135.036 149.552  1.00  0.00     0.016 C 
ATOM     27  C   UNL     1     147.289 138.000 147.947  1.00  0.00     0.063 C 
ATOM     28  C   UNL     1     148.820 136.185 147.077  1.00  0.00     0.033 C 
ATOM     29  C   UNL     1     148.290 137.604 146.851  1.00  0.00     0.118 C 
BRANCH  29  30
ATOM     30  O   UNL     1     147.687 137.698 145.584  1.00  0.00    -0.393 OA
ATOM     31  H   UNL     1     146.839 137.185 145.629  1.00  0.00     0.210 HD
ENDBRANCH  29  30
ENDBRANCH   1  11
TORSDOF 6
ENDMDL
MODEL 9
REMARK VINA RESULT:    -6.168      2.620      9.087
REMARK INTER + INTRA:          -9.601
REMARK INTER:                  -8.100
REMARK INTRA:                  -1.501
REMARK UNBOUND:                -1.450
REMARK SMILES CC[C@H](C=C[C@H](C)[C@H]1CC[C@H]2[C@@H]3CC=C4C[C@H](O)CC[C@]4(C)[C@@H]3CC[C@]12C)C(C)C
REMARK SMILES IDX 6 1 7 2 5 3 4 4 3 5 2 6 1 7 28 8 29 9 30 10 8 11 9 12 26 13
REMARK SMILES IDX 10 14 11 15 25 16 27 17 12 18 24 19 23 20 13 21 21 22 14 23
REMARK SMILES IDX 15 24 20 25 22 26 16 27 19 28 17 29 18 30
REMARK H PARENT 18 31
REMARK Flexibility Score: inf
ROOT
ATOM      1  C   UNL     1     147.725 137.487 147.389  1.00  0.00     0.012 C 
ATOM      2  C   UNL     1     148.077 138.178 146.062  1.00  0.00     0.012 C 
ENDROOT
BRANCH   1   3
ATOM      3  C   UNL     1     148.240 138.340 148.537  1.00  0.00    -0.028 C 
ATOM      4  C   UNL     1     149.454 138.271 149.118  1.00  0.00    -0.027 C 
BRANCH   4   5
ATOM      5  C   UNL     1     150.624 137.392 148.691  1.00  0.00     0.014 C 
BRANCH   5   6
ATOM      6  C   UNL     1     151.927 138.235 148.603  1.00  0.00     0.004 C 
ATOM      7  C   UNL     1     151.729 139.747 148.457  1.00  0.00     0.004 C 
ENDBRANCH   5   6
BRANCH   5   8
ATOM      8  C   UNL     1     150.707 136.065 149.525  1.00  0.00    -0.011 C 
ATOM      9  C   UNL     1     149.782 134.920 149.062  1.00  0.00     0.008 C 
ATOM     10  C   UNL     1     150.546 136.300 151.036  1.00  0.00     0.008 C 
ENDBRANCH   5   8
ENDBRANCH   4   5
ENDBRANCH   1   3
BRANCH   1  11
ATOM     11  C   UNL     1     146.199 137.120 147.446  1.00  0.00     0.002 C 
ATOM     12  C   UNL     1     145.377 137.623 146.243  1.00  0.00     0.005 C 
ATOM     13  C   UNL     1     145.712 135.649 147.644  1.00  0.00    -0.026 C 
ATOM     14  C   UNL     1     144.096 136.771 146.212  1.00  0.00     0.005 C 
ATOM     15  C   UNL     1     144.203 135.857 147.434  1.00  0.00    -0.001 C 
ATOM     16  C   UNL     1     145.919 135.087 149.076  1.00  0.00     0.007 C 
ATOM     17  C   UNL     1     146.327 134.689 146.570  1.00  0.00     0.012 C 
ATOM     18  C   UNL     1     143.356 134.553 147.435  1.00  0.00     0.000 C 
ATOM     19  C   UNL     1     144.746 134.211 149.601  1.00  0.00     0.005 C 
ATOM     20  C   UNL     1     143.906 133.496 148.485  1.00  0.00     0.003 C 
ATOM     21  C   UNL     1     141.852 134.919 147.619  1.00  0.00     0.031 C 
ATOM     22  C   UNL     1     142.764 132.537 149.024  1.00  0.00    -0.008 C 
ATOM     23  C   UNL     1     141.260 134.514 148.938  1.00  0.00    -0.027 C 
ATOM     24  C   UNL     1     141.611 133.378 149.568  1.00  0.00    -0.065 C 
ATOM     25  C   UNL     1     143.299 131.564 150.130  1.00  0.00     0.014 C 
ATOM     26  C   UNL     1     142.234 131.659 147.851  1.00  0.00     0.016 C 
ATOM     27  C   UNL     1     140.636 132.810 150.587  1.00  0.00     0.063 C 
ATOM     28  C   UNL     1     142.184 130.834 150.888  1.00  0.00     0.033 C 
ATOM     29  C   UNL     1     141.276 131.844 151.595  1.00  0.00     0.118 C 
BRANCH  29  30
ATOM     30  O   UNL     1     142.008 132.560 152.559  1.00  0.00    -0.393 OA
ATOM     31  H   UNL     1     141.403 133.259 152.920  1.00  0.00     0.210 HD
ENDBRANCH  29  30
ENDBRANCH   1  11
TORSDOF 6
ENDMDL
