MODEL 1
REMARK VINA RESULT:    -7.651      0.000      0.000
REMARK INTER + INTRA:         -14.251
REMARK INTER:                 -12.124
REMARK INTRA:                  -2.127
REMARK UNBOUND:                -2.127
REMARK SMILES C[C@@H]1O[C@@H](O[C@@H]2[C@@H](Oc3cc(O)c4c(c3)O[C@H](c3ccc(O)cc3)CC4=O)O[C@@H](CO)[C@H](O)[C@@H]2O)[C@H](O)[C@H](O)[C@H]1O
REMARK SMILES IDX 6 1 34 2 32 3 29 4 28 5 7 6 5 7 4 8 1 9 2 10 40 11 3 12
REMARK SMILES IDX 38 13 36 14 41 15 39 17 37 19 35 21 8 23 9 24 10 25 15 26
REMARK SMILES IDX 11 27 14 28 13 29 16 30 26 31 17 32 27 33 25 34 12 35 18 37
REMARK SMILES IDX 19 38 24 39 20 40 23 41 21 42 22 43 33 45 30 47 31 48
REMARK H PARENT 41 16 39 18 37 20 35 22 12 36 22 44 33 46 31 49
REMARK Flexibility Score: inf
ROOT
ATOM      1  C   UNL     1     178.033 175.754 170.997  1.00  0.00     0.221 C 
ATOM      2  C   UNL     1     177.138 175.645 169.732  1.00  0.00     0.181 C 
ATOM      3  C   UNL     1     177.622 174.534 168.775  1.00  0.00     0.177 C 
ATOM      4  C   UNL     1     178.141 173.307 169.553  1.00  0.00     0.179 C 
ATOM      5  O   UNL     1     179.149 173.576 170.517  1.00  0.00    -0.332 OA
ATOM      6  C   UNL     1     179.355 174.940 170.875  1.00  0.00     0.339 C 
ENDROOT
BRANCH   1   7
ATOM      7  O   UNL     1     178.100 177.111 171.460  1.00  0.00    -0.337 OA
BRANCH   7   8
ATOM      8  C   UNL     1     176.985 177.652 172.176  1.00  0.00     0.282 C 
ATOM      9  C   UNL     1     176.562 180.796 170.295  1.00  0.00     0.041 C 
ATOM     10  C   UNL     1     177.265 179.787 171.208  1.00  0.00     0.150 C 
ATOM     11  C   UNL     1     177.639 180.445 172.557  1.00  0.00     0.174 C 
ATOM     12  O   UNL     1     176.387 178.687 171.408  1.00  0.00    -0.344 OA
ATOM     13  C   UNL     1     178.281 179.395 173.482  1.00  0.00     0.179 C 
ATOM     14  C   UNL     1     177.362 178.166 173.588  1.00  0.00     0.202 C 
BRANCH  11  15
ATOM     15  O   UNL     1     178.509 181.535 172.366  1.00  0.00    -0.388 OA
ATOM     16  H   UNL     1     178.022 182.362 172.621  1.00  0.00     0.211 HD
ENDBRANCH  11  15
BRANCH  13  17
ATOM     17  O   UNL     1     178.492 179.958 174.750  1.00  0.00    -0.387 OA
ATOM     18  H   UNL     1     178.614 179.206 175.380  1.00  0.00     0.211 HD
ENDBRANCH  13  17
BRANCH  14  19
ATOM     19  O   UNL     1     176.188 178.522 174.279  1.00  0.00    -0.385 OA
ATOM     20  H   UNL     1     175.598 177.725 174.269  1.00  0.00     0.211 HD
ENDBRANCH  14  19
ENDBRANCH   7   8
ENDBRANCH   1   7
BRANCH   2  21
ATOM     21  O   UNL     1     177.072 176.871 169.057  1.00  0.00    -0.387 OA
ATOM     22  H   UNL     1     176.184 176.922 168.617  1.00  0.00     0.211 HD
ENDBRANCH   2  21
BRANCH   6  23
ATOM     23  O   UNL     1     180.055 174.990 172.127  1.00  0.00    -0.462 OA
BRANCH  23  24
ATOM     24  C   UNL     1     180.804 176.093 172.556  1.00  0.00     0.130 A 
ATOM     25  C   UNL     1     181.823 176.597 171.746  1.00  0.00     0.093 A 
ATOM     26  C   UNL     1     180.543 176.689 173.797  1.00  0.00     0.094 A 
ATOM     27  C   UNL     1     182.641 177.640 172.195  1.00  0.00     0.133 A 
ATOM     28  C   UNL     1     181.372 177.699 174.274  1.00  0.00     0.138 A 
ATOM     29  C   UNL     1     182.446 178.175 173.493  1.00  0.00     0.102 A 
ATOM     30  O   UNL     1     181.111 178.247 175.534  1.00  0.00    -0.484 OA
ATOM     31  C   UNL     1     183.331 179.186 174.117  1.00  0.00     0.174 C 
ATOM     32  C   UNL     1     182.064 179.035 176.249  1.00  0.00     0.211 C 
ATOM     33  O   UNL     1     184.520 179.351 173.730  1.00  0.00    -0.294 OA
ATOM     34  C   UNL     1     182.826 179.976 175.292  1.00  0.00     0.131 C 
BRANCH  27  35
ATOM     35  O   UNL     1     183.599 178.137 171.312  1.00  0.00    -0.507 OA
ATOM     36  H   UNL     1     183.389 178.456 170.378  1.00  0.00     0.293 HD
ENDBRANCH  27  35
BRANCH  32  37
ATOM     37  C   UNL     1     181.344 179.789 177.345  1.00  0.00    -0.007 A 
ATOM     38  C   UNL     1     181.174 179.207 178.613  1.00  0.00     0.011 A 
ATOM     39  C   UNL     1     180.752 181.039 177.083  1.00  0.00     0.011 A 
ATOM     40  C   UNL     1     180.441 179.870 179.602  1.00  0.00     0.046 A 
ATOM     41  C   UNL     1     180.038 181.707 178.081  1.00  0.00     0.046 A 
ATOM     42  C   UNL     1     179.871 181.120 179.341  1.00  0.00     0.115 A 
BRANCH  42  43
ATOM     43  O   UNL     1     179.141 181.768 180.333  1.00  0.00    -0.508 OA
ATOM     44  H   UNL     1     179.555 182.499 180.906  1.00  0.00     0.293 HD
ENDBRANCH  42  43
ENDBRANCH  32  37
ENDBRANCH  23  24
ENDBRANCH   6  23
BRANCH   3  45
ATOM     45  O   UNL     1     178.647 175.021 167.945  1.00  0.00    -0.387 OA
ATOM     46  H   UNL     1     178.449 174.704 167.022  1.00  0.00     0.211 HD
ENDBRANCH   3  45
BRANCH   4  47
ATOM     47  C   UNL     1     177.009 172.495 170.215  1.00  0.00     0.191 C 
BRANCH  47  48
ATOM     48  O   UNL     1     177.057 171.149 169.811  1.00  0.00    -0.394 OA
ATOM     49  H   UNL     1     176.173 170.932 169.412  1.00  0.00     0.210 HD
ENDBRANCH  47  48
ENDBRANCH   4  47
TORSDOF 14
ENDMDL
MODEL 2
REMARK VINA RESULT:    -7.648      4.677      8.639
REMARK INTER + INTRA:         -14.246
REMARK INTER:                 -12.112
REMARK INTRA:                  -2.134
REMARK UNBOUND:                -2.127
REMARK SMILES C[C@@H]1O[C@@H](O[C@@H]2[C@@H](Oc3cc(O)c4c(c3)O[C@H](c3ccc(O)cc3)CC4=O)O[C@@H](CO)[C@H](O)[C@@H]2O)[C@H](O)[C@H](O)[C@H]1O
REMARK SMILES IDX 6 1 34 2 32 3 29 4 28 5 7 6 5 7 4 8 1 9 2 10 40 11 3 12
REMARK SMILES IDX 38 13 36 14 41 15 39 17 37 19 35 21 8 23 9 24 10 25 15 26
REMARK SMILES IDX 11 27 14 28 13 29 16 30 26 31 17 32 27 33 25 34 12 35 18 37
REMARK SMILES IDX 19 38 24 39 20 40 23 41 21 42 22 43 33 45 30 47 31 48
REMARK H PARENT 41 16 39 18 37 20 35 22 12 36 22 44 33 46 31 49
REMARK Flexibility Score: inf
ROOT
ATOM      1  C   UNL     1     182.696 184.947 170.978  1.00  0.00     0.221 C 
ATOM      2  C   UNL     1     183.551 185.052 169.686  1.00  0.00     0.181 C 
ATOM      3  C   UNL     1     183.063 186.187 168.760  1.00  0.00     0.177 C 
ATOM      4  C   UNL     1     182.599 187.416 169.571  1.00  0.00     0.179 C 
ATOM      5  O   UNL     1     181.618 187.157 170.564  1.00  0.00    -0.332 OA
ATOM      6  C   UNL     1     181.390 185.794 170.911  1.00  0.00     0.339 C 
ENDROOT
BRANCH   1   7
ATOM      7  O   UNL     1     182.611 183.586 171.427  1.00  0.00    -0.337 OA
BRANCH   7   8
ATOM      8  C   UNL     1     183.729 183.013 172.112  1.00  0.00     0.282 C 
ATOM      9  C   UNL     1     184.093 179.920 170.138  1.00  0.00     0.041 C 
ATOM     10  C   UNL     1     183.414 180.909 171.088  1.00  0.00     0.150 C 
ATOM     11  C   UNL     1     183.051 180.218 172.423  1.00  0.00     0.174 C 
ATOM     12  O   UNL     1     184.306 181.994 171.307  1.00  0.00    -0.344 OA
ATOM     13  C   UNL     1     182.433 181.248 173.386  1.00  0.00     0.179 C 
ATOM     14  C   UNL     1     183.366 182.464 173.514  1.00  0.00     0.202 C 
BRANCH  11  15
ATOM     15  O   UNL     1     182.167 179.143 172.215  1.00  0.00    -0.388 OA
ATOM     16  H   UNL     1     181.478 179.171 172.929  1.00  0.00     0.211 HD
ENDBRANCH  11  15
BRANCH  13  17
ATOM     17  O   UNL     1     182.233 180.652 174.641  1.00  0.00    -0.387 OA
ATOM     18  H   UNL     1     183.124 180.573 175.064  1.00  0.00     0.211 HD
ENDBRANCH  13  17
BRANCH  14  19
ATOM     19  O   UNL     1     184.545 182.076 174.179  1.00  0.00    -0.385 OA
ATOM     20  H   UNL     1     184.331 181.246 174.678  1.00  0.00     0.211 HD
ENDBRANCH  14  19
ENDBRANCH   7   8
ENDBRANCH   1   7
BRANCH   2  21
ATOM     21  O   UNL     1     183.565 183.834 168.994  1.00  0.00    -0.387 OA
ATOM     22  H   UNL     1     184.359 183.839 168.399  1.00  0.00     0.211 HD
ENDBRANCH   2  21
BRANCH   6  23
ATOM     23  O   UNL     1     180.730 185.743 172.184  1.00  0.00    -0.462 OA
BRANCH  23  24
ATOM     24  C   UNL     1     179.976 184.649 172.627  1.00  0.00     0.130 A 
ATOM     25  C   UNL     1     178.929 184.166 171.842  1.00  0.00     0.093 A 
ATOM     26  C   UNL     1     180.262 184.041 173.857  1.00  0.00     0.094 A 
ATOM     27  C   UNL     1     178.107 183.132 172.308  1.00  0.00     0.133 A 
ATOM     28  C   UNL     1     179.431 183.041 174.351  1.00  0.00     0.138 A 
ATOM     29  C   UNL     1     178.329 182.586 173.596  1.00  0.00     0.102 A 
ATOM     30  O   UNL     1     179.717 182.481 175.600  1.00  0.00    -0.484 OA
ATOM     31  C   UNL     1     177.446 181.585 174.238  1.00  0.00     0.174 C 
ATOM     32  C   UNL     1     178.772 181.703 176.336  1.00  0.00     0.211 C 
ATOM     33  O   UNL     1     176.244 181.440 173.883  1.00  0.00    -0.294 OA
ATOM     34  C   UNL     1     177.971 180.780 175.395  1.00  0.00     0.131 C 
BRANCH  27  35
ATOM     35  O   UNL     1     177.118 182.656 171.448  1.00  0.00    -0.507 OA
ATOM     36  H   UNL     1     176.334 182.097 171.751  1.00  0.00     0.293 HD
ENDBRANCH  27  35
BRANCH  32  37
ATOM     37  C   UNL     1     179.511 180.931 177.407  1.00  0.00    -0.007 A 
ATOM     38  C   UNL     1     179.738 181.509 178.668  1.00  0.00     0.011 A 
ATOM     39  C   UNL     1     180.061 179.666 177.127  1.00  0.00     0.011 A 
ATOM     40  C   UNL     1     180.488 180.828 179.633  1.00  0.00     0.046 A 
ATOM     41  C   UNL     1     180.792 178.981 178.100  1.00  0.00     0.046 A 
ATOM     42  C   UNL     1     181.017 179.564 179.353  1.00  0.00     0.115 A 
BRANCH  42  43
ATOM     43  O   UNL     1     181.764 178.898 180.321  1.00  0.00    -0.508 OA
ATOM     44  H   UNL     1     181.922 179.301 181.241  1.00  0.00     0.293 HD
ENDBRANCH  42  43
ENDBRANCH  32  37
ENDBRANCH  23  24
ENDBRANCH   6  23
BRANCH   3  45
ATOM     45  O   UNL     1     182.000 185.736 167.958  1.00  0.00    -0.387 OA
ATOM     46  H   UNL     1     182.049 186.240 167.101  1.00  0.00     0.211 HD
ENDBRANCH   3  45
BRANCH   4  47
ATOM     47  C   UNL     1     183.772 188.191 170.205  1.00  0.00     0.191 C 
BRANCH  47  48
ATOM     48  O   UNL     1     183.549 189.578 170.138  1.00  0.00    -0.394 OA
ATOM     49  H   UNL     1     183.029 189.830 170.946  1.00  0.00     0.210 HD
ENDBRANCH  47  48
ENDBRANCH   4  47
TORSDOF 14
ENDMDL
MODEL 3
REMARK VINA RESULT:    -7.611      2.268      5.192
REMARK INTER + INTRA:         -14.188
REMARK INTER:                 -12.024
REMARK INTRA:                  -2.164
REMARK UNBOUND:                -2.127
REMARK SMILES C[C@@H]1O[C@@H](O[C@@H]2[C@@H](Oc3cc(O)c4c(c3)O[C@H](c3ccc(O)cc3)CC4=O)O[C@@H](CO)[C@H](O)[C@@H]2O)[C@H](O)[C@H](O)[C@H]1O
REMARK SMILES IDX 6 1 34 2 32 3 29 4 28 5 7 6 5 7 4 8 1 9 2 10 40 11 3 12
REMARK SMILES IDX 38 13 36 14 41 15 39 17 37 19 35 21 8 23 9 24 10 25 15 26
REMARK SMILES IDX 11 27 14 28 13 29 16 30 26 31 17 32 27 33 25 34 12 35 18 37
REMARK SMILES IDX 19 38 24 39 20 40 23 41 21 42 22 43 33 45 30 47 31 48
REMARK H PARENT 41 16 39 18 37 20 35 22 12 36 22 44 33 46 31 49
REMARK Flexibility Score: inf
ROOT
ATOM      1  C   UNL     1     176.336 176.948 169.932  1.00  0.00     0.221 C 
ATOM      2  C   UNL     1     175.379 175.915 169.277  1.00  0.00     0.181 C 
ATOM      3  C   UNL     1     174.420 176.577 168.264  1.00  0.00     0.177 C 
ATOM      4  C   UNL     1     175.124 177.700 167.472  1.00  0.00     0.179 C 
ATOM      5  O   UNL     1     175.749 178.703 168.260  1.00  0.00    -0.332 OA
ATOM      6  C   UNL     1     175.923 178.423 169.646  1.00  0.00     0.339 C 
ENDROOT
BRANCH   1   7
ATOM      7  O   UNL     1     176.651 176.570 171.281  1.00  0.00    -0.337 OA
BRANCH   7   8
ATOM      8  C   UNL     1     177.361 175.349 171.508  1.00  0.00     0.282 C 
ATOM      9  C   UNL     1     178.209 175.827 175.065  1.00  0.00     0.041 C 
ATOM     10  C   UNL     1     178.237 176.117 173.561  1.00  0.00     0.150 C 
ATOM     11  C   UNL     1     179.692 176.124 173.037  1.00  0.00     0.174 C 
ATOM     12  O   UNL     1     177.468 175.116 172.906  1.00  0.00    -0.344 OA
ATOM     13  C   UNL     1     179.690 176.348 171.514  1.00  0.00     0.179 C 
ATOM     14  C   UNL     1     178.759 175.325 170.840  1.00  0.00     0.202 C 
BRANCH  11  15
ATOM     15  O   UNL     1     180.459 177.112 173.682  1.00  0.00    -0.388 OA
ATOM     16  H   UNL     1     180.155 177.998 173.353  1.00  0.00     0.211 HD
ENDBRANCH  11  15
BRANCH  13  17
ATOM     17  O   UNL     1     180.997 176.216 171.022  1.00  0.00    -0.387 OA
ATOM     18  H   UNL     1     180.923 175.826 170.116  1.00  0.00     0.211 HD
ENDBRANCH  13  17
BRANCH  14  19
ATOM     19  O   UNL     1     179.312 174.037 170.971  1.00  0.00    -0.385 OA
ATOM     20  H   UNL     1     178.778 173.437 170.388  1.00  0.00     0.211 HD
ENDBRANCH  14  19
ENDBRANCH   7   8
ENDBRANCH   1   7
BRANCH   2  21
ATOM     21  O   UNL     1     174.650 175.220 170.250  1.00  0.00    -0.387 OA
ATOM     22  H   UNL     1     174.121 175.888 170.760  1.00  0.00     0.211 HD
ENDBRANCH   2  21
BRANCH   6  23
ATOM     23  O   UNL     1     176.926 179.302 170.175  1.00  0.00    -0.462 OA
BRANCH  23  24
ATOM     24  C   UNL     1     177.042 179.624 171.533  1.00  0.00     0.130 A 
ATOM     25  C   UNL     1     175.917 180.039 172.246  1.00  0.00     0.093 A 
ATOM     26  C   UNL     1     178.283 179.540 172.179  1.00  0.00     0.094 A 
ATOM     27  C   UNL     1     176.029 180.450 173.580  1.00  0.00     0.133 A 
ATOM     28  C   UNL     1     178.418 179.983 173.491  1.00  0.00     0.138 A 
ATOM     29  C   UNL     1     177.301 180.465 174.204  1.00  0.00     0.102 A 
ATOM     30  O   UNL     1     179.677 179.925 174.096  1.00  0.00    -0.484 OA
ATOM     31  C   UNL     1     177.554 181.001 175.562  1.00  0.00     0.174 C 
ATOM     32  C   UNL     1     179.997 180.640 175.291  1.00  0.00     0.211 C 
ATOM     33  O   UNL     1     176.772 181.833 176.100  1.00  0.00    -0.294 OA
ATOM     34  C   UNL     1     178.814 180.608 176.281  1.00  0.00     0.131 C 
BRANCH  27  35
ATOM     35  O   UNL     1     174.856 180.793 174.251  1.00  0.00    -0.507 OA
ATOM     36  H   UNL     1     173.931 180.560 173.920  1.00  0.00     0.293 HD
ENDBRANCH  27  35
BRANCH  32  37
ATOM     37  C   UNL     1     181.259 180.052 175.884  1.00  0.00    -0.007 A 
ATOM     38  C   UNL     1     182.443 180.007 175.128  1.00  0.00     0.011 A 
ATOM     39  C   UNL     1     181.240 179.458 177.160  1.00  0.00     0.011 A 
ATOM     40  C   UNL     1     183.589 179.393 175.645  1.00  0.00     0.046 A 
ATOM     41  C   UNL     1     182.393 178.865 177.681  1.00  0.00     0.046 A 
ATOM     42  C   UNL     1     183.568 178.821 176.921  1.00  0.00     0.115 A 
BRANCH  42  43
ATOM     43  O   UNL     1     184.714 178.211 177.423  1.00  0.00    -0.508 OA
ATOM     44  H   UNL     1     184.781 177.202 177.520  1.00  0.00     0.293 HD
ENDBRANCH  42  43
ENDBRANCH  32  37
ENDBRANCH  23  24
ENDBRANCH   6  23
BRANCH   3  45
ATOM     45  O   UNL     1     173.304 177.112 168.929  1.00  0.00    -0.387 OA
ATOM     46  H   UNL     1     173.339 178.100 168.808  1.00  0.00     0.211 HD
ENDBRANCH   3  45
BRANCH   4  47
ATOM     47  C   UNL     1     176.135 177.161 166.440  1.00  0.00     0.191 C 
BRANCH  47  48
ATOM     48  O   UNL     1     177.364 177.837 166.544  1.00  0.00    -0.394 OA
ATOM     49  H   UNL     1     178.040 177.291 166.062  1.00  0.00     0.210 HD
ENDBRANCH  47  48
ENDBRANCH   4  47
TORSDOF 14
ENDMDL
MODEL 4
REMARK VINA RESULT:    -7.559      2.378      5.060
REMARK INTER + INTRA:         -14.104
REMARK INTER:                 -12.473
REMARK INTRA:                  -1.631
REMARK UNBOUND:                -2.127
REMARK SMILES C[C@@H]1O[C@@H](O[C@@H]2[C@@H](Oc3cc(O)c4c(c3)O[C@H](c3ccc(O)cc3)CC4=O)O[C@@H](CO)[C@H](O)[C@@H]2O)[C@H](O)[C@H](O)[C@H]1O
REMARK SMILES IDX 6 1 34 2 32 3 29 4 28 5 7 6 5 7 4 8 1 9 2 10 40 11 3 12
REMARK SMILES IDX 38 13 36 14 41 15 39 17 37 19 35 21 8 23 9 24 10 25 15 26
REMARK SMILES IDX 11 27 14 28 13 29 16 30 26 31 17 32 27 33 25 34 12 35 18 37
REMARK SMILES IDX 19 38 24 39 20 40 23 41 21 42 22 43 33 45 30 47 31 48
REMARK H PARENT 41 16 39 18 37 20 35 22 12 36 22 44 33 46 31 49
REMARK Flexibility Score: inf
ROOT
ATOM      1  C   UNL     1     182.916 175.487 170.263  1.00  0.00     0.221 C 
ATOM      2  C   UNL     1     183.375 175.340 168.787  1.00  0.00     0.181 C 
ATOM      3  C   UNL     1     183.185 173.899 168.264  1.00  0.00     0.177 C 
ATOM      4  C   UNL     1     181.891 173.265 168.816  1.00  0.00     0.179 C 
ATOM      5  O   UNL     1     181.759 173.278 170.230  1.00  0.00    -0.332 OA
ATOM      6  C   UNL     1     182.654 174.117 170.956  1.00  0.00     0.339 C 
ENDROOT
BRANCH   1   7
ATOM      7  O   UNL     1     183.712 176.465 170.951  1.00  0.00    -0.337 OA
BRANCH   7   8
ATOM      8  C   UNL     1     183.107 177.706 171.328  1.00  0.00     0.282 C 
ATOM      9  C   UNL     1     184.268 179.791 168.515  1.00  0.00     0.041 C 
ATOM     10  C   UNL     1     184.398 178.928 169.774  1.00  0.00     0.150 C 
ATOM     11  C   UNL     1     185.162 179.693 170.880  1.00  0.00     0.174 C 
ATOM     12  O   UNL     1     183.090 178.583 170.209  1.00  0.00    -0.344 OA
ATOM     13  C   UNL     1     185.220 178.834 172.155  1.00  0.00     0.179 C 
ATOM     14  C   UNL     1     183.802 178.377 172.539  1.00  0.00     0.202 C 
BRANCH  11  15
ATOM     15  O   UNL     1     186.458 180.038 170.456  1.00  0.00    -0.388 OA
ATOM     16  H   UNL     1     186.407 180.921 170.003  1.00  0.00     0.211 HD
ENDBRANCH  11  15
BRANCH  13  17
ATOM     17  O   UNL     1     185.789 179.583 173.196  1.00  0.00    -0.387 OA
ATOM     18  H   UNL     1     185.276 180.427 173.255  1.00  0.00     0.211 HD
ENDBRANCH  13  17
BRANCH  14  19
ATOM     19  O   UNL     1     183.047 179.495 172.944  1.00  0.00    -0.385 OA
ATOM     20  H   UNL     1     182.278 179.561 172.320  1.00  0.00     0.211 HD
ENDBRANCH  14  19
ENDBRANCH   7   8
ENDBRANCH   1   7
BRANCH   2  21
ATOM     21  O   UNL     1     184.709 175.739 168.634  1.00  0.00    -0.387 OA
ATOM     22  H   UNL     1     184.901 175.769 167.660  1.00  0.00     0.211 HD
ENDBRANCH   2  21
BRANCH   6  23
ATOM     23  O   UNL     1     182.114 174.347 172.265  1.00  0.00    -0.462 OA
BRANCH  23  24
ATOM     24  C   UNL     1     181.061 175.233 172.527  1.00  0.00     0.130 A 
ATOM     25  C   UNL     1     179.928 175.224 171.713  1.00  0.00     0.093 A 
ATOM     26  C   UNL     1     181.141 176.134 173.598  1.00  0.00     0.094 A 
ATOM     27  C   UNL     1     178.905 176.161 171.903  1.00  0.00     0.133 A 
ATOM     28  C   UNL     1     180.152 177.097 173.775  1.00  0.00     0.138 A 
ATOM     29  C   UNL     1     179.031 177.140 172.919  1.00  0.00     0.102 A 
ATOM     30  O   UNL     1     180.279 178.008 174.827  1.00  0.00    -0.484 OA
ATOM     31  C   UNL     1     178.076 178.254 173.124  1.00  0.00     0.174 C 
ATOM     32  C   UNL     1     179.518 179.214 174.904  1.00  0.00     0.211 C 
ATOM     33  O   UNL     1     177.320 178.655 172.196  1.00  0.00    -0.294 OA
ATOM     34  C   UNL     1     178.065 178.977 174.443  1.00  0.00     0.131 C 
BRANCH  27  35
ATOM     35  O   UNL     1     177.774 176.057 171.094  1.00  0.00    -0.507 OA
ATOM     36  H   UNL     1     176.911 176.551 171.270  1.00  0.00     0.293 HD
ENDBRANCH  27  35
BRANCH  32  37
ATOM     37  C   UNL     1     179.591 179.744 176.320  1.00  0.00    -0.007 A 
ATOM     38  C   UNL     1     179.025 180.989 176.642  1.00  0.00     0.011 A 
ATOM     39  C   UNL     1     180.309 179.045 177.309  1.00  0.00     0.011 A 
ATOM     40  C   UNL     1     179.160 181.516 177.931  1.00  0.00     0.046 A 
ATOM     41  C   UNL     1     180.424 179.565 178.601  1.00  0.00     0.046 A 
ATOM     42  C   UNL     1     179.859 180.807 178.913  1.00  0.00     0.115 A 
BRANCH  42  43
ATOM     43  O   UNL     1     179.988 181.343 180.191  1.00  0.00    -0.508 OA
ATOM     44  H   UNL     1     180.561 180.894 180.901  1.00  0.00     0.293 HD
ENDBRANCH  42  43
ENDBRANCH  32  37
ENDBRANCH  23  24
ENDBRANCH   6  23
BRANCH   3  45
ATOM     45  O   UNL     1     184.282 173.101 168.630  1.00  0.00    -0.387 OA
ATOM     46  H   UNL     1     184.939 173.698 169.082  1.00  0.00     0.211 HD
ENDBRANCH   3  45
BRANCH   4  47
ATOM     47  C   UNL     1     180.616 173.857 168.182  1.00  0.00     0.191 C 
BRANCH  47  48
ATOM     48  O   UNL     1     179.463 173.311 168.773  1.00  0.00    -0.394 OA
ATOM     49  H   UNL     1     178.786 173.209 168.053  1.00  0.00     0.210 HD
ENDBRANCH  47  48
ENDBRANCH   4  47
TORSDOF 14
ENDMDL
MODEL 5
REMARK VINA RESULT:    -7.556      4.671      7.683
REMARK INTER + INTRA:         -14.100
REMARK INTER:                 -12.481
REMARK INTRA:                  -1.619
REMARK UNBOUND:                -2.127
REMARK SMILES C[C@@H]1O[C@@H](O[C@@H]2[C@@H](Oc3cc(O)c4c(c3)O[C@H](c3ccc(O)cc3)CC4=O)O[C@@H](CO)[C@H](O)[C@@H]2O)[C@H](O)[C@H](O)[C@H]1O
REMARK SMILES IDX 6 1 34 2 32 3 29 4 28 5 7 6 5 7 4 8 1 9 2 10 40 11 3 12
REMARK SMILES IDX 38 13 36 14 41 15 39 17 37 19 35 21 8 23 9 24 10 25 15 26
REMARK SMILES IDX 11 27 14 28 13 29 16 30 26 31 17 32 27 33 25 34 12 35 18 37
REMARK SMILES IDX 19 38 24 39 20 40 23 41 21 42 22 43 33 45 30 47 31 48
REMARK H PARENT 41 16 39 18 37 20 35 22 12 36 22 44 33 46 31 49
REMARK Flexibility Score: inf
ROOT
ATOM      1  C   UNL     1     177.762 185.260 170.185  1.00  0.00     0.221 C 
ATOM      2  C   UNL     1     177.286 185.370 168.710  1.00  0.00     0.181 C 
ATOM      3  C   UNL     1     177.454 186.801 168.154  1.00  0.00     0.177 C 
ATOM      4  C   UNL     1     178.747 187.461 168.678  1.00  0.00     0.179 C 
ATOM      5  O   UNL     1     178.894 187.481 170.091  1.00  0.00    -0.332 OA
ATOM      6  C   UNL     1     178.016 186.648 170.845  1.00  0.00     0.339 C 
ENDROOT
BRANCH   1   7
ATOM      7  O   UNL     1     176.985 184.289 170.902  1.00  0.00    -0.337 OA
BRANCH   7   8
ATOM      8  C   UNL     1     177.599 183.051 171.274  1.00  0.00     0.282 C 
ATOM      9  C   UNL     1     176.401 180.953 168.487  1.00  0.00     0.041 C 
ATOM     10  C   UNL     1     176.287 181.820 169.745  1.00  0.00     0.150 C 
ATOM     11  C   UNL     1     175.543 181.057 170.865  1.00  0.00     0.174 C 
ATOM     12  O   UNL     1     177.601 182.170 170.158  1.00  0.00    -0.344 OA
ATOM     13  C   UNL     1     175.502 181.920 172.138  1.00  0.00     0.179 C 
ATOM     14  C   UNL     1     176.925 182.383 172.498  1.00  0.00     0.202 C 
BRANCH  11  15
ATOM     15  O   UNL     1     174.241 180.706 170.462  1.00  0.00    -0.388 OA
ATOM     16  H   UNL     1     173.661 180.710 171.268  1.00  0.00     0.211 HD
ENDBRANCH  11  15
BRANCH  13  17
ATOM     17  O   UNL     1     174.951 181.173 173.191  1.00  0.00    -0.387 OA
ATOM     18  H   UNL     1     174.771 181.808 173.928  1.00  0.00     0.211 HD
ENDBRANCH  13  17
BRANCH  14  19
ATOM     19  O   UNL     1     177.688 181.268 172.895  1.00  0.00    -0.385 OA
ATOM     20  H   UNL     1     178.043 180.855 172.065  1.00  0.00     0.211 HD
ENDBRANCH  14  19
ENDBRANCH   7   8
ENDBRANCH   1   7
BRANCH   2  21
ATOM     21  O   UNL     1     175.955 184.953 168.581  1.00  0.00    -0.387 OA
ATOM     22  H   UNL     1     175.393 185.587 169.099  1.00  0.00     0.211 HD
ENDBRANCH   2  21
BRANCH   6  23
ATOM     23  O   UNL     1     178.573 186.452 172.152  1.00  0.00    -0.462 OA
BRANCH  23  24
ATOM     24  C   UNL     1     179.615 185.558 172.428  1.00  0.00     0.130 A 
ATOM     25  C   UNL     1     180.748 185.541 171.614  1.00  0.00     0.093 A 
ATOM     26  C   UNL     1     179.525 184.675 173.513  1.00  0.00     0.094 A 
ATOM     27  C   UNL     1     181.760 184.594 171.819  1.00  0.00     0.133 A 
ATOM     28  C   UNL     1     180.502 183.703 173.705  1.00  0.00     0.138 A 
ATOM     29  C   UNL     1     181.621 183.632 172.850  1.00  0.00     0.102 A 
ATOM     30  O   UNL     1     180.363 182.810 174.771  1.00  0.00    -0.484 OA
ATOM     31  C   UNL     1     182.563 182.511 173.072  1.00  0.00     0.174 C 
ATOM     32  C   UNL     1     181.110 181.596 174.867  1.00  0.00     0.211 C 
ATOM     33  O   UNL     1     183.314 182.086 172.151  1.00  0.00    -0.294 OA
ATOM     34  C   UNL     1     182.565 181.808 174.402  1.00  0.00     0.131 C 
BRANCH  27  35
ATOM     35  O   UNL     1     182.891 184.672 171.008  1.00  0.00    -0.507 OA
ATOM     36  H   UNL     1     183.811 184.911 171.350  1.00  0.00     0.293 HD
ENDBRANCH  27  35
BRANCH  32  37
ATOM     37  C   UNL     1     181.030 181.089 176.291  1.00  0.00    -0.007 A 
ATOM     38  C   UNL     1     181.567 179.835 176.629  1.00  0.00     0.011 A 
ATOM     39  C   UNL     1     180.336 181.821 177.273  1.00  0.00     0.011 A 
ATOM     40  C   UNL     1     181.425 179.331 177.925  1.00  0.00     0.046 A 
ATOM     41  C   UNL     1     180.214 181.323 178.572  1.00  0.00     0.046 A 
ATOM     42  C   UNL     1     180.749 180.072 178.900  1.00  0.00     0.115 A 
BRANCH  42  43
ATOM     43  O   UNL     1     180.612 179.558 180.187  1.00  0.00    -0.508 OA
ATOM     44  H   UNL     1     180.092 180.054 180.905  1.00  0.00     0.293 HD
ENDBRANCH  42  43
ENDBRANCH  32  37
ENDBRANCH  23  24
ENDBRANCH   6  23
BRANCH   3  45
ATOM     45  O   UNL     1     176.352 187.595 168.515  1.00  0.00    -0.387 OA
ATOM     46  H   UNL     1     176.391 188.418 167.955  1.00  0.00     0.211 HD
ENDBRANCH   3  45
BRANCH   4  47
ATOM     47  C   UNL     1     180.021 186.869 168.043  1.00  0.00     0.191 C 
BRANCH  47  48
ATOM     48  O   UNL     1     181.174 187.408 168.640  1.00  0.00    -0.394 OA
ATOM     49  H   UNL     1     181.316 188.308 168.241  1.00  0.00     0.210 HD
ENDBRANCH  47  48
ENDBRANCH   4  47
TORSDOF 14
ENDMDL
MODEL 6
REMARK VINA RESULT:    -7.542      5.040      8.029
REMARK INTER + INTRA:         -14.078
REMARK INTER:                 -12.697
REMARK INTRA:                  -1.381
REMARK UNBOUND:                -2.127
REMARK SMILES C[C@@H]1O[C@@H](O[C@@H]2[C@@H](Oc3cc(O)c4c(c3)O[C@H](c3ccc(O)cc3)CC4=O)O[C@@H](CO)[C@H](O)[C@@H]2O)[C@H](O)[C@H](O)[C@H]1O
REMARK SMILES IDX 6 1 34 2 32 3 29 4 28 5 7 6 5 7 4 8 1 9 2 10 40 11 3 12
REMARK SMILES IDX 38 13 36 14 41 15 39 17 37 19 35 21 8 23 9 24 10 25 15 26
REMARK SMILES IDX 11 27 14 28 13 29 16 30 26 31 17 32 27 33 25 34 12 35 18 37
REMARK SMILES IDX 19 38 24 39 20 40 23 41 21 42 22 43 33 45 30 47 31 48
REMARK H PARENT 41 16 39 18 37 20 35 22 12 36 22 44 33 46 31 49
REMARK Flexibility Score: inf
ROOT
ATOM      1  C   UNL     1     182.229 185.596 169.494  1.00  0.00     0.221 C 
ATOM      2  C   UNL     1     182.737 187.063 169.533  1.00  0.00     0.181 C 
ATOM      3  C   UNL     1     184.163 187.165 170.119  1.00  0.00     0.177 C 
ATOM      4  C   UNL     1     185.041 185.975 169.676  1.00  0.00     0.179 C 
ATOM      5  O   UNL     1     184.507 184.688 169.946  1.00  0.00    -0.332 OA
ATOM      6  C   UNL     1     183.130 184.620 170.308  1.00  0.00     0.339 C 
ENDROOT
BRANCH   1   7
ATOM      7  O   UNL     1     180.807 185.543 169.686  1.00  0.00    -0.337 OA
BRANCH   7   8
ATOM      8  C   UNL     1     180.297 185.148 170.964  1.00  0.00     0.282 C 
ATOM      9  C   UNL     1     177.998 182.481 169.869  1.00  0.00     0.041 C 
ATOM     10  C   UNL     1     178.536 183.909 169.996  1.00  0.00     0.150 C 
ATOM     11  C   UNL     1     177.447 184.851 170.561  1.00  0.00     0.174 C 
ATOM     12  O   UNL     1     179.671 183.877 170.852  1.00  0.00    -0.344 OA
ATOM     13  C   UNL     1     178.032 186.263 170.745  1.00  0.00     0.179 C 
ATOM     14  C   UNL     1     179.324 186.186 171.577  1.00  0.00     0.202 C 
BRANCH  11  15
ATOM     15  O   UNL     1     176.320 184.887 169.720  1.00  0.00    -0.388 OA
ATOM     16  H   UNL     1     176.491 184.279 168.953  1.00  0.00     0.211 HD
ENDBRANCH  11  15
BRANCH  13  17
ATOM     17  O   UNL     1     177.087 187.079 171.385  1.00  0.00    -0.387 OA
ATOM     18  H   UNL     1     176.664 187.632 170.682  1.00  0.00     0.211 HD
ENDBRANCH  13  17
BRANCH  14  19
ATOM     19  O   UNL     1     179.006 185.801 172.893  1.00  0.00    -0.385 OA
ATOM     20  H   UNL     1     179.867 185.629 173.356  1.00  0.00     0.211 HD
ENDBRANCH  14  19
ENDBRANCH   7   8
ENDBRANCH   1   7
BRANCH   2  21
ATOM     21  O   UNL     1     181.858 187.880 170.255  1.00  0.00    -0.387 OA
ATOM     22  H   UNL     1     181.670 188.681 169.699  1.00  0.00     0.211 HD
ENDBRANCH   2  21
BRANCH   6  23
ATOM     23  O   UNL     1     182.664 183.277 170.112  1.00  0.00    -0.462 OA
BRANCH  23  24
ATOM     24  C   UNL     1     182.934 182.223 170.995  1.00  0.00     0.130 A 
ATOM     25  C   UNL     1     183.853 181.237 170.637  1.00  0.00     0.093 A 
ATOM     26  C   UNL     1     182.280 182.149 172.232  1.00  0.00     0.094 A 
ATOM     27  C   UNL     1     184.070 180.129 171.465  1.00  0.00     0.133 A 
ATOM     28  C   UNL     1     182.455 181.036 173.048  1.00  0.00     0.138 A 
ATOM     29  C   UNL     1     183.333 179.999 172.668  1.00  0.00     0.102 A 
ATOM     30  O   UNL     1     181.758 180.971 174.258  1.00  0.00    -0.484 OA
ATOM     31  C   UNL     1     183.386 178.811 173.552  1.00  0.00     0.174 C 
ATOM     32  C   UNL     1     181.606 179.760 175.001  1.00  0.00     0.211 C 
ATOM     33  O   UNL     1     183.759 177.685 173.122  1.00  0.00    -0.294 OA
ATOM     34  C   UNL     1     182.906 178.931 174.972  1.00  0.00     0.131 C 
BRANCH  27  35
ATOM     35  O   UNL     1     185.046 179.212 171.077  1.00  0.00    -0.507 OA
ATOM     36  H   UNL     1     185.956 179.147 171.508  1.00  0.00     0.293 HD
ENDBRANCH  27  35
BRANCH  32  37
ATOM     37  C   UNL     1     181.177 180.107 176.410  1.00  0.00    -0.007 A 
ATOM     38  C   UNL     1     181.515 179.264 177.482  1.00  0.00     0.011 A 
ATOM     39  C   UNL     1     180.355 181.224 176.653  1.00  0.00     0.011 A 
ATOM     40  C   UNL     1     181.053 179.541 178.773  1.00  0.00     0.046 A 
ATOM     41  C   UNL     1     179.912 181.509 177.947  1.00  0.00     0.046 A 
ATOM     42  C   UNL     1     180.252 180.662 179.009  1.00  0.00     0.115 A 
BRANCH  42  43
ATOM     43  O   UNL     1     179.796 180.926 180.298  1.00  0.00    -0.508 OA
ATOM     44  H   UNL     1     179.346 180.209 180.861  1.00  0.00     0.293 HD
ENDBRANCH  42  43
ENDBRANCH  32  37
ENDBRANCH  23  24
ENDBRANCH   6  23
BRANCH   3  45
ATOM     45  O   UNL     1     184.109 187.200 171.523  1.00  0.00    -0.387 OA
ATOM     46  H   UNL     1     184.988 186.872 171.856  1.00  0.00     0.211 HD
ENDBRANCH   3  45
BRANCH   4  47
ATOM     47  C   UNL     1     185.449 186.054 168.190  1.00  0.00     0.191 C 
BRANCH  47  48
ATOM     48  O   UNL     1     185.721 187.382 167.816  1.00  0.00    -0.394 OA
ATOM     49  H   UNL     1     185.146 187.588 167.032  1.00  0.00     0.210 HD
ENDBRANCH  47  48
ENDBRANCH   4  47
TORSDOF 14
ENDMDL
MODEL 7
REMARK VINA RESULT:    -7.490      2.096      4.976
REMARK INTER + INTRA:         -13.995
REMARK INTER:                 -12.613
REMARK INTRA:                  -1.383
REMARK UNBOUND:                -2.127
REMARK SMILES C[C@@H]1O[C@@H](O[C@@H]2[C@@H](Oc3cc(O)c4c(c3)O[C@H](c3ccc(O)cc3)CC4=O)O[C@@H](CO)[C@H](O)[C@@H]2O)[C@H](O)[C@H](O)[C@H]1O
REMARK SMILES IDX 6 1 34 2 32 3 29 4 28 5 7 6 5 7 4 8 1 9 2 10 40 11 3 12
REMARK SMILES IDX 38 13 36 14 41 15 39 17 37 19 35 21 8 23 9 24 10 25 15 26
REMARK SMILES IDX 11 27 14 28 13 29 16 30 26 31 17 32 27 33 25 34 12 35 18 37
REMARK SMILES IDX 19 38 24 39 20 40 23 41 21 42 22 43 33 45 30 47 31 48
REMARK H PARENT 41 16 39 18 37 20 35 22 12 36 22 44 33 46 31 49
REMARK Flexibility Score: inf
ROOT
ATOM      1  C   UNL     1     178.496 175.118 169.531  1.00  0.00     0.221 C 
ATOM      2  C   UNL     1     177.978 173.654 169.568  1.00  0.00     0.181 C 
ATOM      3  C   UNL     1     176.554 173.560 170.159  1.00  0.00     0.177 C 
ATOM      4  C   UNL     1     175.682 174.756 169.724  1.00  0.00     0.179 C 
ATOM      5  O   UNL     1     176.226 176.040 169.997  1.00  0.00    -0.332 OA
ATOM      6  C   UNL     1     177.604 176.097 170.353  1.00  0.00     0.339 C 
ENDROOT
BRANCH   1   7
ATOM      7  O   UNL     1     179.919 175.161 169.718  1.00  0.00    -0.337 OA
BRANCH   7   8
ATOM      8  C   UNL     1     180.436 175.572 170.988  1.00  0.00     0.282 C 
ATOM      9  C   UNL     1     182.756 178.200 169.842  1.00  0.00     0.041 C 
ATOM     10  C   UNL     1     182.205 176.779 169.994  1.00  0.00     0.150 C 
ATOM     11  C   UNL     1     183.287 175.836 170.570  1.00  0.00     0.174 C 
ATOM     12  O   UNL     1     181.074 176.835 170.853  1.00  0.00    -0.344 OA
ATOM     13  C   UNL     1     182.690 174.433 170.778  1.00  0.00     0.179 C 
ATOM     14  C   UNL     1     181.402 174.535 171.613  1.00  0.00     0.202 C 
BRANCH  11  15
ATOM     15  O   UNL     1     184.411 175.776 169.726  1.00  0.00    -0.388 OA
ATOM     16  H   UNL     1     185.161 175.379 170.242  1.00  0.00     0.211 HD
ENDBRANCH  11  15
BRANCH  13  17
ATOM     17  O   UNL     1     183.630 173.618 171.429  1.00  0.00    -0.387 OA
ATOM     18  H   UNL     1     184.392 173.509 170.807  1.00  0.00     0.211 HD
ENDBRANCH  13  17
BRANCH  14  19
ATOM     19  O   UNL     1     181.729 174.938 172.923  1.00  0.00    -0.385 OA
ATOM     20  H   UNL     1     181.122 174.442 173.533  1.00  0.00     0.211 HD
ENDBRANCH  14  19
ENDBRANCH   7   8
ENDBRANCH   1   7
BRANCH   2  21
ATOM     21  O   UNL     1     178.855 172.829 170.282  1.00  0.00    -0.387 OA
ATOM     22  H   UNL     1     179.349 173.405 170.923  1.00  0.00     0.211 HD
ENDBRANCH   2  21
BRANCH   6  23
ATOM     23  O   UNL     1     178.078 177.438 170.160  1.00  0.00    -0.462 OA
BRANCH  23  24
ATOM     24  C   UNL     1     177.797 178.495 171.034  1.00  0.00     0.130 A 
ATOM     25  C   UNL     1     176.833 179.443 170.690  1.00  0.00     0.093 A 
ATOM     26  C   UNL     1     178.484 178.613 172.250  1.00  0.00     0.094 A 
ATOM     27  C   UNL     1     176.601 180.556 171.508  1.00  0.00     0.133 A 
ATOM     28  C   UNL     1     178.295 179.733 173.054  1.00  0.00     0.138 A 
ATOM     29  C   UNL     1     177.369 180.731 172.685  1.00  0.00     0.102 A 
ATOM     30  O   UNL     1     179.025 179.842 174.241  1.00  0.00    -0.484 OA
ATOM     31  C   UNL     1     177.299 181.931 173.552  1.00  0.00     0.174 C 
ATOM     32  C   UNL     1     179.156 181.070 174.960  1.00  0.00     0.211 C 
ATOM     33  O   UNL     1     176.874 183.036 173.116  1.00  0.00    -0.294 OA
ATOM     34  C   UNL     1     177.826 181.851 174.958  1.00  0.00     0.131 C 
BRANCH  27  35
ATOM     35  O   UNL     1     175.582 181.431 171.136  1.00  0.00    -0.507 OA
ATOM     36  H   UNL     1     175.478 181.807 170.205  1.00  0.00     0.293 HD
ENDBRANCH  27  35
BRANCH  32  37
ATOM     37  C   UNL     1     179.639 180.761 176.361  1.00  0.00    -0.007 A 
ATOM     38  C   UNL     1     180.484 179.662 176.593  1.00  0.00     0.011 A 
ATOM     39  C   UNL     1     179.174 181.509 177.459  1.00  0.00     0.011 A 
ATOM     40  C   UNL     1     180.868 179.329 177.896  1.00  0.00     0.046 A 
ATOM     41  C   UNL     1     179.576 181.185 178.757  1.00  0.00     0.046 A 
ATOM     42  C   UNL     1     180.417 180.088 178.980  1.00  0.00     0.115 A 
BRANCH  42  43
ATOM     43  O   UNL     1     180.804 179.744 180.273  1.00  0.00    -0.508 OA
ATOM     44  H   UNL     1     181.322 178.891 180.464  1.00  0.00     0.293 HD
ENDBRANCH  42  43
ENDBRANCH  32  37
ENDBRANCH  23  24
ENDBRANCH   6  23
BRANCH   3  45
ATOM     45  O   UNL     1     176.613 173.519 171.563  1.00  0.00    -0.387 OA
ATOM     46  H   UNL     1     175.714 173.780 171.899  1.00  0.00     0.211 HD
ENDBRANCH   3  45
BRANCH   4  47
ATOM     47  C   UNL     1     175.267 174.686 168.240  1.00  0.00     0.191 C 
BRANCH  47  48
ATOM     48  O   UNL     1     174.998 173.360 167.859  1.00  0.00    -0.394 OA
ATOM     49  H   UNL     1     175.118 173.309 166.873  1.00  0.00     0.210 HD
ENDBRANCH  47  48
ENDBRANCH   4  47
TORSDOF 14
ENDMDL
MODEL 8
REMARK VINA RESULT:    -7.415      4.861      8.767
REMARK INTER + INTRA:         -13.876
REMARK INTER:                 -11.985
REMARK INTRA:                  -1.891
REMARK UNBOUND:                -2.127
REMARK SMILES C[C@@H]1O[C@@H](O[C@@H]2[C@@H](Oc3cc(O)c4c(c3)O[C@H](c3ccc(O)cc3)CC4=O)O[C@@H](CO)[C@H](O)[C@@H]2O)[C@H](O)[C@H](O)[C@H]1O
REMARK SMILES IDX 6 1 34 2 32 3 29 4 28 5 7 6 5 7 4 8 1 9 2 10 40 11 3 12
REMARK SMILES IDX 38 13 36 14 41 15 39 17 37 19 35 21 8 23 9 24 10 25 15 26
REMARK SMILES IDX 11 27 14 28 13 29 16 30 26 31 17 32 27 33 25 34 12 35 18 37
REMARK SMILES IDX 19 38 24 39 20 40 23 41 21 42 22 43 33 45 30 47 31 48
REMARK H PARENT 41 16 39 18 37 20 35 22 12 36 22 44 33 46 31 49
REMARK Flexibility Score: inf
ROOT
ATOM      1  C   UNL     1     180.246 185.445 170.692  1.00  0.00     0.221 C 
ATOM      2  C   UNL     1     180.289 186.986 170.883  1.00  0.00     0.181 C 
ATOM      3  C   UNL     1     178.967 187.658 170.455  1.00  0.00     0.177 C 
ATOM      4  C   UNL     1     177.746 186.792 170.830  1.00  0.00     0.179 C 
ATOM      5  O   UNL     1     177.775 185.455 170.352  1.00  0.00    -0.332 OA
ATOM      6  C   UNL     1     179.020 184.973 169.854  1.00  0.00     0.339 C 
ENDROOT
BRANCH   1   7
ATOM      7  O   UNL     1     181.546 184.935 170.358  1.00  0.00    -0.337 OA
BRANCH   7   8
ATOM      8  C   UNL     1     182.427 184.544 171.416  1.00  0.00     0.282 C 
ATOM      9  C   UNL     1     185.100 187.029 170.888  1.00  0.00     0.041 C 
ATOM     10  C   UNL     1     184.206 185.831 170.551  1.00  0.00     0.150 C 
ATOM     11  C   UNL     1     185.066 184.586 170.230  1.00  0.00     0.174 C 
ATOM     12  O   UNL     1     183.358 185.587 171.665  1.00  0.00    -0.344 OA
ATOM     13  C   UNL     1     184.147 183.380 169.963  1.00  0.00     0.179 C 
ATOM     14  C   UNL     1     183.161 183.210 171.132  1.00  0.00     0.202 C 
BRANCH  11  15
ATOM     15  O   UNL     1     185.908 184.820 169.128  1.00  0.00    -0.388 OA
ATOM     16  H   UNL     1     185.704 185.725 168.774  1.00  0.00     0.211 HD
ENDBRANCH  11  15
BRANCH  13  17
ATOM     17  O   UNL     1     184.927 182.224 169.810  1.00  0.00    -0.387 OA
ATOM     18  H   UNL     1     184.364 181.460 170.089  1.00  0.00     0.211 HD
ENDBRANCH  13  17
BRANCH  14  19
ATOM     19  O   UNL     1     183.871 182.819 172.284  1.00  0.00    -0.385 OA
ATOM     20  H   UNL     1     183.496 181.944 172.566  1.00  0.00     0.211 HD
ENDBRANCH  14  19
ENDBRANCH   7   8
ENDBRANCH   1   7
BRANCH   2  21
ATOM     21  O   UNL     1     181.366 187.547 170.187  1.00  0.00    -0.387 OA
ATOM     22  H   UNL     1     181.708 188.306 170.729  1.00  0.00     0.211 HD
ENDBRANCH   2  21
BRANCH   6  23
ATOM     23  O   UNL     1     178.988 183.538 169.836  1.00  0.00    -0.462 OA
BRANCH  23  24
ATOM     24  C   UNL     1     178.310 182.763 170.786  1.00  0.00     0.130 A 
ATOM     25  C   UNL     1     177.064 182.218 170.475  1.00  0.00     0.093 A 
ATOM     26  C   UNL     1     178.872 182.538 172.050  1.00  0.00     0.094 A 
ATOM     27  C   UNL     1     176.331 181.516 171.440  1.00  0.00     0.133 A 
ATOM     28  C   UNL     1     178.140 181.878 173.032  1.00  0.00     0.138 A 
ATOM     29  C   UNL     1     176.851 181.378 172.751  1.00  0.00     0.102 A 
ATOM     30  O   UNL     1     178.710 181.705 174.296  1.00  0.00    -0.484 OA
ATOM     31  C   UNL     1     176.108 180.771 173.880  1.00  0.00     0.174 C 
ATOM     32  C   UNL     1     177.946 181.347 175.449  1.00  0.00     0.211 C 
ATOM     33  O   UNL     1     174.848 180.701 173.880  1.00  0.00    -0.294 OA
ATOM     34  C   UNL     1     176.868 180.303 175.090  1.00  0.00     0.131 C 
BRANCH  27  35
ATOM     35  O   UNL     1     175.122 180.946 171.045  1.00  0.00    -0.507 OA
ATOM     36  H   UNL     1     174.794 180.931 170.090  1.00  0.00     0.293 HD
ENDBRANCH  27  35
BRANCH  32  37
ATOM     37  C   UNL     1     178.891 180.851 176.522  1.00  0.00    -0.007 A 
ATOM     38  C   UNL     1     179.603 179.653 176.341  1.00  0.00     0.011 A 
ATOM     39  C   UNL     1     178.998 181.530 177.750  1.00  0.00     0.011 A 
ATOM     40  C   UNL     1     180.416 179.153 177.363  1.00  0.00     0.046 A 
ATOM     41  C   UNL     1     179.828 181.038 178.761  1.00  0.00     0.046 A 
ATOM     42  C   UNL     1     180.532 179.842 178.574  1.00  0.00     0.115 A 
BRANCH  42  43
ATOM     43  O   UNL     1     181.343 179.333 179.585  1.00  0.00    -0.508 OA
ATOM     44  H   UNL     1     182.035 178.612 179.399  1.00  0.00     0.293 HD
ENDBRANCH  42  43
ENDBRANCH  32  37
ENDBRANCH  23  24
ENDBRANCH   6  23
BRANCH   3  45
ATOM     45  O   UNL     1     178.963 187.883 169.067  1.00  0.00    -0.387 OA
ATOM     46  H   UNL     1     179.640 188.590 168.886  1.00  0.00     0.211 HD
ENDBRANCH   3  45
BRANCH   4  47
ATOM     47  C   UNL     1     177.461 186.783 172.346  1.00  0.00     0.191 C 
BRANCH  47  48
ATOM     48  O   UNL     1     177.358 185.466 172.827  1.00  0.00    -0.394 OA
ATOM     49  H   UNL     1     177.892 185.418 173.664  1.00  0.00     0.210 HD
ENDBRANCH  47  48
ENDBRANCH   4  47
TORSDOF 14
ENDMDL
MODEL 9
REMARK VINA RESULT:    -7.404      1.970      4.869
REMARK INTER + INTRA:         -13.859
REMARK INTER:                 -11.849
REMARK INTRA:                  -2.010
REMARK UNBOUND:                -2.127
REMARK SMILES C[C@@H]1O[C@@H](O[C@@H]2[C@@H](Oc3cc(O)c4c(c3)O[C@H](c3ccc(O)cc3)CC4=O)O[C@@H](CO)[C@H](O)[C@@H]2O)[C@H](O)[C@H](O)[C@H]1O
REMARK SMILES IDX 6 1 34 2 32 3 29 4 28 5 7 6 5 7 4 8 1 9 2 10 40 11 3 12
REMARK SMILES IDX 38 13 36 14 41 15 39 17 37 19 35 21 8 23 9 24 10 25 15 26
REMARK SMILES IDX 11 27 14 28 13 29 16 30 26 31 17 32 27 33 25 34 12 35 18 37
REMARK SMILES IDX 19 38 24 39 20 40 23 41 21 42 22 43 33 45 30 47 31 48
REMARK H PARENT 41 16 39 18 37 20 35 22 12 36 22 44 33 46 31 49
REMARK Flexibility Score: inf
ROOT
ATOM      1  C   UNL     1     177.397 175.074 170.442  1.00  0.00     0.221 C 
ATOM      2  C   UNL     1     176.546 173.775 170.414  1.00  0.00     0.181 C 
ATOM      3  C   UNL     1     175.065 174.061 170.088  1.00  0.00     0.177 C 
ATOM      4  C   UNL     1     174.925 175.187 169.042  1.00  0.00     0.179 C 
ATOM      5  O   UNL     1     175.585 176.404 169.362  1.00  0.00    -0.332 OA
ATOM      6  C   UNL     1     176.529 176.367 170.429  1.00  0.00     0.339 C 
ENDROOT
BRANCH   1   7
ATOM      7  O   UNL     1     178.461 174.968 171.401  1.00  0.00    -0.337 OA
BRANCH   7   8
ATOM      8  C   UNL     1     179.745 174.514 170.961  1.00  0.00     0.282 C 
ATOM      9  C   UNL     1     181.823 176.001 173.620  1.00  0.00     0.041 C 
ATOM     10  C   UNL     1     180.880 175.989 172.413  1.00  0.00     0.150 C 
ATOM     11  C   UNL     1     181.477 176.814 171.249  1.00  0.00     0.174 C 
ATOM     12  O   UNL     1     180.680 174.637 172.025  1.00  0.00    -0.344 OA
ATOM     13  C   UNL     1     180.546 176.730 170.027  1.00  0.00     0.179 C 
ATOM     14  C   UNL     1     180.251 175.255 169.699  1.00  0.00     0.202 C 
BRANCH  11  15
ATOM     15  O   UNL     1     181.679 178.154 171.626  1.00  0.00    -0.388 OA
ATOM     16  H   UNL     1     182.597 178.233 171.995  1.00  0.00     0.211 HD
ENDBRANCH  11  15
BRANCH  13  17
ATOM     17  O   UNL     1     181.155 177.361 168.932  1.00  0.00    -0.387 OA
ATOM     18  H   UNL     1     181.968 176.839 168.717  1.00  0.00     0.211 HD
ENDBRANCH  13  17
BRANCH  14  19
ATOM     19  O   UNL     1     181.431 174.637 169.241  1.00  0.00    -0.385 OA
ATOM     20  H   UNL     1     182.134 174.831 169.915  1.00  0.00     0.211 HD
ENDBRANCH  14  19
ENDBRANCH   7   8
ENDBRANCH   1   7
BRANCH   2  21
ATOM     21  O   UNL     1     176.650 173.082 171.627  1.00  0.00    -0.387 OA
ATOM     22  H   UNL     1     177.273 173.591 172.209  1.00  0.00     0.211 HD
ENDBRANCH   2  21
BRANCH   6  23
ATOM     23  O   UNL     1     177.390 177.510 170.325  1.00  0.00    -0.462 OA
BRANCH  23  24
ATOM     24  C   UNL     1     177.328 178.612 171.188  1.00  0.00     0.130 A 
ATOM     25  C   UNL     1     176.561 179.724 170.840  1.00  0.00     0.093 A 
ATOM     26  C   UNL     1     178.040 178.608 172.396  1.00  0.00     0.094 A 
ATOM     27  C   UNL     1     176.557 180.869 171.645  1.00  0.00     0.133 A 
ATOM     28  C   UNL     1     178.078 179.752 173.187  1.00  0.00     0.138 A 
ATOM     29  C   UNL     1     177.358 180.907 172.814  1.00  0.00     0.102 A 
ATOM     30  O   UNL     1     178.829 179.733 174.365  1.00  0.00    -0.484 OA
ATOM     31  C   UNL     1     177.531 182.107 173.665  1.00  0.00     0.174 C 
ATOM     32  C   UNL     1     179.202 180.920 175.067  1.00  0.00     0.211 C 
ATOM     33  O   UNL     1     177.321 183.269 173.219  1.00  0.00    -0.294 OA
ATOM     34  C   UNL     1     178.048 181.943 175.067  1.00  0.00     0.131 C 
BRANCH  27  35
ATOM     35  O   UNL     1     175.721 181.920 171.271  1.00  0.00    -0.507 OA
ATOM     36  H   UNL     1     174.714 181.884 171.331  1.00  0.00     0.293 HD
ENDBRANCH  27  35
BRANCH  32  37
ATOM     37  C   UNL     1     179.633 180.539 176.467  1.00  0.00    -0.007 A 
ATOM     38  C   UNL     1     179.404 181.415 177.542  1.00  0.00     0.011 A 
ATOM     39  C   UNL     1     180.352 179.351 176.696  1.00  0.00     0.011 A 
ATOM     40  C   UNL     1     179.872 181.101 178.822  1.00  0.00     0.046 A 
ATOM     41  C   UNL     1     180.799 179.031 177.981  1.00  0.00     0.046 A 
ATOM     42  C   UNL     1     180.569 179.910 179.046  1.00  0.00     0.115 A 
BRANCH  42  43
ATOM     43  O   UNL     1     181.031 179.609 180.324  1.00  0.00    -0.508 OA
ATOM     44  H   UNL     1     181.961 179.883 180.632  1.00  0.00     0.293 HD
ENDBRANCH  42  43
ENDBRANCH  32  37
ENDBRANCH  23  24
ENDBRANCH   6  23
BRANCH   3  45
ATOM     45  O   UNL     1     174.372 174.428 171.255  1.00  0.00    -0.387 OA
ATOM     46  H   UNL     1     174.067 175.367 171.129  1.00  0.00     0.211 HD
ENDBRANCH   3  45
BRANCH   4  47
ATOM     47  C   UNL     1     175.340 174.742 167.624  1.00  0.00     0.191 C 
BRANCH  47  48
ATOM     48  O   UNL     1     174.832 173.464 167.333  1.00  0.00    -0.394 OA
ATOM     49  H   UNL     1     174.931 173.326 166.354  1.00  0.00     0.210 HD
ENDBRANCH  47  48
ENDBRANCH   4  47
TORSDOF 14
ENDMDL
