MODEL 1
REMARK VINA RESULT:    -4.167      0.000      0.000
REMARK INTER + INTRA:          -5.671
REMARK INTER:                  -5.384
REMARK INTRA:                  -0.287
REMARK UNBOUND:                -0.287
REMARK SMILES CCCCCCC(=O)[O-]
REMARK SMILES IDX 5 1 6 2 7 3 8 4 9 5 4 6 3 7 2 8 1 9
REMARK H PARENT
REMARK Flexibility Score: inf
ROOT
ATOM      1  C   UNL     1       6.034 -35.054  22.863  1.00  0.00     0.006 C 
ENDROOT
BRANCH   1   2
ATOM      2  C   UNL     1       6.064 -35.789  24.210  1.00  0.00     0.053 C 
BRANCH   2   3
ATOM      3  C   UNL     1       5.005 -36.844  24.291  1.00  0.00     0.041 C 
ATOM      4  O   UNL     1       4.634 -37.454  23.254  1.00  0.00    -0.550 OA
ATOM      5  O   UNL     1       4.446 -37.177  25.519  1.00  0.00    -0.550 OA
ENDBRANCH   2   3
ENDBRANCH   1   2
BRANCH   1   6
ATOM      6  C   UNL     1       5.009 -33.906  22.853  1.00  0.00     0.000 C 
BRANCH   6   7
ATOM      7  C   UNL     1       4.255 -33.802  21.517  1.00  0.00    -0.000 C 
BRANCH   7   8
ATOM      8  C   UNL     1       4.659 -34.900  20.522  1.00  0.00    -0.003 C 
ATOM      9  C   UNL     1       5.074 -34.300  19.181  1.00  0.00     0.004 C 
ENDBRANCH   7   8
ENDBRANCH   6   7
ENDBRANCH   1   6
TORSDOF 5
ENDMDL
MODEL 2
REMARK VINA RESULT:    -4.080      3.400      5.021
REMARK INTER + INTRA:          -5.560
REMARK INTER:                  -5.392
REMARK INTRA:                  -0.168
REMARK UNBOUND:                -0.287
REMARK SMILES CCCCCCC(=O)[O-]
REMARK SMILES IDX 5 1 6 2 7 3 8 4 9 5 4 6 3 7 2 8 1 9
REMARK H PARENT
REMARK Flexibility Score: inf
ROOT
ATOM      1  C   UNL     1       4.597 -37.030  19.905  1.00  0.00     0.006 C 
ENDROOT
BRANCH   1   2
ATOM      2  C   UNL     1       3.854 -36.320  18.765  1.00  0.00     0.053 C 
BRANCH   2   3
ATOM      3  C   UNL     1       2.868 -37.227  18.095  1.00  0.00     0.041 C 
ATOM      4  O   UNL     1       1.965 -37.792  18.766  1.00  0.00    -0.550 OA
ATOM      5  O   UNL     1       2.928 -37.425  16.721  1.00  0.00    -0.550 OA
ENDBRANCH   2   3
ENDBRANCH   1   2
BRANCH   1   6
ATOM      6  C   UNL     1       5.009 -36.056  21.023  1.00  0.00     0.000 C 
BRANCH   6   7
ATOM      7  C   UNL     1       4.706 -34.590  20.669  1.00  0.00    -0.000 C 
BRANCH   7   8
ATOM      8  C   UNL     1       4.194 -33.785  21.873  1.00  0.00    -0.003 C 
ATOM      9  C   UNL     1       5.314 -33.526  22.877  1.00  0.00     0.004 C 
ENDBRANCH   7   8
ENDBRANCH   6   7
ENDBRANCH   1   6
TORSDOF 5
ENDMDL
MODEL 3
REMARK VINA RESULT:    -4.071      2.387      4.199
REMARK INTER + INTRA:          -5.548
REMARK INTER:                  -5.225
REMARK INTRA:                  -0.323
REMARK UNBOUND:                -0.287
REMARK SMILES CCCCCCC(=O)[O-]
REMARK SMILES IDX 5 1 6 2 7 3 8 4 9 5 4 6 3 7 2 8 1 9
REMARK H PARENT
REMARK Flexibility Score: inf
ROOT
ATOM      1  C   UNL     1       5.039 -33.849  22.581  1.00  0.00     0.006 C 
ENDROOT
BRANCH   1   2
ATOM      2  C   UNL     1       3.984 -33.939  21.470  1.00  0.00     0.053 C 
BRANCH   2   3
ATOM      3  C   UNL     1       4.508 -34.651  20.261  1.00  0.00     0.041 C 
ATOM      4  O   UNL     1       3.991 -35.737  19.889  1.00  0.00    -0.550 OA
ATOM      5  O   UNL     1       5.551 -34.099  19.527  1.00  0.00    -0.550 OA
ENDBRANCH   2   3
ENDBRANCH   1   2
BRANCH   1   6
ATOM      6  C   UNL     1       5.728 -35.201  22.836  1.00  0.00     0.000 C 
BRANCH   6   7
ATOM      7  C   UNL     1       5.431 -35.760  24.237  1.00  0.00    -0.000 C 
BRANCH   7   8
ATOM      8  C   UNL     1       4.814 -37.166  24.195  1.00  0.00    -0.003 C 
ATOM      9  C   UNL     1       4.865 -37.745  22.784  1.00  0.00     0.004 C 
ENDBRANCH   7   8
ENDBRANCH   6   7
ENDBRANCH   1   6
TORSDOF 5
ENDMDL
MODEL 4
REMARK VINA RESULT:    -4.026      2.814      4.537
REMARK INTER + INTRA:          -5.490
REMARK INTER:                  -5.229
REMARK INTRA:                  -0.261
REMARK UNBOUND:                -0.287
REMARK SMILES CCCCCCC(=O)[O-]
REMARK SMILES IDX 5 1 6 2 7 3 8 4 9 5 4 6 3 7 2 8 1 9
REMARK H PARENT
REMARK Flexibility Score: inf
ROOT
ATOM      1  C   UNL     1       4.317 -34.090  21.531  1.00  0.00     0.006 C 
ENDROOT
BRANCH   1   2
ATOM      2  C   UNL     1       5.188 -34.974  20.628  1.00  0.00     0.053 C 
BRANCH   2   3
ATOM      3  C   UNL     1       4.685 -34.995  19.218  1.00  0.00     0.041 C 
ATOM      4  O   UNL     1       5.020 -34.090  18.409  1.00  0.00    -0.550 OA
ATOM      5  O   UNL     1       3.867 -36.033  18.787  1.00  0.00    -0.550 OA
ENDBRANCH   2   3
ENDBRANCH   1   2
BRANCH   1   6
ATOM      6  C   UNL     1       5.030 -33.722  22.844  1.00  0.00     0.000 C 
BRANCH   6   7
ATOM      7  C   UNL     1       6.060 -34.780  23.272  1.00  0.00    -0.000 C 
BRANCH   7   8
ATOM      8  C   UNL     1       5.579 -35.628  24.459  1.00  0.00    -0.003 C 
ATOM      9  C   UNL     1       4.945 -36.931  23.982  1.00  0.00     0.004 C 
ENDBRANCH   7   8
ENDBRANCH   6   7
ENDBRANCH   1   6
TORSDOF 5
ENDMDL
MODEL 5
REMARK VINA RESULT:    -3.995      3.650      5.173
REMARK INTER + INTRA:          -5.450
REMARK INTER:                  -5.297
REMARK INTRA:                  -0.153
REMARK UNBOUND:                -0.287
REMARK SMILES CCCCCCC(=O)[O-]
REMARK SMILES IDX 5 1 6 2 7 3 8 4 9 5 4 6 3 7 2 8 1 9
REMARK H PARENT
REMARK Flexibility Score: inf
ROOT
ATOM      1  C   UNL     1       3.539 -37.179  19.057  1.00  0.00     0.006 C 
ENDROOT
BRANCH   1   2
ATOM      2  C   UNL     1       4.271 -35.840  19.221  1.00  0.00     0.053 C 
BRANCH   2   3
ATOM      3  C   UNL     1       5.178 -35.844  20.413  1.00  0.00     0.041 C 
ATOM      4  O   UNL     1       5.988 -34.899  20.599  1.00  0.00    -0.550 OA
ATOM      5  O   UNL     1       5.107 -36.880  21.337  1.00  0.00    -0.550 OA
ENDBRANCH   2   3
ENDBRANCH   1   2
BRANCH   1   6
ATOM      6  C   UNL     1       2.671 -37.213  17.787  1.00  0.00     0.000 C 
BRANCH   6   7
ATOM      7  C   UNL     1       3.116 -36.178  16.741  1.00  0.00    -0.000 C 
BRANCH   7   8
ATOM      8  C   UNL     1       2.555 -36.473  15.341  1.00  0.00    -0.003 C 
ATOM      9  C   UNL     1       3.611 -37.124  14.453  1.00  0.00     0.004 C 
ENDBRANCH   7   8
ENDBRANCH   6   7
ENDBRANCH   1   6
TORSDOF 5
ENDMDL
MODEL 6
REMARK VINA RESULT:    -3.985      3.009      3.850
REMARK INTER + INTRA:          -5.437
REMARK INTER:                  -5.275
REMARK INTRA:                  -0.162
REMARK UNBOUND:                -0.287
REMARK SMILES CCCCCCC(=O)[O-]
REMARK SMILES IDX 5 1 6 2 7 3 8 4 9 5 4 6 3 7 2 8 1 9
REMARK H PARENT
REMARK Flexibility Score: inf
ROOT
ATOM      1  C   UNL     1       4.952 -36.393  21.392  1.00  0.00     0.006 C 
ENDROOT
BRANCH   1   2
ATOM      2  C   UNL     1       5.725 -35.070  21.466  1.00  0.00     0.053 C 
BRANCH   2   3
ATOM      3  C   UNL     1       4.912 -33.984  22.099  1.00  0.00     0.041 C 
ATOM      4  O   UNL     1       5.333 -33.392  23.128  1.00  0.00    -0.550 OA
ATOM      5  O   UNL     1       3.699 -33.604  21.536  1.00  0.00    -0.550 OA
ENDBRANCH   2   3
ENDBRANCH   1   2
BRANCH   1   6
ATOM      6  C   UNL     1       4.934 -36.974  19.967  1.00  0.00     0.000 C 
BRANCH   6   7
ATOM      7  C   UNL     1       3.882 -36.303  19.069  1.00  0.00    -0.000 C 
BRANCH   7   8
ATOM      8  C   UNL     1       2.997 -37.321  18.332  1.00  0.00    -0.003 C 
ATOM      9  C   UNL     1       2.797 -36.919  16.874  1.00  0.00     0.004 C 
ENDBRANCH   7   8
ENDBRANCH   6   7
ENDBRANCH   1   6
TORSDOF 5
ENDMDL
MODEL 7
REMARK VINA RESULT:    -3.961      1.586      2.272
REMARK INTER + INTRA:          -5.406
REMARK INTER:                  -5.153
REMARK INTRA:                  -0.252
REMARK UNBOUND:                -0.287
REMARK SMILES CCCCCCC(=O)[O-]
REMARK SMILES IDX 5 1 6 2 7 3 8 4 9 5 4 6 3 7 2 8 1 9
REMARK H PARENT
REMARK Flexibility Score: inf
ROOT
ATOM      1  C   UNL     1       4.965 -36.256  23.248  1.00  0.00     0.006 C 
ENDROOT
BRANCH   1   2
ATOM      2  C   UNL     1       4.973 -37.391  22.215  1.00  0.00     0.053 C 
BRANCH   2   3
ATOM      3  C   UNL     1       4.909 -38.737  22.867  1.00  0.00     0.041 C 
ATOM      4  O   UNL     1       4.476 -38.854  24.043  1.00  0.00    -0.550 OA
ATOM      5  O   UNL     1       5.302 -39.870  22.164  1.00  0.00    -0.550 OA
ENDBRANCH   2   3
ENDBRANCH   1   2
BRANCH   1   6
ATOM      6  C   UNL     1       5.839 -35.068  22.811  1.00  0.00     0.000 C 
BRANCH   6   7
ATOM      7  C   UNL     1       5.048 -33.752  22.729  1.00  0.00    -0.000 C 
BRANCH   7   8
ATOM      8  C   UNL     1       3.990 -33.766  21.616  1.00  0.00    -0.003 C 
ATOM      9  C   UNL     1       4.620 -34.082  20.263  1.00  0.00     0.004 C 
ENDBRANCH   7   8
ENDBRANCH   6   7
ENDBRANCH   1   6
TORSDOF 5
ENDMDL
MODEL 8
REMARK VINA RESULT:    -3.947      3.264      4.883
REMARK INTER + INTRA:          -5.388
REMARK INTER:                  -5.229
REMARK INTRA:                  -0.159
REMARK UNBOUND:                -0.287
REMARK SMILES CCCCCCC(=O)[O-]
REMARK SMILES IDX 5 1 6 2 7 3 8 4 9 5 4 6 3 7 2 8 1 9
REMARK H PARENT
REMARK Flexibility Score: inf
ROOT
ATOM      1  C   UNL     1       4.590 -36.953  20.083  1.00  0.00     0.006 C 
ENDROOT
BRANCH   1   2
ATOM      2  C   UNL     1       3.766 -36.257  18.992  1.00  0.00     0.053 C 
BRANCH   2   3
ATOM      3  C   UNL     1       2.894 -37.224  18.252  1.00  0.00     0.041 C 
ATOM      4  O   UNL     1       3.101 -37.462  17.032  1.00  0.00    -0.550 OA
ATOM      5  O   UNL     1       1.869 -37.887  18.916  1.00  0.00    -0.550 OA
ENDBRANCH   2   3
ENDBRANCH   1   2
BRANCH   1   6
ATOM      6  C   UNL     1       5.317 -35.946  20.991  1.00  0.00     0.000 C 
BRANCH   6   7
ATOM      7  C   UNL     1       5.122 -36.249  22.485  1.00  0.00    -0.000 C 
BRANCH   7   8
ATOM      8  C   UNL     1       5.248 -34.997  23.365  1.00  0.00    -0.003 C 
ATOM      9  C   UNL     1       4.987 -33.729  22.556  1.00  0.00     0.004 C 
ENDBRANCH   7   8
ENDBRANCH   6   7
ENDBRANCH   1   6
TORSDOF 5
ENDMDL
MODEL 9
REMARK VINA RESULT:    -3.927      1.493      2.256
REMARK INTER + INTRA:          -5.362
REMARK INTER:                  -5.111
REMARK INTRA:                  -0.251
REMARK UNBOUND:                -0.287
REMARK SMILES CCCCCCC(=O)[O-]
REMARK SMILES IDX 5 1 6 2 7 3 8 4 9 5 4 6 3 7 2 8 1 9
REMARK H PARENT
REMARK Flexibility Score: inf
ROOT
ATOM      1  C   UNL     1       4.964 -37.620  21.410  1.00  0.00     0.006 C 
ENDROOT
BRANCH   1   2
ATOM      2  C   UNL     1       5.005 -36.945  22.788  1.00  0.00     0.053 C 
BRANCH   2   3
ATOM      3  C   UNL     1       4.718 -37.915  23.892  1.00  0.00     0.041 C 
ATOM      4  O   UNL     1       4.750 -39.155  23.673  1.00  0.00    -0.550 OA
ATOM      5  O   UNL     1       4.443 -37.451  25.172  1.00  0.00    -0.550 OA
ENDBRANCH   2   3
ENDBRANCH   1   2
BRANCH   1   6
ATOM      6  C   UNL     1       4.964 -36.595  20.263  1.00  0.00     0.000 C 
BRANCH   6   7
ATOM      7  C   UNL     1       5.495 -35.220  20.700  1.00  0.00    -0.000 C 
BRANCH   7   8
ATOM      8  C   UNL     1       4.532 -34.075  20.349  1.00  0.00    -0.003 C 
ATOM      9  C   UNL     1       3.803 -33.570  21.591  1.00  0.00     0.004 C 
ENDBRANCH   7   8
ENDBRANCH   6   7
ENDBRANCH   1   6
TORSDOF 5
ENDMDL
