MODEL 1
REMARK VINA RESULT:    -3.360      0.000      0.000
REMARK INTER + INTRA:          -4.151
REMARK INTER:                  -3.950
REMARK INTRA:                  -0.201
REMARK UNBOUND:                -0.201
REMARK SMILES [NH3+][C@H](CO)C(=O)[O-]
REMARK SMILES IDX 3 1 2 2 1 3 5 7 6 8 7 9 4 10
REMARK H PARENT 1 4 1 5 1 6 4 11
REMARK Flexibility Score: inf
ROOT
ATOM      1  C   UNL     1     128.487 129.300 145.779  1.00  0.00     0.227 C 
ENDROOT
BRANCH   1   2
ATOM      2  C   UNL     1     129.993 129.305 146.097  1.00  0.00     0.253 C 
BRANCH   2   3
ATOM      3  N   UNL     1     130.249 128.696 147.407  1.00  0.00    -0.348 N 
ATOM      4  H   UNL     1     131.011 129.217 147.898  1.00  0.00     0.345 HD
ATOM      5  H   UNL     1     130.529 127.693 147.301  1.00  0.00     0.345 HD
ATOM      6  H   UNL     1     129.385 128.748 147.995  1.00  0.00     0.345 HD
ENDBRANCH   2   3
BRANCH   2   7
ATOM      7  C   UNL     1     130.767 128.587 145.023  1.00  0.00     0.102 C 
ATOM      8  O   UNL     1     131.820 129.091 144.549  1.00  0.00    -0.544 OA
ATOM      9  O   UNL     1     130.329 127.354 144.558  1.00  0.00    -0.544 OA
ENDBRANCH   2   7
ENDBRANCH   1   2
BRANCH   1  10
ATOM     10  O   UNL     1     127.872 128.149 146.294  1.00  0.00    -0.390 OA
ATOM     11  H   UNL     1     128.239 128.015 147.207  1.00  0.00     0.210 HD
ENDBRANCH   1  10
TORSDOF 4
ENDMDL
MODEL 2
REMARK VINA RESULT:    -3.114     15.263     16.047
REMARK INTER + INTRA:          -3.861
REMARK INTER:                  -3.496
REMARK INTRA:                  -0.365
REMARK UNBOUND:                -0.201
REMARK SMILES [NH3+][C@H](CO)C(=O)[O-]
REMARK SMILES IDX 3 1 2 2 1 3 5 7 6 8 7 9 4 10
REMARK H PARENT 1 4 1 5 1 6 4 11
REMARK Flexibility Score: inf
ROOT
ATOM      1  C   UNL     1     136.253 143.877 139.952  1.00  0.00     0.227 C 
ENDROOT
BRANCH   1   2
ATOM      2  C   UNL     1     136.555 143.095 141.243  1.00  0.00     0.253 C 
BRANCH   2   3
ATOM      3  N   UNL     1     135.772 143.625 142.365  1.00  0.00    -0.348 N 
ATOM      4  H   UNL     1     135.320 142.838 142.885  1.00  0.00     0.345 HD
ATOM      5  H   UNL     1     135.033 144.283 142.024  1.00  0.00     0.345 HD
ATOM      6  H   UNL     1     136.403 144.134 143.026  1.00  0.00     0.345 HD
ENDBRANCH   2   3
BRANCH   2   7
ATOM      7  C   UNL     1     136.278 141.626 141.055  1.00  0.00     0.102 C 
ATOM      8  O   UNL     1     137.227 140.812 140.904  1.00  0.00    -0.544 OA
ATOM      9  O   UNL     1     134.970 141.161 141.061  1.00  0.00    -0.544 OA
ENDBRANCH   2   7
ENDBRANCH   1   2
BRANCH   1  10
ATOM     10  O   UNL     1     135.912 143.004 138.908  1.00  0.00    -0.390 OA
ATOM     11  H   UNL     1     136.702 142.421 138.757  1.00  0.00     0.210 HD
ENDBRANCH   1  10
TORSDOF 4
ENDMDL
MODEL 3
REMARK VINA RESULT:    -3.050      9.346     10.053
REMARK INTER + INTRA:          -3.786
REMARK INTER:                  -3.780
REMARK INTRA:                  -0.006
REMARK UNBOUND:                -0.201
REMARK SMILES [NH3+][C@H](CO)C(=O)[O-]
REMARK SMILES IDX 3 1 2 2 1 3 5 7 6 8 7 9 4 10
REMARK H PARENT 1 4 1 5 1 6 4 11
REMARK Flexibility Score: inf
ROOT
ATOM      1  C   UNL     1     136.930 129.430 151.303  1.00  0.00     0.227 C 
ENDROOT
BRANCH   1   2
ATOM      2  C   UNL     1     137.498 130.776 150.817  1.00  0.00     0.253 C 
BRANCH   2   3
ATOM      3  N   UNL     1     136.530 131.857 151.034  1.00  0.00    -0.348 N 
ATOM      4  H   UNL     1     136.961 132.775 150.783  1.00  0.00     0.345 HD
ATOM      5  H   UNL     1     136.221 131.882 152.034  1.00  0.00     0.345 HD
ATOM      6  H   UNL     1     135.694 131.709 150.423  1.00  0.00     0.345 HD
ENDBRANCH   2   3
BRANCH   2   7
ATOM      7  C   UNL     1     138.799 131.087 151.510  1.00  0.00     0.102 C 
ATOM      8  O   UNL     1     138.842 131.944 152.433  1.00  0.00    -0.544 OA
ATOM      9  O   UNL     1     139.958 130.417 151.143  1.00  0.00    -0.544 OA
ENDBRANCH   2   7
ENDBRANCH   1   2
BRANCH   1  10
ATOM     10  O   UNL     1     136.090 128.864 150.333  1.00  0.00    -0.390 OA
ATOM     11  H   UNL     1     136.382 127.921 150.220  1.00  0.00     0.210 HD
ENDBRANCH   1  10
TORSDOF 4
ENDMDL
MODEL 4
REMARK VINA RESULT:    -3.017      1.528      2.056
REMARK INTER + INTRA:          -3.747
REMARK INTER:                  -3.420
REMARK INTRA:                  -0.327
REMARK UNBOUND:                -0.201
REMARK SMILES [NH3+][C@H](CO)C(=O)[O-]
REMARK SMILES IDX 3 1 2 2 1 3 5 7 6 8 7 9 4 10
REMARK H PARENT 1 4 1 5 1 6 4 11
REMARK Flexibility Score: inf
ROOT
ATOM      1  C   UNL     1     128.995 130.380 145.382  1.00  0.00     0.227 C 
ENDROOT
BRANCH   1   2
ATOM      2  C   UNL     1     129.531 129.050 145.941  1.00  0.00     0.253 C 
BRANCH   2   3
ATOM      3  N   UNL     1     128.427 128.132 146.243  1.00  0.00    -0.348 N 
ATOM      4  H   UNL     1     127.616 128.334 145.615  1.00  0.00     0.345 HD
ATOM      5  H   UNL     1     128.124 128.232 147.240  1.00  0.00     0.345 HD
ATOM      6  H   UNL     1     128.733 127.146 146.077  1.00  0.00     0.345 HD
ENDBRANCH   2   3
BRANCH   2   7
ATOM      7  C   UNL     1     130.495 128.415 144.973  1.00  0.00     0.102 C 
ATOM      8  O   UNL     1     130.205 127.329 144.403  1.00  0.00    -0.544 OA
ATOM      9  O   UNL     1     131.706 129.033 144.693  1.00  0.00    -0.544 OA
ENDBRANCH   2   7
ENDBRANCH   1   2
BRANCH   1  10
ATOM     10  O   UNL     1     129.141 130.431 143.988  1.00  0.00    -0.390 OA
ATOM     11  H   UNL     1     128.970 131.372 143.718  1.00  0.00     0.210 HD
ENDBRANCH   1  10
TORSDOF 4
ENDMDL
MODEL 5
REMARK VINA RESULT:    -3.016     11.405     12.326
REMARK INTER + INTRA:          -3.746
REMARK INTER:                  -3.519
REMARK INTRA:                  -0.226
REMARK UNBOUND:                -0.201
REMARK SMILES [NH3+][C@H](CO)C(=O)[O-]
REMARK SMILES IDX 3 1 2 2 1 3 5 7 6 8 7 9 4 10
REMARK H PARENT 1 4 1 5 1 6 4 11
REMARK Flexibility Score: inf
ROOT
ATOM      1  C   UNL     1     141.524 131.233 150.605  1.00  0.00     0.227 C 
ENDROOT
BRANCH   1   2
ATOM      2  C   UNL     1     140.714 130.561 151.728  1.00  0.00     0.253 C 
BRANCH   2   3
ATOM      3  N   UNL     1     141.120 131.076 153.040  1.00  0.00    -0.348 N 
ATOM      4  H   UNL     1     140.671 130.513 153.798  1.00  0.00     0.345 HD
ATOM      5  H   UNL     1     140.842 132.080 153.146  1.00  0.00     0.345 HD
ATOM      6  H   UNL     1     142.158 130.998 153.145  1.00  0.00     0.345 HD
ENDBRANCH   2   3
BRANCH   2   7
ATOM      7  C   UNL     1     139.237 130.764 151.516  1.00  0.00     0.102 C 
ATOM      8  O   UNL     1     138.719 131.901 151.681  1.00  0.00    -0.544 OA
ATOM      9  O   UNL     1     138.439 129.699 151.122  1.00  0.00    -0.544 OA
ENDBRANCH   2   7
ENDBRANCH   1   2
BRANCH   1  10
ATOM     10  O   UNL     1     141.431 132.630 150.691  1.00  0.00    -0.390 OA
ATOM     11  H   UNL     1     142.107 132.998 150.062  1.00  0.00     0.210 HD
ENDBRANCH   1  10
TORSDOF 4
ENDMDL
MODEL 6
REMARK VINA RESULT:    -2.946     10.081     10.728
REMARK INTER + INTRA:          -3.664
REMARK INTER:                  -3.289
REMARK INTRA:                  -0.375
REMARK UNBOUND:                -0.201
REMARK SMILES [NH3+][C@H](CO)C(=O)[O-]
REMARK SMILES IDX 3 1 2 2 1 3 5 7 6 8 7 9 4 10
REMARK H PARENT 1 4 1 5 1 6 4 11
REMARK Flexibility Score: inf
ROOT
ATOM      1  C   UNL     1     139.083 130.533 151.391  1.00  0.00     0.227 C 
ENDROOT
BRANCH   1   2
ATOM      2  C   UNL     1     137.854 131.124 150.676  1.00  0.00     0.253 C 
BRANCH   2   3
ATOM      3  N   UNL     1     136.614 130.599 151.259  1.00  0.00    -0.348 N 
ATOM      4  H   UNL     1     135.886 131.349 151.277  1.00  0.00     0.345 HD
ATOM      5  H   UNL     1     136.779 130.255 152.234  1.00  0.00     0.345 HD
ATOM      6  H   UNL     1     136.256 129.809 150.674  1.00  0.00     0.345 HD
ENDBRANCH   2   3
BRANCH   2   7
ATOM      7  C   UNL     1     137.872 132.629 150.742  1.00  0.00     0.102 C 
ATOM      8  O   UNL     1     137.116 133.242 151.542  1.00  0.00    -0.544 OA
ATOM      9  O   UNL     1     138.736 133.349 149.928  1.00  0.00    -0.544 OA
ENDBRANCH   2   7
ENDBRANCH   1   2
BRANCH   1  10
ATOM     10  O   UNL     1     139.706 131.499 152.195  1.00  0.00    -0.390 OA
ATOM     11  H   UNL     1     140.522 131.789 151.709  1.00  0.00     0.210 HD
ENDBRANCH   1  10
TORSDOF 4
ENDMDL
MODEL 7
REMARK VINA RESULT:    -2.909     10.362     10.965
REMARK INTER + INTRA:          -3.621
REMARK INTER:                  -3.226
REMARK INTRA:                  -0.395
REMARK UNBOUND:                -0.201
REMARK SMILES [NH3+][C@H](CO)C(=O)[O-]
REMARK SMILES IDX 3 1 2 2 1 3 5 7 6 8 7 9 4 10
REMARK H PARENT 1 4 1 5 1 6 4 11
REMARK Flexibility Score: inf
ROOT
ATOM      1  C   UNL     1     138.352 133.148 150.102  1.00  0.00     0.227 C 
ENDROOT
BRANCH   1   2
ATOM      2  C   UNL     1     137.905 132.278 151.290  1.00  0.00     0.253 C 
BRANCH   2   3
ATOM      3  N   UNL     1     136.588 131.686 151.033  1.00  0.00    -0.348 N 
ATOM      4  H   UNL     1     135.842 132.407 151.169  1.00  0.00     0.345 HD
ATOM      5  H   UNL     1     136.411 130.881 151.679  1.00  0.00     0.345 HD
ATOM      6  H   UNL     1     136.539 131.347 150.045  1.00  0.00     0.345 HD
ENDBRANCH   2   3
BRANCH   2   7
ATOM      7  C   UNL     1     138.920 131.201 151.574  1.00  0.00     0.102 C 
ATOM      8  O   UNL     1     138.798 130.057 151.060  1.00  0.00    -0.544 OA
ATOM      9  O   UNL     1     140.006 131.471 152.396  1.00  0.00    -0.544 OA
ENDBRANCH   2   7
ENDBRANCH   1   2
BRANCH   1  10
ATOM     10  O   UNL     1     139.605 132.735 149.625  1.00  0.00    -0.390 OA
ATOM     11  H   UNL     1     140.260 132.925 150.346  1.00  0.00     0.210 HD
ENDBRANCH   1  10
TORSDOF 4
ENDMDL
MODEL 8
REMARK VINA RESULT:    -2.900     10.426     10.676
REMARK INTER + INTRA:          -3.609
REMARK INTER:                  -3.383
REMARK INTRA:                  -0.226
REMARK UNBOUND:                -0.201
REMARK SMILES [NH3+][C@H](CO)C(=O)[O-]
REMARK SMILES IDX 3 1 2 2 1 3 5 7 6 8 7 9 4 10
REMARK H PARENT 1 4 1 5 1 6 4 11
REMARK Flexibility Score: inf
ROOT
ATOM      1  C   UNL     1     137.130 133.667 150.129  1.00  0.00     0.227 C 
ENDROOT
BRANCH   1   2
ATOM      2  C   UNL     1     137.491 132.587 151.165  1.00  0.00     0.253 C 
BRANCH   2   3
ATOM      3  N   UNL     1     136.587 131.436 151.050  1.00  0.00    -0.348 N 
ATOM      4  H   UNL     1     136.307 131.110 152.003  1.00  0.00     0.345 HD
ATOM      5  H   UNL     1     137.052 130.650 150.539  1.00  0.00     0.345 HD
ATOM      6  H   UNL     1     135.723 131.716 150.532  1.00  0.00     0.345 HD
ENDBRANCH   2   3
BRANCH   2   7
ATOM      7  C   UNL     1     138.923 132.150 151.002  1.00  0.00     0.102 C 
ATOM      8  O   UNL     1     139.637 132.631 150.082  1.00  0.00    -0.544 OA
ATOM      9  O   UNL     1     139.469 131.221 151.878  1.00  0.00    -0.544 OA
ENDBRANCH   2   7
ENDBRANCH   1   2
BRANCH   1  10
ATOM     10  O   UNL     1     137.753 134.884 150.440  1.00  0.00    -0.390 OA
ATOM     11  H   UNL     1     137.830 134.919 151.430  1.00  0.00     0.210 HD
ENDBRANCH   1  10
TORSDOF 4
ENDMDL
MODEL 9
REMARK VINA RESULT:    -2.883      9.082      9.617
REMARK INTER + INTRA:          -3.589
REMARK INTER:                  -3.203
REMARK INTRA:                  -0.386
REMARK UNBOUND:                -0.201
REMARK SMILES [NH3+][C@H](CO)C(=O)[O-]
REMARK SMILES IDX 3 1 2 2 1 3 5 7 6 8 7 9 4 10
REMARK H PARENT 1 4 1 5 1 6 4 11
REMARK Flexibility Score: inf
ROOT
ATOM      1  C   UNL     1     137.142 129.210 150.536  1.00  0.00     0.227 C 
ENDROOT
BRANCH   1   2
ATOM      2  C   UNL     1     137.739 130.482 149.909  1.00  0.00     0.253 C 
BRANCH   2   3
ATOM      3  N   UNL     1     137.010 130.851 148.691  1.00  0.00    -0.348 N 
ATOM      4  H   UNL     1     137.402 131.737 148.297  1.00  0.00     0.345 HD
ATOM      5  H   UNL     1     135.992 130.985 148.894  1.00  0.00     0.345 HD
ATOM      6  H   UNL     1     137.118 130.098 147.973  1.00  0.00     0.345 HD
ENDBRANCH   2   3
BRANCH   2   7
ATOM      7  C   UNL     1     137.726 131.620 150.896  1.00  0.00     0.102 C 
ATOM      8  O   UNL     1     136.813 132.488 150.857  1.00  0.00    -0.544 OA
ATOM      9  O   UNL     1     138.716 131.710 151.865  1.00  0.00    -0.544 OA
ENDBRANCH   2   7
ENDBRANCH   1   2
BRANCH   1  10
ATOM     10  O   UNL     1     136.717 129.454 151.851  1.00  0.00    -0.390 OA
ATOM     11  H   UNL     1     136.863 130.422 152.021  1.00  0.00     0.210 HD
ENDBRANCH   1  10
TORSDOF 4
ENDMDL
