MODEL 1
REMARK VINA RESULT:    -4.305      0.000      0.000
REMARK INTER + INTRA:          -4.875
REMARK INTER:                  -4.809
REMARK INTRA:                  -0.066
REMARK UNBOUND:                -0.066
REMARK SMILES COc1ccc(C(=O)[O-])cc1
REMARK SMILES IDX 6 1 5 2 10 3 4 4 11 5 3 6 7 7 8 8 9 9 2 10 1 11
REMARK H PARENT
REMARK Flexibility Score: inf
ROOT
ATOM      1  C   UNL     1       7.896  60.659  55.982  1.00  0.00    -0.003 A 
ATOM      2  C   UNL     1       7.515  61.488  57.051  1.00  0.00     0.014 A 
ATOM      3  C   UNL     1       7.482  59.317  55.980  1.00  0.00     0.014 A 
ATOM      4  C   UNL     1       6.736  60.984  58.095  1.00  0.00     0.047 A 
ATOM      5  C   UNL     1       6.700  58.814  57.026  1.00  0.00     0.047 A 
ATOM      6  C   UNL     1       6.322  59.647  58.093  1.00  0.00     0.118 A 
ENDROOT
BRANCH   1   7
ATOM      7  C   UNL     1       8.722  61.188  54.873  1.00  0.00     0.071 C 
ATOM      8  O   UNL     1       8.512  60.821  53.686  1.00  0.00    -0.545 OA
ATOM      9  O   UNL     1       9.742  62.097  55.127  1.00  0.00    -0.545 OA
ENDBRANCH   1   7
BRANCH   6  10
ATOM     10  O   UNL     1       5.541  59.190  59.165  1.00  0.00    -0.497 OA
ATOM     11  C   UNL     1       5.474  59.823  60.439  1.00  0.00     0.278 C 
ENDBRANCH   6  10
TORSDOF 2
ENDMDL
MODEL 2
REMARK VINA RESULT:    -4.230     13.798     14.674
REMARK INTER + INTRA:          -4.790
REMARK INTER:                  -4.724
REMARK INTRA:                  -0.066
REMARK UNBOUND:                -0.066
REMARK SMILES COc1ccc(C(=O)[O-])cc1
REMARK SMILES IDX 6 1 5 2 10 3 4 4 11 5 3 6 7 7 8 8 9 9 2 10 1 11
REMARK H PARENT
REMARK Flexibility Score: inf
ROOT
ATOM      1  C   UNL     1      -2.740  58.054  47.718  1.00  0.00    -0.003 A 
ATOM      2  C   UNL     1      -2.970  59.192  48.512  1.00  0.00     0.014 A 
ATOM      3  C   UNL     1      -2.977  58.130  46.336  1.00  0.00     0.014 A 
ATOM      4  C   UNL     1      -3.429  60.378  47.934  1.00  0.00     0.047 A 
ATOM      5  C   UNL     1      -3.435  59.319  45.758  1.00  0.00     0.047 A 
ATOM      6  C   UNL     1      -3.665  60.453  46.557  1.00  0.00     0.118 A 
ENDROOT
BRANCH   1   7
ATOM      7  C   UNL     1      -2.254  56.795  48.326  1.00  0.00     0.071 C 
ATOM      8  O   UNL     1      -1.500  56.020  47.679  1.00  0.00    -0.545 OA
ATOM      9  O   UNL     1      -2.625  56.450  49.620  1.00  0.00    -0.545 OA
ENDBRANCH   1   7
BRANCH   6  10
ATOM     10  O   UNL     1      -4.124  61.668  46.025  1.00  0.00    -0.497 OA
ATOM     11  C   UNL     1      -3.911  62.940  46.627  1.00  0.00     0.278 C 
ENDBRANCH   6  10
TORSDOF 2
ENDMDL
MODEL 3
REMARK VINA RESULT:    -4.131      1.529      2.281
REMARK INTER + INTRA:          -4.680
REMARK INTER:                  -4.610
REMARK INTRA:                  -0.069
REMARK UNBOUND:                -0.066
REMARK SMILES COc1ccc(C(=O)[O-])cc1
REMARK SMILES IDX 6 1 5 2 10 3 4 4 11 5 3 6 7 7 8 8 9 9 2 10 1 11
REMARK H PARENT
REMARK Flexibility Score: inf
ROOT
ATOM      1  C   UNL     1       7.257  60.330  57.083  1.00  0.00    -0.003 A 
ATOM      2  C   UNL     1       6.272  59.483  57.621  1.00  0.00     0.014 A 
ATOM      3  C   UNL     1       7.629  61.481  57.796  1.00  0.00     0.014 A 
ATOM      4  C   UNL     1       5.674  59.782  58.848  1.00  0.00     0.047 A 
ATOM      5  C   UNL     1       7.029  61.779  59.025  1.00  0.00     0.047 A 
ATOM      6  C   UNL     1       6.045  60.929  59.559  1.00  0.00     0.118 A 
ENDROOT
BRANCH   1   7
ATOM      7  C   UNL     1       7.893  60.018  55.783  1.00  0.00     0.071 C 
ATOM      8  O   UNL     1       7.856  58.848  55.316  1.00  0.00    -0.545 OA
ATOM      9  O   UNL     1       8.542  61.012  55.060  1.00  0.00    -0.545 OA
ENDBRANCH   1   7
BRANCH   6  10
ATOM     10  O   UNL     1       5.415  61.185  60.786  1.00  0.00    -0.497 OA
ATOM     11  C   UNL     1       4.268  60.487  61.261  1.00  0.00     0.278 C 
ENDBRANCH   6  10
TORSDOF 2
ENDMDL
MODEL 4
REMARK VINA RESULT:    -4.102     14.297     14.945
REMARK INTER + INTRA:          -4.648
REMARK INTER:                  -4.579
REMARK INTRA:                  -0.069
REMARK UNBOUND:                -0.066
REMARK SMILES COc1ccc(C(=O)[O-])cc1
REMARK SMILES IDX 6 1 5 2 10 3 4 4 11 5 3 6 7 7 8 8 9 9 2 10 1 11
REMARK H PARENT
REMARK Flexibility Score: inf
ROOT
ATOM      1  C   UNL     1      -3.728  60.681  46.536  1.00  0.00    -0.003 A 
ATOM      2  C   UNL     1      -3.443  60.403  47.884  1.00  0.00     0.014 A 
ATOM      3  C   UNL     1      -3.813  59.616  45.624  1.00  0.00     0.014 A 
ATOM      4  C   UNL     1      -3.247  59.087  48.310  1.00  0.00     0.047 A 
ATOM      5  C   UNL     1      -3.618  58.298  46.052  1.00  0.00     0.047 A 
ATOM      6  C   UNL     1      -3.332  58.025  47.402  1.00  0.00     0.118 A 
ENDROOT
BRANCH   1   7
ATOM      7  C   UNL     1      -3.935  62.074  46.079  1.00  0.00     0.071 C 
ATOM      8  O   UNL     1      -4.019  63.015  46.913  1.00  0.00    -0.545 OA
ATOM      9  O   UNL     1      -4.040  62.362  44.724  1.00  0.00    -0.545 OA
ENDBRANCH   1   7
BRANCH   6  10
ATOM     10  O   UNL     1      -3.129  56.722  47.880  1.00  0.00    -0.497 OA
ATOM     11  C   UNL     1      -2.389  56.402  49.054  1.00  0.00     0.278 C 
ENDBRANCH   6  10
TORSDOF 2
ENDMDL
MODEL 5
REMARK VINA RESULT:    -4.080      2.481      6.025
REMARK INTER + INTRA:          -4.623
REMARK INTER:                  -4.561
REMARK INTRA:                  -0.062
REMARK UNBOUND:                -0.066
REMARK SMILES COc1ccc(C(=O)[O-])cc1
REMARK SMILES IDX 6 1 5 2 10 3 4 4 11 5 3 6 7 7 8 8 9 9 2 10 1 11
REMARK H PARENT
REMARK Flexibility Score: inf
ROOT
ATOM      1  C   UNL     1       3.988  60.151  59.897  1.00  0.00    -0.003 A 
ATOM      2  C   UNL     1       5.210  59.526  59.591  1.00  0.00     0.014 A 
ATOM      3  C   UNL     1       3.460  61.090  58.996  1.00  0.00     0.014 A 
ATOM      4  C   UNL     1       5.888  59.836  58.409  1.00  0.00     0.047 A 
ATOM      5  C   UNL     1       4.139  61.399  57.813  1.00  0.00     0.047 A 
ATOM      6  C   UNL     1       5.362  60.772  57.512  1.00  0.00     0.118 A 
ENDROOT
BRANCH   1   7
ATOM      7  C   UNL     1       3.266  59.827  61.148  1.00  0.00     0.071 C 
ATOM      8  O   UNL     1       3.318  60.605  62.138  1.00  0.00    -0.545 OA
ATOM      9  O   UNL     1       2.520  58.658  61.246  1.00  0.00    -0.545 OA
ENDBRANCH   1   7
BRANCH   6  10
ATOM     10  O   UNL     1       6.081  61.048  56.339  1.00  0.00    -0.497 OA
ATOM     11  C   UNL     1       7.432  60.659  56.114  1.00  0.00     0.278 C 
ENDBRANCH   6  10
TORSDOF 2
ENDMDL
MODEL 6
REMARK VINA RESULT:    -4.031      1.170      5.005
REMARK INTER + INTRA:          -4.568
REMARK INTER:                  -4.509
REMARK INTRA:                  -0.059
REMARK UNBOUND:                -0.066
REMARK SMILES COc1ccc(C(=O)[O-])cc1
REMARK SMILES IDX 6 1 5 2 10 3 4 4 11 5 3 6 7 7 8 8 9 9 2 10 1 11
REMARK H PARENT
REMARK Flexibility Score: inf
ROOT
ATOM      1  C   UNL     1       6.094  60.031  58.602  1.00  0.00    -0.003 A 
ATOM      2  C   UNL     1       6.085  58.882  57.791  1.00  0.00     0.014 A 
ATOM      3  C   UNL     1       6.845  61.146  58.195  1.00  0.00     0.014 A 
ATOM      4  C   UNL     1       6.812  58.852  56.598  1.00  0.00     0.047 A 
ATOM      5  C   UNL     1       7.571  61.115  57.000  1.00  0.00     0.047 A 
ATOM      6  C   UNL     1       7.560  59.963  56.192  1.00  0.00     0.118 A 
ENDROOT
BRANCH   1   7
ATOM      7  C   UNL     1       5.326  60.069  59.867  1.00  0.00     0.071 C 
ATOM      8  O   UNL     1       5.407  59.121  60.694  1.00  0.00    -0.545 OA
ATOM      9  O   UNL     1       4.505  61.151  60.160  1.00  0.00    -0.545 OA
ENDBRANCH   1   7
BRANCH   6  10
ATOM     10  O   UNL     1       8.272  59.882  54.986  1.00  0.00    -0.497 OA
ATOM     11  C   UNL     1       8.535  60.991  54.132  1.00  0.00     0.278 C 
ENDBRANCH   6  10
TORSDOF 2
ENDMDL
MODEL 7
REMARK VINA RESULT:    -4.025      6.234      9.343
REMARK INTER + INTRA:          -4.562
REMARK INTER:                  -4.495
REMARK INTRA:                  -0.067
REMARK UNBOUND:                -0.066
REMARK SMILES COc1ccc(C(=O)[O-])cc1
REMARK SMILES IDX 6 1 5 2 10 3 4 4 11 5 3 6 7 7 8 8 9 9 2 10 1 11
REMARK H PARENT
REMARK Flexibility Score: inf
ROOT
ATOM      1  C   UNL     1       7.243  62.367  50.041  1.00  0.00    -0.003 A 
ATOM      2  C   UNL     1       8.599  62.006  49.941  1.00  0.00     0.014 A 
ATOM      3  C   UNL     1       6.573  62.820  48.893  1.00  0.00     0.014 A 
ATOM      4  C   UNL     1       9.267  62.097  48.718  1.00  0.00     0.047 A 
ATOM      5  C   UNL     1       7.243  62.909  47.669  1.00  0.00     0.047 A 
ATOM      6  C   UNL     1       8.599  62.548  47.574  1.00  0.00     0.118 A 
ENDROOT
BRANCH   1   7
ATOM      7  C   UNL     1       6.531  62.273  51.335  1.00  0.00     0.071 C 
ATOM      8  O   UNL     1       6.982  61.550  52.264  1.00  0.00    -0.545 OA
ATOM      9  O   UNL     1       5.353  62.982  51.543  1.00  0.00    -0.545 OA
ENDBRANCH   1   7
BRANCH   6  10
ATOM     10  O   UNL     1       9.315  62.620  46.369  1.00  0.00    -0.497 OA
ATOM     11  C   UNL     1      10.414  61.779  46.035  1.00  0.00     0.278 C 
ENDBRANCH   6  10
TORSDOF 2
ENDMDL
MODEL 8
REMARK VINA RESULT:    -3.972      4.439      6.993
REMARK INTER + INTRA:          -4.502
REMARK INTER:                  -4.444
REMARK INTRA:                  -0.058
REMARK UNBOUND:                -0.066
REMARK SMILES COc1ccc(C(=O)[O-])cc1
REMARK SMILES IDX 6 1 5 2 10 3 4 4 11 5 3 6 7 7 8 8 9 9 2 10 1 11
REMARK H PARENT
REMARK Flexibility Score: inf
ROOT
ATOM      1  C   UNL     1      10.089  63.955  56.856  1.00  0.00    -0.003 A 
ATOM      2  C   UNL     1      10.229  62.886  55.952  1.00  0.00     0.014 A 
ATOM      3  C   UNL     1      10.524  65.233  56.471  1.00  0.00     0.014 A 
ATOM      4  C   UNL     1      10.793  63.094  54.692  1.00  0.00     0.047 A 
ATOM      5  C   UNL     1      11.089  65.440  55.208  1.00  0.00     0.047 A 
ATOM      6  C   UNL     1      11.227  64.368  54.308  1.00  0.00     0.118 A 
ENDROOT
BRANCH   1   7
ATOM      7  C   UNL     1       9.492  63.739  58.193  1.00  0.00     0.071 C 
ATOM      8  O   UNL     1       8.597  62.868  58.363  1.00  0.00    -0.545 OA
ATOM      9  O   UNL     1       9.911  64.496  59.281  1.00  0.00    -0.545 OA
ENDBRANCH   1   7
BRANCH   6  10
ATOM     10  O   UNL     1      11.787  64.525  53.031  1.00  0.00    -0.497 OA
ATOM     11  C   UNL     1      11.213  65.313  51.993  1.00  0.00     0.278 C 
ENDBRANCH   6  10
TORSDOF 2
ENDMDL
MODEL 9
REMARK VINA RESULT:    -3.869      5.456      7.349
REMARK INTER + INTRA:          -4.387
REMARK INTER:                  -4.317
REMARK INTRA:                  -0.071
REMARK UNBOUND:                -0.066
REMARK SMILES COc1ccc(C(=O)[O-])cc1
REMARK SMILES IDX 6 1 5 2 10 3 4 4 11 5 3 6 7 7 8 8 9 9 2 10 1 11
REMARK H PARENT
REMARK Flexibility Score: inf
ROOT
ATOM      1  C   UNL     1       6.411  62.621  49.248  1.00  0.00    -0.003 A 
ATOM      2  C   UNL     1       7.719  62.246  49.604  1.00  0.00     0.014 A 
ATOM      3  C   UNL     1       5.406  62.600  50.228  1.00  0.00     0.014 A 
ATOM      4  C   UNL     1       8.012  61.859  50.914  1.00  0.00     0.047 A 
ATOM      5  C   UNL     1       5.701  62.214  51.540  1.00  0.00     0.047 A 
ATOM      6  C   UNL     1       7.011  61.839  51.891  1.00  0.00     0.118 A 
ENDROOT
BRANCH   1   7
ATOM      7  C   UNL     1       6.094  63.031  47.861  1.00  0.00     0.071 C 
ATOM      8  O   UNL     1       6.962  62.938  46.952  1.00  0.00    -0.545 OA
ATOM      9  O   UNL     1       4.834  63.525  47.543  1.00  0.00    -0.545 OA
ENDBRANCH   1   7
BRANCH   6  10
ATOM     10  O   UNL     1       7.357  61.443  53.192  1.00  0.00    -0.497 OA
ATOM     11  C   UNL     1       8.688  61.181  53.625  1.00  0.00     0.278 C 
ENDBRANCH   6  10
TORSDOF 2
ENDMDL
