MODEL 1
REMARK VINA RESULT:    30.950      0.000      0.000
REMARK INTER + INTRA:          37.295
REMARK INTER:                  37.283
REMARK INTRA:                   0.013
REMARK UNBOUND:                 0.013
REMARK SMILES O=c1ccn([C@H]2O[C@@H](CO)[C@@H](O)[C@@H]2O)c(=O)[nH]1
REMARK SMILES IDX 6 1 13 2 11 3 8 4 7 5 5 6 3 7 4 8 2 9 17 10 1 11 15 12 16 14
REMARK SMILES IDX 14 15 12 17 9 19 10 20
REMARK H PARENT 17 13 14 16 12 18 10 21
REMARK Flexibility Score: inf
ROOT
ATOM      1  C   UNL     1     -22.431 -15.117  -7.147  1.00  0.00     0.255 C 
ATOM      2  C   UNL     1     -21.454 -14.564  -6.099  1.00  0.00     0.196 C 
ATOM      3  C   UNL     1     -22.360 -14.094  -4.983  1.00  0.00     0.179 C 
ATOM      4  C   UNL     1     -23.685 -13.893  -5.709  1.00  0.00     0.178 C 
ATOM      5  O   UNL     1     -23.759 -14.838  -6.747  1.00  0.00    -0.347 OA
ENDROOT
BRANCH   1   6
ATOM      6  N   UNL     1     -22.241 -16.573  -7.319  1.00  0.00    -0.271 N 
ATOM      7  C   UNL     1     -20.842 -18.516  -7.140  1.00  0.00     0.090 A 
ATOM      8  C   UNL     1     -21.055 -17.153  -6.954  1.00  0.00     0.099 A 
ATOM      9  C   UNL     1     -21.852 -19.274  -7.722  1.00  0.00     0.253 A 
ATOM     10  N   UNL     1     -23.013 -18.678  -8.100  1.00  0.00    -0.274 N 
ATOM     11  O   UNL     1     -21.687 -20.510  -7.902  1.00  0.00    -0.269 OA
ATOM     12  C   UNL     1     -23.210 -17.343  -7.916  1.00  0.00     0.330 A 
ATOM     13  H   UNL     1     -23.762 -19.253  -8.548  1.00  0.00     0.175 HD
ATOM     14  O   UNL     1     -24.294 -16.824  -8.303  1.00  0.00    -0.248 OA
ENDBRANCH   1   6
BRANCH   2  15
ATOM     15  O   UNL     1     -20.739 -13.481  -6.639  1.00  0.00    -0.386 OA
ATOM     16  H   UNL     1     -21.413 -12.799  -6.900  1.00  0.00     0.211 HD
ENDBRANCH   2  15
BRANCH   3  17
ATOM     17  O   UNL     1     -22.468 -15.093  -4.000  1.00  0.00    -0.387 OA
ATOM     18  H   UNL     1     -22.388 -14.637  -3.122  1.00  0.00     0.211 HD
ENDBRANCH   3  17
BRANCH   4  19
ATOM     19  C   UNL     1     -24.909 -14.012  -4.789  1.00  0.00     0.191 C 
BRANCH  19  20
ATOM     20  O   UNL     1     -24.609 -13.518  -3.512  1.00  0.00    -0.394 OA
ATOM     21  H   UNL     1     -24.060 -14.210  -3.059  1.00  0.00     0.210 HD
ENDBRANCH  19  20
ENDBRANCH   4  19
TORSDOF 5
ENDMDL
MODEL 2
REMARK VINA RESULT:    31.447      1.627      2.850
REMARK INTER + INTRA:          37.894
REMARK INTER:                  36.282
REMARK INTRA:                   1.612
REMARK UNBOUND:                 0.013
REMARK SMILES O=c1ccn([C@H]2O[C@@H](CO)[C@@H](O)[C@@H]2O)c(=O)[nH]1
REMARK SMILES IDX 6 1 13 2 11 3 8 4 7 5 5 6 3 7 4 8 2 9 17 10 1 11 15 12 16 14
REMARK SMILES IDX 14 15 12 17 9 19 10 20
REMARK H PARENT 17 13 14 16 12 18 10 21
REMARK Flexibility Score: inf
ROOT
ATOM      1  C   UNL     1     -21.897 -14.970  -6.340  1.00  0.00     0.255 C 
ATOM      2  C   UNL     1     -23.310 -14.371  -6.285  1.00  0.00     0.196 C 
ATOM      3  C   UNL     1     -23.269 -13.269  -7.320  1.00  0.00     0.179 C 
ATOM      4  C   UNL     1     -21.775 -12.982  -7.423  1.00  0.00     0.178 C 
ATOM      5  O   UNL     1     -21.086 -14.186  -7.193  1.00  0.00    -0.347 OA
ENDROOT
BRANCH   1   6
ATOM      6  N   UNL     1     -21.943 -16.369  -6.818  1.00  0.00    -0.271 N 
ATOM      7  C   UNL     1     -20.849 -18.478  -7.160  1.00  0.00     0.090 A 
ATOM      8  C   UNL     1     -20.840 -17.169  -6.686  1.00  0.00     0.099 A 
ATOM      9  C   UNL     1     -21.996 -18.951  -7.788  1.00  0.00     0.253 A 
ATOM     10  N   UNL     1     -23.073 -18.134  -7.932  1.00  0.00    -0.274 N 
ATOM     11  O   UNL     1     -22.034 -20.131  -8.227  1.00  0.00    -0.269 OA
ATOM     12  C   UNL     1     -23.053 -16.855  -7.466  1.00  0.00     0.330 A 
ATOM     13  H   UNL     1     -23.928 -18.493  -8.416  1.00  0.00     0.175 HD
ATOM     14  O   UNL     1     -24.066 -16.122  -7.642  1.00  0.00    -0.248 OA
ENDBRANCH   1   6
BRANCH   2  15
ATOM     15  O   UNL     1     -23.550 -13.835  -5.008  1.00  0.00    -0.386 OA
ATOM     16  H   UNL     1     -22.704 -13.401  -4.720  1.00  0.00     0.211 HD
ENDBRANCH   2  15
BRANCH   3  17
ATOM     17  O   UNL     1     -23.779 -13.739  -8.543  1.00  0.00    -0.387 OA
ATOM     18  H   UNL     1     -23.009 -13.799  -9.167  1.00  0.00     0.211 HD
ENDBRANCH   3  17
BRANCH   4  19
ATOM     19  C   UNL     1     -21.362 -12.380  -8.774  1.00  0.00     0.191 C 
BRANCH  19  20
ATOM     20  O   UNL     1     -22.495 -11.991  -9.502  1.00  0.00    -0.394 OA
ATOM     21  H   UNL     1     -23.280 -12.387  -9.041  1.00  0.00     0.210 HD
ENDBRANCH  19  20
ENDBRANCH   4  19
TORSDOF 5
ENDMDL
MODEL 3
REMARK VINA RESULT:    31.562     12.889     14.698
REMARK INTER + INTRA:          38.033
REMARK INTER:                  38.614
REMARK INTRA:                  -0.581
REMARK UNBOUND:                 0.013
REMARK SMILES O=c1ccn([C@H]2O[C@@H](CO)[C@@H](O)[C@@H]2O)c(=O)[nH]1
REMARK SMILES IDX 6 1 13 2 11 3 8 4 7 5 5 6 3 7 4 8 2 9 17 10 1 11 15 12 16 14
REMARK SMILES IDX 14 15 12 17 9 19 10 20
REMARK H PARENT 17 13 14 16 12 18 10 21
REMARK Flexibility Score: inf
ROOT
ATOM      1  C   UNL     1     -24.954 -22.017 -20.018  1.00  0.00     0.255 C 
ATOM      2  C   UNL     1     -24.760 -23.043 -18.892  1.00  0.00     0.196 C 
ATOM      3  C   UNL     1     -23.257 -23.152 -18.766  1.00  0.00     0.179 C 
ATOM      4  C   UNL     1     -22.785 -22.667 -20.132  1.00  0.00     0.178 C 
ATOM      5  O   UNL     1     -23.699 -21.701 -20.588  1.00  0.00    -0.347 OA
ENDROOT
BRANCH   1   6
ATOM      6  N   UNL     1     -25.606 -20.795 -19.502  1.00  0.00    -0.271 N 
ATOM      7  C   UNL     1     -25.433 -18.580 -18.593  1.00  0.00     0.090 A 
ATOM      8  C   UNL     1     -24.841 -19.727 -19.114  1.00  0.00     0.099 A 
ATOM      9  C   UNL     1     -26.816 -18.547 -18.456  1.00  0.00     0.253 A 
ATOM     10  N   UNL     1     -27.557 -19.625 -18.824  1.00  0.00    -0.274 N 
ATOM     11  O   UNL     1     -27.379 -17.522 -17.988  1.00  0.00    -0.269 OA
ATOM     12  C   UNL     1     -26.969 -20.744 -19.330  1.00  0.00     0.330 A 
ATOM     13  H   UNL     1     -28.596 -19.597 -18.707  1.00  0.00     0.175 HD
ATOM     14  O   UNL     1     -27.692 -21.732 -19.637  1.00  0.00    -0.248 OA
ENDBRANCH   1   6
BRANCH   2  15
ATOM     15  O   UNL     1     -25.310 -24.279 -19.274  1.00  0.00    -0.386 OA
ATOM     16  H   UNL     1     -25.561 -24.749 -18.436  1.00  0.00     0.211 HD
ENDBRANCH   2  15
BRANCH   3  17
ATOM     17  O   UNL     1     -22.798 -22.304 -17.742  1.00  0.00    -0.387 OA
ATOM     18  H   UNL     1     -22.583 -22.887 -16.967  1.00  0.00     0.211 HD
ENDBRANCH   3  17
BRANCH   4  19
ATOM     19  C   UNL     1     -21.361 -22.091 -20.116  1.00  0.00     0.191 C 
BRANCH  19  20
ATOM     20  O   UNL     1     -21.350 -20.838 -19.489  1.00  0.00    -0.394 OA
ATOM     21  H   UNL     1     -20.452 -20.732 -19.077  1.00  0.00     0.210 HD
ENDBRANCH  19  20
ENDBRANCH   4  19
TORSDOF 5
ENDMDL
MODEL 4
REMARK VINA RESULT:    32.589     13.021     14.303
REMARK INTER + INTRA:          39.269
REMARK INTER:                  39.744
REMARK INTRA:                  -0.475
REMARK UNBOUND:                 0.013
REMARK SMILES O=c1ccn([C@H]2O[C@@H](CO)[C@@H](O)[C@@H]2O)c(=O)[nH]1
REMARK SMILES IDX 6 1 13 2 11 3 8 4 7 5 5 6 3 7 4 8 2 9 17 10 1 11 15 12 16 14
REMARK SMILES IDX 14 15 12 17 9 19 10 20
REMARK H PARENT 17 13 14 16 12 18 10 21
REMARK Flexibility Score: inf
ROOT
ATOM      1  C   UNL     1     -26.380 -21.027 -18.772  1.00  0.00     0.255 C 
ATOM      2  C   UNL     1     -27.209 -20.748 -20.035  1.00  0.00     0.196 C 
ATOM      3  C   UNL     1     -27.365 -19.244 -20.030  1.00  0.00     0.179 C 
ATOM      4  C   UNL     1     -27.140 -18.902 -18.561  1.00  0.00     0.178 C 
ATOM      5  O   UNL     1     -26.223 -19.830 -18.037  1.00  0.00    -0.347 OA
ENDROOT
BRANCH   1   6
ATOM      6  N   UNL     1     -25.058 -21.587 -19.131  1.00  0.00    -0.271 N 
ATOM      7  C   UNL     1     -22.729 -21.256 -19.607  1.00  0.00     0.090 A 
ATOM      8  C   UNL     1     -23.974 -20.756 -19.237  1.00  0.00     0.099 A 
ATOM      9  C   UNL     1     -22.612 -22.613 -19.886  1.00  0.00     0.253 A 
ATOM     10  N   UNL     1     -23.704 -23.417 -19.799  1.00  0.00    -0.274 N 
ATOM     11  O   UNL     1     -21.497 -23.093 -20.223  1.00  0.00    -0.269 OA
ATOM     12  C   UNL     1     -24.918 -22.918 -19.438  1.00  0.00     0.330 A 
ATOM     13  H   UNL     1     -23.610 -24.434 -20.022  1.00  0.00     0.175 HD
ATOM     14  O   UNL     1     -25.912 -23.696 -19.393  1.00  0.00    -0.248 OA
ENDBRANCH   1   6
BRANCH   2  15
ATOM     15  O   UNL     1     -28.464 -21.371 -19.926  1.00  0.00    -0.386 OA
ATOM     16  H   UNL     1     -28.623 -21.521 -18.957  1.00  0.00     0.211 HD
ENDBRANCH   2  15
BRANCH   3  17
ATOM     17  O   UNL     1     -26.380 -18.656 -20.843  1.00  0.00    -0.387 OA
ATOM     18  H   UNL     1     -25.708 -18.257 -20.230  1.00  0.00     0.211 HD
ENDBRANCH   3  17
BRANCH   4  19
ATOM     19  C   UNL     1     -26.637 -17.469 -18.339  1.00  0.00     0.191 C 
BRANCH  19  20
ATOM     20  O   UNL     1     -27.606 -16.543 -18.749  1.00  0.00    -0.394 OA
ATOM     21  H   UNL     1     -27.943 -16.853 -19.630  1.00  0.00     0.210 HD
ENDBRANCH  19  20
ENDBRANCH   4  19
TORSDOF 5
ENDMDL
MODEL 5
REMARK VINA RESULT:    33.257     12.230     14.873
REMARK INTER + INTRA:          40.075
REMARK INTER:                  40.427
REMARK INTRA:                  -0.352
REMARK UNBOUND:                 0.013
REMARK SMILES O=c1ccn([C@H]2O[C@@H](CO)[C@@H](O)[C@@H]2O)c(=O)[nH]1
REMARK SMILES IDX 6 1 13 2 11 3 8 4 7 5 5 6 3 7 4 8 2 9 17 10 1 11 15 12 16 14
REMARK SMILES IDX 14 15 12 17 9 19 10 20
REMARK H PARENT 17 13 14 16 12 18 10 21
REMARK Flexibility Score: inf
ROOT
ATOM      1  C   UNL     1     -25.103 -21.634 -18.499  1.00  0.00     0.255 C 
ATOM      2  C   UNL     1     -23.593 -21.517 -18.758  1.00  0.00     0.196 C 
ATOM      3  C   UNL     1     -23.356 -22.473 -19.906  1.00  0.00     0.179 C 
ATOM      4  C   UNL     1     -24.553 -23.410 -19.795  1.00  0.00     0.178 C 
ATOM      5  O   UNL     1     -25.640 -22.669 -19.299  1.00  0.00    -0.347 OA
ENDROOT
BRANCH   1   6
ATOM      6  N   UNL     1     -25.782 -20.353 -18.792  1.00  0.00    -0.271 N 
ATOM      7  C   UNL     1     -26.704 -18.815 -20.387  1.00  0.00     0.090 A 
ATOM      8  C   UNL     1     -26.096 -20.030 -20.085  1.00  0.00     0.099 A 
ATOM      9  C   UNL     1     -26.969 -17.927 -19.351  1.00  0.00     0.253 A 
ATOM     10  N   UNL     1     -26.628 -18.254 -18.077  1.00  0.00    -0.274 N 
ATOM     11  O   UNL     1     -27.518 -16.820 -19.594  1.00  0.00    -0.269 OA
ATOM     12  C   UNL     1     -26.032 -19.445 -17.792  1.00  0.00     0.330 A 
ATOM     13  H   UNL     1     -26.820 -17.576 -17.304  1.00  0.00     0.175 HD
ATOM     14  O   UNL     1     -25.710 -19.700 -16.598  1.00  0.00    -0.248 OA
ENDBRANCH   1   6
BRANCH   2  15
ATOM     15  O   UNL     1     -22.882 -21.932 -17.619  1.00  0.00    -0.386 OA
ATOM     16  H   UNL     1     -23.465 -22.580 -17.142  1.00  0.00     0.211 HD
ENDBRANCH   2  15
BRANCH   3  17
ATOM     17  O   UNL     1     -23.373 -21.773 -21.125  1.00  0.00    -0.387 OA
ATOM     18  H   UNL     1     -23.977 -20.995 -20.997  1.00  0.00     0.211 HD
ENDBRANCH   3  17
BRANCH   4  19
ATOM     19  C   UNL     1     -24.926 -24.082 -21.125  1.00  0.00     0.191 C 
BRANCH  19  20
ATOM     20  O   UNL     1     -26.093 -24.844 -20.976  1.00  0.00    -0.394 OA
ATOM     21  H   UNL     1     -25.835 -25.669 -20.488  1.00  0.00     0.210 HD
ENDBRANCH  19  20
ENDBRANCH   4  19
TORSDOF 5
ENDMDL
MODEL 6
REMARK VINA RESULT:    33.540      2.091      5.445
REMARK INTER + INTRA:          40.415
REMARK INTER:                  40.463
REMARK INTRA:                  -0.048
REMARK UNBOUND:                 0.013
REMARK SMILES O=c1ccn([C@H]2O[C@@H](CO)[C@@H](O)[C@@H]2O)c(=O)[nH]1
REMARK SMILES IDX 6 1 13 2 11 3 8 4 7 5 5 6 3 7 4 8 2 9 17 10 1 11 15 12 16 14
REMARK SMILES IDX 14 15 12 17 9 19 10 20
REMARK H PARENT 17 13 14 16 12 18 10 21
REMARK Flexibility Score: inf
ROOT
ATOM      1  C   UNL     1     -21.667 -16.880  -7.105  1.00  0.00     0.255 C 
ATOM      2  C   UNL     1     -22.877 -17.663  -7.637  1.00  0.00     0.196 C 
ATOM      3  C   UNL     1     -22.287 -18.997  -8.037  1.00  0.00     0.179 C 
ATOM      4  C   UNL     1     -20.816 -18.651  -8.236  1.00  0.00     0.178 C 
ATOM      5  O   UNL     1     -20.487 -17.624  -7.334  1.00  0.00    -0.347 OA
ENDROOT
BRANCH   1   6
ATOM      6  N   UNL     1     -21.825 -16.596  -5.662  1.00  0.00    -0.271 N 
ATOM      7  C   UNL     1     -21.929 -17.380  -3.396  1.00  0.00     0.090 A 
ATOM      8  C   UNL     1     -21.749 -17.619  -4.755  1.00  0.00     0.099 A 
ATOM      9  C   UNL     1     -22.206 -16.082  -2.979  1.00  0.00     0.253 A 
ATOM     10  N   UNL     1     -22.301 -15.083  -3.896  1.00  0.00    -0.274 N 
ATOM     11  O   UNL     1     -22.373 -15.836  -1.755  1.00  0.00    -0.269 OA
ATOM     12  C   UNL     1     -22.125 -15.329  -5.224  1.00  0.00     0.330 A 
ATOM     13  H   UNL     1     -22.520 -14.113  -3.576  1.00  0.00     0.175 HD
ATOM     14  O   UNL     1     -22.246 -14.377  -6.045  1.00  0.00    -0.248 OA
ENDBRANCH   1   6
BRANCH   2  15
ATOM     15  O   UNL     1     -23.412 -17.008  -8.759  1.00  0.00    -0.386 OA
ATOM     16  H   UNL     1     -24.141 -16.421  -8.424  1.00  0.00     0.211 HD
ENDBRANCH   2  15
BRANCH   3  17
ATOM     17  O   UNL     1     -22.451 -19.927  -6.995  1.00  0.00    -0.387 OA
ATOM     18  H   UNL     1     -23.164 -19.568  -6.404  1.00  0.00     0.211 HD
ENDBRANCH   3  17
BRANCH   4  19
ATOM     19  C   UNL     1     -19.876 -19.850  -8.047  1.00  0.00     0.191 C 
BRANCH  19  20
ATOM     20  O   UNL     1     -20.602 -21.049  -8.084  1.00  0.00    -0.394 OA
ATOM     21  H   UNL     1     -20.340 -21.566  -7.278  1.00  0.00     0.210 HD
ENDBRANCH  19  20
ENDBRANCH   4  19
TORSDOF 5
ENDMDL
