MODEL 1
REMARK VINA RESULT:    -5.217      0.000      0.000
REMARK INTER + INTRA:          -5.924
REMARK INTER:                  -5.674
REMARK INTRA:                  -0.250
REMARK UNBOUND:                -0.250
REMARK SMILES O=C([O-])c1ccccc1O
REMARK SMILES IDX 4 1 9 2 5 3 8 4 6 5 7 6 2 7 1 8 3 9 10 10
REMARK H PARENT 10 11
REMARK Flexibility Score: inf
ROOT
ATOM      1  C   UNL     1      52.181 -40.626  -2.636  1.00  0.00     0.039 A 
ATOM      2  C   UNL     1      53.262 -41.203  -1.927  1.00  0.00     0.124 A 
ATOM      3  C   UNL     1      52.312 -39.308  -3.116  1.00  0.00     0.014 A 
ATOM      4  C   UNL     1      54.435 -40.463  -1.717  1.00  0.00     0.047 A 
ATOM      5  C   UNL     1      53.486 -38.583  -2.899  1.00  0.00     0.001 A 
ATOM      6  C   UNL     1      54.545 -39.159  -2.200  1.00  0.00     0.004 A 
ENDROOT
BRANCH   1   7
ATOM      7  C   UNL     1      50.918 -41.367  -2.886  1.00  0.00     0.075 C 
ATOM      8  O   UNL     1      50.932 -42.522  -3.387  1.00  0.00    -0.545 OA
ATOM      9  O   UNL     1      49.693 -40.793  -2.567  1.00  0.00    -0.545 OA
ENDBRANCH   1   7
BRANCH   2  10
ATOM     10  O   UNL     1      53.178 -42.506  -1.433  1.00  0.00    -0.507 OA
ATOM     11  H   UNL     1      53.996 -43.006  -1.106  1.00  0.00     0.293 HD
ENDBRANCH   2  10
TORSDOF 2
ENDMDL
MODEL 2
REMARK VINA RESULT:    -5.010      1.502      2.444
REMARK INTER + INTRA:          -5.700
REMARK INTER:                  -5.448
REMARK INTRA:                  -0.251
REMARK UNBOUND:                -0.250
REMARK SMILES O=C([O-])c1ccccc1O
REMARK SMILES IDX 4 1 9 2 5 3 8 4 6 5 7 6 2 7 1 8 3 9 10 10
REMARK H PARENT 10 11
REMARK Flexibility Score: inf
ROOT
ATOM      1  C   UNL     1      51.731 -40.711  -3.013  1.00  0.00     0.039 A 
ATOM      2  C   UNL     1      52.272 -39.407  -3.110  1.00  0.00     0.124 A 
ATOM      3  C   UNL     1      52.467 -41.701  -2.331  1.00  0.00     0.014 A 
ATOM      4  C   UNL     1      53.518 -39.121  -2.532  1.00  0.00     0.047 A 
ATOM      5  C   UNL     1      53.706 -41.402  -1.760  1.00  0.00     0.001 A 
ATOM      6  C   UNL     1      54.231 -40.115  -1.861  1.00  0.00     0.004 A 
ENDROOT
BRANCH   1   7
ATOM      7  C   UNL     1      50.417 -41.065  -3.607  1.00  0.00     0.075 C 
ATOM      8  O   UNL     1      49.603 -41.802  -2.990  1.00  0.00    -0.545 OA
ATOM      9  O   UNL     1      50.061 -40.583  -4.861  1.00  0.00    -0.545 OA
ENDBRANCH   1   7
BRANCH   2  10
ATOM     10  O   UNL     1      51.580 -38.394  -3.776  1.00  0.00    -0.507 OA
ATOM     11  H   UNL     1      50.592 -38.476  -3.989  1.00  0.00     0.293 HD
ENDBRANCH   2  10
TORSDOF 2
ENDMDL
MODEL 3
REMARK VINA RESULT:    -4.904      1.589      2.579
REMARK INTER + INTRA:          -5.584
REMARK INTER:                  -5.330
REMARK INTRA:                  -0.254
REMARK UNBOUND:                -0.250
REMARK SMILES O=C([O-])c1ccccc1O
REMARK SMILES IDX 4 1 9 2 5 3 8 4 6 5 7 6 2 7 1 8 3 9 10 10
REMARK H PARENT 10 11
REMARK Flexibility Score: inf
ROOT
ATOM      1  C   UNL     1      52.230 -39.673  -2.980  1.00  0.00     0.039 A 
ATOM      2  C   UNL     1      51.956 -41.032  -2.696  1.00  0.00     0.124 A 
ATOM      3  C   UNL     1      53.482 -39.142  -2.612  1.00  0.00     0.014 A 
ATOM      4  C   UNL     1      52.925 -41.824  -2.061  1.00  0.00     0.047 A 
ATOM      5  C   UNL     1      54.437 -39.942  -1.979  1.00  0.00     0.001 A 
ATOM      6  C   UNL     1      54.159 -41.280  -1.703  1.00  0.00     0.004 A 
ENDROOT
BRANCH   1   7
ATOM      7  C   UNL     1      51.239 -38.794  -3.652  1.00  0.00     0.075 C 
ATOM      8  O   UNL     1      50.968 -37.653  -3.194  1.00  0.00    -0.545 OA
ATOM      9  O   UNL     1      50.592 -39.220  -4.806  1.00  0.00    -0.545 OA
ENDBRANCH   1   7
BRANCH   2  10
ATOM     10  O   UNL     1      50.730 -41.601  -3.044  1.00  0.00    -0.507 OA
ATOM     11  H   UNL     1      50.664 -42.356  -3.716  1.00  0.00     0.293 HD
ENDBRANCH   2  10
TORSDOF 2
ENDMDL
MODEL 4
REMARK VINA RESULT:    -4.843      1.722      3.497
REMARK INTER + INTRA:          -5.517
REMARK INTER:                  -5.312
REMARK INTRA:                  -0.205
REMARK UNBOUND:                -0.250
REMARK SMILES O=C([O-])c1ccccc1O
REMARK SMILES IDX 4 1 9 2 5 3 8 4 6 5 7 6 2 7 1 8 3 9 10 10
REMARK H PARENT 10 11
REMARK Flexibility Score: inf
ROOT
ATOM      1  C   UNL     1      52.846 -40.173  -2.628  1.00  0.00     0.039 A 
ATOM      2  C   UNL     1      52.270 -41.461  -2.524  1.00  0.00     0.124 A 
ATOM      3  C   UNL     1      52.120 -39.156  -3.281  1.00  0.00     0.014 A 
ATOM      4  C   UNL     1      50.998 -41.706  -3.065  1.00  0.00     0.047 A 
ATOM      5  C   UNL     1      50.855 -39.414  -3.815  1.00  0.00     0.001 A 
ATOM      6  C   UNL     1      50.296 -40.686  -3.708  1.00  0.00     0.004 A 
ENDROOT
BRANCH   1   7
ATOM      7  C   UNL     1      54.188 -39.863  -2.072  1.00  0.00     0.075 C 
ATOM      8  O   UNL     1      54.515 -38.681  -1.787  1.00  0.00    -0.545 OA
ATOM      9  O   UNL     1      55.109 -40.881  -1.855  1.00  0.00    -0.545 OA
ENDBRANCH   1   7
BRANCH   2  10
ATOM     10  O   UNL     1      52.951 -42.499  -1.886  1.00  0.00    -0.507 OA
ATOM     11  H   UNL     1      52.473 -43.333  -1.566  1.00  0.00     0.293 HD
ENDBRANCH   2  10
TORSDOF 2
ENDMDL
MODEL 5
REMARK VINA RESULT:    -4.552      2.178      4.224
REMARK INTER + INTRA:          -5.201
REMARK INTER:                  -4.999
REMARK INTRA:                  -0.203
REMARK UNBOUND:                -0.250
REMARK SMILES O=C([O-])c1ccccc1O
REMARK SMILES IDX 4 1 9 2 5 3 8 4 6 5 7 6 2 7 1 8 3 9 10 10
REMARK H PARENT 10 11
REMARK Flexibility Score: inf
ROOT
ATOM      1  C   UNL     1      51.302 -40.790  -3.337  1.00  0.00     0.039 A 
ATOM      2  C   UNL     1      51.143 -39.751  -4.284  1.00  0.00     0.124 A 
ATOM      3  C   UNL     1      50.284 -41.758  -3.215  1.00  0.00     0.014 A 
ATOM      4  C   UNL     1      49.988 -39.699  -5.080  1.00  0.00     0.047 A 
ATOM      5  C   UNL     1      49.139 -41.693  -4.013  1.00  0.00     0.001 A 
ATOM      6  C   UNL     1      48.992 -40.666  -4.944  1.00  0.00     0.004 A 
ENDROOT
BRANCH   1   7
ATOM      7  C   UNL     1      52.505 -40.891  -2.472  1.00  0.00     0.075 C 
ATOM      8  O   UNL     1      53.224 -39.884  -2.242  1.00  0.00    -0.545 OA
ATOM      9  O   UNL     1      52.856 -42.107  -1.898  1.00  0.00    -0.545 OA
ENDBRANCH   1   7
BRANCH   2  10
ATOM     10  O   UNL     1      52.125 -38.771  -4.440  1.00  0.00    -0.507 OA
ATOM     11  H   UNL     1      52.031 -37.852  -4.024  1.00  0.00     0.293 HD
ENDBRANCH   2  10
TORSDOF 2
ENDMDL
MODEL 6
REMARK VINA RESULT:    -4.473     12.311     12.904
REMARK INTER + INTRA:          -5.115
REMARK INTER:                  -4.907
REMARK INTRA:                  -0.208
REMARK UNBOUND:                -0.250
REMARK SMILES O=C([O-])c1ccccc1O
REMARK SMILES IDX 4 1 9 2 5 3 8 4 6 5 7 6 2 7 1 8 3 9 10 10
REMARK H PARENT 10 11
REMARK Flexibility Score: inf
ROOT
ATOM      1  C   UNL     1      50.325 -38.069   9.794  1.00  0.00     0.039 A 
ATOM      2  C   UNL     1      50.669 -37.936   8.427  1.00  0.00     0.124 A 
ATOM      3  C   UNL     1      49.788 -39.293  10.242  1.00  0.00     0.014 A 
ATOM      4  C   UNL     1      50.473 -39.012   7.548  1.00  0.00     0.047 A 
ATOM      5  C   UNL     1      49.597 -40.355   9.355  1.00  0.00     0.001 A 
ATOM      6  C   UNL     1      49.940 -40.215   8.011  1.00  0.00     0.004 A 
ENDROOT
BRANCH   1   7
ATOM      7  C   UNL     1      50.514 -36.961  10.765  1.00  0.00     0.075 C 
ATOM      8  O   UNL     1      51.345 -36.042  10.547  1.00  0.00    -0.545 OA
ATOM      9  O   UNL     1      49.769 -36.923  11.938  1.00  0.00    -0.545 OA
ENDBRANCH   1   7
BRANCH   2  10
ATOM     10  O   UNL     1      51.205 -36.744   7.939  1.00  0.00    -0.507 OA
ATOM     11  H   UNL     1      50.630 -36.053   7.472  1.00  0.00     0.293 HD
ENDBRANCH   2  10
TORSDOF 2
ENDMDL
MODEL 7
REMARK VINA RESULT:    -4.466      1.983      3.805
REMARK INTER + INTRA:          -5.108
REMARK INTER:                  -4.892
REMARK INTRA:                  -0.216
REMARK UNBOUND:                -0.250
REMARK SMILES O=C([O-])c1ccccc1O
REMARK SMILES IDX 4 1 9 2 5 3 8 4 6 5 7 6 2 7 1 8 3 9 10 10
REMARK H PARENT 10 11
REMARK Flexibility Score: inf
ROOT
ATOM      1  C   UNL     1      51.213 -40.588  -3.042  1.00  0.00     0.039 A 
ATOM      2  C   UNL     1      50.821 -41.899  -3.404  1.00  0.00     0.124 A 
ATOM      3  C   UNL     1      50.255 -39.556  -3.094  1.00  0.00     0.014 A 
ATOM      4  C   UNL     1      49.499 -42.150  -3.803  1.00  0.00     0.047 A 
ATOM      5  C   UNL     1      48.943 -39.819  -3.495  1.00  0.00     0.001 A 
ATOM      6  C   UNL     1      48.566 -41.113  -3.849  1.00  0.00     0.004 A 
ENDROOT
BRANCH   1   7
ATOM      7  C   UNL     1      52.598 -40.272  -2.611  1.00  0.00     0.075 C 
ATOM      8  O   UNL     1      53.335 -41.152  -2.095  1.00  0.00    -0.545 OA
ATOM      9  O   UNL     1      53.107 -38.988  -2.773  1.00  0.00    -0.545 OA
ENDBRANCH   1   7
BRANCH   2  10
ATOM     10  O   UNL     1      51.734 -42.954  -3.366  1.00  0.00    -0.507 OA
ATOM     11  H   UNL     1      51.605 -43.791  -3.923  1.00  0.00     0.293 HD
ENDBRANCH   2  10
TORSDOF 2
ENDMDL
MODEL 8
REMARK VINA RESULT:    -4.336      3.058      4.417
REMARK INTER + INTRA:          -4.966
REMARK INTER:                  -4.761
REMARK INTRA:                  -0.205
REMARK UNBOUND:                -0.250
REMARK SMILES O=C([O-])c1ccccc1O
REMARK SMILES IDX 4 1 9 2 5 3 8 4 6 5 7 6 2 7 1 8 3 9 10 10
REMARK H PARENT 10 11
REMARK Flexibility Score: inf
ROOT
ATOM      1  C   UNL     1      50.676 -39.673  -4.925  1.00  0.00     0.039 A 
ATOM      2  C   UNL     1      51.344 -39.950  -3.708  1.00  0.00     0.124 A 
ATOM      3  C   UNL     1      49.504 -40.391  -5.234  1.00  0.00     0.014 A 
ATOM      4  C   UNL     1      50.834 -40.923  -2.836  1.00  0.00     0.047 A 
ATOM      5  C   UNL     1      49.008 -41.358  -4.356  1.00  0.00     0.001 A 
ATOM      6  C   UNL     1      49.672 -41.624  -3.160  1.00  0.00     0.004 A 
ENDROOT
BRANCH   1   7
ATOM      7  C   UNL     1      51.174 -38.652  -5.882  1.00  0.00     0.075 C 
ATOM      8  O   UNL     1      51.163 -37.428  -5.589  1.00  0.00    -0.545 OA
ATOM      9  O   UNL     1      51.664 -39.035  -7.125  1.00  0.00    -0.545 OA
ENDBRANCH   1   7
BRANCH   2  10
ATOM     10  O   UNL     1      52.508 -39.263  -3.360  1.00  0.00    -0.507 OA
ATOM     11  H   UNL     1      53.286 -39.728  -2.909  1.00  0.00     0.293 HD
ENDBRANCH   2  10
TORSDOF 2
ENDMDL
MODEL 9
REMARK VINA RESULT:    -4.278      2.609      4.166
REMARK INTER + INTRA:          -4.903
REMARK INTER:                  -4.659
REMARK INTRA:                  -0.244
REMARK UNBOUND:                -0.250
REMARK SMILES O=C([O-])c1ccccc1O
REMARK SMILES IDX 4 1 9 2 5 3 8 4 6 5 7 6 2 7 1 8 3 9 10 10
REMARK H PARENT 10 11
REMARK Flexibility Score: inf
ROOT
ATOM      1  C   UNL     1      50.866 -39.870  -4.077  1.00  0.00     0.039 A 
ATOM      2  C   UNL     1      50.970 -41.043  -3.293  1.00  0.00     0.124 A 
ATOM      3  C   UNL     1      49.732 -39.701  -4.898  1.00  0.00     0.014 A 
ATOM      4  C   UNL     1      49.954 -42.010  -3.341  1.00  0.00     0.047 A 
ATOM      5  C   UNL     1      48.729 -40.672  -4.937  1.00  0.00     0.001 A 
ATOM      6  C   UNL     1      48.840 -41.824  -4.160  1.00  0.00     0.004 A 
ENDROOT
BRANCH   1   7
ATOM      7  C   UNL     1      51.912 -38.816  -4.061  1.00  0.00     0.075 C 
ATOM      8  O   UNL     1      52.481 -38.483  -2.989  1.00  0.00    -0.545 OA
ATOM      9  O   UNL     1      52.283 -38.177  -5.238  1.00  0.00    -0.545 OA
ENDBRANCH   1   7
BRANCH   2  10
ATOM     10  O   UNL     1      52.073 -41.253  -2.465  1.00  0.00    -0.507 OA
ATOM     11  H   UNL     1      53.005 -40.961  -2.735  1.00  0.00     0.293 HD
ENDBRANCH   2  10
TORSDOF 2
ENDMDL
