MODEL 1
REMARK VINA RESULT:    -5.634      0.000      0.000
REMARK INTER + INTRA:          -7.372
REMARK INTER:                  -6.622
REMARK INTRA:                  -0.750
REMARK UNBOUND:                -0.750
REMARK SMILES C=C(C)[C@@H]1CC[C@@]2(C(=O)[O-])CC[C@]3(C)[C@@H](CC[C@@H]4[C@]5(C)C[C@@H](O)[C@@H](O)C(C)(C)[C@@H]5CC[C@@]43C)[C@@H]12
REMARK SMILES IDX 7 1 6 2 34 3 11 4 5 5 15 6 4 7 12 8 16 9 13 10 17 11 32 12
REMARK SMILES IDX 14 13 18 14 31 15 33 16 19 17 30 18 29 19 21 20 20 21 26 22
REMARK SMILES IDX 22 23 24 24 27 25 28 26 8 27 9 28 10 29 2 30 3 31 1 32 23 33
REMARK SMILES IDX 25 35
REMARK H PARENT 23 34 25 36
REMARK Flexibility Score: inf
ROOT
ATOM      1  C   UNL     1     105.282  85.413  17.004  1.00  0.00     0.014 C 
ATOM      2  C   UNL     1     106.216  86.644  16.873  1.00  0.00     0.014 C 
ATOM      3  C   UNL     1     104.105  85.849  17.925  1.00  0.00     0.012 C 
ATOM      4  C   UNL     1     106.044  84.262  17.685  1.00  0.00     0.014 C 
ATOM      5  C   UNL     1     105.559  87.799  17.610  1.00  0.00     0.009 C 
ATOM      6  C   UNL     1     103.504  84.738  18.897  1.00  0.00     0.000 C 
ATOM      7  C   UNL     1     104.596  87.160  18.598  1.00  0.00     0.018 C 
ATOM      8  C   UNL     1     105.186  83.005  17.815  1.00  0.00     0.008 C 
ATOM      9  C   UNL     1     103.729  84.983  20.378  1.00  0.00     0.005 C 
ATOM     10  C   UNL     1     103.781  83.215  18.503  1.00  0.00    -0.024 C 
ATOM     11  C   UNL     1     102.793  84.126  21.231  1.00  0.00     0.005 C 
ATOM     12  C   UNL     1     103.571  82.154  19.751  1.00  0.00    -0.024 C 
ATOM     13  C   UNL     1     102.707  82.953  17.382  1.00  0.00     0.012 C 
ATOM     14  C   UNL     1     102.436  82.698  20.714  1.00  0.00     0.002 C 
ATOM     15  C   UNL     1     104.819  81.904  20.677  1.00  0.00     0.008 C 
ATOM     16  C   UNL     1     103.240  80.767  19.102  1.00  0.00     0.012 C 
ATOM     17  C   UNL     1     102.021  81.773  21.954  1.00  0.00    -0.023 C 
ATOM     18  C   UNL     1     104.557  81.020  21.936  1.00  0.00     0.005 C 
ATOM     19  C   UNL     1     103.289  81.305  22.803  1.00  0.00     0.004 C 
ATOM     20  C   UNL     1     100.906  82.489  22.827  1.00  0.00     0.042 C 
ATOM     21  C   UNL     1     101.283  80.496  21.418  1.00  0.00     0.012 C 
ATOM     22  C   UNL     1     103.611  81.976  24.221  1.00  0.00    -0.003 C 
ATOM     23  C   UNL     1     101.366  83.257  24.079  1.00  0.00     0.144 C 
ATOM     24  C   UNL     1     102.296  82.403  24.955  1.00  0.00     0.149 C 
ATOM     25  C   UNL     1     104.581  83.208  24.153  1.00  0.00     0.014 C 
ATOM     26  C   UNL     1     104.330  80.923  25.127  1.00  0.00     0.014 C 
ENDROOT
BRANCH   1  27
ATOM     27  C   UNL     1     104.822  85.031  15.595  1.00  0.00     0.048 C 
ATOM     28  O   UNL     1     105.633  84.522  14.773  1.00  0.00    -0.550 OA
ATOM     29  O   UNL     1     103.557  85.386  15.138  1.00  0.00    -0.550 OA
ENDBRANCH   1  27
BRANCH   7  30
ATOM     30  C   UNL     1     103.487  88.133  18.999  1.00  0.00    -0.077 C 
ATOM     31  C   UNL     1     103.403  88.710  20.389  1.00  0.00     0.039 C 
ATOM     32  C   UNL     1     102.510  88.430  18.129  1.00  0.00     0.008 C 
ENDBRANCH   7  30
BRANCH  23  33
ATOM     33  O   UNL     1     100.242  83.624  24.847  1.00  0.00    -0.390 OA
ATOM     34  H   UNL     1      99.512  83.847  24.210  1.00  0.00     0.211 HD
ENDBRANCH  23  33
BRANCH  24  35
ATOM     35  O   UNL     1     101.596  81.309  25.500  1.00  0.00    -0.390 OA
ATOM     36  H   UNL     1     102.006  80.469  25.170  1.00  0.00     0.211 HD
ENDBRANCH  24  35
TORSDOF 4
ENDMDL
MODEL 2
REMARK VINA RESULT:    -5.470      2.157      7.925
REMARK INTER + INTRA:          -7.180
REMARK INTER:                  -6.428
REMARK INTRA:                  -0.752
REMARK UNBOUND:                -0.750
REMARK SMILES C=C(C)[C@@H]1CC[C@@]2(C(=O)[O-])CC[C@]3(C)[C@@H](CC[C@@H]4[C@]5(C)C[C@@H](O)[C@@H](O)C(C)(C)[C@@H]5CC[C@@]43C)[C@@H]12
REMARK SMILES IDX 7 1 6 2 34 3 11 4 5 5 15 6 4 7 12 8 16 9 13 10 17 11 32 12
REMARK SMILES IDX 14 13 18 14 31 15 33 16 19 17 30 18 29 19 21 20 20 21 26 22
REMARK SMILES IDX 22 23 24 24 27 25 28 26 8 27 9 28 10 29 2 30 3 31 1 32 23 33
REMARK SMILES IDX 25 35
REMARK H PARENT 23 34 25 36
REMARK Flexibility Score: inf
ROOT
ATOM      1  C   UNL     1     104.189  83.191  22.053  1.00  0.00     0.014 C 
ATOM      2  C   UNL     1     105.522  82.748  22.707  1.00  0.00     0.014 C 
ATOM      3  C   UNL     1     104.182  82.591  20.616  1.00  0.00     0.012 C 
ATOM      4  C   UNL     1     104.155  84.727  21.949  1.00  0.00     0.014 C 
ATOM      5  C   UNL     1     106.233  81.831  21.725  1.00  0.00     0.009 C 
ATOM      6  C   UNL     1     103.491  83.465  19.476  1.00  0.00     0.000 C 
ATOM      7  C   UNL     1     105.653  82.166  20.360  1.00  0.00     0.018 C 
ATOM      8  C   UNL     1     102.849  85.231  21.340  1.00  0.00     0.008 C 
ATOM      9  C   UNL     1     104.430  83.999  18.409  1.00  0.00     0.005 C 
ATOM     10  C   UNL     1     102.452  84.579  19.958  1.00  0.00    -0.024 C 
ATOM     11  C   UNL     1     103.660  84.455  17.169  1.00  0.00     0.005 C 
ATOM     12  C   UNL     1     102.147  85.741  18.824  1.00  0.00    -0.024 C 
ATOM     13  C   UNL     1     101.151  83.736  20.234  1.00  0.00     0.012 C 
ATOM     14  C   UNL     1     102.256  85.102  17.379  1.00  0.00     0.002 C 
ATOM     15  C   UNL     1     103.119  86.979  18.807  1.00  0.00     0.008 C 
ATOM     16  C   UNL     1     100.729  86.320  19.155  1.00  0.00     0.012 C 
ATOM     17  C   UNL     1     101.917  86.047  16.131  1.00  0.00    -0.023 C 
ATOM     18  C   UNL     1     102.907  87.985  17.635  1.00  0.00     0.005 C 
ATOM     19  C   UNL     1     102.721  87.425  16.188  1.00  0.00     0.004 C 
ATOM     20  C   UNL     1     102.116  85.257  14.769  1.00  0.00     0.042 C 
ATOM     21  C   UNL     1     100.381  86.367  16.131  1.00  0.00     0.012 C 
ATOM     22  C   UNL     1     103.980  87.674  15.230  1.00  0.00    -0.003 C 
ATOM     23  C   UNL     1     103.451  85.443  14.026  1.00  0.00     0.144 C 
ATOM     24  C   UNL     1     103.803  86.930  13.864  1.00  0.00     0.149 C 
ATOM     25  C   UNL     1     105.363  87.274  15.854  1.00  0.00     0.014 C 
ATOM     26  C   UNL     1     104.084  89.203  14.918  1.00  0.00     0.014 C 
ENDROOT
BRANCH   1  27
ATOM     27  C   UNL     1     103.048  82.658  22.923  1.00  0.00     0.048 C 
ATOM     28  O   UNL     1     102.801  83.181  24.044  1.00  0.00    -0.550 OA
ATOM     29  O   UNL     1     102.373  81.493  22.578  1.00  0.00    -0.550 OA
ENDBRANCH   1  27
BRANCH   7  30
ATOM     30  C   UNL     1     105.827  81.001  19.384  1.00  0.00    -0.077 C 
ATOM     31  C   UNL     1     106.802  81.067  18.237  1.00  0.00     0.039 C 
ATOM     32  C   UNL     1     105.043  79.917  19.490  1.00  0.00     0.008 C 
ENDBRANCH   7  30
BRANCH  23  33
ATOM     33  O   UNL     1     103.363  84.862  12.744  1.00  0.00    -0.390 OA
ATOM     34  H   UNL     1     103.315  83.878  12.872  1.00  0.00     0.211 HD
ENDBRANCH  23  33
BRANCH  24  35
ATOM     35  O   UNL     1     102.880  87.567  13.011  1.00  0.00    -0.390 OA
ATOM     36  H   UNL     1     101.965  87.274  13.253  1.00  0.00     0.211 HD
ENDBRANCH  24  35
TORSDOF 4
ENDMDL
MODEL 3
REMARK VINA RESULT:    -5.385      3.646      6.011
REMARK INTER + INTRA:          -7.080
REMARK INTER:                  -6.495
REMARK INTRA:                  -0.584
REMARK UNBOUND:                -0.750
REMARK SMILES C=C(C)[C@@H]1CC[C@@]2(C(=O)[O-])CC[C@]3(C)[C@@H](CC[C@@H]4[C@]5(C)C[C@@H](O)[C@@H](O)C(C)(C)[C@@H]5CC[C@@]43C)[C@@H]12
REMARK SMILES IDX 7 1 6 2 34 3 11 4 5 5 15 6 4 7 12 8 16 9 13 10 17 11 32 12
REMARK SMILES IDX 14 13 18 14 31 15 33 16 19 17 30 18 29 19 21 20 20 21 26 22
REMARK SMILES IDX 22 23 24 24 27 25 28 26 8 27 9 28 10 29 2 30 3 31 1 32 23 33
REMARK SMILES IDX 25 35
REMARK H PARENT 23 34 25 36
REMARK Flexibility Score: inf
ROOT
ATOM      1  C   UNL     1     108.614  89.796  17.181  1.00  0.00     0.014 C 
ATOM      2  C   UNL     1     109.197  90.615  18.362  1.00  0.00     0.014 C 
ATOM      3  C   UNL     1     107.067  89.801  17.364  1.00  0.00     0.012 C 
ATOM      4  C   UNL     1     109.119  88.344  17.267  1.00  0.00     0.014 C 
ATOM      5  C   UNL     1     108.027  91.171  19.156  1.00  0.00     0.009 C 
ATOM      6  C   UNL     1     106.289  88.482  16.922  1.00  0.00     0.000 C 
ATOM      7  C   UNL     1     106.844  90.275  18.825  1.00  0.00     0.018 C 
ATOM      8  C   UNL     1     108.604  87.490  16.111  1.00  0.00     0.008 C 
ATOM      9  C   UNL     1     105.639  87.704  18.052  1.00  0.00     0.005 C 
ATOM     10  C   UNL     1     107.040  87.515  15.897  1.00  0.00    -0.024 C 
ATOM     11  C   UNL     1     104.595  86.721  17.521  1.00  0.00     0.005 C 
ATOM     12  C   UNL     1     106.426  85.982  15.853  1.00  0.00    -0.024 C 
ATOM     13  C   UNL     1     106.804  88.233  14.515  1.00  0.00     0.012 C 
ATOM     14  C   UNL     1     104.870  86.034  16.148  1.00  0.00     0.002 C 
ATOM     15  C   UNL     1     107.015  84.960  16.896  1.00  0.00     0.008 C 
ATOM     16  C   UNL     1     106.784  85.401  14.442  1.00  0.00     0.012 C 
ATOM     17  C   UNL     1     104.064  84.652  16.075  1.00  0.00    -0.023 C 
ATOM     18  C   UNL     1     106.315  83.566  16.940  1.00  0.00     0.005 C 
ATOM     19  C   UNL     1     104.754  83.509  16.949  1.00  0.00     0.004 C 
ATOM     20  C   UNL     1     102.535  84.885  16.435  1.00  0.00     0.042 C 
ATOM     21  C   UNL     1     104.004  84.170  14.583  1.00  0.00     0.012 C 
ATOM     22  C   UNL     1     104.130  83.073  18.358  1.00  0.00    -0.003 C 
ATOM     23  C   UNL     1     102.092  84.597  17.881  1.00  0.00     0.144 C 
ATOM     24  C   UNL     1     102.571  83.215  18.352  1.00  0.00     0.149 C 
ATOM     25  C   UNL     1     104.709  83.846  19.595  1.00  0.00     0.014 C 
ATOM     26  C   UNL     1     104.459  81.565  18.612  1.00  0.00     0.014 C 
ENDROOT
BRANCH   1  27
ATOM     27  C   UNL     1     109.061  90.474  15.884  1.00  0.00     0.048 C 
ATOM     28  O   UNL     1     110.262  90.404  15.507  1.00  0.00    -0.550 OA
ATOM     29  O   UNL     1     108.199  91.313  15.186  1.00  0.00    -0.550 OA
ENDBRANCH   1  27
BRANCH   7  30
ATOM     30  C   UNL     1     105.518  90.994  19.074  1.00  0.00    -0.077 C 
ATOM     31  C   UNL     1     104.367  90.317  19.771  1.00  0.00     0.039 C 
ATOM     32  C   UNL     1     105.329  92.234  18.596  1.00  0.00     0.008 C 
ENDBRANCH   7  30
BRANCH  23  33
ATOM     33  O   UNL     1     100.685  84.633  17.959  1.00  0.00    -0.390 OA
ATOM     34  H   UNL     1     100.437  85.507  18.362  1.00  0.00     0.211 HD
ENDBRANCH  23  33
BRANCH  24  35
ATOM     35  O   UNL     1     101.933  82.194  17.621  1.00  0.00    -0.390 OA
ATOM     36  H   UNL     1     102.526  81.402  17.591  1.00  0.00     0.211 HD
ENDBRANCH  24  35
TORSDOF 4
ENDMDL
MODEL 4
REMARK VINA RESULT:    -5.317      6.896     10.983
REMARK INTER + INTRA:          -7.000
REMARK INTER:                  -6.368
REMARK INTRA:                  -0.631
REMARK UNBOUND:                -0.750
REMARK SMILES C=C(C)[C@@H]1CC[C@@]2(C(=O)[O-])CC[C@]3(C)[C@@H](CC[C@@H]4[C@]5(C)C[C@@H](O)[C@@H](O)C(C)(C)[C@@H]5CC[C@@]43C)[C@@H]12
REMARK SMILES IDX 7 1 6 2 34 3 11 4 5 5 15 6 4 7 12 8 16 9 13 10 17 11 32 12
REMARK SMILES IDX 14 13 18 14 31 15 33 16 19 17 30 18 29 19 21 20 20 21 26 22
REMARK SMILES IDX 22 23 24 24 27 25 28 26 8 27 9 28 10 29 2 30 3 31 1 32 23 33
REMARK SMILES IDX 25 35
REMARK H PARENT 23 34 25 36
REMARK Flexibility Score: inf
ROOT
ATOM      1  C   UNL     1     111.590  93.287  17.765  1.00  0.00     0.014 C 
ATOM      2  C   UNL     1     112.893  93.941  17.237  1.00  0.00     0.014 C 
ATOM      3  C   UNL     1     111.931  91.794  18.050  1.00  0.00     0.012 C 
ATOM      4  C   UNL     1     110.507  93.348  16.672  1.00  0.00     0.014 C 
ATOM      5  C   UNL     1     113.993  92.894  17.306  1.00  0.00     0.009 C 
ATOM      6  C   UNL     1     110.777  90.730  17.776  1.00  0.00     0.000 C 
ATOM      7  C   UNL     1     113.279  91.551  17.319  1.00  0.00     0.018 C 
ATOM      8  C   UNL     1     109.185  92.747  17.142  1.00  0.00     0.008 C 
ATOM      9  C   UNL     1     111.043  89.764  16.636  1.00  0.00     0.005 C 
ATOM     10  C   UNL     1     109.281  91.288  17.738  1.00  0.00    -0.024 C 
ATOM     11  C   UNL     1     110.114  88.551  16.706  1.00  0.00     0.005 C 
ATOM     12  C   UNL     1     108.209  90.275  16.994  1.00  0.00    -0.024 C 
ATOM     13  C   UNL     1     108.927  91.421  19.267  1.00  0.00     0.012 C 
ATOM     14  C   UNL     1     108.660  88.775  17.227  1.00  0.00     0.002 C 
ATOM     15  C   UNL     1     108.065  90.430  15.433  1.00  0.00     0.008 C 
ATOM     16  C   UNL     1     106.797  90.611  17.585  1.00  0.00     0.012 C 
ATOM     17  C   UNL     1     107.708  87.624  16.648  1.00  0.00    -0.023 C 
ATOM     18  C   UNL     1     107.166  89.365  14.732  1.00  0.00     0.005 C 
ATOM     19  C   UNL     1     107.349  87.860  15.111  1.00  0.00     0.004 C 
ATOM     20  C   UNL     1     108.332  86.193  16.937  1.00  0.00     0.042 C 
ATOM     21  C   UNL     1     106.373  87.599  17.473  1.00  0.00     0.012 C 
ATOM     22  C   UNL     1     108.048  86.984  13.967  1.00  0.00    -0.003 C 
ATOM     23  C   UNL     1     109.139  85.527  15.808  1.00  0.00     0.144 C 
ATOM     24  C   UNL     1     108.367  85.540  14.480  1.00  0.00     0.149 C 
ATOM     25  C   UNL     1     109.355  87.615  13.371  1.00  0.00     0.014 C 
ATOM     26  C   UNL     1     107.060  86.844  12.763  1.00  0.00     0.014 C 
ENDROOT
BRANCH   1  27
ATOM     27  C   UNL     1     111.168  94.050  19.022  1.00  0.00     0.048 C 
ATOM     28  O   UNL     1     110.558  95.150  18.929  1.00  0.00    -0.550 OA
ATOM     29  O   UNL     1     111.589  93.636  20.282  1.00  0.00    -0.550 OA
ENDBRANCH   1  27
BRANCH   7  30
ATOM     30  C   UNL     1     114.159  90.463  17.935  1.00  0.00    -0.077 C 
ATOM     31  C   UNL     1     114.435  89.166  17.219  1.00  0.00     0.039 C 
ATOM     32  C   UNL     1     114.641  90.616  19.178  1.00  0.00     0.008 C 
ENDBRANCH   7  30
BRANCH  23  33
ATOM     33  O   UNL     1     109.414  84.188  16.152  1.00  0.00    -0.390 OA
ATOM     34  H   UNL     1     110.178  83.892  15.589  1.00  0.00     0.211 HD
ENDBRANCH  23  33
BRANCH  24  35
ATOM     35  O   UNL     1     107.220  84.726  14.566  1.00  0.00    -0.390 OA
ATOM     36  H   UNL     1     107.150  84.368  15.488  1.00  0.00     0.211 HD
ENDBRANCH  24  35
TORSDOF 4
ENDMDL
MODEL 5
REMARK VINA RESULT:    -5.186      1.980      8.268
REMARK INTER + INTRA:          -6.846
REMARK INTER:                  -6.093
REMARK INTRA:                  -0.753
REMARK UNBOUND:                -0.750
REMARK SMILES C=C(C)[C@@H]1CC[C@@]2(C(=O)[O-])CC[C@]3(C)[C@@H](CC[C@@H]4[C@]5(C)C[C@@H](O)[C@@H](O)C(C)(C)[C@@H]5CC[C@@]43C)[C@@H]12
REMARK SMILES IDX 7 1 6 2 34 3 11 4 5 5 15 6 4 7 12 8 16 9 13 10 17 11 32 12
REMARK SMILES IDX 14 13 18 14 31 15 33 16 19 17 30 18 29 19 21 20 20 21 26 22
REMARK SMILES IDX 22 23 24 24 27 25 28 26 8 27 9 28 10 29 2 30 3 31 1 32 23 33
REMARK SMILES IDX 25 35
REMARK H PARENT 23 34 25 36
REMARK Flexibility Score: inf
ROOT
ATOM      1  C   UNL     1     103.561  83.660  21.615  1.00  0.00     0.014 C 
ATOM      2  C   UNL     1     104.266  82.895  22.765  1.00  0.00     0.014 C 
ATOM      3  C   UNL     1     104.015  82.979  20.290  1.00  0.00     0.012 C 
ATOM      4  C   UNL     1     104.036  85.124  21.607  1.00  0.00     0.014 C 
ATOM      5  C   UNL     1     105.029  81.736  22.146  1.00  0.00     0.009 C 
ATOM      6  C   UNL     1     104.197  83.926  19.021  1.00  0.00     0.000 C 
ATOM      7  C   UNL     1     105.246  82.120  20.690  1.00  0.00     0.018 C 
ATOM      8  C   UNL     1     103.353  85.942  20.514  1.00  0.00     0.008 C 
ATOM      9  C   UNL     1     105.623  84.075  18.523  1.00  0.00     0.005 C 
ATOM     10  C   UNL     1     103.438  85.330  19.060  1.00  0.00    -0.024 C 
ATOM     11  C   UNL     1     105.659  84.639  17.102  1.00  0.00     0.005 C 
ATOM     12  C   UNL     1     104.028  86.439  17.988  1.00  0.00    -0.024 C 
ATOM     13  C   UNL     1     101.964  84.932  18.672  1.00  0.00     0.012 C 
ATOM     14  C   UNL     1     104.572  85.685  16.705  1.00  0.00     0.002 C 
ATOM     15  C   UNL     1     105.226  87.330  18.487  1.00  0.00     0.008 C 
ATOM     16  C   UNL     1     102.856  87.434  17.688  1.00  0.00     0.012 C 
ATOM     17  C   UNL     1     105.121  86.589  15.501  1.00  0.00    -0.023 C 
ATOM     18  C   UNL     1     105.867  88.260  17.411  1.00  0.00     0.005 C 
ATOM     19  C   UNL     1     106.186  87.669  16.000  1.00  0.00     0.004 C 
ATOM     20  C   UNL     1     105.659  85.671  14.323  1.00  0.00     0.042 C 
ATOM     21  C   UNL     1     103.918  87.346  14.837  1.00  0.00     0.012 C 
ATOM     22  C   UNL     1     107.749  87.460  15.723  1.00  0.00    -0.003 C 
ATOM     23  C   UNL     1     107.173  85.398  14.267  1.00  0.00     0.144 C 
ATOM     24  C   UNL     1     107.985  86.698  14.377  1.00  0.00     0.149 C 
ATOM     25  C   UNL     1     108.521  86.720  16.871  1.00  0.00     0.014 C 
ATOM     26  C   UNL     1     108.431  88.862  15.591  1.00  0.00     0.014 C 
ENDROOT
BRANCH   1  27
ATOM     27  C   UNL     1     102.052  83.556  21.848  1.00  0.00     0.048 C 
ATOM     28  O   UNL     1     101.505  84.192  22.790  1.00  0.00    -0.550 OA
ATOM     29  O   UNL     1     101.283  82.639  21.140  1.00  0.00    -0.550 OA
ENDBRANCH   1  27
BRANCH   7  30
ATOM     30  C   UNL     1     105.479  80.884  19.821  1.00  0.00    -0.077 C 
ATOM     31  C   UNL     1     106.828  80.579  19.221  1.00  0.00     0.039 C 
ATOM     32  C   UNL     1     104.450  80.081  19.508  1.00  0.00     0.008 C 
ENDBRANCH   7  30
BRANCH  23  33
ATOM     33  O   UNL     1     107.494  84.771  13.046  1.00  0.00    -0.390 OA
ATOM     34  H   UNL     1     107.085  85.315  12.322  1.00  0.00     0.211 HD
ENDBRANCH  23  33
BRANCH  24  35
ATOM     35  O   UNL     1     107.773  87.510  13.245  1.00  0.00    -0.390 OA
ATOM     36  H   UNL     1     107.506  86.935  12.483  1.00  0.00     0.211 HD
ENDBRANCH  24  35
TORSDOF 4
ENDMDL
MODEL 6
REMARK VINA RESULT:    -5.170      3.062      4.906
REMARK INTER + INTRA:          -6.827
REMARK INTER:                  -6.166
REMARK INTRA:                  -0.661
REMARK UNBOUND:                -0.750
REMARK SMILES C=C(C)[C@@H]1CC[C@@]2(C(=O)[O-])CC[C@]3(C)[C@@H](CC[C@@H]4[C@]5(C)C[C@@H](O)[C@@H](O)C(C)(C)[C@@H]5CC[C@@]43C)[C@@H]12
REMARK SMILES IDX 7 1 6 2 34 3 11 4 5 5 15 6 4 7 12 8 16 9 13 10 17 11 32 12
REMARK SMILES IDX 14 13 18 14 31 15 33 16 19 17 30 18 29 19 21 20 20 21 26 22
REMARK SMILES IDX 22 23 24 24 27 25 28 26 8 27 9 28 10 29 2 30 3 31 1 32 23 33
REMARK SMILES IDX 25 35
REMARK H PARENT 23 34 25 36
REMARK Flexibility Score: inf
ROOT
ATOM      1  C   UNL     1     108.432  86.937  15.421  1.00  0.00     0.014 C 
ATOM      2  C   UNL     1     109.822  87.190  16.058  1.00  0.00     0.014 C 
ATOM      3  C   UNL     1     107.401  87.720  16.286  1.00  0.00     0.012 C 
ATOM      4  C   UNL     1     108.100  85.435  15.494  1.00  0.00     0.014 C 
ATOM      5  C   UNL     1     109.631  88.173  17.201  1.00  0.00     0.009 C 
ATOM      6  C   UNL     1     105.962  87.058  16.464  1.00  0.00     0.000 C 
ATOM      7  C   UNL     1     108.166  88.065  17.593  1.00  0.00     0.018 C 
ATOM      8  C   UNL     1     106.753  85.114  14.852  1.00  0.00     0.008 C 
ATOM      9  C   UNL     1     105.628  86.602  17.873  1.00  0.00     0.005 C 
ATOM     10  C   UNL     1     105.534  85.971  15.376  1.00  0.00    -0.024 C 
ATOM     11  C   UNL     1     104.125  86.373  18.041  1.00  0.00     0.005 C 
ATOM     12  C   UNL     1     104.292  84.995  15.860  1.00  0.00    -0.024 C 
ATOM     13  C   UNL     1     105.079  86.864  14.161  1.00  0.00     0.012 C 
ATOM     14  C   UNL     1     103.332  85.810  16.821  1.00  0.00     0.002 C 
ATOM     15  C   UNL     1     104.689  83.701  16.665  1.00  0.00     0.008 C 
ATOM     16  C   UNL     1     103.595  84.484  14.553  1.00  0.00     0.012 C 
ATOM     17  C   UNL     1     102.014  85.065  17.344  1.00  0.00    -0.023 C 
ATOM     18  C   UNL     1     103.497  82.877  17.243  1.00  0.00     0.005 C 
ATOM     19  C   UNL     1     102.343  83.636  17.974  1.00  0.00     0.004 C 
ATOM     20  C   UNL     1     101.196  86.012  18.321  1.00  0.00     0.042 C 
ATOM     21  C   UNL     1     101.027  84.863  16.141  1.00  0.00     0.012 C 
ATOM     22  C   UNL     1     102.332  83.424  19.562  1.00  0.00    -0.003 C 
ATOM     23  C   UNL     1     101.408  85.827  19.835  1.00  0.00     0.144 C 
ATOM     24  C   UNL     1     101.274  84.352  20.246  1.00  0.00     0.149 C 
ATOM     25  C   UNL     1     103.723  83.634  20.257  1.00  0.00     0.014 C 
ATOM     26  C   UNL     1     101.924  81.945  19.871  1.00  0.00     0.014 C 
ENDROOT
BRANCH   1  27
ATOM     27  C   UNL     1     108.490  87.433  13.974  1.00  0.00     0.048 C 
ATOM     28  O   UNL     1     109.114  86.776  13.097  1.00  0.00    -0.550 OA
ATOM     29  O   UNL     1     108.002  88.690  13.632  1.00  0.00    -0.550 OA
ENDBRANCH   1  27
BRANCH   7  30
ATOM     30  C   UNL     1     107.689  89.333  18.304  1.00  0.00    -0.077 C 
ATOM     31  C   UNL     1     106.744  90.304  17.644  1.00  0.00     0.039 C 
ATOM     32  C   UNL     1     108.175  89.644  19.515  1.00  0.00     0.008 C 
ENDBRANCH   7  30
BRANCH  23  33
ATOM     33  O   UNL     1     100.445  86.577  20.541  1.00  0.00    -0.390 OA
ATOM     34  H   UNL     1      99.714  85.952  20.792  1.00  0.00     0.211 HD
ENDBRANCH  23  33
BRANCH  24  35
ATOM     35  O   UNL     1      99.952  83.904  20.059  1.00  0.00    -0.390 OA
ATOM     36  H   UNL     1      99.480  83.924  20.930  1.00  0.00     0.211 HD
ENDBRANCH  24  35
TORSDOF 4
ENDMDL
MODEL 7
REMARK VINA RESULT:    -5.115      2.621      4.541
REMARK INTER + INTRA:          -6.762
REMARK INTER:                  -6.011
REMARK INTRA:                  -0.750
REMARK UNBOUND:                -0.750
REMARK SMILES C=C(C)[C@@H]1CC[C@@]2(C(=O)[O-])CC[C@]3(C)[C@@H](CC[C@@H]4[C@]5(C)C[C@@H](O)[C@@H](O)C(C)(C)[C@@H]5CC[C@@]43C)[C@@H]12
REMARK SMILES IDX 7 1 6 2 34 3 11 4 5 5 15 6 4 7 12 8 16 9 13 10 17 11 32 12
REMARK SMILES IDX 14 13 18 14 31 15 33 16 19 17 30 18 29 19 21 20 20 21 26 22
REMARK SMILES IDX 22 23 24 24 27 25 28 26 8 27 9 28 10 29 2 30 3 31 1 32 23 33
REMARK SMILES IDX 25 35
REMARK H PARENT 23 34 25 36
REMARK Flexibility Score: inf
ROOT
ATOM      1  C   UNL     1     105.300  86.812  13.845  1.00  0.00     0.014 C 
ATOM      2  C   UNL     1     106.457  86.677  12.823  1.00  0.00     0.014 C 
ATOM      3  C   UNL     1     105.963  86.929  15.249  1.00  0.00     0.012 C 
ATOM      4  C   UNL     1     104.435  85.538  13.811  1.00  0.00     0.014 C 
ATOM      5  C   UNL     1     107.763  86.814  13.588  1.00  0.00     0.009 C 
ATOM      6  C   UNL     1     105.187  86.258  16.469  1.00  0.00     0.000 C 
ATOM      7  C   UNL     1     107.430  86.470  15.031  1.00  0.00     0.018 C 
ATOM      8  C   UNL     1     103.255  85.621  14.776  1.00  0.00     0.008 C 
ATOM      9  C   UNL     1     105.880  85.065  17.101  1.00  0.00     0.005 C 
ATOM     10  C   UNL     1     103.625  85.992  16.265  1.00  0.00    -0.024 C 
ATOM     11  C   UNL     1     105.299  84.751  18.480  1.00  0.00     0.005 C 
ATOM     12  C   UNL     1     102.992  84.892  17.322  1.00  0.00    -0.024 C 
ATOM     13  C   UNL     1     103.000  87.414  16.524  1.00  0.00     0.012 C 
ATOM     14  C   UNL     1     103.772  84.981  18.698  1.00  0.00     0.002 C 
ATOM     15  C   UNL     1     103.074  83.379  16.893  1.00  0.00     0.008 C 
ATOM     16  C   UNL     1     101.463  85.217  17.438  1.00  0.00     0.012 C 
ATOM     17  C   UNL     1     103.260  84.045  19.893  1.00  0.00    -0.023 C 
ATOM     18  C   UNL     1     102.612  82.349  17.970  1.00  0.00     0.005 C 
ATOM     19  C   UNL     1     103.113  82.522  19.440  1.00  0.00     0.004 C 
ATOM     20  C   UNL     1     104.177  84.236  21.175  1.00  0.00     0.042 C 
ATOM     21  C   UNL     1     101.860  84.556  20.382  1.00  0.00     0.012 C 
ATOM     22  C   UNL     1     104.195  81.430  19.888  1.00  0.00    -0.003 C 
ATOM     23  C   UNL     1     105.305  83.213  21.402  1.00  0.00     0.144 C 
ATOM     24  C   UNL     1     104.788  81.770  21.296  1.00  0.00     0.149 C 
ATOM     25  C   UNL     1     105.375  81.227  18.873  1.00  0.00     0.014 C 
ATOM     26  C   UNL     1     103.492  80.037  20.002  1.00  0.00     0.014 C 
ENDROOT
BRANCH   1  27
ATOM     27  C   UNL     1     104.491  88.054  13.465  1.00  0.00     0.048 C 
ATOM     28  O   UNL     1     103.756  88.050  12.440  1.00  0.00    -0.550 OA
ATOM     29  O   UNL     1     104.673  89.257  14.140  1.00  0.00    -0.550 OA
ENDBRANCH   1  27
BRANCH   7  30
ATOM     30  C   UNL     1     108.447  87.083  15.995  1.00  0.00    -0.077 C 
ATOM     31  C   UNL     1     109.409  86.230  16.781  1.00  0.00     0.039 C 
ATOM     32  C   UNL     1     108.444  88.406  16.218  1.00  0.00     0.008 C 
ENDBRANCH   7  30
BRANCH  23  33
ATOM     33  O   UNL     1     105.857  83.398  22.686  1.00  0.00    -0.390 OA
ATOM     34  H   UNL     1     105.097  83.472  23.323  1.00  0.00     0.211 HD
ENDBRANCH  23  33
BRANCH  24  35
ATOM     35  O   UNL     1     103.894  81.487  22.348  1.00  0.00    -0.390 OA
ATOM     36  H   UNL     1     103.225  82.216  22.405  1.00  0.00     0.211 HD
ENDBRANCH  24  35
TORSDOF 4
ENDMDL
MODEL 8
REMARK VINA RESULT:    -5.031      2.767      6.450
REMARK INTER + INTRA:          -6.663
REMARK INTER:                  -5.950
REMARK INTRA:                  -0.713
REMARK UNBOUND:                -0.750
REMARK SMILES C=C(C)[C@@H]1CC[C@@]2(C(=O)[O-])CC[C@]3(C)[C@@H](CC[C@@H]4[C@]5(C)C[C@@H](O)[C@@H](O)C(C)(C)[C@@H]5CC[C@@]43C)[C@@H]12
REMARK SMILES IDX 7 1 6 2 34 3 11 4 5 5 15 6 4 7 12 8 16 9 13 10 17 11 32 12
REMARK SMILES IDX 14 13 18 14 31 15 33 16 19 17 30 18 29 19 21 20 20 21 26 22
REMARK SMILES IDX 22 23 24 24 27 25 28 26 8 27 9 28 10 29 2 30 3 31 1 32 23 33
REMARK SMILES IDX 25 35
REMARK H PARENT 23 34 25 36
REMARK Flexibility Score: inf
ROOT
ATOM      1  C   UNL     1     104.246  81.249  17.807  1.00  0.00     0.014 C 
ATOM      2  C   UNL     1     103.785  79.875  18.357  1.00  0.00     0.014 C 
ATOM      3  C   UNL     1     104.626  82.114  19.045  1.00  0.00     0.012 C 
ATOM      4  C   UNL     1     103.075  81.926  17.071  1.00  0.00     0.014 C 
ATOM      5  C   UNL     1     103.984  79.893  19.863  1.00  0.00     0.009 C 
ATOM      6  C   UNL     1     104.319  83.675  18.952  1.00  0.00     0.000 C 
ATOM      7  C   UNL     1     104.008  81.362  20.255  1.00  0.00     0.018 C 
ATOM      8  C   UNL     1     103.475  83.274  16.477  1.00  0.00     0.008 C 
ATOM      9  C   UNL     1     103.248  84.183  19.901  1.00  0.00     0.005 C 
ATOM     10  C   UNL     1     104.145  84.286  17.487  1.00  0.00    -0.024 C 
ATOM     11  C   UNL     1     103.308  85.704  20.043  1.00  0.00     0.005 C 
ATOM     12  C   UNL     1     103.372  85.745  17.459  1.00  0.00    -0.024 C 
ATOM     13  C   UNL     1     105.636  84.452  17.007  1.00  0.00     0.012 C 
ATOM     14  C   UNL     1     103.709  86.539  18.788  1.00  0.00     0.002 C 
ATOM     15  C   UNL     1     101.800  85.706  17.383  1.00  0.00     0.008 C 
ATOM     16  C   UNL     1     103.842  86.471  16.152  1.00  0.00     0.012 C 
ATOM     17  C   UNL     1     103.117  88.021  18.927  1.00  0.00    -0.023 C 
ATOM     18  C   UNL     1     101.086  87.087  17.513  1.00  0.00     0.005 C 
ATOM     19  C   UNL     1     101.548  88.070  18.636  1.00  0.00     0.004 C 
ATOM     20  C   UNL     1     103.519  88.647  20.329  1.00  0.00     0.042 C 
ATOM     21  C   UNL     1     103.842  88.962  17.901  1.00  0.00     0.012 C 
ATOM     22  C   UNL     1     100.501  88.217  19.840  1.00  0.00    -0.003 C 
ATOM     23  C   UNL     1     102.485  88.568  21.467  1.00  0.00     0.144 C 
ATOM     24  C   UNL     1     101.104  89.064  21.010  1.00  0.00     0.149 C 
ATOM     25  C   UNL     1      99.973  86.855  20.414  1.00  0.00     0.014 C 
ATOM     26  C   UNL     1      99.236  88.975  19.319  1.00  0.00     0.014 C 
ENDROOT
BRANCH   1  27
ATOM     27  C   UNL     1     105.432  80.998  16.873  1.00  0.00     0.048 C 
ATOM     28  O   UNL     1     105.261  80.426  15.762  1.00  0.00    -0.550 OA
ATOM     29  O   UNL     1     106.735  81.242  17.294  1.00  0.00    -0.550 OA
ENDBRANCH   1  27
BRANCH   7  30
ATOM     30  C   UNL     1     104.738  81.568  21.583  1.00  0.00    -0.077 C 
ATOM     31  C   UNL     1     106.240  81.674  21.655  1.00  0.00     0.039 C 
ATOM     32  C   UNL     1     104.046  81.577  22.733  1.00  0.00     0.008 C 
ENDBRANCH   7  30
BRANCH  23  33
ATOM     33  O   UNL     1     102.911  89.365  22.548  1.00  0.00    -0.390 OA
ATOM     34  H   UNL     1     102.624  90.297  22.355  1.00  0.00     0.211 HD
ENDBRANCH  23  33
BRANCH  24  35
ATOM     35  O   UNL     1     101.144  90.442  20.721  1.00  0.00    -0.390 OA
ATOM     36  H   UNL     1     101.084  90.950  21.570  1.00  0.00     0.211 HD
ENDBRANCH  24  35
TORSDOF 4
ENDMDL
