MODEL 1
REMARK VINA RESULT:    -6.289      0.000      0.000
REMARK INTER + INTRA:          -6.289
REMARK INTER:                  -6.289
REMARK INTRA:                   0.000
REMARK UNBOUND:                 0.000
REMARK SMILES C=C1c2ccccc2-c2ccccc21
REMARK SMILES IDX 1 1 2 2 3 3 4 4 5 5 6 6 7 7 8 8 9 9 10 10 11 11 12 12 13 13
REMARK SMILES IDX 14 14
REMARK H PARENT
REMARK Flexibility Score: inf
ROOT
ATOM      1  C   UNL     1       2.061  23.707  46.013  1.00  0.00     0.018 C 
ATOM      2  C   UNL     1       2.556  23.785  44.778  1.00  0.00    -0.017 C 
ATOM      3  C   UNL     1       2.342  22.843  43.672  1.00  0.00    -0.010 A 
ATOM      4  C   UNL     1       1.594  21.664  43.625  1.00  0.00     0.009 A 
ATOM      5  C   UNL     1       1.560  20.943  42.420  1.00  0.00     0.001 A 
ATOM      6  C   UNL     1       2.266  21.404  41.290  1.00  0.00     0.001 A 
ATOM      7  C   UNL     1       3.015  22.592  41.354  1.00  0.00     0.009 A 
ATOM      8  C   UNL     1       3.035  23.292  42.560  1.00  0.00    -0.010 A 
ATOM      9  C   UNL     1       3.715  24.535  42.912  1.00  0.00    -0.010 A 
ATOM     10  C   UNL     1       4.531  25.361  42.138  1.00  0.00     0.009 A 
ATOM     11  C   UNL     1       5.066  26.514  42.735  1.00  0.00     0.001 A 
ATOM     12  C   UNL     1       4.779  26.819  44.082  1.00  0.00     0.001 A 
ATOM     13  C   UNL     1       3.955  25.974  44.844  1.00  0.00     0.009 A 
ATOM     14  C   UNL     1       3.432  24.832  44.235  1.00  0.00    -0.010 A 
ENDROOT
TORSDOF 0
ENDMDL
MODEL 2
REMARK VINA RESULT:    -6.279      0.056      4.268
REMARK INTER + INTRA:          -6.279
REMARK INTER:                  -6.279
REMARK INTRA:                   0.000
REMARK UNBOUND:                 0.000
REMARK SMILES C=C1c2ccccc2-c2ccccc21
REMARK SMILES IDX 1 1 2 2 3 3 4 4 5 5 6 6 7 7 8 8 9 9 10 10 11 11 12 12 13 13
REMARK SMILES IDX 14 14
REMARK H PARENT
REMARK Flexibility Score: inf
ROOT
ATOM      1  C   UNL     1       2.035  23.727  46.005  1.00  0.00     0.018 C 
ATOM      2  C   UNL     1       2.537  23.778  44.771  1.00  0.00    -0.017 C 
ATOM      3  C   UNL     1       3.423  24.808  44.213  1.00  0.00    -0.010 A 
ATOM      4  C   UNL     1       3.952  25.958  44.805  1.00  0.00     0.009 A 
ATOM      5  C   UNL     1       4.786  26.783  44.031  1.00  0.00     0.001 A 
ATOM      6  C   UNL     1       5.077  26.451  42.693  1.00  0.00     0.001 A 
ATOM      7  C   UNL     1       4.536  25.291  42.113  1.00  0.00     0.009 A 
ATOM      8  C   UNL     1       3.711  24.486  42.897  1.00  0.00    -0.010 A 
ATOM      9  C   UNL     1       3.023  23.242  42.566  1.00  0.00    -0.010 A 
ATOM     10  C   UNL     1       3.002  22.520  41.373  1.00  0.00     0.009 A 
ATOM     11  C   UNL     1       2.245  21.337  41.326  1.00  0.00     0.001 A 
ATOM     12  C   UNL     1       1.530  20.902  42.460  1.00  0.00     0.001 A 
ATOM     13  C   UNL     1       1.564  21.645  43.652  1.00  0.00     0.009 A 
ATOM     14  C   UNL     1       2.321  22.817  43.682  1.00  0.00    -0.010 A 
ENDROOT
TORSDOF 0
ENDMDL
MODEL 3
REMARK VINA RESULT:    -6.163      1.391      4.851
REMARK INTER + INTRA:          -6.163
REMARK INTER:                  -6.163
REMARK INTRA:                   0.000
REMARK UNBOUND:                 0.000
REMARK SMILES C=C1c2ccccc2-c2ccccc21
REMARK SMILES IDX 1 1 2 2 3 3 4 4 5 5 6 6 7 7 8 8 9 9 10 10 11 11 12 12 13 13
REMARK SMILES IDX 14 14
REMARK H PARENT
REMARK Flexibility Score: inf
ROOT
ATOM      1  C   UNL     1       4.205  26.255  43.414  1.00  0.00     0.018 C 
ATOM      2  C   UNL     1       3.419  25.362  44.014  1.00  0.00    -0.017 C 
ATOM      3  C   UNL     1       2.784  25.481  45.334  1.00  0.00    -0.010 A 
ATOM      4  C   UNL     1       2.835  26.519  46.268  1.00  0.00     0.009 A 
ATOM      5  C   UNL     1       2.122  26.371  47.469  1.00  0.00     0.001 A 
ATOM      6  C   UNL     1       1.377  25.201  47.719  1.00  0.00     0.001 A 
ATOM      7  C   UNL     1       1.337  24.166  46.769  1.00  0.00     0.009 A 
ATOM      8  C   UNL     1       2.051  24.333  45.583  1.00  0.00    -0.010 A 
ATOM      9  C   UNL     1       2.188  23.440  44.436  1.00  0.00    -0.010 A 
ATOM     10  C   UNL     1       1.643  22.175  44.214  1.00  0.00     0.009 A 
ATOM     11  C   UNL     1       1.941  21.526  43.005  1.00  0.00     0.001 A 
ATOM     12  C   UNL     1       2.772  22.146  42.048  1.00  0.00     0.001 A 
ATOM     13  C   UNL     1       3.312  23.420  42.292  1.00  0.00     0.009 A 
ATOM     14  C   UNL     1       3.004  24.052  43.499  1.00  0.00    -0.010 A 
ENDROOT
TORSDOF 0
ENDMDL
MODEL 4
REMARK VINA RESULT:    -6.137      1.415      3.411
REMARK INTER + INTRA:          -6.137
REMARK INTER:                  -6.137
REMARK INTRA:                   0.000
REMARK UNBOUND:                 0.000
REMARK SMILES C=C1c2ccccc2-c2ccccc21
REMARK SMILES IDX 1 1 2 2 3 3 4 4 5 5 6 6 7 7 8 8 9 9 10 10 11 11 12 12 13 13
REMARK SMILES IDX 14 14
REMARK H PARENT
REMARK Flexibility Score: inf
ROOT
ATOM      1  C   UNL     1       4.179  26.233  43.495  1.00  0.00     0.018 C 
ATOM      2  C   UNL     1       3.387  25.341  44.088  1.00  0.00    -0.017 C 
ATOM      3  C   UNL     1       2.978  24.029  43.568  1.00  0.00    -0.010 A 
ATOM      4  C   UNL     1       3.301  23.398  42.363  1.00  0.00     0.009 A 
ATOM      5  C   UNL     1       2.765  22.124  42.114  1.00  0.00     0.001 A 
ATOM      6  C   UNL     1       1.923  21.504  43.061  1.00  0.00     0.001 A 
ATOM      7  C   UNL     1       1.608  22.154  44.266  1.00  0.00     0.009 A 
ATOM      8  C   UNL     1       2.150  23.418  44.494  1.00  0.00    -0.010 A 
ATOM      9  C   UNL     1       1.999  24.312  45.638  1.00  0.00    -0.010 A 
ATOM     10  C   UNL     1       1.270  24.146  46.815  1.00  0.00     0.009 A 
ATOM     11  C   UNL     1       1.297  25.180  47.765  1.00  0.00     0.001 A 
ATOM     12  C   UNL     1       2.046  26.351  47.525  1.00  0.00     0.001 A 
ATOM     13  C   UNL     1       2.774  26.498  46.332  1.00  0.00     0.009 A 
ATOM     14  C   UNL     1       2.736  25.460  45.399  1.00  0.00    -0.010 A 
ENDROOT
TORSDOF 0
ENDMDL
MODEL 5
REMARK VINA RESULT:    -5.940      1.274      3.821
REMARK INTER + INTRA:          -5.940
REMARK INTER:                  -5.940
REMARK INTRA:                   0.000
REMARK UNBOUND:                 0.000
REMARK SMILES C=C1c2ccccc2-c2ccccc21
REMARK SMILES IDX 1 1 2 2 3 3 4 4 5 5 6 6 7 7 8 8 9 9 10 10 11 11 12 12 13 13
REMARK SMILES IDX 14 14
REMARK H PARENT
REMARK Flexibility Score: inf
ROOT
ATOM      1  C   UNL     1       1.987  21.988  44.033  1.00  0.00     0.018 C 
ATOM      2  C   UNL     1       2.426  23.229  44.236  1.00  0.00    -0.017 C 
ATOM      3  C   UNL     1       2.192  24.074  45.415  1.00  0.00    -0.010 A 
ATOM      4  C   UNL     1       1.476  23.810  46.586  1.00  0.00     0.009 A 
ATOM      5  C   UNL     1       1.411  24.811  47.568  1.00  0.00     0.001 A 
ATOM      6  C   UNL     1       2.055  26.050  47.371  1.00  0.00     0.001 A 
ATOM      7  C   UNL     1       2.770  26.300  46.187  1.00  0.00     0.009 A 
ATOM      8  C   UNL     1       2.823  25.293  45.225  1.00  0.00    -0.010 A 
ATOM      9  C   UNL     1       3.481  25.273  43.922  1.00  0.00    -0.010 A 
ATOM     10  C   UNL     1       4.238  26.256  43.285  1.00  0.00     0.009 A 
ATOM     11  C   UNL     1       4.764  25.970  42.014  1.00  0.00     0.001 A 
ATOM     12  C   UNL     1       4.526  24.719  41.409  1.00  0.00     0.001 A 
ATOM     13  C   UNL     1       3.761  23.742  42.067  1.00  0.00     0.009 A 
ATOM     14  C   UNL     1       3.247  24.043  43.330  1.00  0.00    -0.010 A 
ENDROOT
TORSDOF 0
ENDMDL
MODEL 6
REMARK VINA RESULT:    -5.911      1.268      3.714
REMARK INTER + INTRA:          -5.911
REMARK INTER:                  -5.911
REMARK INTRA:                   0.000
REMARK UNBOUND:                 0.000
REMARK SMILES C=C1c2ccccc2-c2ccccc21
REMARK SMILES IDX 1 1 2 2 3 3 4 4 5 5 6 6 7 7 8 8 9 9 10 10 11 11 12 12 13 13
REMARK SMILES IDX 14 14
REMARK H PARENT
REMARK Flexibility Score: inf
ROOT
ATOM      1  C   UNL     1       2.003  21.950  44.011  1.00  0.00     0.018 C 
ATOM      2  C   UNL     1       2.415  23.206  44.175  1.00  0.00    -0.017 C 
ATOM      3  C   UNL     1       3.178  24.024  43.222  1.00  0.00    -0.010 A 
ATOM      4  C   UNL     1       3.654  23.712  41.946  1.00  0.00     0.009 A 
ATOM      5  C   UNL     1       4.366  24.696  41.241  1.00  0.00     0.001 A 
ATOM      6  C   UNL     1       4.592  25.964  41.814  1.00  0.00     0.001 A 
ATOM      7  C   UNL     1       4.107  26.262  43.099  1.00  0.00     0.009 A 
ATOM      8  C   UNL     1       3.402  25.271  43.782  1.00  0.00    -0.010 A 
ATOM      9  C   UNL     1       2.793  25.298  45.108  1.00  0.00    -0.010 A 
ATOM     10  C   UNL     1       2.749  26.322  46.054  1.00  0.00     0.009 A 
ATOM     11  C   UNL     1       2.087  26.077  47.268  1.00  0.00     0.001 A 
ATOM     12  C   UNL     1       1.485  24.825  47.513  1.00  0.00     0.001 A 
ATOM     13  C   UNL     1       1.540  23.807  46.547  1.00  0.00     0.009 A 
ATOM     14  C   UNL     1       2.203  24.067  45.345  1.00  0.00    -0.010 A 
ENDROOT
TORSDOF 0
ENDMDL
MODEL 7
REMARK VINA RESULT:    -5.518     11.528     14.310
REMARK INTER + INTRA:          -5.518
REMARK INTER:                  -5.518
REMARK INTRA:                   0.000
REMARK UNBOUND:                 0.000
REMARK SMILES C=C1c2ccccc2-c2ccccc21
REMARK SMILES IDX 1 1 2 2 3 3 4 4 5 5 6 6 7 7 8 8 9 9 10 10 11 11 12 12 13 13
REMARK SMILES IDX 14 14
REMARK H PARENT
REMARK Flexibility Score: inf
ROOT
ATOM      1  C   UNL     1       2.245  23.187  54.528  1.00  0.00     0.018 C 
ATOM      2  C   UNL     1       1.427  23.211  55.579  1.00  0.00    -0.017 C 
ATOM      3  C   UNL     1       0.082  23.798  55.647  1.00  0.00    -0.010 A 
ATOM      4  C   UNL     1      -0.663  24.459  54.666  1.00  0.00     0.009 A 
ATOM      5  C   UNL     1      -1.943  24.928  55.004  1.00  0.00     0.001 A 
ATOM      6  C   UNL     1      -2.457  24.733  56.303  1.00  0.00     0.001 A 
ATOM      7  C   UNL     1      -1.694  24.067  57.277  1.00  0.00     0.009 A 
ATOM      8  C   UNL     1      -0.426  23.609  56.921  1.00  0.00    -0.010 A 
ATOM      9  C   UNL     1       0.571  22.896  57.714  1.00  0.00    -0.010 A 
ATOM     10  C   UNL     1       0.527  22.478  59.044  1.00  0.00     0.009 A 
ATOM     11  C   UNL     1       1.642  21.801  59.564  1.00  0.00     0.001 A 
ATOM     12  C   UNL     1       2.771  21.556  58.755  1.00  0.00     0.001 A 
ATOM     13  C   UNL     1       2.795  21.986  57.417  1.00  0.00     0.009 A 
ATOM     14  C   UNL     1       1.678  22.657  56.916  1.00  0.00    -0.010 A 
ENDROOT
TORSDOF 0
ENDMDL
MODEL 8
REMARK VINA RESULT:    -5.505     11.483     14.292
REMARK INTER + INTRA:          -5.505
REMARK INTER:                  -5.505
REMARK INTRA:                   0.000
REMARK UNBOUND:                 0.000
REMARK SMILES C=C1c2ccccc2-c2ccccc21
REMARK SMILES IDX 1 1 2 2 3 3 4 4 5 5 6 6 7 7 8 8 9 9 10 10 11 11 12 12 13 13
REMARK SMILES IDX 14 14
REMARK H PARENT
REMARK Flexibility Score: inf
ROOT
ATOM      1  C   UNL     1       2.222  23.242  54.483  1.00  0.00     0.018 C 
ATOM      2  C   UNL     1       1.402  23.251  55.533  1.00  0.00    -0.017 C 
ATOM      3  C   UNL     1       1.656  22.687  56.865  1.00  0.00    -0.010 A 
ATOM      4  C   UNL     1       2.779  22.019  57.361  1.00  0.00     0.009 A 
ATOM      5  C   UNL     1       2.757  21.578  58.695  1.00  0.00     0.001 A 
ATOM      6  C   UNL     1       1.627  21.806  59.505  1.00  0.00     0.001 A 
ATOM      7  C   UNL     1       0.505  22.478  58.990  1.00  0.00     0.009 A 
ATOM      8  C   UNL     1       0.547  22.909  57.665  1.00  0.00    -0.010 A 
ATOM      9  C   UNL     1      -0.454  23.621  56.877  1.00  0.00    -0.010 A 
ATOM     10  C   UNL     1      -1.727  24.065  57.235  1.00  0.00     0.009 A 
ATOM     11  C   UNL     1      -2.494  24.733  56.267  1.00  0.00     0.001 A 
ATOM     12  C   UNL     1      -1.981  24.945  54.971  1.00  0.00     0.001 A 
ATOM     13  C   UNL     1      -0.696  24.489  54.630  1.00  0.00     0.009 A 
ATOM     14  C   UNL     1       0.053  23.827  55.605  1.00  0.00    -0.010 A 
ENDROOT
TORSDOF 0
ENDMDL
MODEL 9
REMARK VINA RESULT:    -5.324      5.702      8.442
REMARK INTER + INTRA:          -5.324
REMARK INTER:                  -5.324
REMARK INTRA:                   0.000
REMARK UNBOUND:                 0.000
REMARK SMILES C=C1c2ccccc2-c2ccccc21
REMARK SMILES IDX 1 1 2 2 3 3 4 4 5 5 6 6 7 7 8 8 9 9 10 10 11 11 12 12 13 13
REMARK SMILES IDX 14 14
REMARK H PARENT
REMARK Flexibility Score: inf
ROOT
ATOM      1  C   UNL     1       0.495  26.000  52.952  1.00  0.00     0.018 C 
ATOM      2  C   UNL     1       0.956  25.243  51.957  1.00  0.00    -0.017 C 
ATOM      3  C   UNL     1       0.950  25.559  50.523  1.00  0.00    -0.010 A 
ATOM      4  C   UNL     1       0.478  26.690  49.851  1.00  0.00     0.009 A 
ATOM      5  C   UNL     1       0.598  26.734  48.452  1.00  0.00     0.001 A 
ATOM      6  C   UNL     1       1.180  25.659  47.751  1.00  0.00     0.001 A 
ATOM      7  C   UNL     1       1.648  24.528  48.441  1.00  0.00     0.009 A 
ATOM      8  C   UNL     1       1.520  24.505  49.829  1.00  0.00    -0.010 A 
ATOM      9  C   UNL     1       1.912  23.479  50.791  1.00  0.00    -0.010 A 
ATOM     10  C   UNL     1       2.522  22.242  50.584  1.00  0.00     0.009 A 
ATOM     11  C   UNL     1       2.792  21.438  51.704  1.00  0.00     0.001 A 
ATOM     12  C   UNL     1       2.451  21.881  52.999  1.00  0.00     0.001 A 
ATOM     13  C   UNL     1       1.837  23.131  53.186  1.00  0.00     0.009 A 
ATOM     14  C   UNL     1       1.577  23.917  52.062  1.00  0.00    -0.010 A 
ENDROOT
TORSDOF 0
ENDMDL
