MODEL 1
REMARK VINA RESULT:    -4.487      0.000      0.000
REMARK INTER + INTRA:         -11.132
REMARK INTER:                  -8.421
REMARK INTRA:                  -2.711
REMARK UNBOUND:                -2.711
REMARK SMILES CCCCCCCCC=CCCCCCCCC(=O)[O-]
REMARK SMILES IDX 10 1 9 2 11 3 12 4 13 5 14 6 15 7 16 8 17 9 18 10 19 11
REMARK SMILES IDX 20 12 8 13 7 14 6 15 5 16 4 17 3 18 2 19 1 20
REMARK H PARENT
REMARK Flexibility Score: inf
ROOT
ATOM      1  C   UNL     1      11.383  25.021  34.220  1.00  0.00    -0.031 C 
ATOM      2  C   UNL     1      11.761  24.018  33.413  1.00  0.00    -0.031 C 
ENDROOT
BRANCH   1   3
ATOM      3  C   UNL     1      12.387  25.826  35.002  1.00  0.00     0.027 C 
BRANCH   3   4
ATOM      4  C   UNL     1      13.769  25.160  35.037  1.00  0.00     0.004 C 
BRANCH   4   5
ATOM      5  C   UNL     1      14.021  24.423  36.364  1.00  0.00     0.000 C 
BRANCH   5   6
ATOM      6  C   UNL     1      15.191  23.426  36.283  1.00  0.00     0.000 C 
BRANCH   6   7
ATOM      7  C   UNL     1      15.159  22.476  35.068  1.00  0.00     0.000 C 
BRANCH   7   8
ATOM      8  C   UNL     1      16.366  22.584  34.119  1.00  0.00     0.006 C 
BRANCH   8   9
ATOM      9  C   UNL     1      17.179  23.867  34.334  1.00  0.00     0.053 C 
BRANCH   9  10
ATOM     10  C   UNL     1      18.640  23.550  34.402  1.00  0.00     0.041 C 
ATOM     11  O   UNL     1      19.037  22.507  34.984  1.00  0.00    -0.550 OA
ATOM     12  O   UNL     1      19.567  24.435  33.867  1.00  0.00    -0.550 OA
ENDBRANCH   9  10
ENDBRANCH   8   9
ENDBRANCH   7   8
ENDBRANCH   6   7
ENDBRANCH   5   6
ENDBRANCH   4   5
ENDBRANCH   3   4
ENDBRANCH   1   3
BRANCH   2  13
ATOM     13  C   UNL     1      10.758  23.222  32.620  1.00  0.00     0.027 C 
BRANCH  13  14
ATOM     14  C   UNL     1      10.767  21.742  33.024  1.00  0.00     0.004 C 
BRANCH  14  15
ATOM     15  C   UNL     1      11.968  21.393  33.917  1.00  0.00     0.000 C 
BRANCH  15  16
ATOM     16  C   UNL     1      11.506  20.843  35.271  1.00  0.00     0.000 C 
BRANCH  16  17
ATOM     17  C   UNL     1      11.233  21.984  36.263  1.00  0.00    -0.000 C 
BRANCH  17  18
ATOM     18  C   UNL     1       9.733  22.280  36.428  1.00  0.00    -0.000 C 
BRANCH  18  19
ATOM     19  C   UNL     1       9.469  23.645  37.079  1.00  0.00    -0.003 C 
ATOM     20  C   UNL     1      10.590  24.019  38.045  1.00  0.00     0.004 C 
ENDBRANCH  18  19
ENDBRANCH  17  18
ENDBRANCH  16  17
ENDBRANCH  15  16
ENDBRANCH  14  15
ENDBRANCH  13  14
ENDBRANCH   2  13
TORSDOF 15
ENDMDL
MODEL 2
REMARK VINA RESULT:    -4.433     10.935     13.105
REMARK INTER + INTRA:         -11.031
REMARK INTER:                  -8.574
REMARK INTRA:                  -2.457
REMARK UNBOUND:                -2.711
REMARK SMILES CCCCCCCCC=CCCCCCCCC(=O)[O-]
REMARK SMILES IDX 10 1 9 2 11 3 12 4 13 5 14 6 15 7 16 8 17 9 18 10 19 11
REMARK SMILES IDX 20 12 8 13 7 14 6 15 5 16 4 17 3 18 2 19 1 20
REMARK H PARENT
REMARK Flexibility Score: inf
ROOT
ATOM      1  C   UNL     1      17.667  11.781  29.968  1.00  0.00    -0.031 C 
ATOM      2  C   UNL     1      18.121  12.975  30.379  1.00  0.00    -0.031 C 
ENDROOT
BRANCH   1   3
ATOM      3  C   UNL     1      18.389  10.503  30.302  1.00  0.00     0.027 C 
BRANCH   3   4
ATOM      4  C   UNL     1      19.159  10.598  31.627  1.00  0.00     0.004 C 
BRANCH   4   5
ATOM      5  C   UNL     1      18.572   9.667  32.702  1.00  0.00     0.000 C 
BRANCH   5   6
ATOM      6  C   UNL     1      17.997  10.431  33.908  1.00  0.00     0.000 C 
BRANCH   6   7
ATOM      7  C   UNL     1      17.438  11.834  33.588  1.00  0.00     0.000 C 
BRANCH   7   8
ATOM      8  C   UNL     1      17.882  12.951  34.551  1.00  0.00     0.006 C 
BRANCH   8   9
ATOM      9  C   UNL     1      18.921  13.893  33.931  1.00  0.00     0.053 C 
BRANCH   9  10
ATOM     10  C   UNL     1      20.301  13.491  34.350  1.00  0.00     0.041 C 
ATOM     11  O   UNL     1      20.985  12.723  33.626  1.00  0.00    -0.550 OA
ATOM     12  O   UNL     1      20.810  13.926  35.567  1.00  0.00    -0.550 OA
ENDBRANCH   9  10
ENDBRANCH   8   9
ENDBRANCH   7   8
ENDBRANCH   6   7
ENDBRANCH   5   6
ENDBRANCH   4   5
ENDBRANCH   3   4
ENDBRANCH   1   3
BRANCH   2  13
ATOM     13  C   UNL     1      17.390  14.251  30.058  1.00  0.00     0.027 C 
BRANCH  13  14
ATOM     14  C   UNL     1      15.876  14.098  30.255  1.00  0.00     0.004 C 
BRANCH  14  15
ATOM     15  C   UNL     1      15.082  14.558  29.023  1.00  0.00     0.000 C 
BRANCH  15  16
ATOM     16  C   UNL     1      16.006  15.190  27.976  1.00  0.00     0.000 C 
BRANCH  16  17
ATOM     17  C   UNL     1      15.920  14.435  26.640  1.00  0.00    -0.000 C 
BRANCH  17  18
ATOM     18  C   UNL     1      16.808  13.180  26.611  1.00  0.00    -0.000 C 
BRANCH  18  19
ATOM     19  C   UNL     1      16.056  11.938  26.111  1.00  0.00    -0.003 C 
ATOM     20  C   UNL     1      15.274  11.278  27.243  1.00  0.00     0.004 C 
ENDBRANCH  18  19
ENDBRANCH  17  18
ENDBRANCH  16  17
ENDBRANCH  15  16
ENDBRANCH  14  15
ENDBRANCH  13  14
ENDBRANCH   2  13
TORSDOF 15
ENDMDL
MODEL 3
REMARK VINA RESULT:    -4.403     10.909     13.120
REMARK INTER + INTRA:         -10.975
REMARK INTER:                  -7.979
REMARK INTRA:                  -2.997
REMARK UNBOUND:                -2.711
REMARK SMILES CCCCCCCCC=CCCCCCCCC(=O)[O-]
REMARK SMILES IDX 10 1 9 2 11 3 12 4 13 5 14 6 15 7 16 8 17 9 18 10 19 11
REMARK SMILES IDX 20 12 8 13 7 14 6 15 5 16 4 17 3 18 2 19 1 20
REMARK H PARENT
REMARK Flexibility Score: inf
ROOT
ATOM      1  C   UNL     1      15.133  11.512  29.628  1.00  0.00    -0.031 C 
ATOM      2  C   UNL     1      14.204  11.982  28.782  1.00  0.00    -0.031 C 
ENDROOT
BRANCH   1   3
ATOM      3  C   UNL     1      16.057  10.388  29.241  1.00  0.00     0.027 C 
BRANCH   3   4
ATOM      4  C   UNL     1      17.531  10.727  29.504  1.00  0.00     0.004 C 
BRANCH   4   5
ATOM      5  C   UNL     1      17.810  12.233  29.364  1.00  0.00     0.000 C 
BRANCH   5   6
ATOM      6  C   UNL     1      18.454  12.843  30.622  1.00  0.00     0.000 C 
BRANCH   6   7
ATOM      7  C   UNL     1      17.536  13.774  31.443  1.00  0.00     0.000 C 
BRANCH   7   8
ATOM      8  C   UNL     1      16.711  13.079  32.541  1.00  0.00     0.006 C 
BRANCH   8   9
ATOM      9  C   UNL     1      17.411  11.843  33.120  1.00  0.00     0.053 C 
BRANCH   9  10
ATOM     10  C   UNL     1      18.273  12.230  34.280  1.00  0.00     0.041 C 
ATOM     11  O   UNL     1      17.928  13.172  35.040  1.00  0.00    -0.550 OA
ATOM     12  O   UNL     1      19.483  11.583  34.492  1.00  0.00    -0.550 OA
ENDBRANCH   9  10
ENDBRANCH   8   9
ENDBRANCH   7   8
ENDBRANCH   6   7
ENDBRANCH   5   6
ENDBRANCH   4   5
ENDBRANCH   3   4
ENDBRANCH   1   3
BRANCH   2  13
ATOM     13  C   UNL     1      13.290  13.117  29.164  1.00  0.00     0.027 C 
BRANCH  13  14
ATOM     14  C   UNL     1      13.711  14.430  28.491  1.00  0.00     0.004 C 
BRANCH  14  15
ATOM     15  C   UNL     1      14.970  15.033  29.134  1.00  0.00     0.000 C 
BRANCH  15  16
ATOM     16  C   UNL     1      16.153  15.005  28.159  1.00  0.00     0.000 C 
BRANCH  16  17
ATOM     17  C   UNL     1      15.685  14.664  26.736  1.00  0.00    -0.000 C 
BRANCH  17  18
ATOM     18  C   UNL     1      16.689  13.782  25.977  1.00  0.00    -0.000 C 
BRANCH  18  19
ATOM     19  C   UNL     1      16.263  12.307  25.932  1.00  0.00    -0.003 C 
ATOM     20  C   UNL     1      17.473  11.392  25.771  1.00  0.00     0.004 C 
ENDBRANCH  18  19
ENDBRANCH  17  18
ENDBRANCH  16  17
ENDBRANCH  15  16
ENDBRANCH  14  15
ENDBRANCH  13  14
ENDBRANCH   2  13
TORSDOF 15
ENDMDL
MODEL 4
REMARK VINA RESULT:    -4.332      3.005      6.012
REMARK INTER + INTRA:         -10.841
REMARK INTER:                  -8.325
REMARK INTRA:                  -2.515
REMARK UNBOUND:                -2.711
REMARK SMILES CCCCCCCCC=CCCCCCCCC(=O)[O-]
REMARK SMILES IDX 10 1 9 2 11 3 12 4 13 5 14 6 15 7 16 8 17 9 18 10 19 11
REMARK SMILES IDX 20 12 8 13 7 14 6 15 5 16 4 17 3 18 2 19 1 20
REMARK H PARENT
REMARK Flexibility Score: inf
ROOT
ATOM      1  C   UNL     1      13.548  25.004  36.087  1.00  0.00    -0.031 C 
ATOM      2  C   UNL     1      14.349  25.426  35.097  1.00  0.00    -0.031 C 
ENDROOT
BRANCH   1   3
ATOM      3  C   UNL     1      12.714  25.966  36.891  1.00  0.00     0.027 C 
BRANCH   3   4
ATOM      4  C   UNL     1      11.302  25.425  37.165  1.00  0.00     0.004 C 
BRANCH   4   5
ATOM      5  C   UNL     1      11.308  23.911  37.436  1.00  0.00     0.000 C 
BRANCH   5   6
ATOM      6  C   UNL     1      10.006  23.218  36.995  1.00  0.00     0.000 C 
BRANCH   6   7
ATOM      7  C   UNL     1      10.197  21.953  36.132  1.00  0.00     0.000 C 
BRANCH   7   8
ATOM      8  C   UNL     1      11.607  21.768  35.543  1.00  0.00     0.006 C 
BRANCH   8   9
ATOM      9  C   UNL     1      11.589  21.441  34.045  1.00  0.00     0.053 C 
BRANCH   9  10
ATOM     10  C   UNL     1      11.174  22.643  33.256  1.00  0.00     0.041 C 
ATOM     11  O   UNL     1      11.620  23.781  33.553  1.00  0.00    -0.550 OA
ATOM     12  O   UNL     1      10.254  22.511  32.224  1.00  0.00    -0.550 OA
ENDBRANCH   9  10
ENDBRANCH   8   9
ENDBRANCH   7   8
ENDBRANCH   6   7
ENDBRANCH   5   6
ENDBRANCH   4   5
ENDBRANCH   3   4
ENDBRANCH   1   3
BRANCH   2  13
ATOM     13  C   UNL     1      15.172  24.463  34.283  1.00  0.00     0.027 C 
BRANCH  13  14
ATOM     14  C   UNL     1      14.915  23.009  34.701  1.00  0.00     0.004 C 
BRANCH  14  15
ATOM     15  C   UNL     1      16.206  22.176  34.724  1.00  0.00     0.000 C 
BRANCH  15  16
ATOM     16  C   UNL     1      17.371  22.947  34.092  1.00  0.00     0.000 C 
BRANCH  16  17
ATOM     17  C   UNL     1      18.594  22.955  35.022  1.00  0.00    -0.000 C 
BRANCH  17  18
ATOM     18  C   UNL     1      18.253  23.427  36.445  1.00  0.00    -0.000 C 
BRANCH  18  19
ATOM     19  C   UNL     1      18.034  24.945  36.527  1.00  0.00    -0.003 C 
ATOM     20  C   UNL     1      17.051  25.297  37.640  1.00  0.00     0.004 C 
ENDBRANCH  18  19
ENDBRANCH  17  18
ENDBRANCH  16  17
ENDBRANCH  15  16
ENDBRANCH  14  15
ENDBRANCH  13  14
ENDBRANCH   2  13
TORSDOF 15
ENDMDL
MODEL 5
REMARK VINA RESULT:    -4.313     10.908     12.902
REMARK INTER + INTRA:         -10.805
REMARK INTER:                  -8.327
REMARK INTRA:                  -2.479
REMARK UNBOUND:                -2.711
REMARK SMILES CCCCCCCCC=CCCCCCCCC(=O)[O-]
REMARK SMILES IDX 10 1 9 2 11 3 12 4 13 5 14 6 15 7 16 8 17 9 18 10 19 11
REMARK SMILES IDX 20 12 8 13 7 14 6 15 5 16 4 17 3 18 2 19 1 20
REMARK H PARENT
REMARK Flexibility Score: inf
ROOT
ATOM      1  C   UNL     1      16.986  10.862  28.766  1.00  0.00    -0.031 C 
ATOM      2  C   UNL     1      15.791  11.025  28.177  1.00  0.00    -0.031 C 
ENDROOT
BRANCH   1   3
ATOM      3  C   UNL     1      17.132  10.102  30.058  1.00  0.00     0.027 C 
BRANCH   3   4
ATOM      4  C   UNL     1      18.571  10.135  30.594  1.00  0.00     0.004 C 
BRANCH   4   5
ATOM      5  C   UNL     1      18.737  11.152  31.736  1.00  0.00     0.000 C 
BRANCH   5   6
ATOM      6  C   UNL     1      17.672  10.998  32.835  1.00  0.00     0.000 C 
BRANCH   6   7
ATOM      7  C   UNL     1      16.770  12.232  33.052  1.00  0.00     0.000 C 
BRANCH   7   8
ATOM      8  C   UNL     1      17.456  13.435  33.723  1.00  0.00     0.006 C 
BRANCH   8   9
ATOM      9  C   UNL     1      18.058  13.091  35.091  1.00  0.00     0.053 C 
BRANCH   9  10
ATOM     10  C   UNL     1      19.500  13.489  35.139  1.00  0.00     0.041 C 
ATOM     11  O   UNL     1      20.234  13.338  34.128  1.00  0.00    -0.550 OA
ATOM     12  O   UNL     1      20.045  13.980  36.318  1.00  0.00    -0.550 OA
ENDBRANCH   9  10
ENDBRANCH   8   9
ENDBRANCH   7   8
ENDBRANCH   6   7
ENDBRANCH   5   6
ENDBRANCH   4   5
ENDBRANCH   3   4
ENDBRANCH   1   3
BRANCH   2  13
ATOM     13  C   UNL     1      15.647  11.772  26.878  1.00  0.00     0.027 C 
BRANCH  13  14
ATOM     14  C   UNL     1      16.963  12.443  26.465  1.00  0.00     0.004 C 
BRANCH  14  15
ATOM     15  C   UNL     1      16.760  13.904  26.036  1.00  0.00     0.000 C 
BRANCH  15  16
ATOM     16  C   UNL     1      15.496  14.494  26.672  1.00  0.00     0.000 C 
BRANCH  16  17
ATOM     17  C   UNL     1      15.831  15.237  27.974  1.00  0.00    -0.000 C 
BRANCH  17  18
ATOM     18  C   UNL     1      15.150  14.614  29.203  1.00  0.00    -0.000 C 
BRANCH  18  19
ATOM     19  C   UNL     1      16.071  14.573  30.431  1.00  0.00    -0.003 C 
ATOM     20  C   UNL     1      17.493  14.183  30.037  1.00  0.00     0.004 C 
ENDBRANCH  18  19
ENDBRANCH  17  18
ENDBRANCH  16  17
ENDBRANCH  15  16
ENDBRANCH  14  15
ENDBRANCH  13  14
ENDBRANCH   2  13
TORSDOF 15
ENDMDL
MODEL 6
REMARK VINA RESULT:    -4.298     11.117     13.510
REMARK INTER + INTRA:         -10.778
REMARK INTER:                  -8.159
REMARK INTRA:                  -2.619
REMARK UNBOUND:                -2.711
REMARK SMILES CCCCCCCCC=CCCCCCCCC(=O)[O-]
REMARK SMILES IDX 10 1 9 2 11 3 12 4 13 5 14 6 15 7 16 8 17 9 18 10 19 11
REMARK SMILES IDX 20 12 8 13 7 14 6 15 5 16 4 17 3 18 2 19 1 20
REMARK H PARENT
REMARK Flexibility Score: inf
ROOT
ATOM      1  C   UNL     1      16.795  11.930  32.110  1.00  0.00    -0.031 C 
ATOM      2  C   UNL     1      16.706  13.263  32.231  1.00  0.00    -0.031 C 
ENDROOT
BRANCH   1   3
ATOM      3  C   UNL     1      16.597  11.243  30.785  1.00  0.00     0.027 C 
BRANCH   3   4
ATOM      4  C   UNL     1      17.896  11.164  29.970  1.00  0.00     0.004 C 
BRANCH   4   5
ATOM      5  C   UNL     1      17.630  11.202  28.455  1.00  0.00     0.000 C 
BRANCH   5   6
ATOM      6  C   UNL     1      16.201  11.657  28.109  1.00  0.00     0.000 C 
BRANCH   6   7
ATOM      7  C   UNL     1      16.093  13.069  27.495  1.00  0.00     0.000 C 
BRANCH   7   8
ATOM      8  C   UNL     1      16.400  14.229  28.460  1.00  0.00     0.006 C 
BRANCH   8   9
ATOM      9  C   UNL     1      15.215  14.575  29.370  1.00  0.00     0.053 C 
BRANCH   9  10
ATOM     10  C   UNL     1      13.980  14.793  28.554  1.00  0.00     0.041 C 
ATOM     11  O   UNL     1      12.998  14.014  28.667  1.00  0.00    -0.550 OA
ATOM     12  O   UNL     1      13.933  15.829  27.629  1.00  0.00    -0.550 OA
ENDBRANCH   9  10
ENDBRANCH   8   9
ENDBRANCH   7   8
ENDBRANCH   6   7
ENDBRANCH   5   6
ENDBRANCH   4   5
ENDBRANCH   3   4
ENDBRANCH   1   3
BRANCH   2  13
ATOM     13  C   UNL     1      16.918  13.952  33.554  1.00  0.00     0.027 C 
BRANCH  13  14
ATOM     14  C   UNL     1      17.937  13.202  34.422  1.00  0.00     0.004 C 
BRANCH  14  15
ATOM     15  C   UNL     1      19.361  13.755  34.253  1.00  0.00     0.000 C 
BRANCH  15  16
ATOM     16  C   UNL     1      20.383  12.618  34.139  1.00  0.00     0.000 C 
BRANCH  16  17
ATOM     17  C   UNL     1      20.404  12.039  32.716  1.00  0.00    -0.000 C 
BRANCH  17  18
ATOM     18  C   UNL     1      20.176  10.519  32.692  1.00  0.00    -0.000 C 
BRANCH  18  19
ATOM     19  C   UNL     1      19.743   9.965  34.058  1.00  0.00    -0.003 C 
ATOM     20  C   UNL     1      18.469   9.134  33.934  1.00  0.00     0.004 C 
ENDBRANCH  18  19
ENDBRANCH  17  18
ENDBRANCH  16  17
ENDBRANCH  15  16
ENDBRANCH  14  15
ENDBRANCH  13  14
ENDBRANCH   2  13
TORSDOF 15
ENDMDL
MODEL 7
REMARK VINA RESULT:    -4.294      3.425      7.222
REMARK INTER + INTRA:         -10.770
REMARK INTER:                  -8.577
REMARK INTRA:                  -2.193
REMARK UNBOUND:                -2.711
REMARK SMILES CCCCCCCCC=CCCCCCCCC(=O)[O-]
REMARK SMILES IDX 10 1 9 2 11 3 12 4 13 5 14 6 15 7 16 8 17 9 18 10 19 11
REMARK SMILES IDX 20 12 8 13 7 14 6 15 5 16 4 17 3 18 2 19 1 20
REMARK H PARENT
REMARK Flexibility Score: inf
ROOT
ATOM      1  C   UNL     1      16.105  26.589  35.636  1.00  0.00    -0.031 C 
ATOM      2  C   UNL     1      17.146  27.208  36.212  1.00  0.00    -0.031 C 
ENDROOT
BRANCH   1   3
ATOM      3  C   UNL     1      15.101  25.812  36.445  1.00  0.00     0.027 C 
BRANCH   3   4
ATOM      4  C   UNL     1      15.222  24.297  36.227  1.00  0.00     0.004 C 
BRANCH   4   5
ATOM      5  C   UNL     1      15.066  23.914  34.745  1.00  0.00     0.000 C 
BRANCH   5   6
ATOM      6  C   UNL     1      14.876  22.402  34.533  1.00  0.00     0.000 C 
BRANCH   6   7
ATOM      7  C   UNL     1      14.029  21.691  35.610  1.00  0.00     0.000 C 
BRANCH   7   8
ATOM      8  C   UNL     1      12.536  21.531  35.270  1.00  0.00     0.006 C 
BRANCH   8   9
ATOM      9  C   UNL     1      12.253  21.636  33.766  1.00  0.00     0.053 C 
BRANCH   9  10
ATOM     10  C   UNL     1      11.409  22.838  33.479  1.00  0.00     0.041 C 
ATOM     11  O   UNL     1      10.727  22.897  32.424  1.00  0.00    -0.550 OA
ATOM     12  O   UNL     1      11.417  23.916  34.355  1.00  0.00    -0.550 OA
ENDBRANCH   9  10
ENDBRANCH   8   9
ENDBRANCH   7   8
ENDBRANCH   6   7
ENDBRANCH   5   6
ENDBRANCH   4   5
ENDBRANCH   3   4
ENDBRANCH   1   3
BRANCH   2  13
ATOM     13  C   UNL     1      18.142  27.997  35.404  1.00  0.00     0.027 C 
BRANCH  13  14
ATOM     14  C   UNL     1      19.466  27.239  35.247  1.00  0.00     0.004 C 
BRANCH  14  15
ATOM     15  C   UNL     1      19.790  26.934  33.776  1.00  0.00     0.000 C 
BRANCH  15  16
ATOM     16  C   UNL     1      20.058  25.439  33.570  1.00  0.00     0.000 C 
BRANCH  16  17
ATOM     17  C   UNL     1      18.904  24.592  34.124  1.00  0.00    -0.000 C 
BRANCH  17  18
ATOM     18  C   UNL     1      19.342  23.166  34.499  1.00  0.00    -0.000 C 
BRANCH  18  19
ATOM     19  C   UNL     1      18.442  22.535  35.572  1.00  0.00    -0.003 C 
ATOM     20  C   UNL     1      18.614  23.239  36.915  1.00  0.00     0.004 C 
ENDBRANCH  18  19
ENDBRANCH  17  18
ENDBRANCH  16  17
ENDBRANCH  15  16
ENDBRANCH  14  15
ENDBRANCH  13  14
ENDBRANCH   2  13
TORSDOF 15
ENDMDL
MODEL 8
REMARK VINA RESULT:    -4.291     11.056     13.148
REMARK INTER + INTRA:         -10.764
REMARK INTER:                  -8.003
REMARK INTRA:                  -2.761
REMARK UNBOUND:                -2.711
REMARK SMILES CCCCCCCCC=CCCCCCCCC(=O)[O-]
REMARK SMILES IDX 10 1 9 2 11 3 12 4 13 5 14 6 15 7 16 8 17 9 18 10 19 11
REMARK SMILES IDX 20 12 8 13 7 14 6 15 5 16 4 17 3 18 2 19 1 20
REMARK H PARENT
REMARK Flexibility Score: inf
ROOT
ATOM      1  C   UNL     1      18.489  12.447  31.309  1.00  0.00    -0.031 C 
ATOM      2  C   UNL     1      17.388  12.900  31.929  1.00  0.00    -0.031 C 
ENDROOT
BRANCH   1   3
ATOM      3  C   UNL     1      19.238  11.242  31.812  1.00  0.00     0.027 C 
BRANCH   3   4
ATOM      4  C   UNL     1      18.305  10.063  32.123  1.00  0.00     0.004 C 
BRANCH   4   5
ATOM      5  C   UNL     1      18.942   9.069  33.110  1.00  0.00     0.000 C 
BRANCH   5   6
ATOM      6  C   UNL     1      19.372   9.729  34.432  1.00  0.00     0.000 C 
BRANCH   6   7
ATOM      7  C   UNL     1      18.222  10.039  35.414  1.00  0.00     0.000 C 
BRANCH   7   8
ATOM      8  C   UNL     1      18.380  11.342  36.218  1.00  0.00     0.006 C 
BRANCH   8   9
ATOM      9  C   UNL     1      18.244  12.599  35.350  1.00  0.00     0.053 C 
BRANCH   9  10
ATOM     10  C   UNL     1      19.500  13.411  35.412  1.00  0.00     0.041 C 
ATOM     11  O   UNL     1      19.758  14.104  36.430  1.00  0.00    -0.550 OA
ATOM     12  O   UNL     1      20.360  13.442  34.321  1.00  0.00    -0.550 OA
ENDBRANCH   9  10
ENDBRANCH   8   9
ENDBRANCH   7   8
ENDBRANCH   6   7
ENDBRANCH   5   6
ENDBRANCH   4   5
ENDBRANCH   3   4
ENDBRANCH   1   3
BRANCH   2  13
ATOM     13  C   UNL     1      16.630  14.097  31.418  1.00  0.00     0.027 C 
BRANCH  13  14
ATOM     14  C   UNL     1      17.134  14.535  30.037  1.00  0.00     0.004 C 
BRANCH  14  15
ATOM     15  C   UNL     1      15.983  14.754  29.042  1.00  0.00     0.000 C 
BRANCH  15  16
ATOM     16  C   UNL     1      14.797  13.835  29.361  1.00  0.00     0.000 C 
BRANCH  16  17
ATOM     17  C   UNL     1      14.865  12.543  28.533  1.00  0.00    -0.000 C 
BRANCH  17  18
ATOM     18  C   UNL     1      15.044  11.290  29.405  1.00  0.00    -0.000 C 
BRANCH  18  19
ATOM     19  C   UNL     1      16.338  10.527  29.083  1.00  0.00    -0.003 C 
ATOM     20  C   UNL     1      17.160  11.262  28.027  1.00  0.00     0.004 C 
ENDBRANCH  18  19
ENDBRANCH  17  18
ENDBRANCH  16  17
ENDBRANCH  15  16
ENDBRANCH  14  15
ENDBRANCH  13  14
ENDBRANCH   2  13
TORSDOF 15
ENDMDL
MODEL 9
REMARK VINA RESULT:    -4.278      2.799      6.111
REMARK INTER + INTRA:         -10.741
REMARK INTER:                  -8.040
REMARK INTRA:                  -2.701
REMARK UNBOUND:                -2.711
REMARK SMILES CCCCCCCCC=CCCCCCCCC(=O)[O-]
REMARK SMILES IDX 10 1 9 2 11 3 12 4 13 5 14 6 15 7 16 8 17 9 18 10 19 11
REMARK SMILES IDX 20 12 8 13 7 14 6 15 5 16 4 17 3 18 2 19 1 20
REMARK H PARENT
REMARK Flexibility Score: inf
ROOT
ATOM      1  C   UNL     1      14.823  23.196  35.844  1.00  0.00    -0.031 C 
ATOM      2  C   UNL     1      15.017  23.808  34.666  1.00  0.00    -0.031 C 
ENDROOT
BRANCH   1   3
ATOM      3  C   UNL     1      13.684  23.576  36.753  1.00  0.00     0.027 C 
BRANCH   3   4
ATOM      4  C   UNL     1      12.833  24.717  36.176  1.00  0.00     0.004 C 
BRANCH   4   5
ATOM      5  C   UNL     1      11.671  25.097  37.109  1.00  0.00     0.000 C 
BRANCH   5   6
ATOM      6  C   UNL     1      10.818  23.886  37.528  1.00  0.00     0.000 C 
BRANCH   6   7
ATOM      7  C   UNL     1      10.087  23.169  36.374  1.00  0.00     0.000 C 
BRANCH   7   8
ATOM      8  C   UNL     1      10.592  21.749  36.061  1.00  0.00     0.006 C 
BRANCH   8   9
ATOM      9  C   UNL     1      10.480  21.391  34.574  1.00  0.00     0.053 C 
BRANCH   9  10
ATOM     10  C   UNL     1      11.625  21.979  33.811  1.00  0.00     0.041 C 
ATOM     11  O   UNL     1      12.726  21.373  33.751  1.00  0.00    -0.550 OA
ATOM     12  O   UNL     1      11.492  23.224  33.209  1.00  0.00    -0.550 OA
ENDBRANCH   9  10
ENDBRANCH   8   9
ENDBRANCH   7   8
ENDBRANCH   6   7
ENDBRANCH   5   6
ENDBRANCH   4   5
ENDBRANCH   3   4
ENDBRANCH   1   3
BRANCH   2  13
ATOM     13  C   UNL     1      16.147  23.418  33.750  1.00  0.00     0.027 C 
BRANCH  13  14
ATOM     14  C   UNL     1      17.138  22.477  34.447  1.00  0.00     0.004 C 
BRANCH  14  15
ATOM     15  C   UNL     1      18.439  23.194  34.840  1.00  0.00     0.000 C 
BRANCH  15  16
ATOM     16  C   UNL     1      18.411  23.620  36.312  1.00  0.00     0.000 C 
BRANCH  16  17
ATOM     17  C   UNL     1      18.134  25.125  36.444  1.00  0.00    -0.000 C 
BRANCH  17  18
ATOM     18  C   UNL     1      17.088  25.443  37.525  1.00  0.00    -0.000 C 
BRANCH  18  19
ATOM     19  C   UNL     1      16.084  26.514  37.077  1.00  0.00    -0.003 C 
ATOM     20  C   UNL     1      16.374  26.977  35.652  1.00  0.00     0.004 C 
ENDBRANCH  18  19
ENDBRANCH  17  18
ENDBRANCH  16  17
ENDBRANCH  15  16
ENDBRANCH  14  15
ENDBRANCH  13  14
ENDBRANCH   2  13
TORSDOF 15
ENDMDL
