MODEL 1
REMARK VINA RESULT:    -4.471      0.000      0.000
REMARK INTER + INTRA:          -5.544
REMARK INTER:                  -5.255
REMARK INTRA:                  -0.289
REMARK UNBOUND:                -0.289
REMARK SMILES O=c1c(O)c(-c2ccc(O)cc2)oc2cc(O)cc(O)c12
REMARK SMILES IDX 5 1 3 2 2 3 1 4 21 5 19 6 18 7 16 8 15 9 14 10 13 11 6 12
REMARK SMILES IDX 7 13 8 14 9 15 12 16 11 17 10 18 4 20 20 22 17 24
REMARK H PARENT 10 19 4 21 20 23 17 25
REMARK Flexibility Score: inf
ROOT
ATOM      1  C   UNL     1     -21.120  32.478  22.194  1.00  0.00     0.180 A 
ATOM      2  C   UNL     1     -20.045  32.282  23.079  1.00  0.00     0.208 A 
ATOM      3  C   UNL     1     -19.311  31.088  23.006  1.00  0.00     0.238 A 
ATOM      4  O   UNL     1     -18.384  30.896  23.836  1.00  0.00    -0.285 OA
ATOM      5  C   UNL     1     -19.650  30.111  22.039  1.00  0.00     0.111 A 
ATOM      6  C   UNL     1     -18.949  28.882  21.849  1.00  0.00     0.134 A 
ATOM      7  C   UNL     1     -19.452  27.932  20.951  1.00  0.00     0.093 A 
ATOM      8  C   UNL     1     -20.594  28.196  20.188  1.00  0.00     0.123 A 
ATOM      9  C   UNL     1     -21.250  29.416  20.324  1.00  0.00     0.094 A 
ATOM     10  C   UNL     1     -20.793  30.369  21.238  1.00  0.00     0.146 A 
ATOM     11  O   UNL     1     -21.454  31.515  21.343  1.00  0.00    -0.452 OA
ENDROOT
BRANCH   1  12
ATOM     12  C   UNL     1     -21.923  33.721  22.194  1.00  0.00     0.021 A 
ATOM     13  C   UNL     1     -21.520  34.805  21.397  1.00  0.00     0.016 A 
ATOM     14  C   UNL     1     -22.253  35.997  21.398  1.00  0.00     0.047 A 
ATOM     15  C   UNL     1     -23.387  36.124  22.209  1.00  0.00     0.115 A 
ATOM     16  C   UNL     1     -23.054  33.864  23.020  1.00  0.00     0.016 A 
ATOM     17  C   UNL     1     -23.783  35.057  23.020  1.00  0.00     0.047 A 
BRANCH  15  18
ATOM     18  O   UNL     1     -24.124  37.307  22.218  1.00  0.00    -0.508 OA
ATOM     19  H   UNL     1     -23.948  38.045  21.547  1.00  0.00     0.293 HD
ENDBRANCH  15  18
ENDBRANCH   1  12
BRANCH   2  20
ATOM     20  O   UNL     1     -19.740  33.251  24.040  1.00  0.00    -0.502 OA
ATOM     21  H   UNL     1     -19.197  33.042  24.869  1.00  0.00     0.293 HD
ENDBRANCH   2  20
BRANCH   6  22
ATOM     22  O   UNL     1     -17.750  28.559  22.491  1.00  0.00    -0.507 OA
ATOM     23  H   UNL     1     -17.058  29.231  22.788  1.00  0.00     0.293 HD
ENDBRANCH   6  22
BRANCH   8  24
ATOM     24  O   UNL     1     -21.078  27.251  19.286  1.00  0.00    -0.508 OA
ATOM     25  H   UNL     1     -21.715  26.518  19.576  1.00  0.00     0.293 HD
ENDBRANCH   8  24
TORSDOF 5
ENDMDL
MODEL 2
REMARK VINA RESULT:    -4.377      8.350     10.437
REMARK INTER + INTRA:          -5.434
REMARK INTER:                  -5.244
REMARK INTRA:                  -0.190
REMARK UNBOUND:                -0.289
REMARK SMILES O=c1c(O)c(-c2ccc(O)cc2)oc2cc(O)cc(O)c12
REMARK SMILES IDX 5 1 3 2 2 3 1 4 21 5 19 6 18 7 16 8 15 9 14 10 13 11 6 12
REMARK SMILES IDX 7 13 8 14 9 15 12 16 11 17 10 18 4 20 20 22 17 24
REMARK H PARENT 10 19 4 21 20 23 17 25
REMARK Flexibility Score: inf
ROOT
ATOM      1  C   UNL     1     -19.542  23.739  18.883  1.00  0.00     0.180 A 
ATOM      2  C   UNL     1     -20.899  23.509  19.165  1.00  0.00     0.208 A 
ATOM      3  C   UNL     1     -21.803  23.371  18.100  1.00  0.00     0.238 A 
ATOM      4  O   UNL     1     -23.025  23.219  18.360  1.00  0.00    -0.285 OA
ATOM      5  C   UNL     1     -21.336  23.450  16.766  1.00  0.00     0.111 A 
ATOM      6  C   UNL     1     -22.156  23.284  15.609  1.00  0.00     0.134 A 
ATOM      7  C   UNL     1     -21.612  23.513  14.339  1.00  0.00     0.093 A 
ATOM      8  C   UNL     1     -20.261  23.835  14.181  1.00  0.00     0.123 A 
ATOM      9  C   UNL     1     -19.440  23.940  15.300  1.00  0.00     0.094 A 
ATOM     10  C   UNL     1     -19.961  23.753  16.583  1.00  0.00     0.146 A 
ATOM     11  O   UNL     1     -19.146  23.873  17.623  1.00  0.00    -0.452 OA
ENDROOT
BRANCH   1  12
ATOM     12  C   UNL     1     -18.526  23.869  19.952  1.00  0.00     0.021 A 
ATOM     13  C   UNL     1     -18.495  25.033  20.740  1.00  0.00     0.016 A 
ATOM     14  C   UNL     1     -17.531  25.186  21.741  1.00  0.00     0.047 A 
ATOM     15  C   UNL     1     -16.575  24.186  21.955  1.00  0.00     0.115 A 
ATOM     16  C   UNL     1     -17.549  22.878  20.161  1.00  0.00     0.016 A 
ATOM     17  C   UNL     1     -16.586  23.035  21.162  1.00  0.00     0.047 A 
BRANCH  15  18
ATOM     18  O   UNL     1     -15.608  24.328  22.949  1.00  0.00    -0.508 OA
ATOM     19  H   UNL     1     -14.675  23.949  22.838  1.00  0.00     0.293 HD
ENDBRANCH  15  18
ENDBRANCH   1  12
BRANCH   2  20
ATOM     20  O   UNL     1     -21.343  23.456  20.490  1.00  0.00    -0.502 OA
ATOM     21  H   UNL     1     -22.226  23.856  20.784  1.00  0.00     0.293 HD
ENDBRANCH   2  20
BRANCH   6  22
ATOM     22  O   UNL     1     -23.492  22.875  15.651  1.00  0.00    -0.507 OA
ATOM     23  H   UNL     1     -24.189  23.254  16.275  1.00  0.00     0.293 HD
ENDBRANCH   6  22
BRANCH   8  24
ATOM     24  O   UNL     1     -19.726  24.045  12.912  1.00  0.00    -0.508 OA
ATOM     25  H   UNL     1     -19.138  23.353  12.463  1.00  0.00     0.293 HD
ENDBRANCH   8  24
TORSDOF 5
ENDMDL
MODEL 3
REMARK VINA RESULT:    -4.259      1.301      3.075
REMARK INTER + INTRA:          -5.295
REMARK INTER:                  -5.002
REMARK INTRA:                  -0.294
REMARK UNBOUND:                -0.289
REMARK SMILES O=c1c(O)c(-c2ccc(O)cc2)oc2cc(O)cc(O)c12
REMARK SMILES IDX 5 1 3 2 2 3 1 4 21 5 19 6 18 7 16 8 15 9 14 10 13 11 6 12
REMARK SMILES IDX 7 13 8 14 9 15 12 16 11 17 10 18 4 20 20 22 17 24
REMARK H PARENT 10 19 4 21 20 23 17 25
REMARK Flexibility Score: inf
ROOT
ATOM      1  C   UNL     1     -22.222  31.869  21.265  1.00  0.00     0.180 A 
ATOM      2  C   UNL     1     -22.931  30.917  20.512  1.00  0.00     0.208 A 
ATOM      3  C   UNL     1     -22.403  29.623  20.380  1.00  0.00     0.238 A 
ATOM      4  O   UNL     1     -23.015  28.791  19.660  1.00  0.00    -0.285 OA
ATOM      5  C   UNL     1     -21.182  29.292  21.015  1.00  0.00     0.111 A 
ATOM      6  C   UNL     1     -20.575  28.000  20.981  1.00  0.00     0.134 A 
ATOM      7  C   UNL     1     -19.301  27.822  21.535  1.00  0.00     0.093 A 
ATOM      8  C   UNL     1     -18.642  28.872  22.179  1.00  0.00     0.123 A 
ATOM      9  C   UNL     1     -19.251  30.120  22.268  1.00  0.00     0.094 A 
ATOM     10  C   UNL     1     -20.506  30.339  21.694  1.00  0.00     0.146 A 
ATOM     11  O   UNL     1     -21.047  31.547  21.793  1.00  0.00    -0.452 OA
ENDROOT
BRANCH   1  12
ATOM     12  C   UNL     1     -22.727  33.245  21.471  1.00  0.00     0.021 A 
ATOM     13  C   UNL     1     -22.247  34.287  20.659  1.00  0.00     0.016 A 
ATOM     14  C   UNL     1     -22.695  35.598  20.851  1.00  0.00     0.047 A 
ATOM     15  C   UNL     1     -23.615  35.886  21.866  1.00  0.00     0.115 A 
ATOM     16  C   UNL     1     -23.637  33.547  22.502  1.00  0.00     0.016 A 
ATOM     17  C   UNL     1     -24.081  34.859  22.691  1.00  0.00     0.047 A 
BRANCH  15  18
ATOM     18  O   UNL     1     -24.067  37.189  22.067  1.00  0.00    -0.508 OA
ATOM     19  H   UNL     1     -23.441  37.925  22.373  1.00  0.00     0.293 HD
ENDBRANCH  15  18
ENDBRANCH   1  12
BRANCH   2  20
ATOM     20  O   UNL     1     -24.125  31.271  19.876  1.00  0.00    -0.502 OA
ATOM     21  H   UNL     1     -24.201  31.352  18.869  1.00  0.00     0.293 HD
ENDBRANCH   2  20
BRANCH   6  22
ATOM     22  O   UNL     1     -21.187  26.864  20.445  1.00  0.00    -0.507 OA
ATOM     23  H   UNL     1     -21.616  26.131  20.991  1.00  0.00     0.293 HD
ENDBRANCH   6  22
BRANCH   8  24
ATOM     24  O   UNL     1     -17.381  28.681  22.740  1.00  0.00    -0.508 OA
ATOM     25  H   UNL     1     -16.693  29.423  22.765  1.00  0.00     0.293 HD
ENDBRANCH   8  24
TORSDOF 5
ENDMDL
MODEL 4
REMARK VINA RESULT:    -4.189     10.065     12.111
REMARK INTER + INTRA:          -5.213
REMARK INTER:                  -5.035
REMARK INTRA:                  -0.177
REMARK UNBOUND:                -0.289
REMARK SMILES O=c1c(O)c(-c2ccc(O)cc2)oc2cc(O)cc(O)c12
REMARK SMILES IDX 5 1 3 2 2 3 1 4 21 5 19 6 18 7 16 8 15 9 14 10 13 11 6 12
REMARK SMILES IDX 7 13 8 14 9 15 12 16 11 17 10 18 4 20 20 22 17 24
REMARK H PARENT 10 19 4 21 20 23 17 25
REMARK Flexibility Score: inf
ROOT
ATOM      1  C   UNL     1     -21.763  23.859  13.680  1.00  0.00     0.180 A 
ATOM      2  C   UNL     1     -20.376  23.978  13.872  1.00  0.00     0.208 A 
ATOM      3  C   UNL     1     -19.849  23.797  15.161  1.00  0.00     0.238 A 
ATOM      4  O   UNL     1     -18.613  23.958  15.337  1.00  0.00    -0.285 OA
ATOM      5  C   UNL     1     -20.713  23.483  16.237  1.00  0.00     0.111 A 
ATOM      6  C   UNL     1     -20.283  23.239  17.576  1.00  0.00     0.134 A 
ATOM      7  C   UNL     1     -21.237  23.067  18.587  1.00  0.00     0.093 A 
ATOM      8  C   UNL     1     -22.604  23.064  18.295  1.00  0.00     0.123 A 
ATOM      9  C   UNL     1     -23.030  23.243  16.982  1.00  0.00     0.094 A 
ATOM     10  C   UNL     1     -22.104  23.453  15.957  1.00  0.00     0.146 A 
ATOM     11  O   UNL     1     -22.554  23.630  14.721  1.00  0.00    -0.452 OA
ENDROOT
BRANCH   1  12
ATOM     12  C   UNL     1     -22.389  24.012  12.347  1.00  0.00     0.021 A 
ATOM     13  C   UNL     1     -22.890  22.878  11.684  1.00  0.00     0.016 A 
ATOM     14  C   UNL     1     -23.466  22.996  10.416  1.00  0.00     0.047 A 
ATOM     15  C   UNL     1     -23.533  24.245   9.787  1.00  0.00     0.115 A 
ATOM     16  C   UNL     1     -22.443  25.260  11.700  1.00  0.00     0.016 A 
ATOM     17  C   UNL     1     -23.019  25.374  10.431  1.00  0.00     0.047 A 
BRANCH  15  18
ATOM     18  O   UNL     1     -24.105  24.374   8.522  1.00  0.00    -0.508 OA
ATOM     19  H   UNL     1     -24.159  23.589   7.884  1.00  0.00     0.293 HD
ENDBRANCH  15  18
ENDBRANCH   1  12
BRANCH   2  20
ATOM     20  O   UNL     1     -19.543  24.310  12.799  1.00  0.00    -0.502 OA
ATOM     21  H   UNL     1     -19.312  25.268  12.566  1.00  0.00     0.293 HD
ENDBRANCH   2  20
BRANCH   6  22
ATOM     22  O   UNL     1     -18.943  23.130  17.959  1.00  0.00    -0.507 OA
ATOM     23  H   UNL     1     -18.455  22.257  18.100  1.00  0.00     0.293 HD
ENDBRANCH   6  22
BRANCH   8  24
ATOM     24  O   UNL     1     -23.545  22.877  19.305  1.00  0.00    -0.508 OA
ATOM     25  H   UNL     1     -24.530  23.060  19.154  1.00  0.00     0.293 HD
ENDBRANCH   8  24
TORSDOF 5
ENDMDL
MODEL 5
REMARK VINA RESULT:    -4.086      1.534      2.962
REMARK INTER + INTRA:          -5.092
REMARK INTER:                  -5.017
REMARK INTRA:                  -0.075
REMARK UNBOUND:                -0.289
REMARK SMILES O=c1c(O)c(-c2ccc(O)cc2)oc2cc(O)cc(O)c12
REMARK SMILES IDX 5 1 3 2 2 3 1 4 21 5 19 6 18 7 16 8 15 9 14 10 13 11 6 12
REMARK SMILES IDX 7 13 8 14 9 15 12 16 11 17 10 18 4 20 20 22 17 24
REMARK H PARENT 10 19 4 21 20 23 17 25
REMARK Flexibility Score: inf
ROOT
ATOM      1  C   UNL     1     -21.302  32.456  22.088  1.00  0.00     0.180 A 
ATOM      2  C   UNL     1     -22.081  31.443  21.502  1.00  0.00     0.208 A 
ATOM      3  C   UNL     1     -21.634  30.114  21.568  1.00  0.00     0.238 A 
ATOM      4  O   UNL     1     -22.310  29.220  20.995  1.00  0.00    -0.285 OA
ATOM      5  C   UNL     1     -20.422  29.812  22.233  1.00  0.00     0.111 A 
ATOM      6  C   UNL     1     -19.894  28.495  22.396  1.00  0.00     0.134 A 
ATOM      7  C   UNL     1     -18.622  28.326  22.956  1.00  0.00     0.093 A 
ATOM      8  C   UNL     1     -17.887  29.422  23.420  1.00  0.00     0.123 A 
ATOM      9  C   UNL     1     -18.420  30.704  23.319  1.00  0.00     0.094 A 
ATOM     10  C   UNL     1     -19.671  30.908  22.732  1.00  0.00     0.146 A 
ATOM     11  O   UNL     1     -20.137  32.148  22.646  1.00  0.00    -0.452 OA
ENDROOT
BRANCH   1  12
ATOM     12  C   UNL     1     -21.719  33.876  22.080  1.00  0.00     0.021 A 
ATOM     13  C   UNL     1     -21.872  34.546  20.855  1.00  0.00     0.016 A 
ATOM     14  C   UNL     1     -22.245  35.893  20.825  1.00  0.00     0.047 A 
ATOM     15  C   UNL     1     -22.453  36.592  22.021  1.00  0.00     0.115 A 
ATOM     16  C   UNL     1     -21.911  34.590  23.278  1.00  0.00     0.016 A 
ATOM     17  C   UNL     1     -22.283  35.938  23.244  1.00  0.00     0.047 A 
BRANCH  15  18
ATOM     18  O   UNL     1     -22.824  37.935  22.004  1.00  0.00    -0.508 OA
ATOM     19  H   UNL     1     -22.152  38.667  21.807  1.00  0.00     0.293 HD
ENDBRANCH  15  18
ENDBRANCH   1  12
BRANCH   2  20
ATOM     20  O   UNL     1     -23.265  31.767  20.832  1.00  0.00    -0.502 OA
ATOM     21  H   UNL     1     -23.767  31.097  20.261  1.00  0.00     0.293 HD
ENDBRANCH   2  20
BRANCH   6  22
ATOM     22  O   UNL     1     -20.584  27.329  22.052  1.00  0.00    -0.507 OA
ATOM     23  H   UNL     1     -21.277  26.880  22.632  1.00  0.00     0.293 HD
ENDBRANCH   6  22
BRANCH   8  24
ATOM     24  O   UNL     1     -16.629  29.242  23.990  1.00  0.00    -0.508 OA
ATOM     25  H   UNL     1     -15.797  29.650  23.580  1.00  0.00     0.293 HD
ENDBRANCH   8  24
TORSDOF 5
ENDMDL
MODEL 6
REMARK VINA RESULT:    -4.018      2.988      5.748
REMARK INTER + INTRA:          -5.012
REMARK INTER:                  -4.834
REMARK INTRA:                  -0.177
REMARK UNBOUND:                -0.289
REMARK SMILES O=c1c(O)c(-c2ccc(O)cc2)oc2cc(O)cc(O)c12
REMARK SMILES IDX 5 1 3 2 2 3 1 4 21 5 19 6 18 7 16 8 15 9 14 10 13 11 6 12
REMARK SMILES IDX 7 13 8 14 9 15 12 16 11 17 10 18 4 20 20 22 17 24
REMARK H PARENT 10 19 4 21 20 23 17 25
REMARK Flexibility Score: inf
ROOT
ATOM      1  C   UNL     1     -20.175  27.587  21.185  1.00  0.00     0.180 A 
ATOM      2  C   UNL     1     -20.428  26.661  20.158  1.00  0.00     0.208 A 
ATOM      3  C   UNL     1     -19.616  25.520  20.053  1.00  0.00     0.238 A 
ATOM      4  O   UNL     1     -19.814  24.723  19.100  1.00  0.00    -0.285 OA
ATOM      5  C   UNL     1     -18.572  25.312  20.985  1.00  0.00     0.111 A 
ATOM      6  C   UNL     1     -17.714  24.171  20.999  1.00  0.00     0.134 A 
ATOM      7  C   UNL     1     -16.630  24.132  21.885  1.00  0.00     0.093 A 
ATOM      8  C   UNL     1     -16.415  25.163  22.805  1.00  0.00     0.123 A 
ATOM      9  C   UNL     1     -17.282  26.251  22.840  1.00  0.00     0.094 A 
ATOM     10  C   UNL     1     -18.350  26.336  21.943  1.00  0.00     0.146 A 
ATOM     11  O   UNL     1     -19.147  27.396  22.003  1.00  0.00    -0.452 OA
ENDROOT
BRANCH   1  12
ATOM     12  C   UNL     1     -21.003  28.799  21.375  1.00  0.00     0.021 A 
ATOM     13  C   UNL     1     -20.417  30.068  21.227  1.00  0.00     0.016 A 
ATOM     14  C   UNL     1     -21.175  31.226  21.422  1.00  0.00     0.047 A 
ATOM     15  C   UNL     1     -22.525  31.130  21.785  1.00  0.00     0.115 A 
ATOM     16  C   UNL     1     -22.354  28.712  21.758  1.00  0.00     0.016 A 
ATOM     17  C   UNL     1     -23.109  29.872  21.955  1.00  0.00     0.047 A 
BRANCH  15  18
ATOM     18  O   UNL     1     -23.290  32.278  21.984  1.00  0.00    -0.508 OA
ATOM     19  H   UNL     1     -23.014  33.172  21.594  1.00  0.00     0.293 HD
ENDBRANCH  15  18
ENDBRANCH   1  12
BRANCH   2  20
ATOM     20  O   UNL     1     -21.452  26.897  19.235  1.00  0.00    -0.502 OA
ATOM     21  H   UNL     1     -21.464  26.471  18.316  1.00  0.00     0.293 HD
ENDBRANCH   2  20
BRANCH   6  22
ATOM     22  O   UNL     1     -17.895  23.048  20.187  1.00  0.00    -0.507 OA
ATOM     23  H   UNL     1     -18.783  22.597  20.019  1.00  0.00     0.293 HD
ENDBRANCH   6  22
BRANCH   8  24
ATOM     24  O   UNL     1     -15.344  25.108  23.694  1.00  0.00    -0.508 OA
ATOM     25  H   UNL     1     -15.144  24.274  24.233  1.00  0.00     0.293 HD
ENDBRANCH   8  24
TORSDOF 5
ENDMDL
MODEL 7
REMARK VINA RESULT:    -3.958      1.915      7.066
REMARK INTER + INTRA:          -4.941
REMARK INTER:                  -4.642
REMARK INTRA:                  -0.299
REMARK UNBOUND:                -0.289
REMARK SMILES O=c1c(O)c(-c2ccc(O)cc2)oc2cc(O)cc(O)c12
REMARK SMILES IDX 5 1 3 2 2 3 1 4 21 5 19 6 18 7 16 8 15 9 14 10 13 11 6 12
REMARK SMILES IDX 7 13 8 14 9 15 12 16 11 17 10 18 4 20 20 22 17 24
REMARK H PARENT 10 19 4 21 20 23 17 25
REMARK Flexibility Score: inf
ROOT
ATOM      1  C   UNL     1     -20.971  30.751  21.985  1.00  0.00     0.180 A 
ATOM      2  C   UNL     1     -22.038  30.613  21.081  1.00  0.00     0.208 A 
ATOM      3  C   UNL     1     -22.799  31.745  20.746  1.00  0.00     0.238 A 
ATOM      4  O   UNL     1     -23.786  31.604  19.978  1.00  0.00    -0.285 OA
ATOM      5  C   UNL     1     -22.473  33.003  21.307  1.00  0.00     0.111 A 
ATOM      6  C   UNL     1     -23.150  34.223  21.007  1.00  0.00     0.134 A 
ATOM      7  C   UNL     1     -22.827  35.385  21.721  1.00  0.00     0.093 A 
ATOM      8  C   UNL     1     -21.806  35.384  22.675  1.00  0.00     0.123 A 
ATOM      9  C   UNL     1     -21.100  34.212  22.932  1.00  0.00     0.094 A 
ATOM     10  C   UNL     1     -21.423  33.029  22.262  1.00  0.00     0.146 A 
ATOM     11  O   UNL     1     -20.732  31.931  22.545  1.00  0.00    -0.452 OA
ENDROOT
BRANCH   1  12
ATOM     12  C   UNL     1     -20.109  29.610  22.367  1.00  0.00     0.021 A 
ATOM     13  C   UNL     1     -20.396  28.887  23.537  1.00  0.00     0.016 A 
ATOM     14  C   UNL     1     -19.582  27.819  23.928  1.00  0.00     0.047 A 
ATOM     15  C   UNL     1     -18.463  27.471  23.162  1.00  0.00     0.115 A 
ATOM     16  C   UNL     1     -18.972  29.265  21.613  1.00  0.00     0.016 A 
ATOM     17  C   UNL     1     -18.160  28.198  22.008  1.00  0.00     0.047 A 
BRANCH  15  18
ATOM     18  O   UNL     1     -17.644  26.409  23.542  1.00  0.00    -0.508 OA
ATOM     19  H   UNL     1     -17.969  25.450  23.502  1.00  0.00     0.293 HD
ENDBRANCH  15  18
ENDBRANCH   1  12
BRANCH   2  20
ATOM     20  O   UNL     1     -22.356  29.357  20.555  1.00  0.00    -0.502 OA
ATOM     21  H   UNL     1     -22.829  29.244  19.666  1.00  0.00     0.293 HD
ENDBRANCH   2  20
BRANCH   6  22
ATOM     22  O   UNL     1     -24.120  34.354  20.009  1.00  0.00    -0.507 OA
ATOM     23  H   UNL     1     -23.923  34.573  19.044  1.00  0.00     0.293 HD
ENDBRANCH   6  22
BRANCH   8  24
ATOM     24  O   UNL     1     -21.482  36.548  23.368  1.00  0.00    -0.508 OA
ATOM     25  H   UNL     1     -20.520  36.817  23.534  1.00  0.00     0.293 HD
ENDBRANCH   8  24
TORSDOF 5
ENDMDL
MODEL 8
REMARK VINA RESULT:    -3.952      2.027      4.183
REMARK INTER + INTRA:          -4.934
REMARK INTER:                  -4.691
REMARK INTRA:                  -0.243
REMARK UNBOUND:                -0.289
REMARK SMILES O=c1c(O)c(-c2ccc(O)cc2)oc2cc(O)cc(O)c12
REMARK SMILES IDX 5 1 3 2 2 3 1 4 21 5 19 6 18 7 16 8 15 9 14 10 13 11 6 12
REMARK SMILES IDX 7 13 8 14 9 15 12 16 11 17 10 18 4 20 20 22 17 24
REMARK H PARENT 10 19 4 21 20 23 17 25
REMARK Flexibility Score: inf
ROOT
ATOM      1  C   UNL     1     -22.317  35.056  22.012  1.00  0.00     0.180 A 
ATOM      2  C   UNL     1     -23.071  34.197  21.193  1.00  0.00     0.208 A 
ATOM      3  C   UNL     1     -22.726  32.837  21.132  1.00  0.00     0.238 A 
ATOM      4  O   UNL     1     -23.371  32.084  20.356  1.00  0.00    -0.285 OA
ATOM      5  C   UNL     1     -21.642  32.351  21.901  1.00  0.00     0.111 A 
ATOM      6  C   UNL     1     -21.230  30.985  21.947  1.00  0.00     0.134 A 
ATOM      7  C   UNL     1     -20.063  30.639  22.639  1.00  0.00     0.093 A 
ATOM      8  C   UNL     1     -19.331  31.599  23.343  1.00  0.00     0.123 A 
ATOM      9  C   UNL     1     -19.759  32.924  23.354  1.00  0.00     0.094 A 
ATOM     10  C   UNL     1     -20.899  33.306  22.642  1.00  0.00     0.146 A 
ATOM     11  O   UNL     1     -21.266  34.582  22.670  1.00  0.00    -0.452 OA
ENDROOT
BRANCH   1  12
ATOM     12  C   UNL     1     -22.636  36.495  22.148  1.00  0.00     0.021 A 
ATOM     13  C   UNL     1     -23.339  36.944  23.279  1.00  0.00     0.016 A 
ATOM     14  C   UNL     1     -23.670  38.295  23.417  1.00  0.00     0.047 A 
ATOM     15  C   UNL     1     -23.316  39.212  22.419  1.00  0.00     0.115 A 
ATOM     16  C   UNL     1     -22.301  37.419  21.141  1.00  0.00     0.016 A 
ATOM     17  C   UNL     1     -22.634  38.770  21.282  1.00  0.00     0.047 A 
BRANCH  15  18
ATOM     18  O   UNL     1     -23.641  40.561  22.547  1.00  0.00    -0.508 OA
ATOM     19  H   UNL     1     -23.444  41.075  23.398  1.00  0.00     0.293 HD
ENDBRANCH  15  18
ENDBRANCH   1  12
BRANCH   2  20
ATOM     20  O   UNL     1     -24.125  34.702  20.426  1.00  0.00    -0.502 OA
ATOM     21  H   UNL     1     -23.988  35.074  19.493  1.00  0.00     0.293 HD
ENDBRANCH   2  20
BRANCH   6  22
ATOM     22  O   UNL     1     -21.938  29.935  21.356  1.00  0.00    -0.507 OA
ATOM     23  H   UNL     1     -21.631  28.973  21.338  1.00  0.00     0.293 HD
ENDBRANCH   6  22
BRANCH   8  24
ATOM     24  O   UNL     1     -18.180  31.243  24.042  1.00  0.00    -0.508 OA
ATOM     25  H   UNL     1     -17.983  31.612  24.965  1.00  0.00     0.293 HD
ENDBRANCH   8  24
TORSDOF 5
ENDMDL
MODEL 9
REMARK VINA RESULT:    -3.905      3.777      9.063
REMARK INTER + INTRA:          -4.879
REMARK INTER:                  -5.187
REMARK INTRA:                   0.308
REMARK UNBOUND:                -0.289
REMARK SMILES O=c1c(O)c(-c2ccc(O)cc2)oc2cc(O)cc(O)c12
REMARK SMILES IDX 5 1 3 2 2 3 1 4 21 5 19 6 18 7 16 8 15 9 14 10 13 11 6 12
REMARK SMILES IDX 7 13 8 14 9 15 12 16 11 17 10 18 4 20 20 22 17 24
REMARK H PARENT 10 19 4 21 20 23 17 25
REMARK Flexibility Score: inf
ROOT
ATOM      1  C   UNL     1     -18.562  25.682  21.302  1.00  0.00     0.180 A 
ATOM      2  C   UNL     1     -19.563  25.050  20.543  1.00  0.00     0.208 A 
ATOM      3  C   UNL     1     -20.627  25.819  20.044  1.00  0.00     0.238 A 
ATOM      4  O   UNL     1     -21.547  25.238  19.412  1.00  0.00    -0.285 OA
ATOM      5  C   UNL     1     -20.668  27.211  20.296  1.00  0.00     0.111 A 
ATOM      6  C   UNL     1     -21.677  28.094  19.805  1.00  0.00     0.134 A 
ATOM      7  C   UNL     1     -21.690  29.429  20.225  1.00  0.00     0.093 A 
ATOM      8  C   UNL     1     -20.692  29.930  21.066  1.00  0.00     0.123 A 
ATOM      9  C   UNL     1     -19.670  29.091  21.503  1.00  0.00     0.094 A 
ATOM     10  C   UNL     1     -19.650  27.745  21.129  1.00  0.00     0.146 A 
ATOM     11  O   UNL     1     -18.664  26.977  21.577  1.00  0.00    -0.452 OA
ENDROOT
BRANCH   1  12
ATOM     12  C   UNL     1     -17.398  24.943  21.840  1.00  0.00     0.021 A 
ATOM     13  C   UNL     1     -16.728  25.437  22.973  1.00  0.00     0.016 A 
ATOM     14  C   UNL     1     -15.613  24.767  23.485  1.00  0.00     0.047 A 
ATOM     15  C   UNL     1     -15.143  23.605  22.861  1.00  0.00     0.115 A 
ATOM     16  C   UNL     1     -16.907  23.785  21.208  1.00  0.00     0.016 A 
ATOM     17  C   UNL     1     -15.791  23.119  21.722  1.00  0.00     0.047 A 
BRANCH  15  18
ATOM     18  O   UNL     1     -14.031  22.929  23.362  1.00  0.00    -0.508 OA
ATOM     19  H   UNL     1     -13.646  22.121  22.888  1.00  0.00     0.293 HD
ENDBRANCH  15  18
ENDBRANCH   1  12
BRANCH   2  20
ATOM     20  O   UNL     1     -19.514  23.670  20.325  1.00  0.00    -0.502 OA
ATOM     21  H   UNL     1     -19.435  23.269  19.397  1.00  0.00     0.293 HD
ENDBRANCH   2  20
BRANCH   6  22
ATOM     22  O   UNL     1     -22.664  27.719  18.889  1.00  0.00    -0.507 OA
ATOM     23  H   UNL     1     -23.384  27.034  19.070  1.00  0.00     0.293 HD
ENDBRANCH   6  22
BRANCH   8  24
ATOM     24  O   UNL     1     -20.705  31.264  21.467  1.00  0.00    -0.508 OA
ATOM     25  H   UNL     1     -19.876  31.844  21.409  1.00  0.00     0.293 HD
ENDBRANCH   8  24
TORSDOF 5
ENDMDL
