MODEL 1
REMARK VINA RESULT:    -2.077      0.000      0.000
REMARK INTER + INTRA:          -2.735
REMARK INTER:                  -2.563
REMARK INTRA:                  -0.172
REMARK UNBOUND:                -0.172
REMARK SMILES CCCCC=CC(C)=O
REMARK SMILES IDX 4 1 3 2 2 3 1 4 5 5 6 6 7 7 9 8 8 9
REMARK H PARENT
REMARK Flexibility Score: inf
ROOT
ATOM      1  C   UNL     1      91.928  17.186 120.460  1.00  0.00     0.027 C 
ENDROOT
BRANCH   1   2
ATOM      2  C   UNL     1      90.771  18.111 120.053  1.00  0.00     0.004 C 
BRANCH   2   3
ATOM      3  C   UNL     1      89.673  18.187 121.125  1.00  0.00    -0.003 C 
ATOM      4  C   UNL     1      88.297  18.499 120.539  1.00  0.00     0.004 C 
ENDBRANCH   2   3
ENDBRANCH   1   2
BRANCH   1   5
ATOM      5  C   UNL     1      92.725  16.747 119.261  1.00  0.00    -0.023 C 
ATOM      6  C   UNL     1      93.896  16.087 119.291  1.00  0.00     0.042 C 
BRANCH   6   7
ATOM      7  C   UNL     1      94.619  15.627 120.500  1.00  0.00     0.152 C 
ATOM      8  O   UNL     1      95.502  16.334 121.053  1.00  0.00    -0.295 OA
ATOM      9  C   UNL     1      94.251  14.316 121.116  1.00  0.00     0.093 C 
ENDBRANCH   6   7
ENDBRANCH   1   5
TORSDOF 4
ENDMDL
MODEL 2
REMARK VINA RESULT:    -1.821      4.023      7.285
REMARK INTER + INTRA:          -2.419
REMARK INTER:                  -2.740
REMARK INTRA:                   0.321
REMARK UNBOUND:                -0.172
REMARK SMILES CCCCC=CC(C)=O
REMARK SMILES IDX 4 1 3 2 2 3 1 4 5 5 6 6 7 7 9 8 8 9
REMARK H PARENT
REMARK Flexibility Score: inf
ROOT
ATOM      1  C   UNL     1      88.070  18.240 120.337  1.00  0.00     0.027 C 
ENDROOT
BRANCH   1   2
ATOM      2  C   UNL     1      89.402  18.154 121.098  1.00  0.00     0.004 C 
BRANCH   2   3
ATOM      3  C   UNL     1      90.612  18.049 120.156  1.00  0.00    -0.003 C 
ATOM      4  C   UNL     1      91.917  17.772 120.901  1.00  0.00     0.004 C 
ENDBRANCH   2   3
ENDBRANCH   1   2
BRANCH   1   5
ATOM      5  C   UNL     1      87.116  19.190 121.010  1.00  0.00    -0.023 C 
ATOM      6  C   UNL     1      85.788  19.024 121.125  1.00  0.00     0.042 C 
BRANCH   6   7
ATOM      7  C   UNL     1      84.999  17.865 120.647  1.00  0.00     0.152 C 
ATOM      8  O   UNL     1      85.516  16.953 119.949  1.00  0.00    -0.295 OA
ATOM      9  C   UNL     1      83.565  17.742 121.050  1.00  0.00     0.093 C 
ENDBRANCH   6   7
ENDBRANCH   1   5
TORSDOF 4
ENDMDL
MODEL 3
REMARK VINA RESULT:    -1.630      1.912      4.960
REMARK INTER + INTRA:          -2.183
REMARK INTER:                  -2.190
REMARK INTRA:                   0.007
REMARK UNBOUND:                -0.172
REMARK SMILES CCCCC=CC(C)=O
REMARK SMILES IDX 4 1 3 2 2 3 1 4 5 5 6 6 7 7 9 8 8 9
REMARK H PARENT
REMARK Flexibility Score: inf
ROOT
ATOM      1  C   UNL     1      93.567  15.856 119.492  1.00  0.00     0.027 C 
ENDROOT
BRANCH   1   2
ATOM      2  C   UNL     1      94.242  14.484 119.644  1.00  0.00     0.004 C 
BRANCH   2   3
ATOM      3  C   UNL     1      94.152  13.939 121.077  1.00  0.00    -0.003 C 
ATOM      4  C   UNL     1      94.072  12.414 121.125  1.00  0.00     0.004 C 
ENDBRANCH   2   3
ENDBRANCH   1   2
BRANCH   1   5
ATOM      5  C   UNL     1      93.359  16.514 120.830  1.00  0.00    -0.023 C 
ATOM      6  C   UNL     1      92.411  17.420 121.125  1.00  0.00     0.042 C 
BRANCH   6   7
ATOM      7  C   UNL     1      91.362  17.928 120.211  1.00  0.00     0.152 C 
ATOM      8  O   UNL     1      91.601  18.177 118.999  1.00  0.00    -0.295 OA
ATOM      9  C   UNL     1      89.967  18.093 120.721  1.00  0.00     0.093 C 
ENDBRANCH   6   7
ENDBRANCH   1   5
TORSDOF 4
ENDMDL
MODEL 4
REMARK VINA RESULT:    -0.920      1.548      2.419
REMARK INTER + INTRA:          -1.307
REMARK INTER:                  -1.027
REMARK INTRA:                  -0.280
REMARK UNBOUND:                -0.172
REMARK SMILES CCCCC=CC(C)=O
REMARK SMILES IDX 4 1 3 2 2 3 1 4 5 5 6 6 7 7 9 8 8 9
REMARK H PARENT
REMARK Flexibility Score: inf
ROOT
ATOM      1  C   UNL     1      93.168  16.628 120.927  1.00  0.00     0.027 C 
ENDROOT
BRANCH   1   2
ATOM      2  C   UNL     1      92.504  16.876 119.564  1.00  0.00     0.004 C 
BRANCH   2   3
ATOM      3  C   UNL     1      91.587  18.109 119.572  1.00  0.00    -0.003 C 
ATOM      4  C   UNL     1      90.629  18.125 120.763  1.00  0.00     0.004 C 
ENDBRANCH   2   3
ENDBRANCH   1   2
BRANCH   1   5
ATOM      5  C   UNL     1      94.007  15.379 120.906  1.00  0.00    -0.023 C 
ATOM      6  C   UNL     1      95.299  15.302 120.543  1.00  0.00     0.042 C 
BRANCH   6   7
ATOM      7  C   UNL     1      96.166  16.428 120.126  1.00  0.00     0.152 C 
ATOM      8  O   UNL     1      96.111  16.912 118.964  1.00  0.00    -0.295 OA
ATOM      9  C   UNL     1      97.089  17.047 121.124  1.00  0.00     0.093 C 
ENDBRANCH   6   7
ENDBRANCH   1   5
TORSDOF 4
ENDMDL
MODEL 5
REMARK VINA RESULT:    -0.737      1.533      2.097
REMARK INTER + INTRA:          -1.082
REMARK INTER:                  -1.138
REMARK INTRA:                   0.057
REMARK UNBOUND:                -0.172
REMARK SMILES CCCCC=CC(C)=O
REMARK SMILES IDX 4 1 3 2 2 3 1 4 5 5 6 6 7 7 9 8 8 9
REMARK H PARENT
REMARK Flexibility Score: inf
ROOT
ATOM      1  C   UNL     1      90.555  17.766 120.407  1.00  0.00     0.027 C 
ENDROOT
BRANCH   1   2
ATOM      2  C   UNL     1      89.466  18.577 121.124  1.00  0.00     0.004 C 
BRANCH   2   3
ATOM      3  C   UNL     1      88.048  18.154 120.710  1.00  0.00    -0.003 C 
ATOM      4  C   UNL     1      87.007  19.242 120.970  1.00  0.00     0.004 C 
ENDBRANCH   2   3
ENDBRANCH   1   2
BRANCH   1   5
ATOM      5  C   UNL     1      91.874  17.867 121.124  1.00  0.00    -0.023 C 
ATOM      6  C   UNL     1      92.998  17.202 120.807  1.00  0.00     0.042 C 
BRANCH   6   7
ATOM      7  C   UNL     1      93.178  16.265 119.673  1.00  0.00     0.152 C 
ATOM      8  O   UNL     1      92.749  16.531 118.519  1.00  0.00    -0.295 OA
ATOM      9  C   UNL     1      93.940  14.998 119.887  1.00  0.00     0.093 C 
ENDBRANCH   6   7
ENDBRANCH   1   5
TORSDOF 4
ENDMDL
MODEL 6
REMARK VINA RESULT:    -0.218     14.101     14.724
REMARK INTER + INTRA:          -0.442
REMARK INTER:                  -0.408
REMARK INTRA:                  -0.034
REMARK UNBOUND:                -0.172
REMARK SMILES CCCCC=CC(C)=O
REMARK SMILES IDX 4 1 3 2 2 3 1 4 5 5 6 6 7 7 9 8 8 9
REMARK H PARENT
REMARK Flexibility Score: inf
ROOT
ATOM      1  C   UNL     1      88.281   8.050 110.089  1.00  0.00     0.027 C 
ENDROOT
BRANCH   1   2
ATOM      2  C   UNL     1      87.137   7.605 111.012  1.00  0.00     0.004 C 
BRANCH   2   3
ATOM      3  C   UNL     1      87.643   6.894 112.277  1.00  0.00    -0.003 C 
ATOM      4  C   UNL     1      86.609   6.882 113.402  1.00  0.00     0.004 C 
ENDBRANCH   2   3
ENDBRANCH   1   2
BRANCH   1   5
ATOM      5  C   UNL     1      89.107   6.875 109.636  1.00  0.00    -0.023 C 
ATOM      6  C   UNL     1      90.068   6.902 108.697  1.00  0.00     0.042 C 
BRANCH   6   7
ATOM      7  C   UNL     1      90.534   8.090 107.945  1.00  0.00     0.152 C 
ATOM      8  O   UNL     1      90.818   9.172 108.525  1.00  0.00    -0.295 OA
ATOM      9  C   UNL     1      90.729   7.988 106.467  1.00  0.00     0.093 C 
ENDBRANCH   6   7
ENDBRANCH   1   5
TORSDOF 4
ENDMDL
MODEL 7
REMARK VINA RESULT:     0.395      2.758      4.610
REMARK INTER + INTRA:           0.316
REMARK INTER:                   0.369
REMARK INTRA:                  -0.053
REMARK UNBOUND:                -0.172
REMARK SMILES CCCCC=CC(C)=O
REMARK SMILES IDX 4 1 3 2 2 3 1 4 5 5 6 6 7 7 9 8 8 9
REMARK H PARENT
REMARK Flexibility Score: inf
ROOT
ATOM      1  C   UNL     1      87.693  17.806 120.310  1.00  0.00     0.027 C 
ENDROOT
BRANCH   1   2
ATOM      2  C   UNL     1      86.230  17.985 120.744  1.00  0.00     0.004 C 
BRANCH   2   3
ATOM      3  C   UNL     1      85.341  16.807 120.318  1.00  0.00    -0.003 C 
ATOM      4  C   UNL     1      83.861  17.049 120.610  1.00  0.00     0.004 C 
ENDBRANCH   2   3
ENDBRANCH   1   2
BRANCH   1   5
ATOM      5  C   UNL     1      88.610  18.708 121.091  1.00  0.00    -0.023 C 
ATOM      6  C   UNL     1      89.951  18.632 121.125  1.00  0.00     0.042 C 
BRANCH   6   7
ATOM      7  C   UNL     1      90.799  17.673 120.378  1.00  0.00     0.152 C 
ATOM      8  O   UNL     1      90.742  17.574 119.124  1.00  0.00    -0.295 OA
ATOM      9  C   UNL     1      91.792  16.842 121.125  1.00  0.00     0.093 C 
ENDBRANCH   6   7
ENDBRANCH   1   5
TORSDOF 4
ENDMDL
