MODEL 1
REMARK VINA RESULT:    -3.121      0.000      0.000
REMARK INTER + INTRA:          -7.677
REMARK INTER:                  -5.675
REMARK INTRA:                  -2.002
REMARK UNBOUND:                -2.002
REMARK SMILES CCCCCCCCCCCCCCCC(=O)[O-]
REMARK SMILES IDX 9 1 10 2 11 3 12 4 13 5 14 6 15 7 16 8 17 9 18 10 8 11 7 12
REMARK SMILES IDX 6 13 5 14 4 15 3 16 2 17 1 18
REMARK H PARENT
REMARK Flexibility Score: inf
ROOT
ATOM      1  C   UNL     1      12.437  24.850  97.396  1.00  0.00     0.000 C 
ENDROOT
BRANCH   1   2
ATOM      2  C   UNL     1      11.706  24.688  96.057  1.00  0.00     0.000 C 
BRANCH   2   3
ATOM      3  C   UNL     1      10.720  25.839  95.825  1.00  0.00     0.000 C 
BRANCH   3   4
ATOM      4  C   UNL     1      10.792  26.344  94.380  1.00  0.00     0.000 C 
BRANCH   4   5
ATOM      5  C   UNL     1      11.884  25.604  93.593  1.00  0.00     0.000 C 
BRANCH   5   6
ATOM      6  C   UNL     1      11.452  25.263  92.158  1.00  0.00     0.006 C 
BRANCH   6   7
ATOM      7  C   UNL     1      10.524  24.042  92.094  1.00  0.00     0.053 C 
BRANCH   7   8
ATOM      8  C   UNL     1      11.261  22.804  92.496  1.00  0.00     0.041 C 
ATOM      9  O   UNL     1      10.783  22.039  93.374  1.00  0.00    -0.550 OA
ATOM     10  O   UNL     1      12.500  22.519  91.937  1.00  0.00    -0.550 OA
ENDBRANCH   7   8
ENDBRANCH   6   7
ENDBRANCH   5   6
ENDBRANCH   4   5
ENDBRANCH   3   4
ENDBRANCH   2   3
ENDBRANCH   1   2
BRANCH   1  11
ATOM     11  C   UNL     1      11.989  26.127  98.118  1.00  0.00     0.000 C 
BRANCH  11  12
ATOM     12  C   UNL     1      12.890  26.420  99.327  1.00  0.00    -0.000 C 
BRANCH  12  13
ATOM     13  C   UNL     1      14.022  25.391  99.498  1.00  0.00    -0.000 C 
BRANCH  13  14
ATOM     14  C   UNL     1      15.449  25.958  99.375  1.00  0.00    -0.000 C 
BRANCH  14  15
ATOM     15  C   UNL     1      16.323  25.174  98.381  1.00  0.00    -0.000 C 
BRANCH  15  16
ATOM     16  C   UNL     1      16.141  25.639  96.925  1.00  0.00    -0.000 C 
BRANCH  16  17
ATOM     17  C   UNL     1      15.428  26.994  96.757  1.00  0.00    -0.003 C 
ATOM     18  C   UNL     1      14.698  27.125  95.420  1.00  0.00     0.004 C 
ENDBRANCH  16  17
ENDBRANCH  15  16
ENDBRANCH  14  15
ENDBRANCH  13  14
ENDBRANCH  12  13
ENDBRANCH  11  12
ENDBRANCH   1  11
TORSDOF 14
ENDMDL
MODEL 2
REMARK VINA RESULT:    -2.903      2.600      6.539
REMARK INTER + INTRA:          -7.282
REMARK INTER:                  -5.874
REMARK INTRA:                  -1.408
REMARK UNBOUND:                -2.002
REMARK SMILES CCCCCCCCCCCCCCCC(=O)[O-]
REMARK SMILES IDX 9 1 10 2 11 3 12 4 13 5 14 6 15 7 16 8 17 9 18 10 8 11 7 12
REMARK SMILES IDX 6 13 5 14 4 15 3 16 2 17 1 18
REMARK H PARENT
REMARK Flexibility Score: inf
ROOT
ATOM      1  C   UNL     1      12.215  24.686  96.465  1.00  0.00     0.000 C 
ENDROOT
BRANCH   1   2
ATOM      2  C   UNL     1      12.409  25.076  97.936  1.00  0.00     0.000 C 
BRANCH   2   3
ATOM      3  C   UNL     1      12.731  26.568  98.072  1.00  0.00     0.000 C 
BRANCH   3   4
ATOM      4  C   UNL     1      12.927  26.958  99.542  1.00  0.00     0.000 C 
BRANCH   4   5
ATOM      5  C   UNL     1      14.227  26.359 100.100  1.00  0.00     0.000 C 
BRANCH   5   6
ATOM      6  C   UNL     1      15.428  26.578  99.166  1.00  0.00     0.006 C 
BRANCH   6   7
ATOM      7  C   UNL     1      16.111  25.264  98.763  1.00  0.00     0.053 C 
BRANCH   7   8
ATOM      8  C   UNL     1      16.613  25.345  97.357  1.00  0.00     0.041 C 
ATOM      9  O   UNL     1      17.681  24.764  97.030  1.00  0.00    -0.550 OA
ATOM     10  O   UNL     1      15.928  26.103  96.416  1.00  0.00    -0.550 OA
ENDBRANCH   7   8
ENDBRANCH   6   7
ENDBRANCH   5   6
ENDBRANCH   4   5
ENDBRANCH   3   4
ENDBRANCH   2   3
ENDBRANCH   1   2
BRANCH   1  11
ATOM     11  C   UNL     1      10.921  25.286  95.902  1.00  0.00     0.000 C 
BRANCH  11  12
ATOM     12  C   UNL     1      11.222  26.272  94.764  1.00  0.00    -0.000 C 
BRANCH  12  13
ATOM     13  C   UNL     1      10.112  26.320  93.698  1.00  0.00    -0.000 C 
BRANCH  13  14
ATOM     14  C   UNL     1      10.577  26.063  92.252  1.00  0.00    -0.000 C 
BRANCH  14  15
ATOM     15  C   UNL     1      10.651  24.568  91.901  1.00  0.00    -0.000 C 
BRANCH  15  16
ATOM     16  C   UNL     1      12.078  23.997  92.002  1.00  0.00    -0.000 C 
BRANCH  16  17
ATOM     17  C   UNL     1      12.161  22.514  92.407  1.00  0.00    -0.003 C 
ATOM     18  C   UNL     1      11.509  22.225  93.759  1.00  0.00     0.004 C 
ENDBRANCH  16  17
ENDBRANCH  15  16
ENDBRANCH  14  15
ENDBRANCH  13  14
ENDBRANCH  12  13
ENDBRANCH  11  12
ENDBRANCH   1  11
TORSDOF 14
ENDMDL
MODEL 3
REMARK VINA RESULT:    -2.893      1.166      2.202
REMARK INTER + INTRA:          -7.263
REMARK INTER:                  -5.510
REMARK INTRA:                  -1.754
REMARK UNBOUND:                -2.002
REMARK SMILES CCCCCCCCCCCCCCCC(=O)[O-]
REMARK SMILES IDX 9 1 10 2 11 3 12 4 13 5 14 6 15 7 16 8 17 9 18 10 8 11 7 12
REMARK SMILES IDX 6 13 5 14 4 15 3 16 2 17 1 18
REMARK H PARENT
REMARK Flexibility Score: inf
ROOT
ATOM      1  C   UNL     1      11.750  24.972  96.027  1.00  0.00     0.000 C 
ENDROOT
BRANCH   1   2
ATOM      2  C   UNL     1      10.495  25.279  95.201  1.00  0.00     0.000 C 
BRANCH   2   3
ATOM      3  C   UNL     1      10.841  26.115  93.964  1.00  0.00     0.000 C 
BRANCH   3   4
ATOM      4  C   UNL     1      12.343  26.058  93.661  1.00  0.00     0.000 C 
BRANCH   4   5
ATOM      5  C   UNL     1      12.598  25.495  92.254  1.00  0.00     0.000 C 
BRANCH   5   6
ATOM      6  C   UNL     1      11.657  24.332  91.902  1.00  0.00     0.006 C 
BRANCH   6   7
ATOM      7  C   UNL     1      12.259  22.961  92.239  1.00  0.00     0.053 C 
BRANCH   7   8
ATOM      8  C   UNL     1      11.382  22.228  93.203  1.00  0.00     0.041 C 
ATOM      9  O   UNL     1      10.195  21.947  92.892  1.00  0.00    -0.550 OA
ATOM     10  O   UNL     1      11.859  21.896  94.465  1.00  0.00    -0.550 OA
ENDBRANCH   7   8
ENDBRANCH   6   7
ENDBRANCH   5   6
ENDBRANCH   4   5
ENDBRANCH   3   4
ENDBRANCH   2   3
ENDBRANCH   1   2
BRANCH   1  11
ATOM     11  C   UNL     1      11.487  25.171  97.525  1.00  0.00     0.000 C 
BRANCH  11  12
ATOM     12  C   UNL     1      12.585  26.034  98.166  1.00  0.00    -0.000 C 
BRANCH  12  13
ATOM     13  C   UNL     1      13.142  27.107  97.213  1.00  0.00    -0.000 C 
BRANCH  13  14
ATOM     14  C   UNL     1      14.629  26.949  96.843  1.00  0.00    -0.000 C 
BRANCH  14  15
ATOM     15  C   UNL     1      15.140  25.508  97.009  1.00  0.00    -0.000 C 
BRANCH  15  16
ATOM     16  C   UNL     1      16.624  25.440  97.412  1.00  0.00    -0.000 C 
BRANCH  16  17
ATOM     17  C   UNL     1      16.886  25.004  98.865  1.00  0.00    -0.003 C 
ATOM     18  C   UNL     1      15.641  24.453  99.560  1.00  0.00     0.004 C 
ENDBRANCH  16  17
ENDBRANCH  15  16
ENDBRANCH  14  15
ENDBRANCH  13  14
ENDBRANCH  12  13
ENDBRANCH  11  12
ENDBRANCH   1  11
TORSDOF 14
ENDMDL
MODEL 4
REMARK VINA RESULT:    -2.606      0.856      2.303
REMARK INTER + INTRA:          -6.741
REMARK INTER:                  -5.186
REMARK INTRA:                  -1.555
REMARK UNBOUND:                -2.002
REMARK SMILES CCCCCCCCCCCCCCCC(=O)[O-]
REMARK SMILES IDX 9 1 10 2 11 3 12 4 13 5 14 6 15 7 16 8 17 9 18 10 8 11 7 12
REMARK SMILES IDX 6 13 5 14 4 15 3 16 2 17 1 18
REMARK H PARENT
REMARK Flexibility Score: inf
ROOT
ATOM      1  C   UNL     1      12.388  25.407  96.622  1.00  0.00     0.000 C 
ENDROOT
BRANCH   1   2
ATOM      2  C   UNL     1      11.135  25.202  95.762  1.00  0.00     0.000 C 
BRANCH   2   3
ATOM      3  C   UNL     1      10.676  26.522  95.133  1.00  0.00     0.000 C 
BRANCH   3   4
ATOM      4  C   UNL     1      10.616  26.415  93.605  1.00  0.00     0.000 C 
BRANCH   4   5
ATOM      5  C   UNL     1      11.904  25.789  93.048  1.00  0.00     0.000 C 
BRANCH   5   6
ATOM      6  C   UNL     1      11.639  24.833  91.875  1.00  0.00     0.006 C 
BRANCH   6   7
ATOM      7  C   UNL     1      10.431  23.918  92.119  1.00  0.00     0.053 C 
BRANCH   7   8
ATOM      8  C   UNL     1      10.884  22.530  92.440  1.00  0.00     0.041 C 
ATOM      9  O   UNL     1      12.113  22.259  92.492  1.00  0.00    -0.550 OA
ATOM     10  O   UNL     1       9.950  21.520  92.636  1.00  0.00    -0.550 OA
ENDBRANCH   7   8
ENDBRANCH   6   7
ENDBRANCH   5   6
ENDBRANCH   4   5
ENDBRANCH   3   4
ENDBRANCH   2   3
ENDBRANCH   1   2
BRANCH   1  11
ATOM     11  C   UNL     1      12.960  26.817  96.435  1.00  0.00     0.000 C 
BRANCH  11  12
ATOM     12  C   UNL     1      14.327  26.768  95.735  1.00  0.00    -0.000 C 
BRANCH  12  13
ATOM     13  C   UNL     1      15.509  26.755  96.721  1.00  0.00    -0.000 C 
BRANCH  13  14
ATOM     14  C   UNL     1      16.015  25.357  97.123  1.00  0.00    -0.000 C 
BRANCH  14  15
ATOM     15  C   UNL     1      16.371  25.253  98.616  1.00  0.00    -0.000 C 
BRANCH  15  16
ATOM     16  C   UNL     1      15.134  25.099  99.519  1.00  0.00    -0.000 C 
BRANCH  16  17
ATOM     17  C   UNL     1      14.528  26.420 100.026  1.00  0.00    -0.003 C 
ATOM     18  C   UNL     1      13.000  26.441  99.964  1.00  0.00     0.004 C 
ENDBRANCH  16  17
ENDBRANCH  15  16
ENDBRANCH  14  15
ENDBRANCH  13  14
ENDBRANCH  12  13
ENDBRANCH  11  12
ENDBRANCH   1  11
TORSDOF 14
ENDMDL
MODEL 5
REMARK VINA RESULT:    -2.544      2.665      6.225
REMARK INTER + INTRA:          -6.629
REMARK INTER:                  -5.151
REMARK INTRA:                  -1.477
REMARK UNBOUND:                -2.002
REMARK SMILES CCCCCCCCCCCCCCCC(=O)[O-]
REMARK SMILES IDX 9 1 10 2 11 3 12 4 13 5 14 6 15 7 16 8 17 9 18 10 8 11 7 12
REMARK SMILES IDX 6 13 5 14 4 15 3 16 2 17 1 18
REMARK H PARENT
REMARK Flexibility Score: inf
ROOT
ATOM      1  C   UNL     1      12.358  25.643  96.912  1.00  0.00     0.000 C 
ENDROOT
BRANCH   1   2
ATOM      2  C   UNL     1      11.888  26.962  97.538  1.00  0.00     0.000 C 
BRANCH   2   3
ATOM      3  C   UNL     1      12.002  26.918  99.067  1.00  0.00     0.000 C 
BRANCH   3   4
ATOM      4  C   UNL     1      13.105  25.950  99.510  1.00  0.00     0.000 C 
BRANCH   4   5
ATOM      5  C   UNL     1      14.322  26.715 100.052  1.00  0.00     0.000 C 
BRANCH   5   6
ATOM      6  C   UNL     1      15.494  26.742  99.058  1.00  0.00     0.006 C 
BRANCH   6   7
ATOM      7  C   UNL     1      15.895  25.341  98.577  1.00  0.00     0.053 C 
BRANCH   7   8
ATOM      8  C   UNL     1      16.607  25.423  97.265  1.00  0.00     0.041 C 
ATOM      9  O   UNL     1      16.108  26.077  96.312  1.00  0.00    -0.550 OA
ATOM     10  O   UNL     1      17.801  24.738  97.077  1.00  0.00    -0.550 OA
ENDBRANCH   7   8
ENDBRANCH   6   7
ENDBRANCH   5   6
ENDBRANCH   4   5
ENDBRANCH   3   4
ENDBRANCH   2   3
ENDBRANCH   1   2
BRANCH   1  11
ATOM     11  C   UNL     1      11.698  25.415  95.547  1.00  0.00     0.000 C 
BRANCH  11  12
ATOM     12  C   UNL     1      11.363  23.931  95.339  1.00  0.00    -0.000 C 
BRANCH  12  13
ATOM     13  C   UNL     1      11.138  23.565  93.860  1.00  0.00    -0.000 C 
BRANCH  13  14
ATOM     14  C   UNL     1      10.208  24.516  93.082  1.00  0.00    -0.000 C 
BRANCH  14  15
ATOM     15  C   UNL     1      10.897  25.176  91.876  1.00  0.00    -0.000 C 
BRANCH  15  16
ATOM     16  C   UNL     1      12.423  25.292  92.046  1.00  0.00    -0.000 C 
BRANCH  16  17
ATOM     17  C   UNL     1      12.949  26.723  92.262  1.00  0.00    -0.003 C 
ATOM     18  C   UNL     1      14.189  26.777  93.154  1.00  0.00     0.004 C 
ENDBRANCH  16  17
ENDBRANCH  15  16
ENDBRANCH  14  15
ENDBRANCH  13  14
ENDBRANCH  12  13
ENDBRANCH  11  12
ENDBRANCH   1  11
TORSDOF 14
ENDMDL
MODEL 6
REMARK VINA RESULT:    -2.526      2.341      5.982
REMARK INTER + INTRA:          -6.597
REMARK INTER:                  -5.332
REMARK INTRA:                  -1.265
REMARK UNBOUND:                -2.002
REMARK SMILES CCCCCCCCCCCCCCCC(=O)[O-]
REMARK SMILES IDX 9 1 10 2 11 3 12 4 13 5 14 6 15 7 16 8 17 9 18 10 8 11 7 12
REMARK SMILES IDX 6 13 5 14 4 15 3 16 2 17 1 18
REMARK H PARENT
REMARK Flexibility Score: inf
ROOT
ATOM      1  C   UNL     1      12.507  26.647  98.384  1.00  0.00     0.000 C 
ENDROOT
BRANCH   1   2
ATOM      2  C   UNL     1      13.111  26.329  99.757  1.00  0.00     0.000 C 
BRANCH   2   3
ATOM      3  C   UNL     1      14.624  26.577  99.764  1.00  0.00     0.000 C 
BRANCH   3   4
ATOM      4  C   UNL     1      15.398  25.274  99.532  1.00  0.00     0.000 C 
BRANCH   4   5
ATOM      5  C   UNL     1      16.336  25.401  98.322  1.00  0.00     0.000 C 
BRANCH   5   6
ATOM      6  C   UNL     1      15.574  25.516  96.992  1.00  0.00     0.006 C 
BRANCH   6   7
ATOM      7  C   UNL     1      15.564  26.947  96.438  1.00  0.00     0.053 C 
BRANCH   7   8
ATOM      8  C   UNL     1      16.117  26.973  95.049  1.00  0.00     0.041 C 
ATOM      9  O   UNL     1      17.361  26.931  94.861  1.00  0.00    -0.550 OA
ATOM     10  O   UNL     1      15.261  27.093  93.961  1.00  0.00    -0.550 OA
ENDBRANCH   7   8
ENDBRANCH   6   7
ENDBRANCH   5   6
ENDBRANCH   4   5
ENDBRANCH   3   4
ENDBRANCH   2   3
ENDBRANCH   1   2
BRANCH   1  11
ATOM     11  C   UNL     1      11.612  25.502  97.896  1.00  0.00     0.000 C 
BRANCH  11  12
ATOM     12  C   UNL     1      11.054  25.798  96.496  1.00  0.00    -0.000 C 
BRANCH  12  13
ATOM     13  C   UNL     1      12.150  26.141  95.471  1.00  0.00    -0.000 C 
BRANCH  13  14
ATOM     14  C   UNL     1      11.701  27.041  94.304  1.00  0.00    -0.000 C 
BRANCH  14  15
ATOM     15  C   UNL     1      10.471  26.492  93.561  1.00  0.00    -0.000 C 
BRANCH  15  16
ATOM     16  C   UNL     1      10.558  24.979  93.293  1.00  0.00    -0.000 C 
BRANCH  16  17
ATOM     17  C   UNL     1      11.297  24.587  92.000  1.00  0.00    -0.003 C 
ATOM     18  C   UNL     1      12.003  23.235  92.099  1.00  0.00     0.004 C 
ENDBRANCH  16  17
ENDBRANCH  15  16
ENDBRANCH  14  15
ENDBRANCH  13  14
ENDBRANCH  12  13
ENDBRANCH  11  12
ENDBRANCH   1  11
TORSDOF 14
ENDMDL
MODEL 7
REMARK VINA RESULT:    -2.418      2.715      6.527
REMARK INTER + INTRA:          -6.400
REMARK INTER:                  -4.877
REMARK INTRA:                  -1.523
REMARK UNBOUND:                -2.002
REMARK SMILES CCCCCCCCCCCCCCCC(=O)[O-]
REMARK SMILES IDX 9 1 10 2 11 3 12 4 13 5 14 6 15 7 16 8 17 9 18 10 8 11 7 12
REMARK SMILES IDX 6 13 5 14 4 15 3 16 2 17 1 18
REMARK H PARENT
REMARK Flexibility Score: inf
ROOT
ATOM      1  C   UNL     1      11.977  25.405  96.328  1.00  0.00     0.000 C 
ENDROOT
BRANCH   1   2
ATOM      2  C   UNL     1      12.953  26.222  95.472  1.00  0.00     0.000 C 
BRANCH   2   3
ATOM      3  C   UNL     1      13.831  27.125  96.347  1.00  0.00     0.000 C 
BRANCH   3   4
ATOM      4  C   UNL     1      15.290  26.654  96.334  1.00  0.00     0.000 C 
BRANCH   4   5
ATOM      5  C   UNL     1      15.670  26.009  97.675  1.00  0.00     0.000 C 
BRANCH   5   6
ATOM      6  C   UNL     1      15.483  26.963  98.866  1.00  0.00     0.006 C 
BRANCH   6   7
ATOM      7  C   UNL     1      14.736  26.310 100.036  1.00  0.00     0.053 C 
BRANCH   7   8
ATOM      8  C   UNL     1      13.316  26.032  99.660  1.00  0.00     0.041 C 
ATOM      9  O   UNL     1      12.960  24.866  99.343  1.00  0.00    -0.550 OA
ATOM     10  O   UNL     1      12.393  27.069  99.612  1.00  0.00    -0.550 OA
ENDBRANCH   7   8
ENDBRANCH   6   7
ENDBRANCH   5   6
ENDBRANCH   4   5
ENDBRANCH   3   4
ENDBRANCH   2   3
ENDBRANCH   1   2
BRANCH   1  11
ATOM     11  C   UNL     1      10.524  25.786  96.022  1.00  0.00     0.000 C 
BRANCH  11  12
ATOM     12  C   UNL     1      10.455  26.851  94.917  1.00  0.00    -0.000 C 
BRANCH  12  13
ATOM     13  C   UNL     1       9.969  26.290  93.568  1.00  0.00    -0.000 C 
BRANCH  13  14
ATOM     14  C   UNL     1      10.931  26.499  92.384  1.00  0.00    -0.000 C 
BRANCH  14  15
ATOM     15  C   UNL     1      11.815  25.272  92.103  1.00  0.00    -0.000 C 
BRANCH  15  16
ATOM     16  C   UNL     1      11.036  23.945  92.162  1.00  0.00    -0.000 C 
BRANCH  16  17
ATOM     17  C   UNL     1      11.875  22.711  92.542  1.00  0.00    -0.003 C 
ATOM     18  C   UNL     1      11.606  22.217  93.963  1.00  0.00     0.004 C 
ENDBRANCH  16  17
ENDBRANCH  15  16
ENDBRANCH  14  15
ENDBRANCH  13  14
ENDBRANCH  12  13
ENDBRANCH  11  12
ENDBRANCH   1  11
TORSDOF 14
ENDMDL
MODEL 8
REMARK VINA RESULT:    -2.281      2.250      5.460
REMARK INTER + INTRA:          -6.150
REMARK INTER:                  -5.021
REMARK INTRA:                  -1.129
REMARK UNBOUND:                -2.002
REMARK SMILES CCCCCCCCCCCCCCCC(=O)[O-]
REMARK SMILES IDX 9 1 10 2 11 3 12 4 13 5 14 6 15 7 16 8 17 9 18 10 8 11 7 12
REMARK SMILES IDX 6 13 5 14 4 15 3 16 2 17 1 18
REMARK H PARENT
REMARK Flexibility Score: inf
ROOT
ATOM      1  C   UNL     1      14.120  24.281  98.310  1.00  0.00     0.000 C 
ENDROOT
BRANCH   1   2
ATOM      2  C   UNL     1      15.025  25.278  99.045  1.00  0.00     0.000 C 
BRANCH   2   3
ATOM      3  C   UNL     1      16.492  25.092  98.642  1.00  0.00     0.000 C 
BRANCH   3   4
ATOM      4  C   UNL     1      16.731  25.552  97.199  1.00  0.00     0.000 C 
BRANCH   4   5
ATOM      5  C   UNL     1      15.864  26.774  96.862  1.00  0.00     0.000 C 
BRANCH   5   6
ATOM      6  C   UNL     1      15.397  26.783  95.398  1.00  0.00     0.006 C 
BRANCH   6   7
ATOM      7  C   UNL     1      16.548  27.018  94.410  1.00  0.00     0.053 C 
BRANCH   7   8
ATOM      8  C   UNL     1      16.061  26.899  93.002  1.00  0.00     0.041 C 
ATOM      9  O   UNL     1      14.852  27.125  92.728  1.00  0.00    -0.550 OA
ATOM     10  O   UNL     1      16.929  26.491  91.997  1.00  0.00    -0.550 OA
ENDBRANCH   7   8
ENDBRANCH   6   7
ENDBRANCH   5   6
ENDBRANCH   4   5
ENDBRANCH   3   4
ENDBRANCH   2   3
ENDBRANCH   1   2
BRANCH   1  11
ATOM     11  C   UNL     1      12.669  24.773  98.279  1.00  0.00     0.000 C 
BRANCH  11  12
ATOM     12  C   UNL     1      12.594  26.239  97.825  1.00  0.00    -0.000 C 
BRANCH  12  13
ATOM     13  C   UNL     1      11.358  26.539  96.957  1.00  0.00    -0.000 C 
BRANCH  13  14
ATOM     14  C   UNL     1      10.455  25.328  96.658  1.00  0.00    -0.000 C 
BRANCH  14  15
ATOM     15  C   UNL     1      10.001  25.264  95.190  1.00  0.00    -0.000 C 
BRANCH  15  16
ATOM     16  C   UNL     1      10.658  24.111  94.408  1.00  0.00    -0.000 C 
BRANCH  16  17
ATOM     17  C   UNL     1      10.883  24.383  92.910  1.00  0.00    -0.003 C 
ATOM     18  C   UNL     1      12.202  25.101  92.622  1.00  0.00     0.004 C 
ENDBRANCH  16  17
ENDBRANCH  15  16
ENDBRANCH  14  15
ENDBRANCH  13  14
ENDBRANCH  12  13
ENDBRANCH  11  12
ENDBRANCH   1  11
TORSDOF 14
ENDMDL
