MODEL 1
REMARK VINA RESULT:    -4.497      0.000      0.000
REMARK INTER + INTRA:          -9.475
REMARK INTER:                  -7.651
REMARK INTRA:                  -1.824
REMARK UNBOUND:                -1.824
REMARK SMILES CCCCCCCCCCCCCC(=O)[O-]
REMARK SMILES IDX 8 1 9 2 10 3 11 4 12 5 13 6 14 7 15 8 16 9 7 10 6 11 5 12
REMARK SMILES IDX 4 13 3 14 2 15 1 16
REMARK H PARENT
REMARK Flexibility Score: inf
ROOT
ATOM      1  C   UNL     1       4.763   3.080  13.080  1.00  0.00     0.000 C 
ENDROOT
BRANCH   1   2
ATOM      2  C   UNL     1       3.782   3.528  14.177  1.00  0.00     0.000 C 
BRANCH   2   3
ATOM      3  C   UNL     1       4.308   3.251  15.596  1.00  0.00     0.000 C 
BRANCH   3   4
ATOM      4  C   UNL     1       3.650   2.030  16.273  1.00  0.00     0.000 C 
BRANCH   4   5
ATOM      5  C   UNL     1       4.366   1.637  17.577  1.00  0.00     0.006 C 
BRANCH   5   6
ATOM      6  C   UNL     1       5.403   0.526  17.359  1.00  0.00     0.053 C 
BRANCH   6   7
ATOM      7  C   UNL     1       5.511  -0.375  18.550  1.00  0.00     0.041 C 
ATOM      8  O   UNL     1       4.915  -0.085  19.621  1.00  0.00    -0.550 OA
ATOM      9  O   UNL     1       6.241  -1.553  18.467  1.00  0.00    -0.550 OA
ENDBRANCH   6   7
ENDBRANCH   5   6
ENDBRANCH   4   5
ENDBRANCH   3   4
ENDBRANCH   2   3
ENDBRANCH   1   2
BRANCH   1  10
ATOM     10  C   UNL     1       4.763   1.556  12.875  1.00  0.00     0.000 C 
BRANCH  10  11
ATOM     11  C   UNL     1       6.037   0.885  13.412  1.00  0.00    -0.000 C 
BRANCH  11  12
ATOM     12  C   UNL     1       5.788  -0.600  13.712  1.00  0.00    -0.000 C 
BRANCH  12  13
ATOM     13  C   UNL     1       4.302  -0.985  13.625  1.00  0.00    -0.000 C 
BRANCH  13  14
ATOM     14  C   UNL     1       3.794  -1.676  14.903  1.00  0.00    -0.000 C 
BRANCH  14  15
ATOM     15  C   UNL     1       2.305  -1.403  15.167  1.00  0.00    -0.003 C 
ATOM     16  C   UNL     1       1.747  -0.272  14.304  1.00  0.00     0.004 C 
ENDBRANCH  14  15
ENDBRANCH  13  14
ENDBRANCH  12  13
ENDBRANCH  11  12
ENDBRANCH  10  11
ENDBRANCH   1  10
TORSDOF 12
ENDMDL
MODEL 2
REMARK VINA RESULT:    -4.409      1.148      3.826
REMARK INTER + INTRA:          -9.325
REMARK INTER:                  -7.133
REMARK INTRA:                  -2.192
REMARK UNBOUND:                -1.824
REMARK SMILES CCCCCCCCCCCCCC(=O)[O-]
REMARK SMILES IDX 8 1 9 2 10 3 11 4 12 5 13 6 14 7 15 8 16 9 7 10 6 11 5 12
REMARK SMILES IDX 4 13 3 14 2 15 1 16
REMARK H PARENT
REMARK Flexibility Score: inf
ROOT
ATOM      1  C   UNL     1       3.721  -0.307  13.271  1.00  0.00     0.000 C 
ENDROOT
BRANCH   1   2
ATOM      2  C   UNL     1       5.034  -1.103  13.345  1.00  0.00     0.000 C 
BRANCH   2   3
ATOM      3  C   UNL     1       6.184  -0.300  13.977  1.00  0.00     0.000 C 
BRANCH   3   4
ATOM      4  C   UNL     1       6.058  -0.135  15.506  1.00  0.00     0.000 C 
BRANCH   4   5
ATOM      5  C   UNL     1       5.853  -1.483  16.218  1.00  0.00     0.006 C 
BRANCH   5   6
ATOM      6  C   UNL     1       4.860  -1.379  17.384  1.00  0.00     0.053 C 
BRANCH   6   7
ATOM      7  C   UNL     1       5.462  -0.682  18.566  1.00  0.00     0.041 C 
ATOM      8  O   UNL     1       6.506  -1.134  19.104  1.00  0.00    -0.550 OA
ATOM      9  O   UNL     1       4.888   0.486  19.050  1.00  0.00    -0.550 OA
ENDBRANCH   6   7
ENDBRANCH   5   6
ENDBRANCH   4   5
ENDBRANCH   3   4
ENDBRANCH   2   3
ENDBRANCH   1   2
BRANCH   1  10
ATOM     10  C   UNL     1       2.600  -0.937  14.112  1.00  0.00     0.000 C 
BRANCH  10  11
ATOM     11  C   UNL     1       2.241  -0.096  15.347  1.00  0.00    -0.000 C 
BRANCH  11  12
ATOM     12  C   UNL     1       2.477   1.398  15.079  1.00  0.00    -0.000 C 
BRANCH  12  13
ATOM     13  C   UNL     1       3.416   2.049  16.107  1.00  0.00    -0.000 C 
BRANCH  13  14
ATOM     14  C   UNL     1       4.316   3.131  15.486  1.00  0.00    -0.000 C 
BRANCH  14  15
ATOM     15  C   UNL     1       3.908   3.478  14.045  1.00  0.00    -0.003 C 
ATOM     16  C   UNL     1       5.006   3.170  13.027  1.00  0.00     0.004 C 
ENDBRANCH  14  15
ENDBRANCH  13  14
ENDBRANCH  12  13
ENDBRANCH  11  12
ENDBRANCH  10  11
ENDBRANCH   1  10
TORSDOF 12
ENDMDL
MODEL 3
REMARK VINA RESULT:    -4.408      2.241      5.084
REMARK INTER + INTRA:          -9.324
REMARK INTER:                  -7.458
REMARK INTRA:                  -1.865
REMARK UNBOUND:                -1.824
REMARK SMILES CCCCCCCCCCCCCC(=O)[O-]
REMARK SMILES IDX 8 1 9 2 10 3 11 4 12 5 13 6 14 7 15 8 16 9 7 10 6 11 5 12
REMARK SMILES IDX 4 13 3 14 2 15 1 16
REMARK H PARENT
REMARK Flexibility Score: inf
ROOT
ATOM      1  C   UNL     1       5.479  -1.257  17.011  1.00  0.00     0.000 C 
ENDROOT
BRANCH   1   2
ATOM      2  C   UNL     1       5.702  -1.822  15.599  1.00  0.00     0.000 C 
BRANCH   2   3
ATOM      3  C   UNL     1       6.184  -0.757  14.599  1.00  0.00     0.000 C 
BRANCH   3   4
ATOM      4  C   UNL     1       5.305  -0.651  13.335  1.00  0.00     0.000 C 
BRANCH   4   5
ATOM      5  C   UNL     1       3.911  -1.268  13.546  1.00  0.00     0.006 C 
BRANCH   5   6
ATOM      6  C   UNL     1       2.862  -0.214  13.928  1.00  0.00     0.053 C 
BRANCH   6   7
ATOM      7  C   UNL     1       1.824  -0.773  14.852  1.00  0.00     0.041 C 
ATOM      8  O   UNL     1       2.079  -1.786  15.554  1.00  0.00    -0.550 OA
ATOM      9  O   UNL     1       0.585  -0.154  14.962  1.00  0.00    -0.550 OA
ENDBRANCH   6   7
ENDBRANCH   5   6
ENDBRANCH   4   5
ENDBRANCH   3   4
ENDBRANCH   2   3
ENDBRANCH   1   2
BRANCH   1  10
ATOM     10  C   UNL     1       5.770   0.250  17.096  1.00  0.00     0.000 C 
BRANCH  10  11
ATOM     11  C   UNL     1       4.727   1.010  17.930  1.00  0.00    -0.000 C 
BRANCH  11  12
ATOM     12  C   UNL     1       3.851   1.897  17.033  1.00  0.00    -0.000 C 
BRANCH  12  13
ATOM     13  C   UNL     1       4.604   2.431  15.803  1.00  0.00    -0.000 C 
BRANCH  13  14
ATOM     14  C   UNL     1       3.926   3.665  15.183  1.00  0.00    -0.000 C 
BRANCH  14  15
ATOM     15  C   UNL     1       3.819   3.571  13.653  1.00  0.00    -0.003 C 
ATOM     16  C   UNL     1       5.029   2.889  13.015  1.00  0.00     0.004 C 
ENDBRANCH  14  15
ENDBRANCH  13  14
ENDBRANCH  12  13
ENDBRANCH  11  12
ENDBRANCH  10  11
ENDBRANCH   1  10
TORSDOF 12
ENDMDL
MODEL 4
REMARK VINA RESULT:    -4.370      2.498      4.152
REMARK INTER + INTRA:          -9.259
REMARK INTER:                  -7.503
REMARK INTRA:                  -1.756
REMARK UNBOUND:                -1.824
REMARK SMILES CCCCCCCCCCCCCC(=O)[O-]
REMARK SMILES IDX 8 1 9 2 10 3 11 4 12 5 13 6 14 7 15 8 16 9 7 10 6 11 5 12
REMARK SMILES IDX 4 13 3 14 2 15 1 16
REMARK H PARENT
REMARK Flexibility Score: inf
ROOT
ATOM      1  C   UNL     1       6.289   0.426  14.359  1.00  0.00     0.000 C 
ENDROOT
BRANCH   1   2
ATOM      2  C   UNL     1       5.564   1.012  13.136  1.00  0.00     0.000 C 
BRANCH   2   3
ATOM      3  C   UNL     1       4.930   2.384  13.419  1.00  0.00     0.000 C 
BRANCH   3   4
ATOM      4  C   UNL     1       4.415   2.543  14.866  1.00  0.00     0.000 C 
BRANCH   4   5
ATOM      5  C   UNL     1       2.885   2.415  14.952  1.00  0.00     0.006 C 
BRANCH   5   6
ATOM      6  C   UNL     1       2.450   1.153  15.711  1.00  0.00     0.053 C 
BRANCH   6   7
ATOM      7  C   UNL     1       1.816   0.148  14.799  1.00  0.00     0.041 C 
ATOM      8  O   UNL     1       0.643  -0.254  15.015  1.00  0.00    -0.550 OA
ATOM      9  O   UNL     1       2.511  -0.319  13.691  1.00  0.00    -0.550 OA
ENDBRANCH   6   7
ENDBRANCH   5   6
ENDBRANCH   4   5
ENDBRANCH   3   4
ENDBRANCH   2   3
ENDBRANCH   1   2
BRANCH   1  10
ATOM     10  C   UNL     1       6.581  -1.075  14.210  1.00  0.00     0.000 C 
BRANCH  10  11
ATOM     11  C   UNL     1       5.597  -1.953  14.999  1.00  0.00    -0.000 C 
BRANCH  11  12
ATOM     12  C   UNL     1       5.047  -1.197  16.218  1.00  0.00    -0.000 C 
BRANCH  12  13
ATOM     13  C   UNL     1       5.685  -1.654  17.541  1.00  0.00    -0.000 C 
BRANCH  13  14
ATOM     14  C   UNL     1       5.731  -0.532  18.593  1.00  0.00    -0.000 C 
BRANCH  14  15
ATOM     15  C   UNL     1       5.165   0.795  18.064  1.00  0.00    -0.003 C 
ATOM     16  C   UNL     1       4.130   1.415  19.002  1.00  0.00     0.004 C 
ENDBRANCH  14  15
ENDBRANCH  13  14
ENDBRANCH  12  13
ENDBRANCH  11  12
ENDBRANCH  10  11
ENDBRANCH   1  10
TORSDOF 12
ENDMDL
MODEL 5
REMARK VINA RESULT:    -4.318      1.192      3.067
REMARK INTER + INTRA:          -9.171
REMARK INTER:                  -7.526
REMARK INTRA:                  -1.646
REMARK UNBOUND:                -1.824
REMARK SMILES CCCCCCCCCCCCCC(=O)[O-]
REMARK SMILES IDX 8 1 9 2 10 3 11 4 12 5 13 6 14 7 15 8 16 9 7 10 6 11 5 12
REMARK SMILES IDX 4 13 3 14 2 15 1 16
REMARK H PARENT
REMARK Flexibility Score: inf
ROOT
ATOM      1  C   UNL     1       5.102   1.321  12.998  1.00  0.00     0.000 C 
ENDROOT
BRANCH   1   2
ATOM      2  C   UNL     1       6.023   0.667  14.041  1.00  0.00     0.000 C 
BRANCH   2   3
ATOM      3  C   UNL     1       6.312  -0.813  13.736  1.00  0.00     0.000 C 
BRANCH   3   4
ATOM      4  C   UNL     1       5.498  -1.795  14.605  1.00  0.00     0.000 C 
BRANCH   4   5
ATOM      5  C   UNL     1       5.939  -1.766  16.078  1.00  0.00     0.006 C 
BRANCH   5   6
ATOM      6  C   UNL     1       4.827  -1.258  17.008  1.00  0.00     0.053 C 
BRANCH   6   7
ATOM      7  C   UNL     1       5.378  -0.451  18.143  1.00  0.00     0.041 C 
ATOM      8  O   UNL     1       6.279  -0.927  18.882  1.00  0.00    -0.550 OA
ATOM      9  O   UNL     1       4.920   0.842  18.362  1.00  0.00    -0.550 OA
ENDBRANCH   6   7
ENDBRANCH   5   6
ENDBRANCH   4   5
ENDBRANCH   3   4
ENDBRANCH   2   3
ENDBRANCH   1   2
BRANCH   1  10
ATOM     10  C   UNL     1       4.890   2.822  13.257  1.00  0.00     0.000 C 
BRANCH  10  11
ATOM     11  C   UNL     1       4.394   3.113  14.682  1.00  0.00    -0.000 C 
BRANCH  11  12
ATOM     12  C   UNL     1       2.926   2.690  14.848  1.00  0.00    -0.000 C 
BRANCH  12  13
ATOM     13  C   UNL     1       2.759   1.451  15.742  1.00  0.00    -0.000 C 
BRANCH  13  14
ATOM     14  C   UNL     1       1.628   0.524  15.263  1.00  0.00    -0.000 C 
BRANCH  14  15
ATOM     15  C   UNL     1       2.122  -0.540  14.270  1.00  0.00    -0.003 C 
ATOM     16  C   UNL     1       1.867  -1.967  14.754  1.00  0.00     0.004 C 
ENDBRANCH  14  15
ENDBRANCH  13  14
ENDBRANCH  12  13
ENDBRANCH  11  12
ENDBRANCH  10  11
ENDBRANCH   1  10
TORSDOF 12
ENDMDL
MODEL 6
REMARK VINA RESULT:    -4.311      2.192      4.343
REMARK INTER + INTRA:          -9.159
REMARK INTER:                  -7.568
REMARK INTRA:                  -1.591
REMARK UNBOUND:                -1.824
REMARK SMILES CCCCCCCCCCCCCC(=O)[O-]
REMARK SMILES IDX 8 1 9 2 10 3 11 4 12 5 13 6 14 7 15 8 16 9 7 10 6 11 5 12
REMARK SMILES IDX 4 13 3 14 2 15 1 16
REMARK H PARENT
REMARK Flexibility Score: inf
ROOT
ATOM      1  C   UNL     1       4.341   3.342  14.919  1.00  0.00     0.000 C 
ENDROOT
BRANCH   1   2
ATOM      2  C   UNL     1       4.836   3.017  13.500  1.00  0.00     0.000 C 
BRANCH   2   3
ATOM      3  C   UNL     1       4.400   1.622  13.021  1.00  0.00     0.000 C 
BRANCH   3   4
ATOM      4  C   UNL     1       5.179   0.467  13.686  1.00  0.00     0.000 C 
BRANCH   4   5
ATOM      5  C   UNL     1       4.330  -0.811  13.802  1.00  0.00     0.006 C 
BRANCH   5   6
ATOM      6  C   UNL     1       2.837  -0.540  13.567  1.00  0.00     0.053 C 
BRANCH   6   7
ATOM      7  C   UNL     1       1.996  -1.046  14.699  1.00  0.00     0.041 C 
ATOM      8  O   UNL     1       2.471  -1.872  15.521  1.00  0.00    -0.550 OA
ATOM      9  O   UNL     1       0.699  -0.577  14.864  1.00  0.00    -0.550 OA
ENDBRANCH   6   7
ENDBRANCH   5   6
ENDBRANCH   4   5
ENDBRANCH   3   4
ENDBRANCH   2   3
ENDBRANCH   1   2
BRANCH   1  10
ATOM     10  C   UNL     1       2.979   2.700  15.231  1.00  0.00     0.000 C 
BRANCH  10  11
ATOM     11  C   UNL     1       3.028   1.768  16.452  1.00  0.00    -0.000 C 
BRANCH  11  12
ATOM     12  C   UNL     1       4.300   2.016  17.278  1.00  0.00    -0.000 C 
BRANCH  12  13
ATOM     13  C   UNL     1       5.261   0.816  17.267  1.00  0.00    -0.000 C 
BRANCH  13  14
ATOM     14  C   UNL     1       5.219   0.013  18.579  1.00  0.00    -0.000 C 
BRANCH  14  15
ATOM     15  C   UNL     1       5.723  -1.428  18.402  1.00  0.00    -0.003 C 
ATOM     16  C   UNL     1       5.833  -1.843  16.935  1.00  0.00     0.004 C 
ENDBRANCH  14  15
ENDBRANCH  13  14
ENDBRANCH  12  13
ENDBRANCH  11  12
ENDBRANCH  10  11
ENDBRANCH   1  10
TORSDOF 12
ENDMDL
MODEL 7
REMARK VINA RESULT:    -4.143      2.267      4.449
REMARK INTER + INTRA:          -8.872
REMARK INTER:                  -6.928
REMARK INTRA:                  -1.945
REMARK UNBOUND:                -1.824
REMARK SMILES CCCCCCCCCCCCCC(=O)[O-]
REMARK SMILES IDX 8 1 9 2 10 3 11 4 12 5 13 6 14 7 15 8 16 9 7 10 6 11 5 12
REMARK SMILES IDX 4 13 3 14 2 15 1 16
REMARK H PARENT
REMARK Flexibility Score: inf
ROOT
ATOM      1  C   UNL     1       5.742   1.489  13.588  1.00  0.00     0.000 C 
ENDROOT
BRANCH   1   2
ATOM      2  C   UNL     1       5.782   0.017  13.145  1.00  0.00     0.000 C 
BRANCH   2   3
ATOM      3  C   UNL     1       6.571  -0.876  14.117  1.00  0.00     0.000 C 
BRANCH   3   4
ATOM      4  C   UNL     1       5.676  -1.684  15.081  1.00  0.00     0.000 C 
BRANCH   4   5
ATOM      5  C   UNL     1       4.252  -1.871  14.528  1.00  0.00     0.006 C 
BRANCH   5   6
ATOM      6  C   UNL     1       3.177  -1.426  15.530  1.00  0.00     0.053 C 
BRANCH   6   7
ATOM      7  C   UNL     1       2.173  -0.512  14.898  1.00  0.00     0.041 C 
ATOM      8  O   UNL     1       1.352   0.120  15.612  1.00  0.00    -0.550 OA
ATOM      9  O   UNL     1       2.166  -0.334  13.520  1.00  0.00    -0.550 OA
ENDBRANCH   6   7
ENDBRANCH   5   6
ENDBRANCH   4   5
ENDBRANCH   3   4
ENDBRANCH   2   3
ENDBRANCH   1   2
BRANCH   1  10
ATOM     10  C   UNL     1       4.379   2.149  13.322  1.00  0.00     0.000 C 
BRANCH  10  11
ATOM     11  C   UNL     1       3.743   2.728  14.595  1.00  0.00    -0.000 C 
BRANCH  11  12
ATOM     12  C   UNL     1       4.744   2.720  15.760  1.00  0.00    -0.000 C 
BRANCH  12  13
ATOM     13  C   UNL     1       4.334   1.764  16.892  1.00  0.00    -0.000 C 
BRANCH  13  14
ATOM     14  C   UNL     1       5.479   0.830  17.322  1.00  0.00    -0.000 C 
BRANCH  14  15
ATOM     15  C   UNL     1       5.095  -0.062  18.513  1.00  0.00    -0.003 C 
ATOM     16  C   UNL     1       6.190  -1.063  18.882  1.00  0.00     0.004 C 
ENDBRANCH  14  15
ENDBRANCH  13  14
ENDBRANCH  12  13
ENDBRANCH  11  12
ENDBRANCH  10  11
ENDBRANCH   1  10
TORSDOF 12
ENDMDL
MODEL 8
REMARK VINA RESULT:    -4.135      2.367      4.978
REMARK INTER + INTRA:          -8.859
REMARK INTER:                  -7.026
REMARK INTRA:                  -1.833
REMARK UNBOUND:                -1.824
REMARK SMILES CCCCCCCCCCCCCC(=O)[O-]
REMARK SMILES IDX 8 1 9 2 10 3 11 4 12 5 13 6 14 7 15 8 16 9 7 10 6 11 5 12
REMARK SMILES IDX 4 13 3 14 2 15 1 16
REMARK H PARENT
REMARK Flexibility Score: inf
ROOT
ATOM      1  C   UNL     1       5.579   0.875  17.454  1.00  0.00     0.000 C 
ENDROOT
BRANCH   1   2
ATOM      2  C   UNL     1       5.854  -0.482  18.124  1.00  0.00     0.000 C 
BRANCH   2   3
ATOM      3  C   UNL     1       5.243  -1.663  17.351  1.00  0.00     0.000 C 
BRANCH   3   4
ATOM      4  C   UNL     1       5.712  -1.751  15.883  1.00  0.00     0.000 C 
BRANCH   4   5
ATOM      5  C   UNL     1       4.531  -1.742  14.897  1.00  0.00     0.006 C 
BRANCH   5   6
ATOM      6  C   UNL     1       3.204  -1.389  15.584  1.00  0.00     0.053 C 
BRANCH   6   7
ATOM      7  C   UNL     1       2.252  -0.720  14.642  1.00  0.00     0.041 C 
ATOM      8  O   UNL     1       2.667  -0.237  13.556  1.00  0.00    -0.550 OA
ATOM      9  O   UNL     1       0.898  -0.660  14.948  1.00  0.00    -0.550 OA
ENDBRANCH   6   7
ENDBRANCH   5   6
ENDBRANCH   4   5
ENDBRANCH   3   4
ENDBRANCH   2   3
ENDBRANCH   1   2
BRANCH   1  10
ATOM     10  C   UNL     1       4.214   1.462  17.848  1.00  0.00     0.000 C 
BRANCH  10  11
ATOM     11  C   UNL     1       3.451   2.045  16.648  1.00  0.00    -0.000 C 
BRANCH  11  12
ATOM     12  C   UNL     1       4.371   2.928  15.791  1.00  0.00    -0.000 C 
BRANCH  12  13
ATOM     13  C   UNL     1       3.851   3.116  14.357  1.00  0.00    -0.000 C 
BRANCH  13  14
ATOM     14  C   UNL     1       4.773   2.474  13.305  1.00  0.00    -0.000 C 
BRANCH  14  15
ATOM     15  C   UNL     1       5.775   1.488  13.924  1.00  0.00    -0.003 C 
ATOM     16  C   UNL     1       6.599   0.741  12.875  1.00  0.00     0.004 C 
ENDBRANCH  14  15
ENDBRANCH  13  14
ENDBRANCH  12  13
ENDBRANCH  11  12
ENDBRANCH  10  11
ENDBRANCH   1  10
TORSDOF 12
ENDMDL
MODEL 9
REMARK VINA RESULT:    -4.122      2.545      4.400
REMARK INTER + INTRA:          -8.838
REMARK INTER:                  -7.083
REMARK INTRA:                  -1.754
REMARK UNBOUND:                -1.824
REMARK SMILES CCCCCCCCCCCCCC(=O)[O-]
REMARK SMILES IDX 8 1 9 2 10 3 11 4 12 5 13 6 14 7 15 8 16 9 7 10 6 11 5 12
REMARK SMILES IDX 4 13 3 14 2 15 1 16
REMARK H PARENT
REMARK Flexibility Score: inf
ROOT
ATOM      1  C   UNL     1       4.361  -1.348  13.448  1.00  0.00     0.000 C 
ENDROOT
BRANCH   1   2
ATOM      2  C   UNL     1       2.864  -1.324  13.797  1.00  0.00     0.000 C 
BRANCH   2   3
ATOM      3  C   UNL     1       2.598  -0.895  15.250  1.00  0.00     0.000 C 
BRANCH   3   4
ATOM      4  C   UNL     1       1.816   0.431  15.371  1.00  0.00     0.000 C 
BRANCH   4   5
ATOM      5  C   UNL     1       2.726   1.603  15.779  1.00  0.00     0.006 C 
BRANCH   5   6
ATOM      6  C   UNL     1       2.608   2.792  14.815  1.00  0.00     0.053 C 
BRANCH   6   7
ATOM      7  C   UNL     1       3.921   3.488  14.629  1.00  0.00     0.041 C 
ATOM      8  O   UNL     1       4.475   4.069  15.598  1.00  0.00    -0.550 OA
ATOM      9  O   UNL     1       4.550   3.464  13.390  1.00  0.00    -0.550 OA
ENDBRANCH   6   7
ENDBRANCH   5   6
ENDBRANCH   4   5
ENDBRANCH   3   4
ENDBRANCH   2   3
ENDBRANCH   1   2
BRANCH   1  10
ATOM     10  C   UNL     1       4.907   0.045  13.094  1.00  0.00     0.000 C 
BRANCH  10  11
ATOM     11  C   UNL     1       6.180   0.400  13.879  1.00  0.00    -0.000 C 
BRANCH  11  12
ATOM     12  C   UNL     1       6.097  -0.123  15.321  1.00  0.00    -0.000 C 
BRANCH  12  13
ATOM     13  C   UNL     1       5.901   1.001  16.352  1.00  0.00    -0.000 C 
BRANCH  13  14
ATOM     14  C   UNL     1       5.562   0.464  17.754  1.00  0.00    -0.000 C 
BRANCH  14  15
ATOM     15  C   UNL     1       5.285  -1.048  17.753  1.00  0.00    -0.003 C 
ATOM     16  C   UNL     1       6.161  -1.812  18.745  1.00  0.00     0.004 C 
ENDBRANCH  14  15
ENDBRANCH  13  14
ENDBRANCH  12  13
ENDBRANCH  11  12
ENDBRANCH  10  11
ENDBRANCH   1  10
TORSDOF 12
ENDMDL
