MODEL 1
REMARK VINA RESULT:    -4.302      0.000      0.000
REMARK INTER + INTRA:          -4.772
REMARK INTER:                  -4.680
REMARK INTRA:                  -0.092
REMARK UNBOUND:                -0.092
REMARK SMILES C=C(C)[C@H]1CC[C@@H](C)[C@@H](O)C1
REMARK SMILES IDX 8 1 7 2 6 3 5 4 4 5 11 6 9 7 10 8 2 10 1 11 3 12
REMARK H PARENT 10 9
REMARK Flexibility Score: inf
ROOT
ATOM      1  C   UNL     1     137.419 132.598 148.553  1.00  0.00     0.010 C 
ATOM      2  C   UNL     1     137.219 134.122 148.655  1.00  0.00     0.015 C 
ATOM      3  C   UNL     1     137.871 134.863 147.468  1.00  0.00     0.006 C 
ATOM      4  C   UNL     1     139.404 134.891 147.564  1.00  0.00     0.008 C 
ATOM      5  C   UNL     1     139.863 135.492 148.907  1.00  0.00     0.017 C 
ATOM      6  C   UNL     1     139.247 134.729 150.096  1.00  0.00     0.040 C 
ATOM      7  C   UNL     1     137.712 134.709 150.006  1.00  0.00     0.117 C 
ENDROOT
BRANCH   7   8
ATOM      8  O   UNL     1     137.194 133.979 151.088  1.00  0.00    -0.393 OA
ATOM      9  H   UNL     1     137.966 133.726 151.658  1.00  0.00     0.210 HD
ENDBRANCH   7   8
BRANCH   5  10
ATOM     10  C   UNL     1     141.383 135.536 149.003  1.00  0.00    -0.077 C 
ATOM     11  C   UNL     1     142.077 136.616 148.603  1.00  0.00     0.008 C 
ATOM     12  C   UNL     1     142.141 134.356 149.554  1.00  0.00     0.039 C 
ENDBRANCH   5  10
TORSDOF 2
ENDMDL
MODEL 2
REMARK VINA RESULT:    -4.241     14.161     15.376
REMARK INTER + INTRA:          -4.705
REMARK INTER:                  -4.617
REMARK INTRA:                  -0.087
REMARK UNBOUND:                -0.092
REMARK SMILES C=C(C)[C@H]1CC[C@@H](C)[C@@H](O)C1
REMARK SMILES IDX 8 1 7 2 6 3 5 4 4 5 11 6 9 7 10 8 2 10 1 11 3 12
REMARK H PARENT 10 9
REMARK Flexibility Score: inf
ROOT
ATOM      1  C   UNL     1     128.913 138.586 138.993  1.00  0.00     0.010 C 
ATOM      2  C   UNL     1     129.123 139.783 138.046  1.00  0.00     0.015 C 
ATOM      3  C   UNL     1     128.911 139.385 136.569  1.00  0.00     0.006 C 
ATOM      4  C   UNL     1     130.066 138.535 136.019  1.00  0.00     0.008 C 
ATOM      5  C   UNL     1     131.418 139.250 136.208  1.00  0.00     0.017 C 
ATOM      6  C   UNL     1     131.653 139.612 137.688  1.00  0.00     0.040 C 
ATOM      7  C   UNL     1     130.502 140.471 138.237  1.00  0.00     0.117 C 
ENDROOT
BRANCH   7   8
ATOM      8  O   UNL     1     130.739 140.751 139.592  1.00  0.00    -0.393 OA
ATOM      9  H   UNL     1     130.906 141.728 139.658  1.00  0.00     0.210 HD
ENDBRANCH   7   8
BRANCH   5  10
ATOM     10  C   UNL     1     132.567 138.418 135.651  1.00  0.00    -0.077 C 
ATOM     11  C   UNL     1     132.669 138.162 134.335  1.00  0.00     0.008 C 
ATOM     12  C   UNL     1     133.618 137.864 136.577  1.00  0.00     0.039 C 
ENDBRANCH   5  10
TORSDOF 2
ENDMDL
MODEL 3
REMARK VINA RESULT:    -4.159     17.033     18.098
REMARK INTER + INTRA:          -4.616
REMARK INTER:                  -4.521
REMARK INTRA:                  -0.095
REMARK UNBOUND:                -0.092
REMARK SMILES C=C(C)[C@H]1CC[C@@H](C)[C@@H](O)C1
REMARK SMILES IDX 8 1 7 2 6 3 5 4 4 5 11 6 9 7 10 8 2 10 1 11 3 12
REMARK H PARENT 10 9
REMARK Flexibility Score: inf
ROOT
ATOM      1  C   UNL     1     136.269 148.358 135.267  1.00  0.00     0.010 C 
ATOM      2  C   UNL     1     134.986 148.685 136.055  1.00  0.00     0.015 C 
ATOM      3  C   UNL     1     135.139 149.981 136.880  1.00  0.00     0.006 C 
ATOM      4  C   UNL     1     136.043 149.792 138.108  1.00  0.00     0.008 C 
ATOM      5  C   UNL     1     135.542 148.633 138.991  1.00  0.00     0.017 C 
ATOM      6  C   UNL     1     135.428 147.327 138.181  1.00  0.00     0.040 C 
ATOM      7  C   UNL     1     134.515 147.512 136.957  1.00  0.00     0.117 C 
ENDROOT
BRANCH   7   8
ATOM      8  O   UNL     1     134.464 146.311 136.232  1.00  0.00    -0.393 OA
ATOM      9  H   UNL     1     133.735 146.411 135.564  1.00  0.00     0.210 HD
ENDBRANCH   7   8
BRANCH   5  10
ATOM     10  C   UNL     1     136.426 148.450 140.218  1.00  0.00    -0.077 C 
ATOM     11  C   UNL     1     135.896 148.312 141.446  1.00  0.00     0.008 C 
ATOM     12  C   UNL     1     137.926 148.420 140.072  1.00  0.00     0.039 C 
ENDBRANCH   5  10
TORSDOF 2
ENDMDL
MODEL 4
REMARK VINA RESULT:    -4.030     14.109     15.047
REMARK INTER + INTRA:          -4.476
REMARK INTER:                  -4.385
REMARK INTRA:                  -0.091
REMARK UNBOUND:                -0.092
REMARK SMILES C=C(C)[C@H]1CC[C@@H](C)[C@@H](O)C1
REMARK SMILES IDX 8 1 7 2 6 3 5 4 4 5 11 6 9 7 10 8 2 10 1 11 3 12
REMARK H PARENT 10 9
REMARK Flexibility Score: inf
ROOT
ATOM      1  C   UNL     1     131.199 141.382 139.743  1.00  0.00     0.010 C 
ATOM      2  C   UNL     1     130.779 141.310 138.263  1.00  0.00     0.015 C 
ATOM      3  C   UNL     1     129.435 140.570 138.087  1.00  0.00     0.006 C 
ATOM      4  C   UNL     1     129.567 139.054 138.294  1.00  0.00     0.008 C 
ATOM      5  C   UNL     1     130.648 138.461 137.369  1.00  0.00     0.017 C 
ATOM      6  C   UNL     1     132.001 139.168 137.571  1.00  0.00     0.040 C 
ATOM      7  C   UNL     1     131.872 140.685 137.354  1.00  0.00     0.117 C 
ENDROOT
BRANCH   7   8
ATOM      8  O   UNL     1     133.118 141.293 137.578  1.00  0.00    -0.393 OA
ATOM      9  H   UNL     1     133.028 141.831 138.408  1.00  0.00     0.210 HD
ENDBRANCH   7   8
BRANCH   5  10
ATOM     10  C   UNL     1     130.773 136.955 137.560  1.00  0.00    -0.077 C 
ATOM     11  C   UNL     1     131.530 136.207 136.737  1.00  0.00     0.008 C 
ATOM     12  C   UNL     1     130.044 136.271 138.687  1.00  0.00     0.039 C 
ENDBRANCH   5  10
TORSDOF 2
ENDMDL
MODEL 5
REMARK VINA RESULT:    -3.931     13.662     14.995
REMARK INTER + INTRA:          -4.368
REMARK INTER:                  -4.273
REMARK INTRA:                  -0.095
REMARK UNBOUND:                -0.092
REMARK SMILES C=C(C)[C@H]1CC[C@@H](C)[C@@H](O)C1
REMARK SMILES IDX 8 1 7 2 6 3 5 4 4 5 11 6 9 7 10 8 2 10 1 11 3 12
REMARK H PARENT 10 9
REMARK Flexibility Score: inf
ROOT
ATOM      1  C   UNL     1     128.898 139.346 136.366  1.00  0.00     0.010 C 
ATOM      2  C   UNL     1     129.601 138.742 137.596  1.00  0.00     0.015 C 
ATOM      3  C   UNL     1     129.947 139.823 138.642  1.00  0.00     0.006 C 
ATOM      4  C   UNL     1     131.119 140.713 138.203  1.00  0.00     0.008 C 
ATOM      5  C   UNL     1     132.358 139.865 137.857  1.00  0.00     0.017 C 
ATOM      6  C   UNL     1     132.028 138.812 136.782  1.00  0.00     0.040 C 
ATOM      7  C   UNL     1     130.862 137.914 137.226  1.00  0.00     0.117 C 
ENDROOT
BRANCH   7   8
ATOM      8  O   UNL     1     130.574 136.991 136.207  1.00  0.00    -0.393 OA
ATOM      9  H   UNL     1     131.439 136.757 135.780  1.00  0.00     0.210 HD
ENDBRANCH   7   8
BRANCH   5  10
ATOM     10  C   UNL     1     133.529 140.743 137.434  1.00  0.00    -0.077 C 
ATOM     11  C   UNL     1     134.689 140.737 138.116  1.00  0.00     0.008 C 
ATOM     12  C   UNL     1     133.405 141.642 136.231  1.00  0.00     0.039 C 
ENDBRANCH   5  10
TORSDOF 2
ENDMDL
MODEL 6
REMARK VINA RESULT:    -3.885     13.673     14.984
REMARK INTER + INTRA:          -4.317
REMARK INTER:                  -4.226
REMARK INTRA:                  -0.091
REMARK UNBOUND:                -0.092
REMARK SMILES C=C(C)[C@H]1CC[C@@H](C)[C@@H](O)C1
REMARK SMILES IDX 8 1 7 2 6 3 5 4 4 5 11 6 9 7 10 8 2 10 1 11 3 12
REMARK H PARENT 10 9
REMARK Flexibility Score: inf
ROOT
ATOM      1  C   UNL     1     134.350 137.073 136.890  1.00  0.00     0.010 C 
ATOM      2  C   UNL     1     133.501 137.825 135.847  1.00  0.00     0.015 C 
ATOM      3  C   UNL     1     133.557 139.353 136.060  1.00  0.00     0.006 C 
ATOM      4  C   UNL     1     132.750 139.805 137.286  1.00  0.00     0.008 C 
ATOM      5  C   UNL     1     131.291 139.314 137.200  1.00  0.00     0.017 C 
ATOM      6  C   UNL     1     131.230 137.784 137.029  1.00  0.00     0.040 C 
ATOM      7  C   UNL     1     132.029 137.331 135.796  1.00  0.00     0.117 C 
ENDROOT
BRANCH   7   8
ATOM      8  O   UNL     1     131.973 135.932 135.696  1.00  0.00    -0.393 OA
ATOM      9  H   UNL     1     132.651 135.572 136.327  1.00  0.00     0.210 HD
ENDBRANCH   7   8
BRANCH   5  10
ATOM     10  C   UNL     1     130.481 139.772 138.406  1.00  0.00    -0.077 C 
ATOM     11  C   UNL     1     129.430 139.062 138.851  1.00  0.00     0.008 C 
ATOM     12  C   UNL     1     130.850 141.042 139.127  1.00  0.00     0.039 C 
ENDBRANCH   5  10
TORSDOF 2
ENDMDL
MODEL 7
REMARK VINA RESULT:    -3.883     13.671     14.799
REMARK INTER + INTRA:          -4.315
REMARK INTER:                  -4.228
REMARK INTRA:                  -0.087
REMARK UNBOUND:                -0.092
REMARK SMILES C=C(C)[C@H]1CC[C@@H](C)[C@@H](O)C1
REMARK SMILES IDX 8 1 7 2 6 3 5 4 4 5 11 6 9 7 10 8 2 10 1 11 3 12
REMARK H PARENT 10 9
REMARK Flexibility Score: inf
ROOT
ATOM      1  C   UNL     1     129.035 137.982 138.827  1.00  0.00     0.010 C 
ATOM      2  C   UNL     1     129.246 138.429 137.368  1.00  0.00     0.015 C 
ATOM      3  C   UNL     1     130.212 137.489 136.618  1.00  0.00     0.006 C 
ATOM      4  C   UNL     1     131.672 137.672 137.059  1.00  0.00     0.008 C 
ATOM      5  C   UNL     1     132.112 139.142 136.916  1.00  0.00     0.017 C 
ATOM      6  C   UNL     1     131.175 140.081 137.699  1.00  0.00     0.040 C 
ATOM      7  C   UNL     1     129.714 139.906 137.250  1.00  0.00     0.117 C 
ENDROOT
BRANCH   7   8
ATOM      8  O   UNL     1     128.892 140.754 138.008  1.00  0.00    -0.393 OA
ATOM      9  H   UNL     1     129.312 141.654 137.987  1.00  0.00     0.210 HD
ENDBRANCH   7   8
BRANCH   5  10
ATOM     10  C   UNL     1     133.564 139.328 137.338  1.00  0.00    -0.077 C 
ATOM     11  C   UNL     1     134.543 138.554 136.837  1.00  0.00     0.008 C 
ATOM     12  C   UNL     1     133.931 140.396 138.337  1.00  0.00     0.039 C 
ENDBRANCH   5  10
TORSDOF 2
ENDMDL
MODEL 8
REMARK VINA RESULT:    -3.852     14.281     15.488
REMARK INTER + INTRA:          -4.281
REMARK INTER:                  -4.188
REMARK INTRA:                  -0.093
REMARK UNBOUND:                -0.092
REMARK SMILES C=C(C)[C@H]1CC[C@@H](C)[C@@H](O)C1
REMARK SMILES IDX 8 1 7 2 6 3 5 4 4 5 11 6 9 7 10 8 2 10 1 11 3 12
REMARK H PARENT 10 9
REMARK Flexibility Score: inf
ROOT
ATOM      1  C   UNL     1     133.269 140.362 135.142  1.00  0.00     0.010 C 
ATOM      2  C   UNL     1     133.465 140.040 136.636  1.00  0.00     0.015 C 
ATOM      3  C   UNL     1     133.561 138.519 136.883  1.00  0.00     0.006 C 
ATOM      4  C   UNL     1     132.204 137.814 136.739  1.00  0.00     0.008 C 
ATOM      5  C   UNL     1     131.147 138.455 137.658  1.00  0.00     0.017 C 
ATOM      6  C   UNL     1     131.017 139.966 137.386  1.00  0.00     0.040 C 
ATOM      7  C   UNL     1     132.373 140.675 137.540  1.00  0.00     0.117 C 
ENDROOT
BRANCH   7   8
ATOM      8  O   UNL     1     132.217 142.041 137.253  1.00  0.00    -0.393 OA
ATOM      9  H   UNL     1     131.566 142.104 136.506  1.00  0.00     0.210 HD
ENDBRANCH   7   8
BRANCH   5  10
ATOM     10  C   UNL     1     129.802 137.750 137.531  1.00  0.00    -0.077 C 
ATOM     11  C   UNL     1     129.375 136.886 138.468  1.00  0.00     0.008 C 
ATOM     12  C   UNL     1     128.919 138.015 136.338  1.00  0.00     0.039 C 
ENDBRANCH   5  10
TORSDOF 2
ENDMDL
MODEL 9
REMARK VINA RESULT:    -3.769      8.735     10.453
REMARK INTER + INTRA:          -4.192
REMARK INTER:                  -4.100
REMARK INTRA:                  -0.092
REMARK UNBOUND:                -0.092
REMARK SMILES C=C(C)[C@H]1CC[C@@H](C)[C@@H](O)C1
REMARK SMILES IDX 8 1 7 2 6 3 5 4 4 5 11 6 9 7 10 8 2 10 1 11 3 12
REMARK H PARENT 10 9
REMARK Flexibility Score: inf
ROOT
ATOM      1  C   UNL     1     147.207 140.459 146.624  1.00  0.00     0.010 C 
ATOM      2  C   UNL     1     147.619 139.034 146.210  1.00  0.00     0.015 C 
ATOM      3  C   UNL     1     148.650 139.049 145.061  1.00  0.00     0.006 C 
ATOM      4  C   UNL     1     148.022 139.437 143.714  1.00  0.00     0.008 C 
ATOM      5  C   UNL     1     146.831 138.519 143.373  1.00  0.00     0.017 C 
ATOM      6  C   UNL     1     145.780 138.532 144.500  1.00  0.00     0.040 C 
ATOM      7  C   UNL     1     146.406 138.134 145.847  1.00  0.00     0.117 C 
ENDROOT
BRANCH   7   8
ATOM      8  O   UNL     1     145.423 138.190 146.848  1.00  0.00    -0.393 OA
ATOM      9  H   UNL     1     144.706 137.557 146.582  1.00  0.00     0.210 HD
ENDBRANCH   7   8
BRANCH   5  10
ATOM     10  C   UNL     1     146.213 138.889 142.031  1.00  0.00    -0.077 C 
ATOM     11  C   UNL     1     145.430 138.025 141.361  1.00  0.00     0.008 C 
ATOM     12  C   UNL     1     146.472 140.245 141.427  1.00  0.00     0.039 C 
ENDBRANCH   5  10
TORSDOF 2
ENDMDL
