MODEL 1
REMARK VINA RESULT:    -4.018      0.000      0.000
REMARK INTER + INTRA:          -6.921
REMARK INTER:                  -6.132
REMARK INTRA:                  -0.789
REMARK UNBOUND:                -0.789
REMARK SMILES OC[C@@H]1O[C@](CO)(O[C@H]2O[C@H](CO)[C@@H](O)[C@@H](O)[C@@H]2O)[C@@H](O)[C@H]1O
REMARK SMILES IDX 8 1 9 2 11 3 14 4 10 5 16 6 18 7 12 8 13 9 15 11 17 13 19 15
REMARK SMILES IDX 5 17 20 18 4 19 22 20 3 21 6 22 7 23 21 25 23 27 2 29 1 30
REMARK H PARENT 13 10 15 12 17 14 19 16 7 24 21 26 23 28 1 31
REMARK Flexibility Score: inf
ROOT
ATOM      1  O   UNL     1      15.041  35.394  33.406  1.00  0.00    -0.313 OA
ENDROOT
BRANCH   1   2
ATOM      2  C   UNL     1      15.563  36.664  33.783  1.00  0.00     0.285 C 
ATOM      3  C   UNL     1      17.564  36.311  32.583  1.00  0.00     0.178 C 
ATOM      4  C   UNL     1      17.106  37.276  31.435  1.00  0.00     0.177 C 
ATOM      5  O   UNL     1      16.985  36.659  33.836  1.00  0.00    -0.341 OA
ATOM      6  C   UNL     1      16.183  38.378  31.982  1.00  0.00     0.179 C 
ATOM      7  C   UNL     1      15.036  37.751  32.802  1.00  0.00     0.202 C 
BRANCH   3   8
ATOM      8  C   UNL     1      19.087  36.316  32.757  1.00  0.00     0.191 C 
BRANCH   8   9
ATOM      9  O   UNL     1      19.661  35.199  32.140  1.00  0.00    -0.394 OA
ATOM     10  H   UNL     1      19.528  34.426  32.740  1.00  0.00     0.210 HD
ENDBRANCH   8   9
ENDBRANCH   3   8
BRANCH   4  11
ATOM     11  O   UNL     1      16.425  36.550  30.437  1.00  0.00    -0.387 OA
ATOM     12  H   UNL     1      16.258  37.177  29.688  1.00  0.00     0.211 HD
ENDBRANCH   4  11
BRANCH   6  13
ATOM     13  O   UNL     1      15.666  39.125  30.909  1.00  0.00    -0.387 OA
ATOM     14  H   UNL     1      15.910  38.646  30.069  1.00  0.00     0.211 HD
ENDBRANCH   6  13
BRANCH   7  15
ATOM     15  O   UNL     1      14.370  38.758  33.527  1.00  0.00    -0.385 OA
ATOM     16  H   UNL     1      14.323  39.552  32.929  1.00  0.00     0.211 HD
ENDBRANCH   7  15
ENDBRANCH   1   2
BRANCH   1  17
ATOM     17  C   UNL     1      13.725  35.114  33.892  1.00  0.00     0.224 C 
ATOM     18  C   UNL     1      12.670  35.461  32.823  1.00  0.00     0.208 C 
ATOM     19  O   UNL     1      13.418  35.879  35.038  1.00  0.00    -0.337 OA
ATOM     20  C   UNL     1      11.442  35.728  33.660  1.00  0.00     0.180 C 
ATOM     21  C   UNL     1      12.051  36.238  34.980  1.00  0.00     0.179 C 
BRANCH  17  22
ATOM     22  C   UNL     1      13.703  33.600  34.277  1.00  0.00     0.225 C 
BRANCH  22  23
ATOM     23  O   UNL     1      14.137  32.792  33.211  1.00  0.00    -0.391 OA
ATOM     24  H   UNL     1      14.987  33.180  32.894  1.00  0.00     0.210 HD
ENDBRANCH  22  23
ENDBRANCH  17  22
BRANCH  18  25
ATOM     25  O   UNL     1      12.486  34.448  31.874  1.00  0.00    -0.385 OA
ATOM     26  H   UNL     1      12.187  33.642  32.361  1.00  0.00     0.211 HD
ENDBRANCH  18  25
BRANCH  20  27
ATOM     27  O   UNL     1      10.723  34.538  33.878  1.00  0.00    -0.387 OA
ATOM     28  H   UNL     1      11.268  34.011  34.529  1.00  0.00     0.211 HD
ENDBRANCH  20  27
BRANCH  21  29
ATOM     29  C   UNL     1      11.939  37.762  35.117  1.00  0.00     0.191 C 
BRANCH  29  30
ATOM     30  O   UNL     1      11.400  38.324  33.946  1.00  0.00    -0.394 OA
ATOM     31  H   UNL     1      11.078  39.229  34.208  1.00  0.00     0.210 HD
ENDBRANCH  29  30
ENDBRANCH  21  29
ENDBRANCH   1  17
TORSDOF 13
ENDMDL
MODEL 2
REMARK VINA RESULT:    -3.913      4.772      7.227
REMARK INTER + INTRA:          -6.761
REMARK INTER:                  -5.463
REMARK INTRA:                  -1.298
REMARK UNBOUND:                -0.789
REMARK SMILES OC[C@@H]1O[C@](CO)(O[C@H]2O[C@H](CO)[C@@H](O)[C@@H](O)[C@@H]2O)[C@@H](O)[C@H]1O
REMARK SMILES IDX 8 1 9 2 11 3 14 4 10 5 16 6 18 7 12 8 13 9 15 11 17 13 19 15
REMARK SMILES IDX 5 17 20 18 4 19 22 20 3 21 6 22 7 23 21 25 23 27 2 29 1 30
REMARK H PARENT 13 10 15 12 17 14 19 16 7 24 21 26 23 28 1 31
REMARK Flexibility Score: inf
ROOT
ATOM      1  O   UNL     1       8.434  35.297  33.198  1.00  0.00    -0.313 OA
ENDROOT
BRANCH   1   2
ATOM      2  C   UNL     1       8.169  36.169  34.293  1.00  0.00     0.285 C 
ATOM      3  C   UNL     1       9.549  37.865  33.405  1.00  0.00     0.178 C 
ATOM      4  C   UNL     1       8.308  38.705  32.942  1.00  0.00     0.177 C 
ATOM      5  O   UNL     1       9.254  37.056  34.539  1.00  0.00    -0.341 OA
ATOM      6  C   UNL     1       7.107  38.463  33.873  1.00  0.00     0.179 C 
ATOM      7  C   UNL     1       6.850  36.949  34.024  1.00  0.00     0.202 C 
BRANCH   3   8
ATOM      8  C   UNL     1      10.738  38.762  33.771  1.00  0.00     0.191 C 
BRANCH   8   9
ATOM      9  O   UNL     1      11.890  38.362  33.085  1.00  0.00    -0.394 OA
ATOM     10  H   UNL     1      12.017  37.397  33.253  1.00  0.00     0.210 HD
ENDBRANCH   8   9
ENDBRANCH   3   8
BRANCH   4  11
ATOM     11  O   UNL     1       7.955  38.356  31.623  1.00  0.00    -0.387 OA
ATOM     12  H   UNL     1       7.877  39.202  31.113  1.00  0.00     0.211 HD
ENDBRANCH   4  11
BRANCH   6  13
ATOM     13  O   UNL     1       5.973  39.101  33.341  1.00  0.00    -0.387 OA
ATOM     14  H   UNL     1       5.257  39.064  34.035  1.00  0.00     0.211 HD
ENDBRANCH   6  13
BRANCH   7  15
ATOM     15  O   UNL     1       5.947  36.729  35.083  1.00  0.00    -0.385 OA
ATOM     16  H   UNL     1       5.962  37.552  35.642  1.00  0.00     0.211 HD
ENDBRANCH   7  15
ENDBRANCH   1   2
BRANCH   1  17
ATOM     17  C   UNL     1       8.653  33.930  33.557  1.00  0.00     0.224 C 
ATOM     18  C   UNL     1       8.048  32.990  32.496  1.00  0.00     0.208 C 
ATOM     19  O   UNL     1       8.042  33.609  34.788  1.00  0.00    -0.337 OA
ATOM     20  C   UNL     1       7.791  31.732  33.291  1.00  0.00     0.180 C 
ATOM     21  C   UNL     1       7.547  32.286  34.708  1.00  0.00     0.179 C 
BRANCH  17  22
ATOM     22  C   UNL     1      10.198  33.748  33.698  1.00  0.00     0.225 C 
BRANCH  22  23
ATOM     23  O   UNL     1      10.898  34.562  32.791  1.00  0.00    -0.391 OA
ATOM     24  H   UNL     1      11.532  33.972  32.318  1.00  0.00     0.210 HD
ENDBRANCH  22  23
ENDBRANCH  17  22
BRANCH  18  25
ATOM     25  O   UNL     1       8.884  32.788  31.391  1.00  0.00    -0.385 OA
ATOM     26  H   UNL     1       9.443  31.997  31.588  1.00  0.00     0.211 HD
ENDBRANCH  18  25
BRANCH  20  27
ATOM     27  O   UNL     1       8.924  30.898  33.277  1.00  0.00    -0.387 OA
ATOM     28  H   UNL     1       8.584  29.988  33.040  1.00  0.00     0.211 HD
ENDBRANCH  20  27
BRANCH  21  29
ATOM     29  C   UNL     1       6.057  32.299  35.075  1.00  0.00     0.191 C 
BRANCH  29  30
ATOM     30  O   UNL     1       5.525  33.592  34.930  1.00  0.00    -0.394 OA
ATOM     31  H   UNL     1       6.168  34.198  35.391  1.00  0.00     0.210 HD
ENDBRANCH  29  30
ENDBRANCH  21  29
ENDBRANCH   1  17
TORSDOF 13
ENDMDL
MODEL 3
REMARK VINA RESULT:    -3.765      3.931      8.402
REMARK INTER + INTRA:          -6.534
REMARK INTER:                  -5.317
REMARK INTRA:                  -1.217
REMARK UNBOUND:                -0.789
REMARK SMILES OC[C@@H]1O[C@](CO)(O[C@H]2O[C@H](CO)[C@@H](O)[C@@H](O)[C@@H]2O)[C@@H](O)[C@H]1O
REMARK SMILES IDX 8 1 9 2 11 3 14 4 10 5 16 6 18 7 12 8 13 9 15 11 17 13 19 15
REMARK SMILES IDX 5 17 20 18 4 19 22 20 3 21 6 22 7 23 21 25 23 27 2 29 1 30
REMARK H PARENT 13 10 15 12 17 14 19 16 7 24 21 26 23 28 1 31
REMARK Flexibility Score: inf
ROOT
ATOM      1  O   UNL     1       8.309  35.196  33.798  1.00  0.00    -0.313 OA
ENDROOT
BRANCH   1   2
ATOM      2  C   UNL     1       8.470  34.040  34.614  1.00  0.00     0.285 C 
ATOM      3  C   UNL     1       6.315  33.240  34.083  1.00  0.00     0.178 C 
ATOM      4  C   UNL     1       6.900  32.157  33.112  1.00  0.00     0.177 C 
ATOM      5  O   UNL     1       7.227  33.573  35.125  1.00  0.00    -0.341 OA
ATOM      6  C   UNL     1       8.296  31.705  33.575  1.00  0.00     0.179 C 
ATOM      7  C   UNL     1       9.202  32.933  33.803  1.00  0.00     0.202 C 
BRANCH   3   8
ATOM      8  C   UNL     1       5.011  32.771  34.740  1.00  0.00     0.191 C 
BRANCH   8   9
ATOM      9  O   UNL     1       4.274  31.969  33.861  1.00  0.00    -0.394 OA
ATOM     10  H   UNL     1       4.116  32.494  33.039  1.00  0.00     0.210 HD
ENDBRANCH   8   9
ENDBRANCH   3   8
BRANCH   4  11
ATOM     11  O   UNL     1       6.987  32.676  31.805  1.00  0.00    -0.387 OA
ATOM     12  H   UNL     1       7.934  32.926  31.657  1.00  0.00     0.211 HD
ENDBRANCH   4  11
BRANCH   6  13
ATOM     13  O   UNL     1       8.854  30.858  32.602  1.00  0.00    -0.387 OA
ATOM     14  H   UNL     1       8.103  30.510  32.044  1.00  0.00     0.211 HD
ENDBRANCH   6  13
BRANCH   7  15
ATOM     15  O   UNL     1      10.367  32.537  34.489  1.00  0.00    -0.385 OA
ATOM     16  H   UNL     1      10.381  31.542  34.471  1.00  0.00     0.211 HD
ENDBRANCH   7  15
ENDBRANCH   1   2
BRANCH   1  17
ATOM     17  C   UNL     1       9.182  36.284  34.114  1.00  0.00     0.224 C 
ATOM     18  C   UNL     1       9.600  37.031  32.833  1.00  0.00     0.208 C 
ATOM     19  O   UNL     1      10.368  35.838  34.737  1.00  0.00    -0.337 OA
ATOM     20  C   UNL     1      10.918  37.647  33.236  1.00  0.00     0.180 C 
ATOM     21  C   UNL     1      11.438  36.647  34.287  1.00  0.00     0.179 C 
BRANCH  17  22
ATOM     22  C   UNL     1       8.405  37.204  35.110  1.00  0.00     0.225 C 
BRANCH  22  23
ATOM     23  O   UNL     1       7.044  37.298  34.770  1.00  0.00    -0.391 OA
ATOM     24  H   UNL     1       6.705  38.117  35.202  1.00  0.00     0.210 HD
ENDBRANCH  22  23
ENDBRANCH  17  22
BRANCH  18  25
ATOM     25  O   UNL     1       8.655  37.972  32.404  1.00  0.00    -0.385 OA
ATOM     26  H   UNL     1       9.028  38.868  32.594  1.00  0.00     0.211 HD
ENDBRANCH  18  25
BRANCH  20  27
ATOM     27  O   UNL     1      10.716  38.912  33.820  1.00  0.00    -0.387 OA
ATOM     28  H   UNL     1      10.592  38.739  34.796  1.00  0.00     0.211 HD
ENDBRANCH  20  27
BRANCH  21  29
ATOM     29  C   UNL     1      12.536  35.735  33.723  1.00  0.00     0.191 C 
BRANCH  29  30
ATOM     30  O   UNL     1      11.969  34.609  33.099  1.00  0.00    -0.394 OA
ATOM     31  H   UNL     1      11.462  34.963  32.319  1.00  0.00     0.210 HD
ENDBRANCH  29  30
ENDBRANCH  21  29
ENDBRANCH   1  17
TORSDOF 13
ENDMDL
MODEL 4
REMARK VINA RESULT:    -3.600      3.775      6.076
REMARK INTER + INTRA:          -6.282
REMARK INTER:                  -5.152
REMARK INTRA:                  -1.131
REMARK UNBOUND:                -0.789
REMARK SMILES OC[C@@H]1O[C@](CO)(O[C@H]2O[C@H](CO)[C@@H](O)[C@@H](O)[C@@H]2O)[C@@H](O)[C@H]1O
REMARK SMILES IDX 8 1 9 2 11 3 14 4 10 5 16 6 18 7 12 8 13 9 15 11 17 13 19 15
REMARK SMILES IDX 5 17 20 18 4 19 22 20 3 21 6 22 7 23 21 25 23 27 2 29 1 30
REMARK H PARENT 13 10 15 12 17 14 19 16 7 24 21 26 23 28 1 31
REMARK Flexibility Score: inf
ROOT
ATOM      1  O   UNL     1       9.242  33.681  33.217  1.00  0.00    -0.313 OA
ENDROOT
BRANCH   1   2
ATOM      2  C   UNL     1       9.621  34.548  34.281  1.00  0.00     0.285 C 
ATOM      3  C   UNL     1      11.866  33.827  34.203  1.00  0.00     0.178 C 
ATOM      4  C   UNL     1      12.319  35.146  33.486  1.00  0.00     0.177 C 
ATOM      5  O   UNL     1      10.720  34.031  35.022  1.00  0.00    -0.341 OA
ATOM      6  C   UNL     1      11.425  36.328  33.899  1.00  0.00     0.179 C 
ATOM      7  C   UNL     1       9.938  35.960  33.708  1.00  0.00     0.202 C 
BRANCH   3   8
ATOM      8  C   UNL     1      12.976  33.252  35.092  1.00  0.00     0.191 C 
BRANCH   8   9
ATOM      9  O   UNL     1      13.830  32.430  34.349  1.00  0.00    -0.394 OA
ATOM     10  H   UNL     1      13.664  32.613  33.393  1.00  0.00     0.210 HD
ENDBRANCH   8   9
ENDBRANCH   3   8
BRANCH   4  11
ATOM     11  O   UNL     1      12.259  34.981  32.088  1.00  0.00    -0.387 OA
ATOM     12  H   UNL     1      12.994  35.521  31.702  1.00  0.00     0.211 HD
ENDBRANCH   4  11
BRANCH   6  13
ATOM     13  O   UNL     1      11.755  37.452  33.123  1.00  0.00    -0.387 OA
ATOM     14  H   UNL     1      12.278  37.127  32.337  1.00  0.00     0.211 HD
ENDBRANCH   6  13
BRANCH   7  15
ATOM     15  O   UNL     1       9.130  36.921  34.345  1.00  0.00    -0.385 OA
ATOM     16  H   UNL     1       9.387  36.913  35.306  1.00  0.00     0.211 HD
ENDBRANCH   7  15
ENDBRANCH   1   2
BRANCH   1  17
ATOM     17  C   UNL     1       8.074  32.894  33.468  1.00  0.00     0.224 C 
ATOM     18  C   UNL     1       6.988  33.187  32.415  1.00  0.00     0.208 C 
ATOM     19  O   UNL     1       7.512  33.182  34.731  1.00  0.00    -0.337 OA
ATOM     20  C   UNL     1       5.721  32.828  33.151  1.00  0.00     0.180 C 
ATOM     21  C   UNL     1       6.103  33.112  34.617  1.00  0.00     0.179 C 
BRANCH  17  22
ATOM     22  C   UNL     1       8.530  31.400  33.449  1.00  0.00     0.225 C 
BRANCH  22  23
ATOM     23  O   UNL     1       9.760  31.228  34.110  1.00  0.00    -0.391 OA
ATOM     24  H   UNL     1       9.598  30.582  34.838  1.00  0.00     0.210 HD
ENDBRANCH  22  23
ENDBRANCH  17  22
BRANCH  18  25
ATOM     25  O   UNL     1       7.161  32.470  31.224  1.00  0.00    -0.385 OA
ATOM     26  H   UNL     1       6.271  32.386  30.802  1.00  0.00     0.211 HD
ENDBRANCH  18  25
BRANCH  20  27
ATOM     27  O   UNL     1       5.416  31.465  32.979  1.00  0.00    -0.387 OA
ATOM     28  H   UNL     1       6.222  30.968  33.300  1.00  0.00     0.211 HD
ENDBRANCH  20  27
BRANCH  21  29
ATOM     29  C   UNL     1       5.506  34.430  35.125  1.00  0.00     0.191 C 
BRANCH  29  30
ATOM     30  O   UNL     1       6.476  35.448  35.111  1.00  0.00    -0.394 OA
ATOM     31  H   UNL     1       6.049  36.219  34.647  1.00  0.00     0.210 HD
ENDBRANCH  29  30
ENDBRANCH  21  29
ENDBRANCH   1  17
TORSDOF 13
ENDMDL
MODEL 5
REMARK VINA RESULT:    -3.504      3.382      7.214
REMARK INTER + INTRA:          -6.136
REMARK INTER:                  -5.047
REMARK INTRA:                  -1.090
REMARK UNBOUND:                -0.789
REMARK SMILES OC[C@@H]1O[C@](CO)(O[C@H]2O[C@H](CO)[C@@H](O)[C@@H](O)[C@@H]2O)[C@@H](O)[C@H]1O
REMARK SMILES IDX 8 1 9 2 11 3 14 4 10 5 16 6 18 7 12 8 13 9 15 11 17 13 19 15
REMARK SMILES IDX 5 17 20 18 4 19 22 20 3 21 6 22 7 23 21 25 23 27 2 29 1 30
REMARK H PARENT 13 10 15 12 17 14 19 16 7 24 21 26 23 28 1 31
REMARK Flexibility Score: inf
ROOT
ATOM      1  O   UNL     1      10.691  34.280  33.120  1.00  0.00    -0.313 OA
ENDROOT
BRANCH   1   2
ATOM      2  C   UNL     1      10.024  33.851  34.303  1.00  0.00     0.285 C 
ATOM      3  C   UNL     1       7.985  34.831  33.630  1.00  0.00     0.178 C 
ATOM      4  C   UNL     1       7.380  33.435  33.250  1.00  0.00     0.177 C 
ATOM      5  O   UNL     1       8.962  34.728  34.661  1.00  0.00    -0.341 OA
ATOM      6  C   UNL     1       7.973  32.324  34.133  1.00  0.00     0.179 C 
ATOM      7  C   UNL     1       9.515  32.394  34.109  1.00  0.00     0.202 C 
BRANCH   3   8
ATOM      8  C   UNL     1       6.905  35.809  34.109  1.00  0.00     0.191 C 
BRANCH   8   9
ATOM      9  O   UNL     1       6.900  36.966  33.323  1.00  0.00    -0.394 OA
ATOM     10  H   UNL     1       7.589  36.855  32.623  1.00  0.00     0.210 HD
ENDBRANCH   8   9
ENDBRANCH   3   8
BRANCH   4  11
ATOM     11  O   UNL     1       7.643  33.148  31.896  1.00  0.00    -0.387 OA
ATOM     12  H   UNL     1       6.929  32.533  31.589  1.00  0.00     0.211 HD
ENDBRANCH   4  11
BRANCH   6  13
ATOM     13  O   UNL     1       7.532  31.075  33.663  1.00  0.00    -0.387 OA
ATOM     14  H   UNL     1       7.595  30.432  34.423  1.00  0.00     0.211 HD
ENDBRANCH   6  13
BRANCH   7  15
ATOM     15  O   UNL     1      10.039  31.571  35.125  1.00  0.00    -0.385 OA
ATOM     16  H   UNL     1      10.985  31.387  34.879  1.00  0.00     0.211 HD
ENDBRANCH   7  15
ENDBRANCH   1   2
BRANCH   1  17
ATOM     17  C   UNL     1      11.596  35.372  33.301  1.00  0.00     0.224 C 
ATOM     18  C   UNL     1      12.019  35.484  34.779  1.00  0.00     0.208 C 
ATOM     19  O   UNL     1      11.004  36.605  32.948  1.00  0.00    -0.337 OA
ATOM     20  C   UNL     1      12.385  36.943  34.899  1.00  0.00     0.180 C 
ATOM     21  C   UNL     1      11.475  37.596  33.842  1.00  0.00     0.179 C 
BRANCH  17  22
ATOM     22  C   UNL     1      12.811  35.108  32.355  1.00  0.00     0.225 C 
BRANCH  22  23
ATOM     23  O   UNL     1      13.337  33.818  32.542  1.00  0.00    -0.391 OA
ATOM     24  H   UNL     1      13.476  33.440  31.641  1.00  0.00     0.210 HD
ENDBRANCH  22  23
ENDBRANCH  17  22
BRANCH  18  25
ATOM     25  O   UNL     1      13.065  34.618  35.125  1.00  0.00    -0.385 OA
ATOM     26  H   UNL     1      13.524  35.013  35.906  1.00  0.00     0.211 HD
ENDBRANCH  18  25
BRANCH  20  27
ATOM     27  O   UNL     1      13.739  37.143  34.573  1.00  0.00    -0.387 OA
ATOM     28  H   UNL     1      14.212  37.252  35.447  1.00  0.00     0.211 HD
ENDBRANCH  20  27
BRANCH  21  29
ATOM     29  C   UNL     1      10.266  38.298  34.473  1.00  0.00     0.191 C 
BRANCH  29  30
ATOM     30  O   UNL     1       9.302  38.597  33.494  1.00  0.00    -0.394 OA
ATOM     31  H   UNL     1       9.813  38.953  32.716  1.00  0.00     0.210 HD
ENDBRANCH  29  30
ENDBRANCH  21  29
ENDBRANCH   1  17
TORSDOF 13
ENDMDL
MODEL 6
REMARK VINA RESULT:    -3.359      2.843      5.272
REMARK INTER + INTRA:          -5.915
REMARK INTER:                  -4.298
REMARK INTRA:                  -1.617
REMARK UNBOUND:                -0.789
REMARK SMILES OC[C@@H]1O[C@](CO)(O[C@H]2O[C@H](CO)[C@@H](O)[C@@H](O)[C@@H]2O)[C@@H](O)[C@H]1O
REMARK SMILES IDX 8 1 9 2 11 3 14 4 10 5 16 6 18 7 12 8 13 9 15 11 17 13 19 15
REMARK SMILES IDX 5 17 20 18 4 19 22 20 3 21 6 22 7 23 21 25 23 27 2 29 1 30
REMARK H PARENT 13 10 15 12 17 14 19 16 7 24 21 26 23 28 1 31
REMARK Flexibility Score: inf
ROOT
ATOM      1  O   UNL     1      10.716  34.132  34.205  1.00  0.00    -0.313 OA
ENDROOT
BRANCH   1   2
ATOM      2  C   UNL     1      10.975  35.060  33.156  1.00  0.00     0.285 C 
ATOM      3  C   UNL     1      11.755  36.700  34.664  1.00  0.00     0.178 C 
ATOM      4  C   UNL     1      13.247  36.429  34.266  1.00  0.00     0.177 C 
ATOM      5  O   UNL     1      10.857  36.407  33.598  1.00  0.00    -0.341 OA
ATOM      6  C   UNL     1      13.348  35.961  32.804  1.00  0.00     0.179 C 
ATOM      7  C   UNL     1      12.384  34.781  32.558  1.00  0.00     0.202 C 
BRANCH   3   8
ATOM      8  C   UNL     1      11.530  38.160  35.073  1.00  0.00     0.191 C 
BRANCH   8   9
ATOM      9  O   UNL     1      10.706  38.813  34.150  1.00  0.00    -0.394 OA
ATOM     10  H   UNL     1      10.177  38.123  33.682  1.00  0.00     0.210 HD
ENDBRANCH   8   9
ENDBRANCH   3   8
BRANCH   4  11
ATOM     11  O   UNL     1      13.801  35.446  35.111  1.00  0.00    -0.387 OA
ATOM     12  H   UNL     1      14.092  35.908  35.938  1.00  0.00     0.211 HD
ENDBRANCH   4  11
BRANCH   6  13
ATOM     13  O   UNL     1      14.672  35.578  32.531  1.00  0.00    -0.387 OA
ATOM     14  H   UNL     1      14.641  34.661  32.138  1.00  0.00     0.211 HD
ENDBRANCH   6  13
BRANCH   7  15
ATOM     15  O   UNL     1      12.272  34.547  31.174  1.00  0.00    -0.385 OA
ATOM     16  H   UNL     1      12.902  33.808  30.960  1.00  0.00     0.211 HD
ENDBRANCH   7  15
ENDBRANCH   1   2
BRANCH   1  17
ATOM     17  C   UNL     1       9.345  33.749  34.345  1.00  0.00     0.224 C 
ATOM     18  C   UNL     1       8.659  33.683  32.966  1.00  0.00     0.208 C 
ATOM     19  O   UNL     1       8.620  34.678  35.122  1.00  0.00    -0.337 OA
ATOM     20  C   UNL     1       7.210  33.915  33.317  1.00  0.00     0.180 C 
ATOM     21  C   UNL     1       7.315  34.786  34.583  1.00  0.00     0.179 C 
BRANCH  17  22
ATOM     22  C   UNL     1       9.339  32.368  35.076  1.00  0.00     0.225 C 
BRANCH  22  23
ATOM     23  O   UNL     1      10.364  31.530  34.602  1.00  0.00    -0.391 OA
ATOM     24  H   UNL     1      10.724  31.962  33.791  1.00  0.00     0.210 HD
ENDBRANCH  22  23
ENDBRANCH  17  22
BRANCH  18  25
ATOM     25  O   UNL     1       8.882  32.476  32.291  1.00  0.00    -0.385 OA
ATOM     26  H   UNL     1       8.172  31.848  32.574  1.00  0.00     0.211 HD
ENDBRANCH  18  25
BRANCH  20  27
ATOM     27  O   UNL     1       6.570  32.697  33.611  1.00  0.00    -0.387 OA
ATOM     28  H   UNL     1       5.592  32.904  33.629  1.00  0.00     0.211 HD
ENDBRANCH  20  27
BRANCH  21  29
ATOM     29  C   UNL     1       7.028  36.265  34.293  1.00  0.00     0.191 C 
BRANCH  29  30
ATOM     30  O   UNL     1       8.147  37.056  34.610  1.00  0.00    -0.394 OA
ATOM     31  H   UNL     1       8.918  36.427  34.642  1.00  0.00     0.210 HD
ENDBRANCH  29  30
ENDBRANCH  21  29
ENDBRANCH   1  17
TORSDOF 13
ENDMDL
MODEL 7
REMARK VINA RESULT:    -3.298      3.092      7.728
REMARK INTER + INTRA:          -5.823
REMARK INTER:                  -4.560
REMARK INTRA:                  -1.263
REMARK UNBOUND:                -0.789
REMARK SMILES OC[C@@H]1O[C@](CO)(O[C@H]2O[C@H](CO)[C@@H](O)[C@@H](O)[C@@H]2O)[C@@H](O)[C@H]1O
REMARK SMILES IDX 8 1 9 2 11 3 14 4 10 5 16 6 18 7 12 8 13 9 15 11 17 13 19 15
REMARK SMILES IDX 5 17 20 18 4 19 22 20 3 21 6 22 7 23 21 25 23 27 2 29 1 30
REMARK H PARENT 13 10 15 12 17 14 19 16 7 24 21 26 23 28 1 31
REMARK Flexibility Score: inf
ROOT
ATOM      1  O   UNL     1      10.230  34.526  33.505  1.00  0.00    -0.313 OA
ENDROOT
BRANCH   1   2
ATOM      2  C   UNL     1       9.638  33.876  34.626  1.00  0.00     0.285 C 
ATOM      3  C   UNL     1       7.501  34.745  34.128  1.00  0.00     0.178 C 
ATOM      4  C   UNL     1       7.014  33.364  33.566  1.00  0.00     0.177 C 
ATOM      5  O   UNL     1       8.511  34.591  35.120  1.00  0.00    -0.341 OA
ATOM      6  C   UNL     1       7.731  32.201  34.274  1.00  0.00     0.179 C 
ATOM      7  C   UNL     1       9.258  32.418  34.237  1.00  0.00     0.202 C 
BRANCH   3   8
ATOM      8  C   UNL     1       6.350  35.540  34.756  1.00  0.00     0.191 C 
BRANCH   8   9
ATOM      9  O   UNL     1       6.419  36.888  34.385  1.00  0.00    -0.394 OA
ATOM     10  H   UNL     1       7.368  37.160  34.423  1.00  0.00     0.210 HD
ENDBRANCH   8   9
ENDBRANCH   3   8
BRANCH   4  11
ATOM     11  O   UNL     1       7.264  33.292  32.180  1.00  0.00    -0.387 OA
ATOM     12  H   UNL     1       6.579  33.852  31.735  1.00  0.00     0.211 HD
ENDBRANCH   4  11
BRANCH   6  13
ATOM     13  O   UNL     1       7.392  30.994  33.640  1.00  0.00    -0.387 OA
ATOM     14  H   UNL     1       6.682  31.199  32.970  1.00  0.00     0.211 HD
ENDBRANCH   6  13
BRANCH   7  15
ATOM     15  O   UNL     1       9.883  31.516  35.119  1.00  0.00    -0.385 OA
ATOM     16  H   UNL     1       9.732  30.606  34.746  1.00  0.00     0.211 HD
ENDBRANCH   7  15
ENDBRANCH   1   2
BRANCH   1  17
ATOM     17  C   UNL     1      11.570  34.980  33.710  1.00  0.00     0.224 C 
ATOM     18  C   UNL     1      12.485  34.495  32.569  1.00  0.00     0.208 C 
ATOM     19  O   UNL     1      12.112  34.480  34.914  1.00  0.00    -0.337 OA
ATOM     20  C   UNL     1      13.842  34.479  33.230  1.00  0.00     0.180 C 
ATOM     21  C   UNL     1      13.485  34.205  34.703  1.00  0.00     0.179 C 
BRANCH  17  22
ATOM     22  C   UNL     1      11.505  36.539  33.796  1.00  0.00     0.225 C 
BRANCH  22  23
ATOM     23  O   UNL     1      10.501  37.059  32.962  1.00  0.00    -0.391 OA
ATOM     24  H   UNL     1       9.920  36.299  32.717  1.00  0.00     0.210 HD
ENDBRANCH  22  23
ENDBRANCH  17  22
BRANCH  18  25
ATOM     25  O   UNL     1      12.431  35.308  31.429  1.00  0.00    -0.385 OA
ATOM     26  H   UNL     1      13.129  34.986  30.807  1.00  0.00     0.211 HD
ENDBRANCH  18  25
BRANCH  20  27
ATOM     27  O   UNL     1      14.470  35.732  33.102  1.00  0.00    -0.387 OA
ATOM     28  H   UNL     1      13.741  36.375  32.869  1.00  0.00     0.211 HD
ENDBRANCH  20  27
BRANCH  21  29
ATOM     29  C   UNL     1      13.758  32.749  35.102  1.00  0.00     0.191 C 
BRANCH  29  30
ATOM     30  O   UNL     1      12.707  31.916  34.679  1.00  0.00    -0.394 OA
ATOM     31  H   UNL     1      12.649  31.192  35.360  1.00  0.00     0.210 HD
ENDBRANCH  29  30
ENDBRANCH  21  29
ENDBRANCH   1  17
TORSDOF 13
ENDMDL
MODEL 8
REMARK VINA RESULT:    -3.179      4.802      7.340
REMARK INTER + INTRA:          -5.641
REMARK INTER:                  -4.863
REMARK INTRA:                  -0.778
REMARK UNBOUND:                -0.789
REMARK SMILES OC[C@@H]1O[C@](CO)(O[C@H]2O[C@H](CO)[C@@H](O)[C@@H](O)[C@@H]2O)[C@@H](O)[C@H]1O
REMARK SMILES IDX 8 1 9 2 11 3 14 4 10 5 16 6 18 7 12 8 13 9 15 11 17 13 19 15
REMARK SMILES IDX 5 17 20 18 4 19 22 20 3 21 6 22 7 23 21 25 23 27 2 29 1 30
REMARK H PARENT 13 10 15 12 17 14 19 16 7 24 21 26 23 28 1 31
REMARK Flexibility Score: inf
ROOT
ATOM      1  O   UNL     1       8.192  35.016  33.152  1.00  0.00    -0.313 OA
ENDROOT
BRANCH   1   2
ATOM      2  C   UNL     1       8.038  35.838  34.305  1.00  0.00     0.285 C 
ATOM      3  C   UNL     1       9.656  37.379  33.547  1.00  0.00     0.178 C 
ATOM      4  C   UNL     1       8.552  38.417  33.140  1.00  0.00     0.177 C 
ATOM      5  O   UNL     1       9.234  36.542  34.618  1.00  0.00    -0.341 OA
ATOM      6  C   UNL     1       7.316  38.283  34.046  1.00  0.00     0.179 C 
ATOM      7  C   UNL     1       6.845  36.814  34.088  1.00  0.00     0.202 C 
BRANCH   3   8
ATOM      8  C   UNL     1      10.954  38.070  33.980  1.00  0.00     0.191 C 
BRANCH   8   9
ATOM      9  O   UNL     1      11.268  39.124  33.114  1.00  0.00    -0.394 OA
ATOM     10  H   UNL     1      10.417  39.513  32.797  1.00  0.00     0.210 HD
ENDBRANCH   8   9
ENDBRANCH   3   8
BRANCH   4  11
ATOM     11  O   UNL     1       8.172  38.216  31.798  1.00  0.00    -0.387 OA
ATOM     12  H   UNL     1       8.404  37.280  31.571  1.00  0.00     0.211 HD
ENDBRANCH   4  11
BRANCH   6  13
ATOM     13  O   UNL     1       6.292  39.112  33.557  1.00  0.00    -0.387 OA
ATOM     14  H   UNL     1       6.702  39.994  33.337  1.00  0.00     0.211 HD
ENDBRANCH   6  13
BRANCH   7  15
ATOM     15  O   UNL     1       5.906  36.650  35.125  1.00  0.00    -0.385 OA
ATOM     16  H   UNL     1       5.263  37.405  35.045  1.00  0.00     0.211 HD
ENDBRANCH   7  15
ENDBRANCH   1   2
BRANCH   1  17
ATOM     17  C   UNL     1       8.119  33.610  33.400  1.00  0.00     0.224 C 
ATOM     18  C   UNL     1       7.602  33.339  34.827  1.00  0.00     0.208 C 
ATOM     19  O   UNL     1       9.386  32.995  33.297  1.00  0.00    -0.337 OA
ATOM     20  C   UNL     1       8.181  31.977  35.125  1.00  0.00     0.180 C 
ATOM     21  C   UNL     1       9.466  31.975  34.275  1.00  0.00     0.179 C 
BRANCH  17  22
ATOM     22  C   UNL     1       7.178  33.011  32.306  1.00  0.00     0.225 C 
BRANCH  22  23
ATOM     23  O   UNL     1       7.897  32.644  31.154  1.00  0.00    -0.391 OA
ATOM     24  H   UNL     1       8.392  31.822  31.385  1.00  0.00     0.210 HD
ENDBRANCH  22  23
ENDBRANCH  17  22
BRANCH  18  25
ATOM     25  O   UNL     1       6.206  33.385  34.930  1.00  0.00    -0.385 OA
ATOM     26  H   UNL     1       5.924  32.580  35.430  1.00  0.00     0.211 HD
ENDBRANCH  18  25
BRANCH  20  27
ATOM     27  O   UNL     1       7.306  30.962  34.695  1.00  0.00    -0.387 OA
ATOM     28  H   UNL     1       6.423  31.175  35.111  1.00  0.00     0.211 HD
ENDBRANCH  20  27
BRANCH  21  29
ATOM     29  C   UNL     1      10.721  32.212  35.125  1.00  0.00     0.191 C 
BRANCH  29  30
ATOM     30  O   UNL     1      11.719  32.847  34.364  1.00  0.00    -0.394 OA
ATOM     31  H   UNL     1      12.584  32.570  34.774  1.00  0.00     0.210 HD
ENDBRANCH  29  30
ENDBRANCH  21  29
ENDBRANCH   1  17
TORSDOF 13
ENDMDL
