MODEL 1
REMARK VINA RESULT:    -2.720      0.000      0.000
REMARK INTER + INTRA:          -3.541
REMARK INTER:                  -3.435
REMARK INTRA:                  -0.106
REMARK UNBOUND:                -0.106
REMARK SMILES CSCC[C@@H]([NH3+])C(=O)[O-]
REMARK SMILES IDX 4 1 5 2 6 3 7 7 8 8 9 9 3 10 2 11 1 12
REMARK H PARENT 6 4 6 5 6 6
REMARK Flexibility Score: inf
ROOT
ATOM      1  C   UNL     1      35.838  22.076  -9.414  1.00  0.00     0.082 C 
ENDROOT
BRANCH   1   2
ATOM      2  C   UNL     1      34.368  21.649  -9.632  1.00  0.00     0.228 C 
BRANCH   2   3
ATOM      3  N   UNL     1      34.085  21.362 -11.044  1.00  0.00    -0.350 N 
ATOM      4  H   UNL     1      34.404  22.159 -11.642  1.00  0.00     0.345 HD
ATOM      5  H   UNL     1      34.613  20.513 -11.350  1.00  0.00     0.345 HD
ATOM      6  H   UNL     1      33.061  21.210 -11.197  1.00  0.00     0.345 HD
ENDBRANCH   2   3
BRANCH   2   7
ATOM      7  C   UNL     1      34.074  20.435  -8.790  1.00  0.00     0.099 C 
ATOM      8  O   UNL     1      34.829  20.131  -7.830  1.00  0.00    -0.544 OA
ATOM      9  O   UNL     1      32.983  19.625  -9.087  1.00  0.00    -0.544 OA
ENDBRANCH   2   7
ENDBRANCH   1   2
BRANCH   1  10
ATOM     10  C   UNL     1      36.008  23.491  -8.836  1.00  0.00     0.076 C 
BRANCH  10  11
ATOM     11  S   UNL     1      35.220  24.774  -9.880  1.00  0.00    -0.165 SA
ATOM     12  C   UNL     1      36.322  26.138  -9.381  1.00  0.00     0.085 C 
ENDBRANCH  10  11
ENDBRANCH   1  10
TORSDOF 5
ENDMDL
MODEL 2
REMARK VINA RESULT:    -2.714     12.719     13.225
REMARK INTER + INTRA:          -3.534
REMARK INTER:                  -3.397
REMARK INTRA:                  -0.138
REMARK UNBOUND:                -0.106
REMARK SMILES CSCC[C@@H]([NH3+])C(=O)[O-]
REMARK SMILES IDX 4 1 5 2 6 3 7 7 8 8 9 9 3 10 2 11 1 12
REMARK H PARENT 6 4 6 5 6 6
REMARK Flexibility Score: inf
ROOT
ATOM      1  C   UNL     1      31.981  11.768 -15.158  1.00  0.00     0.082 C 
ENDROOT
BRANCH   1   2
ATOM      2  C   UNL     1      33.359  11.404 -15.761  1.00  0.00     0.228 C 
BRANCH   2   3
ATOM      3  N   UNL     1      33.976  12.549 -16.444  1.00  0.00    -0.350 N 
ATOM      4  H   UNL     1      34.253  12.278 -17.416  1.00  0.00     0.345 HD
ATOM      5  H   UNL     1      33.290  13.333 -16.521  1.00  0.00     0.345 HD
ATOM      6  H   UNL     1      34.824  12.878 -15.927  1.00  0.00     0.345 HD
ENDBRANCH   2   3
BRANCH   2   7
ATOM      7  C   UNL     1      34.265  10.907 -14.665  1.00  0.00     0.099 C 
ATOM      8  O   UNL     1      33.953   9.884 -14.000  1.00  0.00    -0.544 OA
ATOM      9  O   UNL     1      35.435  11.592 -14.360  1.00  0.00    -0.544 OA
ENDBRANCH   2   7
ENDBRANCH   1   2
BRANCH   1  10
ATOM     10  C   UNL     1      30.850  10.795 -15.531  1.00  0.00     0.076 C 
BRANCH  10  11
ATOM     11  S   UNL     1      30.537  10.743 -17.335  1.00  0.00    -0.165 SA
ATOM     12  C   UNL     1      29.857  12.429 -17.466  1.00  0.00     0.085 C 
ENDBRANCH  10  11
ENDBRANCH   1  10
TORSDOF 5
ENDMDL
MODEL 3
REMARK VINA RESULT:    -2.671     12.064     12.818
REMARK INTER + INTRA:          -3.479
REMARK INTER:                  -3.280
REMARK INTRA:                  -0.199
REMARK UNBOUND:                -0.106
REMARK SMILES CSCC[C@@H]([NH3+])C(=O)[O-]
REMARK SMILES IDX 4 1 5 2 6 3 7 7 8 8 9 9 3 10 2 11 1 12
REMARK H PARENT 6 4 6 5 6 6
REMARK Flexibility Score: inf
ROOT
ATOM      1  C   UNL     1      32.369  10.567 -15.967  1.00  0.00     0.082 C 
ENDROOT
BRANCH   1   2
ATOM      2  C   UNL     1      33.831  11.072 -15.940  1.00  0.00     0.228 C 
BRANCH   2   3
ATOM      3  N   UNL     1      33.936  12.466 -16.392  1.00  0.00    -0.350 N 
ATOM      4  H   UNL     1      33.782  12.519 -17.426  1.00  0.00     0.345 HD
ATOM      5  H   UNL     1      33.196  13.048 -15.937  1.00  0.00     0.345 HD
ATOM      6  H   UNL     1      34.878  12.861 -16.167  1.00  0.00     0.345 HD
ENDBRANCH   2   3
BRANCH   2   7
ATOM      7  C   UNL     1      34.374  10.943 -14.541  1.00  0.00     0.099 C 
ATOM      8  O   UNL     1      35.440  11.530 -14.219  1.00  0.00    -0.544 OA
ATOM      9  O   UNL     1      33.718  10.151 -13.605  1.00  0.00    -0.544 OA
ENDBRANCH   2   7
ENDBRANCH   1   2
BRANCH   1  10
ATOM     10  C   UNL     1      31.338  11.634 -16.372  1.00  0.00     0.076 C 
BRANCH  10  11
ATOM     11  S   UNL     1      29.948  11.753 -15.185  1.00  0.00    -0.165 SA
ATOM     12  C   UNL     1      30.936  12.376 -13.786  1.00  0.00     0.085 C 
ENDBRANCH  10  11
ENDBRANCH   1  10
TORSDOF 5
ENDMDL
MODEL 4
REMARK VINA RESULT:    -2.607     12.831     13.434
REMARK INTER + INTRA:          -3.399
REMARK INTER:                  -3.192
REMARK INTRA:                  -0.206
REMARK UNBOUND:                -0.106
REMARK SMILES CSCC[C@@H]([NH3+])C(=O)[O-]
REMARK SMILES IDX 4 1 5 2 6 3 7 7 8 8 9 9 3 10 2 11 1 12
REMARK H PARENT 6 4 6 5 6 6
REMARK Flexibility Score: inf
ROOT
ATOM      1  C   UNL     1      28.943  12.964 -15.406  1.00  0.00     0.082 C 
ENDROOT
BRANCH   1   2
ATOM      2  C   UNL     1      28.510  12.653 -16.858  1.00  0.00     0.228 C 
BRANCH   2   3
ATOM      3  N   UNL     1      27.645  13.706 -17.407  1.00  0.00    -0.350 N 
ATOM      4  H   UNL     1      28.199  14.580 -17.562  1.00  0.00     0.345 HD
ATOM      5  H   UNL     1      27.265  13.410 -18.336  1.00  0.00     0.345 HD
ATOM      6  H   UNL     1      26.852  13.914 -16.757  1.00  0.00     0.345 HD
ENDBRANCH   2   3
BRANCH   2   7
ATOM      7  C   UNL     1      29.736  12.494 -17.718  1.00  0.00     0.099 C 
ATOM      8  O   UNL     1      30.397  13.505 -18.073  1.00  0.00    -0.544 OA
ATOM      9  O   UNL     1      30.130  11.232 -18.150  1.00  0.00    -0.544 OA
ENDBRANCH   2   7
ENDBRANCH   1   2
BRANCH   1  10
ATOM     10  C   UNL     1      29.613  11.786 -14.679  1.00  0.00     0.076 C 
BRANCH  10  11
ATOM     11  S   UNL     1      31.161  12.275 -13.830  1.00  0.00    -0.165 SA
ATOM     12  C   UNL     1      32.295  11.665 -15.120  1.00  0.00     0.085 C 
ENDBRANCH  10  11
ENDBRANCH   1  10
TORSDOF 5
ENDMDL
MODEL 5
REMARK VINA RESULT:    -2.595     14.127     14.569
REMARK INTER + INTRA:          -3.384
REMARK INTER:                  -3.149
REMARK INTRA:                  -0.235
REMARK UNBOUND:                -0.106
REMARK SMILES CSCC[C@@H]([NH3+])C(=O)[O-]
REMARK SMILES IDX 4 1 5 2 6 3 7 7 8 8 9 9 3 10 2 11 1 12
REMARK H PARENT 6 4 6 5 6 6
REMARK Flexibility Score: inf
ROOT
ATOM      1  C   UNL     1      30.264  27.275 -23.298  1.00  0.00     0.082 C 
ENDROOT
BRANCH   1   2
ATOM      2  C   UNL     1      29.250  27.152 -22.137  1.00  0.00     0.228 C 
BRANCH   2   3
ATOM      3  N   UNL     1      28.363  25.993 -22.306  1.00  0.00    -0.350 N 
ATOM      4  H   UNL     1      27.384  26.251 -22.042  1.00  0.00     0.345 HD
ATOM      5  H   UNL     1      28.348  25.696 -23.308  1.00  0.00     0.345 HD
ATOM      6  H   UNL     1      28.677  25.193 -21.710  1.00  0.00     0.345 HD
ENDBRANCH   2   3
BRANCH   2   7
ATOM      7  C   UNL     1      29.998  27.042 -20.834  1.00  0.00     0.099 C 
ATOM      8  O   UNL     1      29.931  25.986 -20.152  1.00  0.00    -0.544 OA
ATOM      9  O   UNL     1      30.744  28.116 -20.362  1.00  0.00    -0.544 OA
ENDBRANCH   2   7
ENDBRANCH   1   2
BRANCH   1  10
ATOM     10  C   UNL     1      31.034  25.980 -23.606  1.00  0.00     0.076 C 
BRANCH  10  11
ATOM     11  S   UNL     1      32.842  26.169 -23.384  1.00  0.00    -0.165 SA
ATOM     12  C   UNL     1      32.832  27.984 -23.216  1.00  0.00     0.085 C 
ENDBRANCH  10  11
ENDBRANCH   1  10
TORSDOF 5
ENDMDL
MODEL 6
REMARK VINA RESULT:    -2.592     14.153     14.563
REMARK INTER + INTRA:          -3.380
REMARK INTER:                  -3.286
REMARK INTRA:                  -0.094
REMARK UNBOUND:                -0.106
REMARK SMILES CSCC[C@@H]([NH3+])C(=O)[O-]
REMARK SMILES IDX 4 1 5 2 6 3 7 7 8 8 9 9 3 10 2 11 1 12
REMARK H PARENT 6 4 6 5 6 6
REMARK Flexibility Score: inf
ROOT
ATOM      1  C   UNL     1      30.694  25.668 -22.992  1.00  0.00     0.082 C 
ENDROOT
BRANCH   1   2
ATOM      2  C   UNL     1      29.671  26.599 -22.299  1.00  0.00     0.228 C 
BRANCH   2   3
ATOM      3  N   UNL     1      28.306  26.059 -22.368  1.00  0.00    -0.350 N 
ATOM      4  H   UNL     1      27.836  26.156 -21.438  1.00  0.00     0.345 HD
ATOM      5  H   UNL     1      27.741  26.600 -23.061  1.00  0.00     0.345 HD
ATOM      6  H   UNL     1      28.318  25.049 -22.640  1.00  0.00     0.345 HD
ENDBRANCH   2   3
BRANCH   2   7
ATOM      7  C   UNL     1      30.075  26.796 -20.861  1.00  0.00     0.099 C 
ATOM      8  O   UNL     1      29.895  25.876 -20.021  1.00  0.00    -0.544 OA
ATOM      9  O   UNL     1      30.621  28.006 -20.447  1.00  0.00    -0.544 OA
ENDBRANCH   2   7
ENDBRANCH   1   2
BRANCH   1  10
ATOM     10  C   UNL     1      32.083  26.295 -23.198  1.00  0.00     0.076 C 
BRANCH  10  11
ATOM     11  S   UNL     1      32.829  25.833 -24.805  1.00  0.00    -0.165 SA
ATOM     12  C   UNL     1      34.337  25.079 -24.113  1.00  0.00     0.085 C 
ENDBRANCH  10  11
ENDBRANCH   1  10
TORSDOF 5
ENDMDL
MODEL 7
REMARK VINA RESULT:    -2.589     14.752     15.299
REMARK INTER + INTRA:          -3.377
REMARK INTER:                  -3.189
REMARK INTRA:                  -0.188
REMARK UNBOUND:                -0.106
REMARK SMILES CSCC[C@@H]([NH3+])C(=O)[O-]
REMARK SMILES IDX 4 1 5 2 6 3 7 7 8 8 9 9 3 10 2 11 1 12
REMARK H PARENT 6 4 6 5 6 6
REMARK Flexibility Score: inf
ROOT
ATOM      1  C   UNL     1      28.144  27.570 -22.130  1.00  0.00     0.082 C 
ENDROOT
BRANCH   1   2
ATOM      2  C   UNL     1      29.646  27.587 -21.763  1.00  0.00     0.228 C 
BRANCH   2   3
ATOM      3  N   UNL     1      29.949  28.601 -20.745  1.00  0.00    -0.350 N 
ATOM      4  H   UNL     1      29.384  28.423 -19.883  1.00  0.00     0.345 HD
ATOM      5  H   UNL     1      30.957  28.547 -20.473  1.00  0.00     0.345 HD
ATOM      6  H   UNL     1      29.735  29.562 -21.100  1.00  0.00     0.345 HD
ENDBRANCH   2   3
BRANCH   2   7
ATOM      7  C   UNL     1      30.051  26.223 -21.268  1.00  0.00     0.099 C 
ATOM      8  O   UNL     1      29.903  25.920 -20.055  1.00  0.00    -0.544 OA
ATOM      9  O   UNL     1      30.618  25.301 -22.140  1.00  0.00    -0.544 OA
ENDBRANCH   2   7
ENDBRANCH   1   2
BRANCH   1  10
ATOM     10  C   UNL     1      27.858  27.293 -23.616  1.00  0.00     0.076 C 
BRANCH  10  11
ATOM     11  S   UNL     1      27.149  25.628 -23.895  1.00  0.00    -0.165 SA
ATOM     12  C   UNL     1      28.502  25.011 -24.949  1.00  0.00     0.085 C 
ENDBRANCH  10  11
ENDBRANCH   1  10
TORSDOF 5
ENDMDL
MODEL 8
REMARK VINA RESULT:    -2.578     13.681     14.184
REMARK INTER + INTRA:          -3.362
REMARK INTER:                  -3.223
REMARK INTRA:                  -0.139
REMARK UNBOUND:                -0.106
REMARK SMILES CSCC[C@@H]([NH3+])C(=O)[O-]
REMARK SMILES IDX 4 1 5 2 6 3 7 7 8 8 9 9 3 10 2 11 1 12
REMARK H PARENT 6 4 6 5 6 6
REMARK Flexibility Score: inf
ROOT
ATOM      1  C   UNL     1      31.678  26.837 -22.308  1.00  0.00     0.082 C 
ENDROOT
BRANCH   1   2
ATOM      2  C   UNL     1      30.353  26.156 -22.723  1.00  0.00     0.228 C 
BRANCH   2   3
ATOM      3  N   UNL     1      30.573  24.790 -23.220  1.00  0.00    -0.350 N 
ATOM      4  H   UNL     1      31.471  24.412 -22.840  1.00  0.00     0.345 HD
ATOM      5  H   UNL     1      29.806  24.161 -22.891  1.00  0.00     0.345 HD
ATOM      6  H   UNL     1      30.612  24.776 -24.265  1.00  0.00     0.345 HD
ENDBRANCH   2   3
BRANCH   2   7
ATOM      7  C   UNL     1      29.417  26.130 -21.543  1.00  0.00     0.099 C 
ATOM      8  O   UNL     1      28.173  26.057 -21.723  1.00  0.00    -0.544 OA
ATOM      9  O   UNL     1      29.919  26.215 -20.249  1.00  0.00    -0.544 OA
ENDBRANCH   2   7
ENDBRANCH   1   2
BRANCH   1  10
ATOM     10  C   UNL     1      31.858  28.261 -22.861  1.00  0.00     0.076 C 
BRANCH  10  11
ATOM     11  S   UNL     1      32.783  29.348 -21.714  1.00  0.00    -0.165 SA
ATOM     12  C   UNL     1      31.539  29.334 -20.382  1.00  0.00     0.085 C 
ENDBRANCH  10  11
ENDBRANCH   1  10
TORSDOF 5
ENDMDL
MODEL 9
REMARK VINA RESULT:    -2.578     14.046     14.565
REMARK INTER + INTRA:          -3.362
REMARK INTER:                  -3.155
REMARK INTRA:                  -0.207
REMARK UNBOUND:                -0.106
REMARK SMILES CSCC[C@@H]([NH3+])C(=O)[O-]
REMARK SMILES IDX 4 1 5 2 6 3 7 7 8 8 9 9 3 10 2 11 1 12
REMARK H PARENT 6 4 6 5 6 6
REMARK Flexibility Score: inf
ROOT
ATOM      1  C   UNL     1      30.311  27.806 -23.146  1.00  0.00     0.082 C 
ENDROOT
BRANCH   1   2
ATOM      2  C   UNL     1      30.307  27.661 -21.606  1.00  0.00     0.228 C 
BRANCH   2   3
ATOM      3  N   UNL     1      29.206  28.413 -20.989  1.00  0.00    -0.350 N 
ATOM      4  H   UNL     1      28.528  27.752 -20.543  1.00  0.00     0.345 HD
ATOM      5  H   UNL     1      29.575  29.036 -20.235  1.00  0.00     0.345 HD
ATOM      6  H   UNL     1      28.702  28.989 -21.702  1.00  0.00     0.345 HD
ENDBRANCH   2   3
BRANCH   2   7
ATOM      7  C   UNL     1      30.200  26.202 -21.246  1.00  0.00     0.099 C 
ATOM      8  O   UNL     1      29.836  25.860 -20.090  1.00  0.00    -0.544 OA
ATOM      9  O   UNL     1      30.532  25.225 -22.177  1.00  0.00    -0.544 OA
ENDBRANCH   2   7
ENDBRANCH   1   2
BRANCH   1  10
ATOM     10  C   UNL     1      31.440  28.694 -23.695  1.00  0.00     0.076 C 
BRANCH  10  11
ATOM     11  S   UNL     1      33.048  28.369 -22.879  1.00  0.00    -0.165 SA
ATOM     12  C   UNL     1      33.346  26.753 -23.667  1.00  0.00     0.085 C 
ENDBRANCH  10  11
ENDBRANCH   1  10
TORSDOF 5
ENDMDL
