MODEL 1
REMARK VINA RESULT:    -2.799      0.000      0.000
REMARK INTER + INTRA:          -3.574
REMARK INTER:                  -3.535
REMARK INTRA:                  -0.039
REMARK UNBOUND:                -0.039
REMARK SMILES CCCCCCO
REMARK SMILES IDX 4 1 3 2 2 3 1 4 5 5 6 6 7 7
REMARK H PARENT 7 8
REMARK Flexibility Score: inf
ROOT
ATOM      1  C   UNL     1      -1.896   6.058  -1.052  1.00  0.00     0.002 C 
ENDROOT
BRANCH   1   2
ATOM      2  C   UNL     1      -1.206   6.753   0.130  1.00  0.00    -0.000 C 
BRANCH   2   3
ATOM      3  C   UNL     1      -2.102   7.848   0.722  1.00  0.00    -0.003 C 
ATOM      4  C   UNL     1      -1.896   7.975   2.229  1.00  0.00     0.004 C 
ENDBRANCH   2   3
ENDBRANCH   1   2
BRANCH   1   5
ATOM      5  C   UNL     1      -1.552   4.563  -1.143  1.00  0.00     0.028 C 
BRANCH   5   6
ATOM      6  C   UNL     1      -1.698   4.006  -2.563  1.00  0.00     0.156 C 
BRANCH   6   7
ATOM      7  O   UNL     1      -1.837   2.611  -2.523  1.00  0.00    -0.396 OA
ATOM      8  H   UNL     1      -1.811   2.351  -1.564  1.00  0.00     0.210 HD
ENDBRANCH   6   7
ENDBRANCH   5   6
ENDBRANCH   1   5
TORSDOF 5
ENDMDL
MODEL 2
REMARK VINA RESULT:    -2.640      3.086      4.786
REMARK INTER + INTRA:          -3.373
REMARK INTER:                  -3.284
REMARK INTRA:                  -0.089
REMARK UNBOUND:                -0.039
REMARK SMILES CCCCCCO
REMARK SMILES IDX 4 1 3 2 2 3 1 4 5 5 6 6 7 7
REMARK H PARENT 7 8
REMARK Flexibility Score: inf
ROOT
ATOM      1  C   UNL     1      -1.554   7.688  -0.404  1.00  0.00     0.002 C 
ENDROOT
BRANCH   1   2
ATOM      2  C   UNL     1      -1.860   6.546  -1.384  1.00  0.00    -0.000 C 
BRANCH   2   3
ATOM      3  C   UNL     1      -1.490   5.188  -0.776  1.00  0.00    -0.003 C 
ATOM      4  C   UNL     1      -1.392   4.110  -1.852  1.00  0.00     0.004 C 
ENDBRANCH   2   3
ENDBRANCH   1   2
BRANCH   1   5
ATOM      5  C   UNL     1      -1.112   7.179   0.977  1.00  0.00     0.028 C 
BRANCH   5   6
ATOM      6  C   UNL     1      -0.833   8.316   1.967  1.00  0.00     0.156 C 
BRANCH   6   7
ATOM      7  O   UNL     1      -0.012   7.860   3.008  1.00  0.00    -0.396 OA
ATOM      8  H   UNL     1      -0.235   6.902   3.146  1.00  0.00     0.210 HD
ENDBRANCH   6   7
ENDBRANCH   5   6
ENDBRANCH   1   5
TORSDOF 5
ENDMDL
MODEL 3
REMARK VINA RESULT:    -2.621      8.005      8.640
REMARK INTER + INTRA:          -3.350
REMARK INTER:                  -3.231
REMARK INTRA:                  -0.119
REMARK UNBOUND:                -0.039
REMARK SMILES CCCCCCO
REMARK SMILES IDX 4 1 3 2 2 3 1 4 5 5 6 6 7 7
REMARK H PARENT 7 8
REMARK Flexibility Score: inf
ROOT
ATOM      1  C   UNL     1       5.739   2.610  -1.877  1.00  0.00     0.002 C 
ENDROOT
BRANCH   1   2
ATOM      2  C   UNL     1       5.255   2.841  -0.438  1.00  0.00    -0.000 C 
BRANCH   2   3
ATOM      3  C   UNL     1       6.377   3.422   0.430  1.00  0.00    -0.003 C 
ATOM      4  C   UNL     1       7.190   2.315   1.096  1.00  0.00     0.004 C 
ENDBRANCH   2   3
ENDBRANCH   1   2
BRANCH   1   5
ATOM      5  C   UNL     1       6.367   3.867  -2.499  1.00  0.00     0.028 C 
BRANCH   5   6
ATOM      6  C   UNL     1       5.321   4.841  -3.052  1.00  0.00     0.156 C 
BRANCH   6   7
ATOM      7  O   UNL     1       5.835   6.145  -3.065  1.00  0.00    -0.396 OA
ATOM      8  H   UNL     1       5.054   6.758  -3.022  1.00  0.00     0.210 HD
ENDBRANCH   6   7
ENDBRANCH   5   6
ENDBRANCH   1   5
TORSDOF 5
ENDMDL
MODEL 4
REMARK VINA RESULT:    -2.607      8.666      9.396
REMARK INTER + INTRA:          -3.333
REMARK INTER:                  -3.104
REMARK INTRA:                  -0.228
REMARK UNBOUND:                -0.039
REMARK SMILES CCCCCCO
REMARK SMILES IDX 4 1 3 2 2 3 1 4 5 5 6 6 7 7
REMARK H PARENT 7 8
REMARK Flexibility Score: inf
ROOT
ATOM      1  C   UNL     1       5.565   3.056  -0.068  1.00  0.00     0.002 C 
ENDROOT
BRANCH   1   2
ATOM      2  C   UNL     1       5.638   1.523  -0.084  1.00  0.00    -0.000 C 
BRANCH   2   3
ATOM      3  C   UNL     1       6.843   1.023   0.721  1.00  0.00    -0.003 C 
ATOM      4  C   UNL     1       7.484   2.157   1.517  1.00  0.00     0.004 C 
ENDBRANCH   2   3
ENDBRANCH   1   2
BRANCH   1   5
ATOM      5  C   UNL     1       5.654   3.667  -1.475  1.00  0.00     0.028 C 
BRANCH   5   6
ATOM      6  C   UNL     1       6.980   3.350  -2.176  1.00  0.00     0.156 C 
BRANCH   6   7
ATOM      7  O   UNL     1       8.036   4.012  -1.535  1.00  0.00    -0.396 OA
ATOM      8  H   UNL     1       8.356   3.406  -0.816  1.00  0.00     0.210 HD
ENDBRANCH   6   7
ENDBRANCH   5   6
ENDBRANCH   1   5
TORSDOF 5
ENDMDL
MODEL 5
REMARK VINA RESULT:    -2.593      8.025      8.581
REMARK INTER + INTRA:          -3.314
REMARK INTER:                  -3.156
REMARK INTRA:                  -0.158
REMARK UNBOUND:                -0.039
REMARK SMILES CCCCCCO
REMARK SMILES IDX 4 1 3 2 2 3 1 4 5 5 6 6 7 7
REMARK H PARENT 7 8
REMARK Flexibility Score: inf
ROOT
ATOM      1  C   UNL     1       6.846   3.553  -2.168  1.00  0.00     0.002 C 
ENDROOT
BRANCH   1   2
ATOM      2  C   UNL     1       6.613   4.538  -3.323  1.00  0.00    -0.000 C 
BRANCH   2   3
ATOM      3  C   UNL     1       5.374   5.402  -3.064  1.00  0.00    -0.003 C 
ATOM      4  C   UNL     1       5.019   6.239  -4.291  1.00  0.00     0.004 C 
ENDBRANCH   2   3
ENDBRANCH   1   2
BRANCH   1   5
ATOM      5  C   UNL     1       5.543   2.907  -1.671  1.00  0.00     0.028 C 
BRANCH   5   6
ATOM      6  C   UNL     1       5.415   2.930  -0.143  1.00  0.00     0.156 C 
BRANCH   6   7
ATOM      7  O   UNL     1       6.070   4.054   0.379  1.00  0.00    -0.396 OA
ATOM      8  H   UNL     1       5.453   4.458   1.045  1.00  0.00     0.210 HD
ENDBRANCH   6   7
ENDBRANCH   5   6
ENDBRANCH   1   5
TORSDOF 5
ENDMDL
MODEL 6
REMARK VINA RESULT:    -2.570      1.101      1.575
REMARK INTER + INTRA:          -3.285
REMARK INTER:                  -3.194
REMARK INTRA:                  -0.091
REMARK UNBOUND:                -0.039
REMARK SMILES CCCCCCO
REMARK SMILES IDX 4 1 3 2 2 3 1 4 5 5 6 6 7 7
REMARK H PARENT 7 8
REMARK Flexibility Score: inf
ROOT
ATOM      1  C   UNL     1      -1.922   4.938  -1.163  1.00  0.00     0.002 C 
ENDROOT
BRANCH   1   2
ATOM      2  C   UNL     1      -2.485   6.299  -1.596  1.00  0.00    -0.000 C 
BRANCH   2   3
ATOM      3  C   UNL     1      -1.656   7.447  -1.009  1.00  0.00    -0.003 C 
ATOM      4  C   UNL     1      -1.157   7.107   0.393  1.00  0.00     0.004 C 
ENDBRANCH   2   3
ENDBRANCH   1   2
BRANCH   1   5
ATOM      5  C   UNL     1      -1.182   4.215  -2.300  1.00  0.00     0.028 C 
BRANCH   5   6
ATOM      6  C   UNL     1      -2.135   3.615  -3.341  1.00  0.00     0.156 C 
BRANCH   6   7
ATOM      7  O   UNL     1      -2.263   2.234  -3.138  1.00  0.00    -0.396 OA
ATOM      8  H   UNL     1      -2.920   2.114  -2.403  1.00  0.00     0.210 HD
ENDBRANCH   6   7
ENDBRANCH   5   6
ENDBRANCH   1   5
TORSDOF 5
ENDMDL
MODEL 7
REMARK VINA RESULT:    -2.551      7.762      8.355
REMARK INTER + INTRA:          -3.262
REMARK INTER:                  -3.147
REMARK INTRA:                  -0.115
REMARK UNBOUND:                -0.039
REMARK SMILES CCCCCCO
REMARK SMILES IDX 4 1 3 2 2 3 1 4 5 5 6 6 7 7
REMARK H PARENT 7 8
REMARK Flexibility Score: inf
ROOT
ATOM      1  C   UNL     1       6.481   4.706  -3.540  1.00  0.00     0.002 C 
ENDROOT
BRANCH   1   2
ATOM      2  C   UNL     1       6.818   3.763  -2.376  1.00  0.00    -0.000 C 
BRANCH   2   3
ATOM      3  C   UNL     1       5.565   3.440  -1.553  1.00  0.00    -0.003 C 
ATOM      4  C   UNL     1       5.850   3.532  -0.055  1.00  0.00     0.004 C 
ENDBRANCH   2   3
ENDBRANCH   1   2
BRANCH   1   5
ATOM      5  C   UNL     1       5.327   5.665  -3.209  1.00  0.00     0.028 C 
BRANCH   5   6
ATOM      6  C   UNL     1       4.454   5.985  -4.428  1.00  0.00     0.156 C 
BRANCH   6   7
ATOM      7  O   UNL     1       4.300   7.372  -4.561  1.00  0.00    -0.396 OA
ATOM      8  H   UNL     1       3.542   7.631  -3.974  1.00  0.00     0.210 HD
ENDBRANCH   6   7
ENDBRANCH   5   6
ENDBRANCH   1   5
TORSDOF 5
ENDMDL
MODEL 8
REMARK VINA RESULT:    -2.550      8.250      8.930
REMARK INTER + INTRA:          -3.261
REMARK INTER:                  -3.160
REMARK INTRA:                  -0.100
REMARK UNBOUND:                -0.039
REMARK SMILES CCCCCCO
REMARK SMILES IDX 4 1 3 2 2 3 1 4 5 5 6 6 7 7
REMARK H PARENT 7 8
REMARK Flexibility Score: inf
ROOT
ATOM      1  C   UNL     1       5.559   0.951  -0.119  1.00  0.00     0.002 C 
ENDROOT
BRANCH   1   2
ATOM      2  C   UNL     1       5.311   2.463  -0.214  1.00  0.00    -0.000 C 
BRANCH   2   3
ATOM      3  C   UNL     1       6.434   3.248   0.474  1.00  0.00    -0.003 C 
ATOM      4  C   UNL     1       7.323   2.325   1.305  1.00  0.00     0.004 C 
ENDBRANCH   2   3
ENDBRANCH   1   2
BRANCH   1   5
ATOM      5  C   UNL     1       5.672   0.282  -1.497  1.00  0.00     0.028 C 
BRANCH   5   6
ATOM      6  C   UNL     1       4.886  -1.032  -1.585  1.00  0.00     0.156 C 
BRANCH   6   7
ATOM      7  O   UNL     1       4.553  -1.481  -0.300  1.00  0.00    -0.396 OA
ATOM      8  H   UNL     1       4.787  -2.447  -0.267  1.00  0.00     0.210 HD
ENDBRANCH   6   7
ENDBRANCH   5   6
ENDBRANCH   1   5
TORSDOF 5
ENDMDL
MODEL 9
REMARK VINA RESULT:    -2.521      9.087      9.888
REMARK INTER + INTRA:          -3.223
REMARK INTER:                  -3.032
REMARK INTRA:                  -0.191
REMARK UNBOUND:                -0.039
REMARK SMILES CCCCCCO
REMARK SMILES IDX 4 1 3 2 2 3 1 4 5 5 6 6 7 7
REMARK H PARENT 7 8
REMARK Flexibility Score: inf
ROOT
ATOM      1  C   UNL     1       6.225   2.113   0.386  1.00  0.00     0.002 C 
ENDROOT
BRANCH   1   2
ATOM      2  C   UNL     1       5.812   3.539  -0.004  1.00  0.00    -0.000 C 
BRANCH   2   3
ATOM      3  C   UNL     1       5.739   3.692  -1.528  1.00  0.00    -0.003 C 
ATOM      4  C   UNL     1       5.841   2.337  -2.224  1.00  0.00     0.004 C 
ENDBRANCH   2   3
ENDBRANCH   1   2
BRANCH   1   5
ATOM      5  C   UNL     1       7.434   2.086   1.335  1.00  0.00     0.028 C 
BRANCH   5   6
ATOM      6  C   UNL     1       8.706   1.560   0.660  1.00  0.00     0.156 C 
BRANCH   6   7
ATOM      7  O   UNL     1       9.244   2.541  -0.185  1.00  0.00    -0.396 OA
ATOM      8  H   UNL     1       8.723   3.371  -0.025  1.00  0.00     0.210 HD
ENDBRANCH   6   7
ENDBRANCH   5   6
ENDBRANCH   1   5
TORSDOF 5
ENDMDL
