MODEL 1
REMARK VINA RESULT:     6.021      0.000      0.000
REMARK INTER + INTRA:           5.982
REMARK INTER:                   6.725
REMARK INTRA:                  -0.743
REMARK UNBOUND:                -0.743
REMARK SMILES C=C(C)[C@H]1CC[C@]2(C(=O)[O-])CC[C@]3(C)[C@@H](CC[C@H]4[C@@]5(C)CCC(=O)C(C)(C)[C@@H]5CC[C@]43C)[C@H]12
REMARK SMILES IDX 7 1 6 2 33 3 11 4 5 5 15 6 4 7 12 8 16 9 13 10 17 11 31 12
REMARK SMILES IDX 14 13 18 14 30 15 32 16 19 17 29 18 21 19 20 20 28 21 22 22
REMARK SMILES IDX 25 23 23 24 26 25 27 26 24 27 8 28 9 29 10 30 2 31 3 32 1 33
REMARK H PARENT
REMARK Flexibility Score: inf
ROOT
ATOM      1  C   UNL     1     -12.015  14.855 -31.738  1.00  0.00     0.014 C 
ATOM      2  C   UNL     1     -10.688  15.141 -31.013  1.00  0.00     0.014 C 
ATOM      3  C   UNL     1     -12.279  13.329 -31.475  1.00  0.00     0.012 C 
ATOM      4  C   UNL     1     -13.149  15.755 -31.189  1.00  0.00     0.014 C 
ATOM      5  C   UNL     1      -9.878  13.871 -31.167  1.00  0.00     0.009 C 
ATOM      6  C   UNL     1     -13.403  13.059 -30.411  1.00  0.00     0.000 C 
ATOM      7  C   UNL     1     -10.903  12.748 -31.022  1.00  0.00     0.018 C 
ATOM      8  C   UNL     1     -14.506  15.133 -31.519  1.00  0.00     0.008 C 
ATOM      9  C   UNL     1     -13.584  11.538 -30.179  1.00  0.00     0.005 C 
ATOM     10  C   UNL     1     -14.777  13.837 -30.669  1.00  0.00    -0.024 C 
ATOM     11  C   UNL     1     -14.927  11.198 -29.552  1.00  0.00     0.005 C 
ATOM     12  C   UNL     1     -15.894  12.892 -31.357  1.00  0.00    -0.024 C 
ATOM     13  C   UNL     1     -15.310  14.356 -29.276  1.00  0.00     0.012 C 
ATOM     14  C   UNL     1     -16.120  11.535 -30.495  1.00  0.00     0.002 C 
ATOM     15  C   UNL     1     -17.200  13.733 -31.604  1.00  0.00     0.008 C 
ATOM     16  C   UNL     1     -15.457  12.437 -32.798  1.00  0.00     0.012 C 
ATOM     17  C   UNL     1     -17.575  11.189 -29.874  1.00  0.00    -0.025 C 
ATOM     18  C   UNL     1     -18.489  12.943 -31.480  1.00  0.00     0.006 C 
ATOM     19  C   UNL     1     -17.531  10.925 -28.338  1.00  0.00     0.015 C 
ATOM     20  C   UNL     1     -18.078   9.877 -30.559  1.00  0.00     0.012 C 
ATOM     21  C   UNL     1     -18.580  12.370 -30.058  1.00  0.00     0.008 C 
ATOM     22  C   UNL     1     -18.883  10.538 -27.720  1.00  0.00     0.077 C 
ATOM     23  C   UNL     1     -20.057  12.125 -29.549  1.00  0.00     0.027 C 
ATOM     24  C   UNL     1     -20.098  11.188 -28.342  1.00  0.00     0.138 C 
ATOM     25  C   UNL     1     -20.658  13.476 -29.081  1.00  0.00     0.020 C 
ATOM     26  C   UNL     1     -20.988  11.566 -30.662  1.00  0.00     0.020 C 
ATOM     27  O   UNL     1     -21.183  10.930 -27.837  1.00  0.00    -0.299 OA
ENDROOT
BRANCH   1  28
ATOM     28  C   UNL     1     -11.844  15.165 -33.228  1.00  0.00     0.048 C 
ATOM     29  O   UNL     1     -11.310  16.239 -33.619  1.00  0.00    -0.550 OA
ATOM     30  O   UNL     1     -12.180  14.207 -34.180  1.00  0.00    -0.550 OA
ENDBRANCH   1  28
BRANCH   7  31
ATOM     31  C   UNL     1     -10.494  11.489 -31.778  1.00  0.00    -0.077 C 
ATOM     32  C   UNL     1     -10.194  11.523 -33.255  1.00  0.00     0.039 C 
ATOM     33  C   UNL     1     -10.386  10.319 -31.128  1.00  0.00     0.008 C 
ENDBRANCH   7  31
TORSDOF 2
ENDMDL
MODEL 2
REMARK VINA RESULT:     8.512      2.446      8.321
REMARK INTER + INTRA:           8.764
REMARK INTER:                   8.416
REMARK INTRA:                   0.348
REMARK UNBOUND:                -0.743
REMARK SMILES C=C(C)[C@H]1CC[C@]2(C(=O)[O-])CC[C@]3(C)[C@@H](CC[C@H]4[C@@]5(C)CCC(=O)C(C)(C)[C@@H]5CC[C@]43C)[C@H]12
REMARK SMILES IDX 7 1 6 2 33 3 11 4 5 5 15 6 4 7 12 8 16 9 13 10 17 11 31 12
REMARK SMILES IDX 14 13 18 14 30 15 32 16 19 17 29 18 21 19 20 20 28 21 22 22
REMARK SMILES IDX 25 23 23 24 26 25 27 26 24 27 8 28 9 29 10 30 2 31 3 32 1 33
REMARK H PARENT
REMARK Flexibility Score: inf
ROOT
ATOM      1  C   UNL     1     -21.101  11.970 -30.112  1.00  0.00     0.014 C 
ATOM      2  C   UNL     1     -22.130  10.944 -30.619  1.00  0.00     0.014 C 
ATOM      3  C   UNL     1     -20.356  11.226 -28.946  1.00  0.00     0.012 C 
ATOM      4  C   UNL     1     -20.142  12.398 -31.250  1.00  0.00     0.014 C 
ATOM      5  C   UNL     1     -22.562  10.182 -29.384  1.00  0.00     0.009 C 
ATOM      6  C   UNL     1     -18.910  10.743 -29.331  1.00  0.00     0.000 C 
ATOM      7  C   UNL     1     -21.282  10.029 -28.566  1.00  0.00     0.018 C 
ATOM      8  C   UNL     1     -18.861  12.979 -30.652  1.00  0.00     0.008 C 
ATOM      9  C   UNL     1     -18.251   9.992 -28.147  1.00  0.00     0.005 C 
ATOM     10  C   UNL     1     -17.974  11.868 -29.979  1.00  0.00    -0.024 C 
ATOM     11  C   UNL     1     -16.736   9.922 -28.270  1.00  0.00     0.005 C 
ATOM     12  C   UNL     1     -16.941  12.495 -28.905  1.00  0.00    -0.024 C 
ATOM     13  C   UNL     1     -17.167  11.204 -31.163  1.00  0.00     0.012 C 
ATOM     14  C   UNL     1     -16.073  11.329 -28.181  1.00  0.00     0.002 C 
ATOM     15  C   UNL     1     -16.079  13.608 -29.608  1.00  0.00     0.008 C 
ATOM     16  C   UNL     1     -17.695  13.266 -27.760  1.00  0.00     0.012 C 
ATOM     17  C   UNL     1     -14.459  11.310 -28.303  1.00  0.00    -0.025 C 
ATOM     18  C   UNL     1     -14.660  13.726 -29.086  1.00  0.00     0.006 C 
ATOM     19  C   UNL     1     -13.908   9.953 -28.840  1.00  0.00     0.015 C 
ATOM     20  C   UNL     1     -13.876  11.516 -26.868  1.00  0.00     0.012 C 
ATOM     21  C   UNL     1     -13.941  12.387 -29.308  1.00  0.00     0.008 C 
ATOM     22  C   UNL     1     -12.375   9.875 -28.917  1.00  0.00     0.077 C 
ATOM     23  C   UNL     1     -12.372  12.509 -29.464  1.00  0.00     0.027 C 
ATOM     24  C   UNL     1     -11.670  11.167 -29.261  1.00  0.00     0.138 C 
ATOM     25  C   UNL     1     -12.044  12.966 -30.909  1.00  0.00     0.020 C 
ATOM     26  C   UNL     1     -11.755  13.561 -28.497  1.00  0.00     0.020 C 
ATOM     27  O   UNL     1     -10.451  11.119 -29.373  1.00  0.00    -0.299 OA
ENDROOT
BRANCH   1  28
ATOM     28  C   UNL     1     -21.843  13.217 -29.623  1.00  0.00     0.048 C 
ATOM     29  O   UNL     1     -21.229  14.287 -29.362  1.00  0.00    -0.550 OA
ATOM     30  O   UNL     1     -23.234  13.219 -29.565  1.00  0.00    -0.550 OA
ENDBRANCH   1  28
BRANCH   7  31
ATOM     31  C   UNL     1     -21.559   9.924 -27.070  1.00  0.00    -0.077 C 
ATOM     32  C   UNL     1     -20.436   9.879 -26.066  1.00  0.00     0.039 C 
ATOM     33  C   UNL     1     -22.824   9.876 -26.621  1.00  0.00     0.008 C 
ENDBRANCH   7  31
TORSDOF 2
ENDMDL
