MODEL 1
REMARK VINA RESULT:    -3.420      0.000      0.000
REMARK INTER + INTRA:          -4.497
REMARK INTER:                  -4.120
REMARK INTRA:                  -0.378
REMARK UNBOUND:                -0.378
REMARK SMILES NC(=O)C[C@@H]([NH3+])C(=O)[O-]
REMARK SMILES IDX 4 1 5 2 6 3 7 7 8 8 9 9 2 10 3 11 1 12
REMARK H PARENT 6 4 6 5 6 6 1 13 1 14
REMARK Flexibility Score: inf
ROOT
ATOM      1  C   UNL     1     165.061 176.673 167.142  1.00  0.00     0.171 C 
ENDROOT
BRANCH   1   2
ATOM      2  C   UNL     1     165.287 177.985 167.925  1.00  0.00     0.237 C 
BRANCH   2   3
ATOM      3  N   UNL     1     166.349 178.805 167.325  1.00  0.00    -0.350 N 
ATOM      4  H   UNL     1     166.513 179.677 167.878  1.00  0.00     0.345 HD
ATOM      5  H   UNL     1     166.086 179.064 166.346  1.00  0.00     0.345 HD
ATOM      6  H   UNL     1     167.238 178.254 167.289  1.00  0.00     0.345 HD
ENDBRANCH   2   3
BRANCH   2   7
ATOM      7  C   UNL     1     164.006 178.766 168.073  1.00  0.00     0.100 C 
ATOM      8  O   UNL     1     163.066 178.333 168.792  1.00  0.00    -0.544 OA
ATOM      9  O   UNL     1     163.876 180.001 167.451  1.00  0.00    -0.544 OA
ENDBRANCH   2   7
ENDBRANCH   1   2
BRANCH   1  10
ATOM     10  C   UNL     1     164.281 176.866 165.872  1.00  0.00     0.223 C 
ATOM     11  O   UNL     1     164.742 177.605 164.960  1.00  0.00    -0.275 OA
ATOM     12  N   UNL     1     163.032 176.204 165.680  1.00  0.00    -0.369 N 
ATOM     13  H   UNL     1     162.639 175.581 166.421  1.00  0.00     0.159 HD
ATOM     14  H   UNL     1     162.497 176.332 164.792  1.00  0.00     0.159 HD
ENDBRANCH   1  10
TORSDOF 4
ENDMDL
MODEL 2
REMARK VINA RESULT:    -3.315      2.299      3.306
REMARK INTER + INTRA:          -4.370
REMARK INTER:                  -4.116
REMARK INTRA:                  -0.254
REMARK UNBOUND:                -0.378
REMARK SMILES NC(=O)C[C@@H]([NH3+])C(=O)[O-]
REMARK SMILES IDX 4 1 5 2 6 3 7 7 8 8 9 9 2 10 3 11 1 12
REMARK H PARENT 6 4 6 5 6 6 1 13 1 14
REMARK Flexibility Score: inf
ROOT
ATOM      1  C   UNL     1     164.008 179.091 167.920  1.00  0.00     0.171 C 
ENDROOT
BRANCH   1   2
ATOM      2  C   UNL     1     162.704 178.333 168.256  1.00  0.00     0.237 C 
BRANCH   2   3
ATOM      3  N   UNL     1     162.730 177.776 169.615  1.00  0.00    -0.350 N 
ATOM      4  H   UNL     1     161.791 177.411 169.894  1.00  0.00     0.345 HD
ATOM      5  H   UNL     1     163.027 178.513 170.295  1.00  0.00     0.345 HD
ATOM      6  H   UNL     1     163.424 176.993 169.659  1.00  0.00     0.345 HD
ENDBRANCH   2   3
BRANCH   2   7
ATOM      7  C   UNL     1     161.490 179.203 168.042  1.00  0.00     0.100 C 
ATOM      8  O   UNL     1     161.484 180.091 167.148  1.00  0.00    -0.544 OA
ATOM      9  O   UNL     1     160.348 178.991 168.802  1.00  0.00    -0.544 OA
ENDBRANCH   2   7
ENDBRANCH   1   2
BRANCH   1  10
ATOM     10  C   UNL     1     165.172 178.178 167.653  1.00  0.00     0.223 C 
ATOM     11  O   UNL     1     164.985 176.935 167.560  1.00  0.00    -0.275 OA
ATOM     12  N   UNL     1     166.486 178.710 167.483  1.00  0.00    -0.369 N 
ATOM     13  H   UNL     1     166.658 179.738 167.548  1.00  0.00     0.159 HD
ATOM     14  H   UNL     1     167.291 178.074 167.288  1.00  0.00     0.159 HD
ENDBRANCH   1  10
TORSDOF 4
ENDMDL
MODEL 3
REMARK VINA RESULT:    -3.277      1.761      3.058
REMARK INTER + INTRA:          -4.325
REMARK INTER:                  -4.072
REMARK INTRA:                  -0.253
REMARK UNBOUND:                -0.378
REMARK SMILES NC(=O)C[C@@H]([NH3+])C(=O)[O-]
REMARK SMILES IDX 4 1 5 2 6 3 7 7 8 8 9 9 2 10 3 11 1 12
REMARK H PARENT 6 4 6 5 6 6 1 13 1 14
REMARK Flexibility Score: inf
ROOT
ATOM      1  C   UNL     1     164.106 178.109 168.377  1.00  0.00     0.171 C 
ENDROOT
BRANCH   1   2
ATOM      2  C   UNL     1     162.852 178.430 167.533  1.00  0.00     0.237 C 
BRANCH   2   3
ATOM      3  N   UNL     1     162.530 177.346 166.596  1.00  0.00    -0.350 N 
ATOM      4  H   UNL     1     162.918 177.538 165.645  1.00  0.00     0.345 HD
ATOM      5  H   UNL     1     161.492 177.234 166.527  1.00  0.00     0.345 HD
ATOM      6  H   UNL     1     162.931 176.447 166.951  1.00  0.00     0.345 HD
ENDBRANCH   2   3
BRANCH   2   7
ATOM      7  C   UNL     1     161.672 178.771 168.408  1.00  0.00     0.100 C 
ATOM      8  O   UNL     1     160.822 179.627 168.040  1.00  0.00    -0.544 OA
ATOM      9  O   UNL     1     161.489 178.101 169.610  1.00  0.00    -0.544 OA
ENDBRANCH   2   7
ENDBRANCH   1   2
BRANCH   1  10
ATOM     10  C   UNL     1     165.261 177.608 167.556  1.00  0.00     0.223 C 
ATOM     11  O   UNL     1     165.235 176.439 167.084  1.00  0.00    -0.275 OA
ATOM     12  N   UNL     1     166.381 178.452 167.289  1.00  0.00    -0.369 N 
ATOM     13  H   UNL     1     166.416 179.426 167.664  1.00  0.00     0.159 HD
ATOM     14  H   UNL     1     167.177 178.104 166.709  1.00  0.00     0.159 HD
ENDBRANCH   1  10
TORSDOF 4
ENDMDL
MODEL 4
REMARK VINA RESULT:    -3.273      2.126      2.375
REMARK INTER + INTRA:          -4.320
REMARK INTER:                  -4.194
REMARK INTRA:                  -0.126
REMARK UNBOUND:                -0.378
REMARK SMILES NC(=O)C[C@@H]([NH3+])C(=O)[O-]
REMARK SMILES IDX 4 1 5 2 6 3 7 7 8 8 9 9 2 10 3 11 1 12
REMARK H PARENT 6 4 6 5 6 6 1 13 1 14
REMARK Flexibility Score: inf
ROOT
ATOM      1  C   UNL     1     164.556 178.155 168.226  1.00  0.00     0.171 C 
ENDROOT
BRANCH   1   2
ATOM      2  C   UNL     1     163.024 178.048 168.395  1.00  0.00     0.237 C 
BRANCH   2   3
ATOM      3  N   UNL     1     162.647 177.731 169.780  1.00  0.00    -0.350 N 
ATOM      4  H   UNL     1     162.807 176.720 169.994  1.00  0.00     0.345 HD
ATOM      5  H   UNL     1     161.638 177.959 169.934  1.00  0.00     0.345 HD
ATOM      6  H   UNL     1     163.217 178.310 170.439  1.00  0.00     0.345 HD
ENDBRANCH   2   3
BRANCH   2   7
ATOM      7  C   UNL     1     162.327 179.293 167.907  1.00  0.00     0.100 C 
ATOM      8  O   UNL     1     161.126 179.522 168.213  1.00  0.00    -0.544 OA
ATOM      9  O   UNL     1     163.028 180.225 167.154  1.00  0.00    -0.544 OA
ENDBRANCH   2   7
ENDBRANCH   1   2
BRANCH   1  10
ATOM     10  C   UNL     1     165.079 177.379 167.050  1.00  0.00     0.223 C 
ATOM     11  O   UNL     1     165.277 177.964 165.951  1.00  0.00    -0.275 OA
ATOM     12  N   UNL     1     165.372 175.987 167.172  1.00  0.00    -0.369 N 
ATOM     13  H   UNL     1     165.222 175.488 168.077  1.00  0.00     0.159 HD
ATOM     14  H   UNL     1     165.744 175.453 166.356  1.00  0.00     0.159 HD
ENDBRANCH   1  10
TORSDOF 4
ENDMDL
MODEL 5
REMARK VINA RESULT:    -3.268      1.987      3.212
REMARK INTER + INTRA:          -4.314
REMARK INTER:                  -4.024
REMARK INTRA:                  -0.290
REMARK UNBOUND:                -0.378
REMARK SMILES NC(=O)C[C@@H]([NH3+])C(=O)[O-]
REMARK SMILES IDX 4 1 5 2 6 3 7 7 8 8 9 9 2 10 3 11 1 12
REMARK H PARENT 6 4 6 5 6 6 1 13 1 14
REMARK Flexibility Score: inf
ROOT
ATOM      1  C   UNL     1     164.710 178.242 168.253  1.00  0.00     0.171 C 
ENDROOT
BRANCH   1   2
ATOM      2  C   UNL     1     165.181 177.534 166.963  1.00  0.00     0.237 C 
BRANCH   2   3
ATOM      3  N   UNL     1     164.360 176.356 166.654  1.00  0.00    -0.350 N 
ATOM      4  H   UNL     1     163.477 176.352 167.214  1.00  0.00     0.345 HD
ATOM      5  H   UNL     1     164.900 175.484 166.860  1.00  0.00     0.345 HD
ATOM      6  H   UNL     1     164.116 176.356 165.637  1.00  0.00     0.345 HD
ENDBRANCH   2   3
BRANCH   2   7
ATOM      7  C   UNL     1     165.233 178.489 165.797  1.00  0.00     0.100 C 
ATOM      8  O   UNL     1     165.994 179.494 165.820  1.00  0.00    -0.544 OA
ATOM      9  O   UNL     1     164.473 178.235 164.663  1.00  0.00    -0.544 OA
ENDBRANCH   2   7
ENDBRANCH   1   2
BRANCH   1  10
ATOM     10  C   UNL     1     163.223 178.166 168.462  1.00  0.00     0.223 C 
ATOM     11  O   UNL     1     162.442 178.515 167.537  1.00  0.00    -0.275 OA
ATOM     12  N   UNL     1     162.689 177.682 169.694  1.00  0.00    -0.369 N 
ATOM     13  H   UNL     1     163.321 177.381 170.468  1.00  0.00     0.159 HD
ATOM     14  H   UNL     1     161.655 177.621 169.833  1.00  0.00     0.159 HD
ENDBRANCH   1  10
TORSDOF 4
ENDMDL
MODEL 6
REMARK VINA RESULT:    -3.162      2.841      3.678
REMARK INTER + INTRA:          -4.186
REMARK INTER:                  -3.935
REMARK INTRA:                  -0.251
REMARK UNBOUND:                -0.378
REMARK SMILES NC(=O)C[C@@H]([NH3+])C(=O)[O-]
REMARK SMILES IDX 4 1 5 2 6 3 7 7 8 8 9 9 2 10 3 11 1 12
REMARK H PARENT 6 4 6 5 6 6 1 13 1 14
REMARK Flexibility Score: inf
ROOT
ATOM      1  C   UNL     1     162.948 178.121 169.174  1.00  0.00     0.171 C 
ENDROOT
BRANCH   1   2
ATOM      2  C   UNL     1     163.491 178.306 167.739  1.00  0.00     0.237 C 
BRANCH   2   3
ATOM      3  N   UNL     1     163.355 179.694 167.277  1.00  0.00    -0.350 N 
ATOM      4  H   UNL     1     162.403 179.872 166.882  1.00  0.00     0.345 HD
ATOM      5  H   UNL     1     164.073 179.895 166.544  1.00  0.00     0.345 HD
ATOM      6  H   UNL     1     163.517 180.347 168.079  1.00  0.00     0.345 HD
ENDBRANCH   2   3
BRANCH   2   7
ATOM      7  C   UNL     1     164.914 177.823 167.622  1.00  0.00     0.100 C 
ATOM      8  O   UNL     1     165.167 176.631 167.300  1.00  0.00    -0.544 OA
ATOM      9  O   UNL     1     165.962 178.713 167.820  1.00  0.00    -0.544 OA
ENDBRANCH   2   7
ENDBRANCH   1   2
BRANCH   1  10
ATOM     10  C   UNL     1     161.448 178.181 169.254  1.00  0.00     0.223 C 
ATOM     11  O   UNL     1     160.764 178.167 168.195  1.00  0.00    -0.275 OA
ATOM     12  N   UNL     1     160.791 178.234 170.519  1.00  0.00    -0.369 N 
ATOM     13  H   UNL     1     161.342 178.238 171.407  1.00  0.00     0.159 HD
ATOM     14  H   UNL     1     159.748 178.265 170.572  1.00  0.00     0.159 HD
ENDBRANCH   1  10
TORSDOF 4
ENDMDL
MODEL 7
REMARK VINA RESULT:    -3.153      2.281      2.906
REMARK INTER + INTRA:          -4.176
REMARK INTER:                  -3.656
REMARK INTRA:                  -0.520
REMARK UNBOUND:                -0.378
REMARK SMILES NC(=O)C[C@@H]([NH3+])C(=O)[O-]
REMARK SMILES IDX 4 1 5 2 6 3 7 7 8 8 9 9 2 10 3 11 1 12
REMARK H PARENT 6 4 6 5 6 6 1 13 1 14
REMARK Flexibility Score: inf
ROOT
ATOM      1  C   UNL     1     162.866 178.547 166.514  1.00  0.00     0.171 C 
ENDROOT
BRANCH   1   2
ATOM      2  C   UNL     1     163.658 178.504 167.840  1.00  0.00     0.237 C 
BRANCH   2   3
ATOM      3  N   UNL     1     162.942 177.752 168.880  1.00  0.00    -0.350 N 
ATOM      4  H   UNL     1     161.971 178.116 169.011  1.00  0.00     0.345 HD
ATOM      5  H   UNL     1     163.460 177.820 169.786  1.00  0.00     0.345 HD
ATOM      6  H   UNL     1     162.892 176.742 168.609  1.00  0.00     0.345 HD
ENDBRANCH   2   3
BRANCH   2   7
ATOM      7  C   UNL     1     165.051 177.967 167.633  1.00  0.00     0.100 C 
ATOM      8  O   UNL     1     166.057 178.717 167.760  1.00  0.00    -0.544 OA
ATOM      9  O   UNL     1     165.236 176.620 167.349  1.00  0.00    -0.544 OA
ENDBRANCH   2   7
ENDBRANCH   1   2
BRANCH   1  10
ATOM     10  C   UNL     1     162.029 177.321 166.282  1.00  0.00     0.223 C 
ATOM     11  O   UNL     1     160.806 177.330 166.590  1.00  0.00    -0.275 OA
ATOM     12  N   UNL     1     162.601 176.152 165.697  1.00  0.00    -0.369 N 
ATOM     13  H   UNL     1     163.610 176.129 165.428  1.00  0.00     0.159 HD
ATOM     14  H   UNL     1     162.014 175.304 165.528  1.00  0.00     0.159 HD
ENDBRANCH   1  10
TORSDOF 4
ENDMDL
MODEL 8
REMARK VINA RESULT:    -3.049      1.315      3.444
REMARK INTER + INTRA:          -4.051
REMARK INTER:                  -3.634
REMARK INTRA:                  -0.417
REMARK UNBOUND:                -0.378
REMARK SMILES NC(=O)C[C@@H]([NH3+])C(=O)[O-]
REMARK SMILES IDX 4 1 5 2 6 3 7 7 8 8 9 9 2 10 3 11 1 12
REMARK H PARENT 6 4 6 5 6 6 1 13 1 14
REMARK Flexibility Score: inf
ROOT
ATOM      1  C   UNL     1     164.921 176.733 166.533  1.00  0.00     0.171 C 
ENDROOT
BRANCH   1   2
ATOM      2  C   UNL     1     163.682 177.037 165.662  1.00  0.00     0.237 C 
BRANCH   2   3
ATOM      3  N   UNL     1     162.436 176.963 166.438  1.00  0.00    -0.350 N 
ATOM      4  H   UNL     1     161.608 176.828 165.814  1.00  0.00     0.345 HD
ATOM      5  H   UNL     1     162.310 177.843 166.990  1.00  0.00     0.345 HD
ATOM      6  H   UNL     1     162.489 176.162 167.109  1.00  0.00     0.345 HD
ENDBRANCH   2   3
BRANCH   2   7
ATOM      7  C   UNL     1     163.814 178.364 164.959  1.00  0.00     0.100 C 
ATOM      8  O   UNL     1     164.666 178.527 164.044  1.00  0.00    -0.544 OA
ATOM      9  O   UNL     1     162.955 179.405 165.284  1.00  0.00    -0.544 OA
ENDBRANCH   2   7
ENDBRANCH   1   2
BRANCH   1  10
ATOM     10  C   UNL     1     165.242 177.829 167.512  1.00  0.00     0.223 C 
ATOM     11  O   UNL     1     164.439 178.086 168.449  1.00  0.00    -0.275 OA
ATOM     12  N   UNL     1     166.457 178.568 167.400  1.00  0.00    -0.369 N 
ATOM     13  H   UNL     1     167.138 178.363 166.634  1.00  0.00     0.159 HD
ATOM     14  H   UNL     1     166.682 179.322 168.087  1.00  0.00     0.159 HD
ENDBRANCH   1  10
TORSDOF 4
ENDMDL
MODEL 9
REMARK VINA RESULT:    -3.016      2.806      3.790
REMARK INTER + INTRA:          -4.011
REMARK INTER:                  -3.507
REMARK INTRA:                  -0.504
REMARK UNBOUND:                -0.378
REMARK SMILES NC(=O)C[C@@H]([NH3+])C(=O)[O-]
REMARK SMILES IDX 4 1 5 2 6 3 7 7 8 8 9 9 2 10 3 11 1 12
REMARK H PARENT 6 4 6 5 6 6 1 13 1 14
REMARK Flexibility Score: inf
ROOT
ATOM      1  C   UNL     1     161.451 178.885 167.861  1.00  0.00     0.171 C 
ENDROOT
BRANCH   1   2
ATOM      2  C   UNL     1     162.789 178.640 168.593  1.00  0.00     0.237 C 
BRANCH   2   3
ATOM      3  N   UNL     1     162.625 177.749 169.750  1.00  0.00    -0.350 N 
ATOM      4  H   UNL     1     162.680 176.745 169.466  1.00  0.00     0.345 HD
ATOM      5  H   UNL     1     161.700 177.927 170.206  1.00  0.00     0.345 HD
ATOM      6  H   UNL     1     163.377 177.945 170.451  1.00  0.00     0.345 HD
ENDBRANCH   2   3
BRANCH   2   7
ATOM      7  C   UNL     1     163.847 178.127 167.649  1.00  0.00     0.100 C 
ATOM      8  O   UNL     1     165.063 178.125 167.983  1.00  0.00    -0.544 OA
ATOM      9  O   UNL     1     163.477 177.603 166.418  1.00  0.00    -0.544 OA
ENDBRANCH   2   7
ENDBRANCH   1   2
BRANCH   1  10
ATOM     10  C   UNL     1     160.475 177.751 168.011  1.00  0.00     0.223 C 
ATOM     11  O   UNL     1     159.613 177.784 168.930  1.00  0.00    -0.275 OA
ATOM     12  N   UNL     1     160.505 176.646 167.109  1.00  0.00    -0.369 N 
ATOM     13  H   UNL     1     161.207 176.606 166.337  1.00  0.00     0.159 HD
ATOM     14  H   UNL     1     159.819 175.864 167.210  1.00  0.00     0.159 HD
ENDBRANCH   1  10
TORSDOF 4
ENDMDL
