MODEL 1
REMARK VINA RESULT:    -3.630      0.000      0.000
REMARK INTER + INTRA:          -4.882
REMARK INTER:                  -4.479
REMARK INTRA:                  -0.403
REMARK UNBOUND:                -0.403
REMARK SMILES CCCCC(=O)c1ccccc1
REMARK SMILES IDX 4 1 3 2 2 3 1 4 5 5 6 6 7 7 8 8 12 9 9 10 11 11 10 12
REMARK H PARENT
REMARK Flexibility Score: inf
ROOT
ATOM      1  C   UNL     1      -1.759  37.412  32.889  1.00  0.00     0.081 C 
ENDROOT
BRANCH   1   2
ATOM      2  C   UNL     1      -1.481  38.595  33.828  1.00  0.00     0.008 C 
BRANCH   2   3
ATOM      3  C   UNL     1      -1.796  39.951  33.179  1.00  0.00    -0.003 C 
ATOM      4  C   UNL     1      -0.544  40.788  32.921  1.00  0.00     0.004 C 
ENDBRANCH   2   3
ENDBRANCH   1   2
BRANCH   1   5
ATOM      5  C   UNL     1      -0.580  37.159  31.988  1.00  0.00     0.162 C 
ATOM      6  O   UNL     1      -0.549  37.754  30.875  1.00  0.00    -0.294 OA
BRANCH   5   7
ATOM      7  C   UNL     1       0.551  36.266  32.371  1.00  0.00     0.017 A 
ATOM      8  C   UNL     1       1.767  36.780  32.870  1.00  0.00     0.012 A 
ATOM      9  C   UNL     1       0.418  34.870  32.231  1.00  0.00     0.012 A 
ATOM     10  C   UNL     1       2.812  35.919  33.220  1.00  0.00     0.001 A 
ATOM     11  C   UNL     1       1.468  34.015  32.584  1.00  0.00     0.001 A 
ATOM     12  C   UNL     1       2.662  34.539  33.078  1.00  0.00     0.000 A 
ENDBRANCH   5   7
ENDBRANCH   1   5
TORSDOF 4
ENDMDL
MODEL 2
REMARK VINA RESULT:    -3.597      1.346      4.742
REMARK INTER + INTRA:          -4.841
REMARK INTER:                  -4.303
REMARK INTRA:                  -0.538
REMARK UNBOUND:                -0.403
REMARK SMILES CCCCC(=O)c1ccccc1
REMARK SMILES IDX 4 1 3 2 2 3 1 4 5 5 6 6 7 7 8 8 12 9 9 10 11 11 10 12
REMARK H PARENT
REMARK Flexibility Score: inf
ROOT
ATOM      1  C   UNL     1       0.377  36.073  31.456  1.00  0.00     0.081 C 
ENDROOT
BRANCH   1   2
ATOM      2  C   UNL     1       1.333  35.451  32.485  1.00  0.00     0.008 C 
BRANCH   2   3
ATOM      3  C   UNL     1       2.650  36.230  32.615  1.00  0.00    -0.003 C 
ATOM      4  C   UNL     1       2.549  37.402  33.590  1.00  0.00     0.004 C 
ENDBRANCH   2   3
ENDBRANCH   1   2
BRANCH   1   5
ATOM      5  C   UNL     1      -0.731  36.824  32.143  1.00  0.00     0.162 C 
ATOM      6  O   UNL     1      -1.621  36.152  32.736  1.00  0.00    -0.294 OA
BRANCH   5   7
ATOM      7  C   UNL     1      -0.798  38.312  32.175  1.00  0.00     0.017 A 
ATOM      8  C   UNL     1       0.047  39.112  31.375  1.00  0.00     0.012 A 
ATOM      9  C   UNL     1      -1.720  38.953  33.028  1.00  0.00     0.012 A 
ATOM     10  C   UNL     1      -0.037  40.507  31.427  1.00  0.00     0.001 A 
ATOM     11  C   UNL     1      -1.798  40.349  33.074  1.00  0.00     0.001 A 
ATOM     12  C   UNL     1      -0.957  41.124  32.275  1.00  0.00     0.000 A 
ENDBRANCH   5   7
ENDBRANCH   1   5
TORSDOF 4
ENDMDL
MODEL 3
REMARK VINA RESULT:    -3.505      1.906      4.870
REMARK INTER + INTRA:          -4.728
REMARK INTER:                  -4.330
REMARK INTRA:                  -0.399
REMARK UNBOUND:                -0.403
REMARK SMILES CCCCC(=O)c1ccccc1
REMARK SMILES IDX 4 1 3 2 2 3 1 4 5 5 6 6 7 7 8 8 12 9 9 10 11 11 10 12
REMARK H PARENT
REMARK Flexibility Score: inf
ROOT
ATOM      1  C   UNL     1       0.515  34.558  31.664  1.00  0.00     0.081 C 
ENDROOT
BRANCH   1   2
ATOM      2  C   UNL     1       0.371  33.367  32.622  1.00  0.00     0.008 C 
BRANCH   2   3
ATOM      3  C   UNL     1      -0.880  32.524  32.332  1.00  0.00    -0.003 C 
ATOM      4  C   UNL     1      -2.119  33.034  33.068  1.00  0.00     0.004 C 
ENDBRANCH   2   3
ENDBRANCH   1   2
BRANCH   1   5
ATOM      5  C   UNL     1       1.035  35.768  32.392  1.00  0.00     0.162 C 
ATOM      6  O   UNL     1       2.221  35.734  32.822  1.00  0.00    -0.294 OA
BRANCH   5   7
ATOM      7  C   UNL     1       0.220  37.000  32.594  1.00  0.00     0.017 A 
ATOM      8  C   UNL     1       0.808  38.282  32.637  1.00  0.00     0.012 A 
ATOM      9  C   UNL     1      -1.177  36.895  32.753  1.00  0.00     0.012 A 
ATOM     10  C   UNL     1       0.019  39.420  32.829  1.00  0.00     0.001 A 
ATOM     11  C   UNL     1      -1.960  38.039  32.944  1.00  0.00     0.001 A 
ATOM     12  C   UNL     1      -1.363  39.299  32.982  1.00  0.00     0.000 A 
ENDBRANCH   5   7
ENDBRANCH   1   5
TORSDOF 4
ENDMDL
MODEL 4
REMARK VINA RESULT:    -3.505      1.994      2.947
REMARK INTER + INTRA:          -4.728
REMARK INTER:                  -3.971
REMARK INTRA:                  -0.757
REMARK UNBOUND:                -0.403
REMARK SMILES CCCCC(=O)c1ccccc1
REMARK SMILES IDX 4 1 3 2 2 3 1 4 5 5 6 6 7 7 8 8 12 9 9 10 11 11 10 12
REMARK H PARENT
REMARK Flexibility Score: inf
ROOT
ATOM      1  C   UNL     1      -1.333  37.294  32.473  1.00  0.00     0.081 C 
ENDROOT
BRANCH   1   2
ATOM      2  C   UNL     1      -1.597  38.263  33.635  1.00  0.00     0.008 C 
BRANCH   2   3
ATOM      3  C   UNL     1      -2.049  39.650  33.156  1.00  0.00    -0.003 C 
ATOM      4  C   UNL     1      -0.959  40.711  33.305  1.00  0.00     0.004 C 
ENDBRANCH   2   3
ENDBRANCH   1   2
BRANCH   1   5
ATOM      5  C   UNL     1       0.113  36.876  32.445  1.00  0.00     0.162 C 
ATOM      6  O   UNL     1       0.369  35.641  32.396  1.00  0.00    -0.294 OA
BRANCH   5   7
ATOM      7  C   UNL     1       1.236  37.856  32.442  1.00  0.00     0.017 A 
ATOM      8  C   UNL     1       1.455  38.732  31.357  1.00  0.00     0.012 A 
ATOM      9  C   UNL     1       2.113  37.917  33.543  1.00  0.00     0.012 A 
ATOM     10  C   UNL     1       2.518  39.640  31.380  1.00  0.00     0.001 A 
ATOM     11  C   UNL     1       3.174  38.830  33.559  1.00  0.00     0.001 A 
ATOM     12  C   UNL     1       3.376  39.689  32.479  1.00  0.00     0.000 A 
ENDBRANCH   5   7
ENDBRANCH   1   5
TORSDOF 4
ENDMDL
MODEL 5
REMARK VINA RESULT:    -3.479      1.367      5.127
REMARK INTER + INTRA:          -4.696
REMARK INTER:                  -4.364
REMARK INTRA:                  -0.332
REMARK UNBOUND:                -0.403
REMARK SMILES CCCCC(=O)c1ccccc1
REMARK SMILES IDX 4 1 3 2 2 3 1 4 5 5 6 6 7 7 8 8 12 9 9 10 11 11 10 12
REMARK H PARENT
REMARK Flexibility Score: inf
ROOT
ATOM      1  C   UNL     1       0.357  35.987  31.633  1.00  0.00     0.081 C 
ENDROOT
BRANCH   1   2
ATOM      2  C   UNL     1       1.296  35.493  32.743  1.00  0.00     0.008 C 
BRANCH   2   3
ATOM      3  C   UNL     1       1.493  33.970  32.714  1.00  0.00    -0.003 C 
ATOM      4  C   UNL     1       0.172  33.202  32.741  1.00  0.00     0.004 C 
ENDBRANCH   2   3
ENDBRANCH   1   2
BRANCH   1   5
ATOM      5  C   UNL     1      -0.759  36.816  32.209  1.00  0.00     0.162 C 
ATOM      6  O   UNL     1      -1.727  36.211  32.747  1.00  0.00    -0.294 OA
BRANCH   5   7
ATOM      7  C   UNL     1      -0.747  38.307  32.193  1.00  0.00     0.017 A 
ATOM      8  C   UNL     1       0.018  39.034  31.257  1.00  0.00     0.012 A 
ATOM      9  C   UNL     1      -1.511  39.022  33.137  1.00  0.00     0.012 A 
ATOM     10  C   UNL     1       0.012  40.433  31.267  1.00  0.00     0.001 A 
ATOM     11  C   UNL     1      -1.513  40.421  33.140  1.00  0.00     0.001 A 
ATOM     12  C   UNL     1      -0.752  41.125  32.207  1.00  0.00     0.000 A 
ENDBRANCH   5   7
ENDBRANCH   1   5
TORSDOF 4
ENDMDL
MODEL 6
REMARK VINA RESULT:    -3.440      1.932      3.098
REMARK INTER + INTRA:          -4.647
REMARK INTER:                  -4.242
REMARK INTRA:                  -0.405
REMARK UNBOUND:                -0.403
REMARK SMILES CCCCC(=O)c1ccccc1
REMARK SMILES IDX 4 1 3 2 2 3 1 4 5 5 6 6 7 7 8 8 12 9 9 10 11 11 10 12
REMARK H PARENT
REMARK Flexibility Score: inf
ROOT
ATOM      1  C   UNL     1       0.889  36.629  32.476  1.00  0.00     0.081 C 
ENDROOT
BRANCH   1   2
ATOM      2  C   UNL     1      -0.361  37.230  31.817  1.00  0.00     0.008 C 
BRANCH   2   3
ATOM      3  C   UNL     1      -1.584  37.214  32.745  1.00  0.00    -0.003 C 
ATOM      4  C   UNL     1      -1.556  38.339  33.779  1.00  0.00     0.004 C 
ENDBRANCH   2   3
ENDBRANCH   1   2
BRANCH   1   5
ATOM      5  C   UNL     1       1.137  35.232  31.975  1.00  0.00     0.162 C 
ATOM      6  O   UNL     1       1.783  35.096  30.899  1.00  0.00    -0.294 OA
BRANCH   5   7
ATOM      7  C   UNL     1       0.679  34.018  32.710  1.00  0.00     0.017 A 
ATOM      8  C   UNL     1       1.533  33.315  33.587  1.00  0.00     0.012 A 
ATOM      9  C   UNL     1      -0.637  33.546  32.529  1.00  0.00     0.012 A 
ATOM     10  C   UNL     1       1.077  32.178  34.263  1.00  0.00     0.001 A 
ATOM     11  C   UNL     1      -1.085  32.409  33.210  1.00  0.00     0.001 A 
ATOM     12  C   UNL     1      -0.230  31.726  34.075  1.00  0.00     0.000 A 
ENDBRANCH   5   7
ENDBRANCH   1   5
TORSDOF 4
ENDMDL
MODEL 7
REMARK VINA RESULT:    -3.367      2.665      4.634
REMARK INTER + INTRA:          -4.557
REMARK INTER:                  -4.196
REMARK INTRA:                  -0.361
REMARK UNBOUND:                -0.403
REMARK SMILES CCCCC(=O)c1ccccc1
REMARK SMILES IDX 4 1 3 2 2 3 1 4 5 5 6 6 7 7 8 8 12 9 9 10 11 11 10 12
REMARK H PARENT
REMARK Flexibility Score: inf
ROOT
ATOM      1  C   UNL     1       2.128  40.904  33.091  1.00  0.00     0.081 C 
ENDROOT
BRANCH   1   2
ATOM      2  C   UNL     1       3.349  39.974  33.036  1.00  0.00     0.008 C 
BRANCH   2   3
ATOM      3  C   UNL     1       4.363  40.394  31.961  1.00  0.00    -0.003 C 
ATOM      4  C   UNL     1       5.408  39.314  31.681  1.00  0.00     0.004 C 
ENDBRANCH   2   3
ENDBRANCH   1   2
BRANCH   1   5
ATOM      5  C   UNL     1       1.088  40.479  32.090  1.00  0.00     0.162 C 
ATOM      6  O   UNL     1       1.011  41.125  31.008  1.00  0.00    -0.294 OA
BRANCH   5   7
ATOM      7  C   UNL     1       0.181  39.318  32.314  1.00  0.00     0.017 A 
ATOM      8  C   UNL     1      -0.948  39.408  33.157  1.00  0.00     0.012 A 
ATOM      9  C   UNL     1       0.448  38.089  31.678  1.00  0.00     0.012 A 
ATOM     10  C   UNL     1      -1.781  38.302  33.349  1.00  0.00     0.001 A 
ATOM     11  C   UNL     1      -0.391  36.986  31.876  1.00  0.00     0.001 A 
ATOM     12  C   UNL     1      -1.503  37.093  32.710  1.00  0.00     0.000 A 
ENDBRANCH   5   7
ENDBRANCH   1   5
TORSDOF 4
ENDMDL
MODEL 8
REMARK VINA RESULT:    -3.324     16.543     18.892
REMARK INTER + INTRA:          -4.504
REMARK INTER:                  -3.978
REMARK INTRA:                  -0.527
REMARK UNBOUND:                -0.403
REMARK SMILES CCCCC(=O)c1ccccc1
REMARK SMILES IDX 4 1 3 2 2 3 1 4 5 5 6 6 7 7 8 8 12 9 9 10 11 11 10 12
REMARK H PARENT
REMARK Flexibility Score: inf
ROOT
ATOM      1  C   UNL     1      14.493  23.072  36.884  1.00  0.00     0.081 C 
ENDROOT
BRANCH   1   2
ATOM      2  C   UNL     1      15.475  23.513  35.788  1.00  0.00     0.008 C 
BRANCH   2   3
ATOM      3  C   UNL     1      15.802  25.012  35.858  1.00  0.00    -0.003 C 
ATOM      4  C   UNL     1      16.101  25.486  37.280  1.00  0.00     0.004 C 
ENDBRANCH   2   3
ENDBRANCH   1   2
BRANCH   1   5
ATOM      5  C   UNL     1      13.074  23.371  36.481  1.00  0.00     0.162 C 
ATOM      6  O   UNL     1      12.630  22.826  35.433  1.00  0.00    -0.294 OA
BRANCH   5   7
ATOM      7  C   UNL     1      12.178  24.252  37.283  1.00  0.00     0.017 A 
ATOM      8  C   UNL     1      12.640  24.945  38.422  1.00  0.00     0.012 A 
ATOM      9  C   UNL     1      10.828  24.402  36.907  1.00  0.00     0.012 A 
ATOM     10  C   UNL     1      11.776  25.763  39.156  1.00  0.00     0.001 A 
ATOM     11  C   UNL     1       9.969  25.223  37.647  1.00  0.00     0.001 A 
ATOM     12  C   UNL     1      10.443  25.902  38.769  1.00  0.00     0.000 A 
ENDBRANCH   5   7
ENDBRANCH   1   5
TORSDOF 4
ENDMDL
MODEL 9
REMARK VINA RESULT:    -3.286      1.706      4.713
REMARK INTER + INTRA:          -4.457
REMARK INTER:                  -3.830
REMARK INTRA:                  -0.627
REMARK UNBOUND:                -0.403
REMARK SMILES CCCCC(=O)c1ccccc1
REMARK SMILES IDX 4 1 3 2 2 3 1 4 5 5 6 6 7 7 8 8 12 9 9 10 11 11 10 12
REMARK H PARENT
REMARK Flexibility Score: inf
ROOT
ATOM      1  C   UNL     1       1.827  36.993  32.188  1.00  0.00     0.081 C 
ENDROOT
BRANCH   1   2
ATOM      2  C   UNL     1       2.394  37.429  33.547  1.00  0.00     0.008 C 
BRANCH   2   3
ATOM      3  C   UNL     1       3.581  38.394  33.409  1.00  0.00    -0.003 C 
ATOM      4  C   UNL     1       3.175  39.858  33.573  1.00  0.00     0.004 C 
ENDBRANCH   2   3
ENDBRANCH   1   2
BRANCH   1   5
ATOM      5  C   UNL     1       0.340  37.220  32.134  1.00  0.00     0.162 C 
ATOM      6  O   UNL     1      -0.409  36.208  32.041  1.00  0.00    -0.294 OA
BRANCH   5   7
ATOM      7  C   UNL     1      -0.272  38.577  32.215  1.00  0.00     0.017 A 
ATOM      8  C   UNL     1       0.222  39.662  31.460  1.00  0.00     0.012 A 
ATOM      9  C   UNL     1      -1.371  38.797  33.070  1.00  0.00     0.012 A 
ATOM     10  C   UNL     1      -0.371  40.924  31.558  1.00  0.00     0.001 A 
ATOM     11  C   UNL     1      -1.959  40.064  33.162  1.00  0.00     0.001 A 
ATOM     12  C   UNL     1      -1.460  41.125  32.407  1.00  0.00     0.000 A 
ENDBRANCH   5   7
ENDBRANCH   1   5
TORSDOF 4
ENDMDL
