MODEL 1
REMARK VINA RESULT:    -4.369      0.000      0.000
REMARK INTER + INTRA:          -5.377
REMARK INTER:                  -5.263
REMARK INTRA:                  -0.114
REMARK UNBOUND:                -0.114
REMARK SMILES COC(=O)c1cc(O)c(O)c(O)c1
REMARK SMILES IDX 5 1 13 2 11 3 9 4 7 5 6 6 3 7 4 8 2 9 1 10 12 11 8 13 10 15
REMARK H PARENT 12 12 8 14 10 16
REMARK Flexibility Score: inf
ROOT
ATOM      1  C   UNL     1     369.866 243.657 276.744  1.00  0.00     0.067 A 
ATOM      2  C   UNL     1     369.781 242.339 276.267  1.00  0.00     0.066 A 
ATOM      3  C   UNL     1     370.931 241.626 275.909  1.00  0.00     0.162 A 
ATOM      4  C   UNL     1     372.200 242.240 276.031  1.00  0.00     0.200 A 
ATOM      5  C   UNL     1     372.288 243.555 276.507  1.00  0.00     0.162 A 
ATOM      6  C   UNL     1     371.130 244.257 276.862  1.00  0.00     0.066 A 
ENDROOT
BRANCH   1   7
ATOM      7  C   UNL     1     368.640 244.396 277.118  1.00  0.00     0.338 C 
ATOM      8  O   UNL     1     368.705 245.619 277.424  1.00  0.00    -0.246 OA
BRANCH   7   9
ATOM      9  O   UNL     1     367.405 243.738 277.132  1.00  0.00    -0.465 OA
ATOM     10  C   UNL     1     366.285 244.189 276.379  1.00  0.00     0.282 C 
ENDBRANCH   7   9
ENDBRANCH   1   7
BRANCH   3  11
ATOM     11  O   UNL     1     370.767 240.320 275.442  1.00  0.00    -0.504 OA
ATOM     12  H   UNL     1     369.986 240.015 274.878  1.00  0.00     0.293 HD
ENDBRANCH   3  11
BRANCH   5  13
ATOM     13  O   UNL     1     373.538 244.160 276.628  1.00  0.00    -0.504 OA
ATOM     14  H   UNL     1     374.092 244.074 277.473  1.00  0.00     0.293 HD
ENDBRANCH   5  13
BRANCH   4  15
ATOM     15  O   UNL     1     373.387 241.584 275.692  1.00  0.00    -0.502 OA
ATOM     16  H   UNL     1     373.861 240.925 276.293  1.00  0.00     0.293 HD
ENDBRANCH   4  15
TORSDOF 5
ENDMDL
MODEL 2
REMARK VINA RESULT:    -4.332      1.199      4.573
REMARK INTER + INTRA:          -5.332
REMARK INTER:                  -5.218
REMARK INTRA:                  -0.114
REMARK UNBOUND:                -0.114
REMARK SMILES COC(=O)c1cc(O)c(O)c(O)c1
REMARK SMILES IDX 5 1 13 2 11 3 9 4 7 5 6 6 3 7 4 8 2 9 1 10 12 11 8 13 10 15
REMARK H PARENT 12 12 8 14 10 16
REMARK Flexibility Score: inf
ROOT
ATOM      1  C   UNL     1     371.379 242.898 276.259  1.00  0.00     0.067 A 
ATOM      2  C   UNL     1     370.543 241.795 276.027  1.00  0.00     0.066 A 
ATOM      3  C   UNL     1     369.174 241.855 276.312  1.00  0.00     0.162 A 
ATOM      4  C   UNL     1     368.622 243.045 276.841  1.00  0.00     0.200 A 
ATOM      5  C   UNL     1     369.454 244.148 277.073  1.00  0.00     0.162 A 
ATOM      6  C   UNL     1     370.822 244.075 276.784  1.00  0.00     0.066 A 
ENDROOT
BRANCH   1   7
ATOM      7  C   UNL     1     372.825 242.818 275.952  1.00  0.00     0.338 C 
ATOM      8  O   UNL     1     373.396 241.694 275.882  1.00  0.00    -0.246 OA
BRANCH   7   9
ATOM      9  O   UNL     1     373.559 243.989 275.736  1.00  0.00    -0.465 OA
ATOM     10  C   UNL     1     374.561 244.445 276.638  1.00  0.00     0.282 C 
ENDBRANCH   7   9
ENDBRANCH   1   7
BRANCH   3  11
ATOM     11  O   UNL     1     368.406 240.716 276.055  1.00  0.00    -0.504 OA
ATOM     12  H   UNL     1     367.469 240.739 275.678  1.00  0.00     0.293 HD
ENDBRANCH   3  11
BRANCH   5  13
ATOM     13  O   UNL     1     368.911 245.322 277.594  1.00  0.00    -0.504 OA
ATOM     14  H   UNL     1     368.069 245.735 277.208  1.00  0.00     0.293 HD
ENDBRANCH   5  13
BRANCH   4  15
ATOM     15  O   UNL     1     367.264 243.172 277.147  1.00  0.00    -0.502 OA
ATOM     16  H   UNL     1     366.552 243.418 276.473  1.00  0.00     0.293 HD
ENDBRANCH   4  15
TORSDOF 5
ENDMDL
MODEL 3
REMARK VINA RESULT:    -4.316      1.222      5.075
REMARK INTER + INTRA:          -5.313
REMARK INTER:                  -5.198
REMARK INTRA:                  -0.115
REMARK UNBOUND:                -0.114
REMARK SMILES COC(=O)c1cc(O)c(O)c(O)c1
REMARK SMILES IDX 5 1 13 2 11 3 9 4 7 5 6 6 3 7 4 8 2 9 1 10 12 11 8 13 10 15
REMARK H PARENT 12 12 8 14 10 16
REMARK Flexibility Score: inf
ROOT
ATOM      1  C   UNL     1     371.370 242.891 276.244  1.00  0.00     0.067 A 
ATOM      2  C   UNL     1     370.817 244.054 276.802  1.00  0.00     0.066 A 
ATOM      3  C   UNL     1     369.451 244.134 277.098  1.00  0.00     0.162 A 
ATOM      4  C   UNL     1     368.613 243.026 276.832  1.00  0.00     0.200 A 
ATOM      5  C   UNL     1     369.162 241.863 276.275  1.00  0.00     0.162 A 
ATOM      6  C   UNL     1     370.530 241.796 275.984  1.00  0.00     0.066 A 
ENDROOT
BRANCH   1   7
ATOM      7  C   UNL     1     372.816 242.824 275.938  1.00  0.00     0.338 C 
ATOM      8  O   UNL     1     373.398 241.706 275.867  1.00  0.00    -0.246 OA
BRANCH   7   9
ATOM      9  O   UNL     1     373.540 244.003 275.725  1.00  0.00    -0.465 OA
ATOM     10  C   UNL     1     374.580 244.434 276.595  1.00  0.00     0.282 C 
ENDBRANCH   7   9
ENDBRANCH   1   7
BRANCH   3  11
ATOM     11  O   UNL     1     368.974 245.325 277.651  1.00  0.00    -0.504 OA
ATOM     12  H   UNL     1     369.297 246.243 277.382  1.00  0.00     0.293 HD
ENDBRANCH   3  11
BRANCH   5  13
ATOM     13  O   UNL     1     368.337 240.770 276.013  1.00  0.00    -0.504 OA
ATOM     14  H   UNL     1     368.405 240.248 275.147  1.00  0.00     0.293 HD
ENDBRANCH   5  13
BRANCH   4  15
ATOM     15  O   UNL     1     367.242 243.039 277.104  1.00  0.00    -0.502 OA
ATOM     16  H   UNL     1     366.593 242.338 276.776  1.00  0.00     0.293 HD
ENDBRANCH   4  15
TORSDOF 5
ENDMDL
MODEL 4
REMARK VINA RESULT:    -4.313      0.299      2.340
REMARK INTER + INTRA:          -5.309
REMARK INTER:                  -5.196
REMARK INTRA:                  -0.113
REMARK UNBOUND:                -0.114
REMARK SMILES COC(=O)c1cc(O)c(O)c(O)c1
REMARK SMILES IDX 5 1 13 2 11 3 9 4 7 5 6 6 3 7 4 8 2 9 1 10 12 11 8 13 10 15
REMARK H PARENT 12 12 8 14 10 16
REMARK Flexibility Score: inf
ROOT
ATOM      1  C   UNL     1     369.945 243.477 276.807  1.00  0.00     0.067 A 
ATOM      2  C   UNL     1     371.182 244.131 276.695  1.00  0.00     0.066 A 
ATOM      3  C   UNL     1     372.335 243.434 276.316  1.00  0.00     0.162 A 
ATOM      4  C   UNL     1     372.255 242.049 276.039  1.00  0.00     0.200 A 
ATOM      5  C   UNL     1     371.021 241.393 276.150  1.00  0.00     0.162 A 
ATOM      6  C   UNL     1     369.875 242.102 276.530  1.00  0.00     0.066 A 
ENDROOT
BRANCH   1   7
ATOM      7  C   UNL     1     368.736 244.230 277.209  1.00  0.00     0.338 C 
ATOM      8  O   UNL     1     368.825 245.447 277.531  1.00  0.00    -0.246 OA
BRANCH   7   9
ATOM      9  O   UNL     1     367.491 243.590 277.232  1.00  0.00    -0.465 OA
ATOM     10  C   UNL     1     366.381 244.041 276.464  1.00  0.00     0.282 C 
ENDBRANCH   7   9
ENDBRANCH   1   7
BRANCH   3  11
ATOM     11  O   UNL     1     373.529 244.153 276.227  1.00  0.00    -0.504 OA
ATOM     12  H   UNL     1     374.124 244.362 277.016  1.00  0.00     0.293 HD
ENDBRANCH   3  11
BRANCH   5  13
ATOM     13  O   UNL     1     370.941 240.029 275.877  1.00  0.00    -0.504 OA
ATOM     14  H   UNL     1     370.813 239.345 276.615  1.00  0.00     0.293 HD
ENDBRANCH   5  13
BRANCH   4  15
ATOM     15  O   UNL     1     373.367 241.294 275.655  1.00  0.00    -0.502 OA
ATOM     16  H   UNL     1     373.682 240.465 276.137  1.00  0.00     0.293 HD
ENDBRANCH   4  15
TORSDOF 5
ENDMDL
MODEL 5
REMARK VINA RESULT:    -4.215      1.660      3.167
REMARK INTER + INTRA:          -5.192
REMARK INTER:                  -5.052
REMARK INTRA:                  -0.140
REMARK UNBOUND:                -0.114
REMARK SMILES COC(=O)c1cc(O)c(O)c(O)c1
REMARK SMILES IDX 5 1 13 2 11 3 9 4 7 5 6 6 3 7 4 8 2 9 1 10 12 11 8 13 10 15
REMARK H PARENT 12 12 8 14 10 16
REMARK Flexibility Score: inf
ROOT
ATOM      1  C   UNL     1     367.809 243.677 276.517  1.00  0.00     0.067 A 
ATOM      2  C   UNL     1     368.521 244.250 277.583  1.00  0.00     0.066 A 
ATOM      3  C   UNL     1     369.911 244.119 277.676  1.00  0.00     0.162 A 
ATOM      4  C   UNL     1     370.613 243.400 276.680  1.00  0.00     0.200 A 
ATOM      5  C   UNL     1     369.905 242.827 275.614  1.00  0.00     0.162 A 
ATOM      6  C   UNL     1     368.514 242.966 275.533  1.00  0.00     0.066 A 
ENDROOT
BRANCH   1   7
ATOM      7  C   UNL     1     366.339 243.826 276.434  1.00  0.00     0.338 C 
ATOM      8  O   UNL     1     365.593 242.812 276.531  1.00  0.00    -0.246 OA
BRANCH   7   9
ATOM      9  O   UNL     1     365.775 245.094 276.251  1.00  0.00    -0.465 OA
ATOM     10  C   UNL     1     366.138 245.947 275.171  1.00  0.00     0.282 C 
ENDBRANCH   7   9
ENDBRANCH   1   7
BRANCH   3  11
ATOM     11  O   UNL     1     370.549 244.716 278.766  1.00  0.00    -0.504 OA
ATOM     12  H   UNL     1     371.510 245.028 278.757  1.00  0.00     0.293 HD
ENDBRANCH   3  11
BRANCH   5  13
ATOM     13  O   UNL     1     370.596 242.119 274.632  1.00  0.00    -0.504 OA
ATOM     14  H   UNL     1     370.111 241.613 273.900  1.00  0.00     0.293 HD
ENDBRANCH   5  13
BRANCH   4  15
ATOM     15  O   UNL     1     372.000 243.232 276.712  1.00  0.00    -0.502 OA
ATOM     16  H   UNL     1     372.593 243.262 275.895  1.00  0.00     0.293 HD
ENDBRANCH   4  15
TORSDOF 5
ENDMDL
MODEL 6
REMARK VINA RESULT:    -4.190      2.311      3.480
REMARK INTER + INTRA:          -5.161
REMARK INTER:                  -5.120
REMARK INTRA:                  -0.041
REMARK UNBOUND:                -0.114
REMARK SMILES COC(=O)c1cc(O)c(O)c(O)c1
REMARK SMILES IDX 5 1 13 2 11 3 9 4 7 5 6 6 3 7 4 8 2 9 1 10 12 11 8 13 10 15
REMARK H PARENT 12 12 8 14 10 16
REMARK Flexibility Score: inf
ROOT
ATOM      1  C   UNL     1     368.738 241.629 277.083  1.00  0.00     0.067 A 
ATOM      2  C   UNL     1     369.087 242.685 277.940  1.00  0.00     0.066 A 
ATOM      3  C   UNL     1     370.160 243.532 277.641  1.00  0.00     0.162 A 
ATOM      4  C   UNL     1     370.906 243.325 276.457  1.00  0.00     0.200 A 
ATOM      5  C   UNL     1     370.558 242.272 275.599  1.00  0.00     0.162 A 
ATOM      6  C   UNL     1     369.483 241.432 275.909  1.00  0.00     0.066 A 
ENDROOT
BRANCH   1   7
ATOM      7  C   UNL     1     367.600 240.743 277.415  1.00  0.00     0.338 C 
ATOM      8  O   UNL     1     367.228 240.612 278.614  1.00  0.00    -0.246 OA
BRANCH   7   9
ATOM      9  O   UNL     1     366.935 240.051 276.397  1.00  0.00    -0.465 OA
ATOM     10  C   UNL     1     366.077 240.696 275.462  1.00  0.00     0.282 C 
ENDBRANCH   7   9
ENDBRANCH   1   7
BRANCH   3  11
ATOM     11  O   UNL     1     370.448 244.560 278.543  1.00  0.00    -0.504 OA
ATOM     12  H   UNL     1     371.362 244.725 278.940  1.00  0.00     0.293 HD
ENDBRANCH   3  11
BRANCH   5  13
ATOM     13  O   UNL     1     371.292 242.067 274.431  1.00  0.00    -0.504 OA
ATOM     14  H   UNL     1     371.739 241.179 274.232  1.00  0.00     0.293 HD
ENDBRANCH   5  13
BRANCH   4  15
ATOM     15  O   UNL     1     371.987 244.134 276.098  1.00  0.00    -0.502 OA
ATOM     16  H   UNL     1     372.864 243.782 275.740  1.00  0.00     0.293 HD
ENDBRANCH   4  15
TORSDOF 5
ENDMDL
MODEL 7
REMARK VINA RESULT:    -4.175      2.326      3.068
REMARK INTER + INTRA:          -5.144
REMARK INTER:                  -5.098
REMARK INTRA:                  -0.046
REMARK UNBOUND:                -0.114
REMARK SMILES COC(=O)c1cc(O)c(O)c(O)c1
REMARK SMILES IDX 5 1 13 2 11 3 9 4 7 5 6 6 3 7 4 8 2 9 1 10 12 11 8 13 10 15
REMARK H PARENT 12 12 8 14 10 16
REMARK Flexibility Score: inf
ROOT
ATOM      1  C   UNL     1     368.715 241.612 277.075  1.00  0.00     0.067 A 
ATOM      2  C   UNL     1     369.458 241.420 275.900  1.00  0.00     0.066 A 
ATOM      3  C   UNL     1     370.533 242.259 275.581  1.00  0.00     0.162 A 
ATOM      4  C   UNL     1     370.878 243.315 276.457  1.00  0.00     0.200 A 
ATOM      5  C   UNL     1     370.138 243.508 277.632  1.00  0.00     0.162 A 
ATOM      6  C   UNL     1     369.066 242.662 277.938  1.00  0.00     0.066 A 
ENDROOT
BRANCH   1   7
ATOM      7  C   UNL     1     367.582 240.716 277.396  1.00  0.00     0.338 C 
ATOM      8  O   UNL     1     367.204 240.575 278.593  1.00  0.00    -0.246 OA
BRANCH   7   9
ATOM      9  O   UNL     1     366.927 240.024 276.371  1.00  0.00    -0.465 OA
ATOM     10  C   UNL     1     366.051 240.664 275.450  1.00  0.00     0.282 C 
ENDBRANCH   7   9
ENDBRANCH   1   7
BRANCH   3  11
ATOM     11  O   UNL     1     371.224 242.007 274.394  1.00  0.00    -0.504 OA
ATOM     12  H   UNL     1     372.058 242.501 274.109  1.00  0.00     0.293 HD
ENDBRANCH   3  11
BRANCH   5  13
ATOM     13  O   UNL     1     370.479 244.548 278.495  1.00  0.00    -0.504 OA
ATOM     14  H   UNL     1     370.116 244.595 279.441  1.00  0.00     0.293 HD
ENDBRANCH   5  13
BRANCH   4  15
ATOM     15  O   UNL     1     371.940 244.187 276.199  1.00  0.00    -0.502 OA
ATOM     16  H   UNL     1     372.828 244.155 276.679  1.00  0.00     0.293 HD
ENDBRANCH   4  15
TORSDOF 5
ENDMDL
MODEL 8
REMARK VINA RESULT:    -4.129      6.934      8.139
REMARK INTER + INTRA:          -5.088
REMARK INTER:                  -4.981
REMARK INTRA:                  -0.107
REMARK UNBOUND:                -0.114
REMARK SMILES COC(=O)c1cc(O)c(O)c(O)c1
REMARK SMILES IDX 5 1 13 2 11 3 9 4 7 5 6 6 3 7 4 8 2 9 1 10 12 11 8 13 10 15
REMARK H PARENT 12 12 8 14 10 16
REMARK Flexibility Score: inf
ROOT
ATOM      1  C   UNL     1     366.744 245.966 270.837  1.00  0.00     0.067 A 
ATOM      2  C   UNL     1     365.998 245.280 271.809  1.00  0.00     0.066 A 
ATOM      3  C   UNL     1     365.614 245.908 272.999  1.00  0.00     0.162 A 
ATOM      4  C   UNL     1     365.981 247.255 273.228  1.00  0.00     0.200 A 
ATOM      5  C   UNL     1     366.724 247.942 272.259  1.00  0.00     0.162 A 
ATOM      6  C   UNL     1     367.102 247.302 271.072  1.00  0.00     0.066 A 
ENDROOT
BRANCH   1   7
ATOM      7  C   UNL     1     367.141 245.286 269.584  1.00  0.00     0.338 C 
ATOM      8  O   UNL     1     367.882 245.877 268.749  1.00  0.00    -0.246 OA
BRANCH   7   9
ATOM      9  O   UNL     1     366.696 243.985 269.324  1.00  0.00    -0.465 OA
ATOM     10  C   UNL     1     366.142 243.597 268.072  1.00  0.00     0.282 C 
ENDBRANCH   7   9
ENDBRANCH   1   7
BRANCH   3  11
ATOM     11  O   UNL     1     364.875 245.161 273.919  1.00  0.00    -0.504 OA
ATOM     12  H   UNL     1     364.053 244.624 273.682  1.00  0.00     0.293 HD
ENDBRANCH   3  11
BRANCH   5  13
ATOM     13  O   UNL     1     367.084 249.270 272.484  1.00  0.00    -0.504 OA
ATOM     14  H   UNL     1     367.987 249.632 272.197  1.00  0.00     0.293 HD
ENDBRANCH   5  13
BRANCH   4  15
ATOM     15  O   UNL     1     365.629 247.941 274.394  1.00  0.00    -0.502 OA
ATOM     16  H   UNL     1     365.242 247.500 275.216  1.00  0.00     0.293 HD
ENDBRANCH   4  15
TORSDOF 5
ENDMDL
MODEL 9
REMARK VINA RESULT:    -4.081      6.931      8.414
REMARK INTER + INTRA:          -5.030
REMARK INTER:                  -4.918
REMARK INTRA:                  -0.112
REMARK UNBOUND:                -0.114
REMARK SMILES COC(=O)c1cc(O)c(O)c(O)c1
REMARK SMILES IDX 5 1 13 2 11 3 9 4 7 5 6 6 3 7 4 8 2 9 1 10 12 11 8 13 10 15
REMARK H PARENT 12 12 8 14 10 16
REMARK Flexibility Score: inf
ROOT
ATOM      1  C   UNL     1     366.777 245.975 270.832  1.00  0.00     0.067 A 
ATOM      2  C   UNL     1     367.106 247.314 271.098  1.00  0.00     0.066 A 
ATOM      3  C   UNL     1     366.698 247.934 272.285  1.00  0.00     0.162 A 
ATOM      4  C   UNL     1     365.945 247.202 273.233  1.00  0.00     0.200 A 
ATOM      5  C   UNL     1     365.617 245.865 272.970  1.00  0.00     0.162 A 
ATOM      6  C   UNL     1     366.030 245.257 271.779  1.00  0.00     0.066 A 
ENDROOT
BRANCH   1   7
ATOM      7  C   UNL     1     367.216 245.335 269.572  1.00  0.00     0.338 C 
ATOM      8  O   UNL     1     367.943 245.970 268.758  1.00  0.00    -0.246 OA
BRANCH   7   9
ATOM      9  O   UNL     1     366.827 244.022 269.284  1.00  0.00    -0.465 OA
ATOM     10  C   UNL     1     366.116 243.674 268.101  1.00  0.00     0.282 C 
ENDBRANCH   7   9
ENDBRANCH   1   7
BRANCH   3  11
ATOM     11  O   UNL     1     367.062 249.269 272.479  1.00  0.00    -0.504 OA
ATOM     12  H   UNL     1     366.665 249.866 273.191  1.00  0.00     0.293 HD
ENDBRANCH   3  11
BRANCH   5  13
ATOM     13  O   UNL     1     364.875 245.144 273.905  1.00  0.00    -0.504 OA
ATOM     14  H   UNL     1     364.950 245.326 274.899  1.00  0.00     0.293 HD
ENDBRANCH   5  13
BRANCH   4  15
ATOM     15  O   UNL     1     365.508 247.761 274.438  1.00  0.00    -0.502 OA
ATOM     16  H   UNL     1     365.602 248.738 274.676  1.00  0.00     0.293 HD
ENDBRANCH   4  15
TORSDOF 5
ENDMDL
