MODEL 1
REMARK VINA RESULT:    -5.634      0.000      0.000
REMARK INTER + INTRA:          -7.561
REMARK INTER:                  -7.116
REMARK INTRA:                  -0.446
REMARK UNBOUND:                -0.446
REMARK SMILES Oc1ccc(CCc2cc(O)cc(O)c2)cc1
REMARK SMILES IDX 6 1 5 2 4 3 3 4 2 5 16 6 17 7 1 8 7 10 8 11 15 12 9 13 13 14
REMARK SMILES IDX 10 15 12 16 14 17 11 19
REMARK H PARENT 1 9 14 18 11 20
REMARK Flexibility Score: inf
ROOT
ATOM      1  C   UNL     1       4.795  -7.179   5.020  1.00  0.00     0.040 C 
ENDROOT
BRANCH   1   2
ATOM      2  C   UNL     1       5.930  -6.285   4.600  1.00  0.00    -0.047 A 
ATOM      3  C   UNL     1       5.993  -4.958   5.058  1.00  0.00     0.007 A 
ATOM      4  C   UNL     1       7.030  -4.118   4.641  1.00  0.00     0.046 A 
ATOM      5  C   UNL     1       8.008  -4.591   3.756  1.00  0.00     0.115 A 
ATOM      6  C   UNL     1       6.904  -6.750   3.703  1.00  0.00     0.007 A 
ATOM      7  C   UNL     1       7.940  -5.907   3.287  1.00  0.00     0.046 A 
BRANCH   5   8
ATOM      8  O   UNL     1       9.044  -3.763   3.333  1.00  0.00    -0.508 OA
ATOM      9  H   UNL     1       9.160  -3.514   2.358  1.00  0.00     0.293 HD
ENDBRANCH   5   8
ENDBRANCH   1   2
BRANCH   1  10
ATOM     10  C   UNL     1       3.580  -6.347   5.438  1.00  0.00     0.040 C 
BRANCH  10  11
ATOM     11  C   UNL     1       2.303  -7.029   5.024  1.00  0.00    -0.040 A 
ATOM     12  C   UNL     1       2.346  -8.258   4.346  1.00  0.00     0.050 A 
ATOM     13  C   UNL     1       1.060  -6.471   5.364  1.00  0.00     0.050 A 
ATOM     14  C   UNL     1       1.160  -8.909   3.989  1.00  0.00     0.119 A 
ATOM     15  C   UNL     1      -0.128  -7.123   5.008  1.00  0.00     0.119 A 
ATOM     16  C   UNL     1      -0.077  -8.338   4.318  1.00  0.00     0.092 A 
BRANCH  14  17
ATOM     17  O   UNL     1       1.222 -10.124   3.309  1.00  0.00    -0.508 OA
ATOM     18  H   UNL     1       2.029 -10.731   3.382  1.00  0.00     0.293 HD
ENDBRANCH  14  17
BRANCH  15  19
ATOM     19  O   UNL     1      -1.366  -6.572   5.336  1.00  0.00    -0.508 OA
ATOM     20  H   UNL     1      -1.525  -6.123   6.230  1.00  0.00     0.293 HD
ENDBRANCH  15  19
ENDBRANCH  10  11
ENDBRANCH   1  10
TORSDOF 6
ENDMDL
MODEL 2
REMARK VINA RESULT:    -5.627      0.035      2.035
REMARK INTER + INTRA:          -7.553
REMARK INTER:                  -7.108
REMARK INTRA:                  -0.445
REMARK UNBOUND:                -0.446
REMARK SMILES Oc1ccc(CCc2cc(O)cc(O)c2)cc1
REMARK SMILES IDX 6 1 5 2 4 3 3 4 2 5 16 6 17 7 1 8 7 10 8 11 15 12 9 13 13 14
REMARK SMILES IDX 10 15 12 16 14 17 11 19
REMARK H PARENT 1 9 14 18 11 20
REMARK Flexibility Score: inf
ROOT
ATOM      1  C   UNL     1       4.785  -7.184   5.037  1.00  0.00     0.040 C 
ENDROOT
BRANCH   1   2
ATOM      2  C   UNL     1       5.913  -6.289   4.602  1.00  0.00    -0.047 A 
ATOM      3  C   UNL     1       5.979  -4.961   5.054  1.00  0.00     0.007 A 
ATOM      4  C   UNL     1       7.010  -4.120   4.623  1.00  0.00     0.046 A 
ATOM      5  C   UNL     1       7.979  -4.596   3.729  1.00  0.00     0.115 A 
ATOM      6  C   UNL     1       6.878  -6.756   3.695  1.00  0.00     0.007 A 
ATOM      7  C   UNL     1       7.909  -5.913   3.266  1.00  0.00     0.046 A 
BRANCH   5   8
ATOM      8  O   UNL     1       9.010  -3.767   3.292  1.00  0.00    -0.508 OA
ATOM      9  H   UNL     1       9.115  -3.522   2.315  1.00  0.00     0.293 HD
ENDBRANCH   5   8
ENDBRANCH   1   2
BRANCH   1  10
ATOM     10  C   UNL     1       3.562  -6.353   5.435  1.00  0.00     0.040 C 
BRANCH  10  11
ATOM     11  C   UNL     1       2.291  -7.065   5.056  1.00  0.00    -0.040 A 
ATOM     12  C   UNL     1       1.043  -6.497   5.360  1.00  0.00     0.050 A 
ATOM     13  C   UNL     1       2.343  -8.274   4.344  1.00  0.00     0.050 A 
ATOM     14  C   UNL     1      -0.139  -7.142   4.980  1.00  0.00     0.119 A 
ATOM     15  C   UNL     1       1.160  -8.921   3.961  1.00  0.00     0.119 A 
ATOM     16  C   UNL     1      -0.078  -8.356   4.282  1.00  0.00     0.092 A 
BRANCH  14  17
ATOM     17  O   UNL     1      -1.368  -6.567   5.297  1.00  0.00    -0.508 OA
ATOM     18  H   UNL     1      -2.227  -7.100   5.258  1.00  0.00     0.293 HD
ENDBRANCH  14  17
BRANCH  15  19
ATOM     19  O   UNL     1       1.203 -10.125   3.260  1.00  0.00    -0.508 OA
ATOM     20  H   UNL     1       2.079 -10.514   2.929  1.00  0.00     0.293 HD
ENDBRANCH  15  19
ENDBRANCH  10  11
ENDBRANCH   1  10
TORSDOF 6
ENDMDL
MODEL 3
REMARK VINA RESULT:    -5.453      2.349      3.569
REMARK INTER + INTRA:          -7.333
REMARK INTER:                  -6.795
REMARK INTRA:                  -0.538
REMARK UNBOUND:                -0.446
REMARK SMILES Oc1ccc(CCc2cc(O)cc(O)c2)cc1
REMARK SMILES IDX 6 1 5 2 4 3 3 4 2 5 16 6 17 7 1 8 7 10 8 11 15 12 9 13 13 14
REMARK SMILES IDX 10 15 12 16 14 17 11 19
REMARK H PARENT 1 9 14 18 11 20
REMARK Flexibility Score: inf
ROOT
ATOM      1  C   UNL     1       3.832  -5.558   6.400  1.00  0.00     0.040 C 
ENDROOT
BRANCH   1   2
ATOM      2  C   UNL     1       4.416  -4.267   5.896  1.00  0.00    -0.047 A 
ATOM      3  C   UNL     1       3.632  -3.102   5.858  1.00  0.00     0.007 A 
ATOM      4  C   UNL     1       4.164  -1.909   5.359  1.00  0.00     0.046 A 
ATOM      5  C   UNL     1       5.482  -1.872   4.884  1.00  0.00     0.115 A 
ATOM      6  C   UNL     1       5.730  -4.227   5.406  1.00  0.00     0.007 A 
ATOM      7  C   UNL     1       6.261  -3.032   4.907  1.00  0.00     0.046 A 
BRANCH   5   8
ATOM      8  O   UNL     1       6.023  -0.690   4.384  1.00  0.00    -0.508 OA
ATOM      9  H   UNL     1       6.120  -0.531   3.387  1.00  0.00     0.293 HD
ENDBRANCH   5   8
ENDBRANCH   1   2
BRANCH   1  10
ATOM     10  C   UNL     1       2.656  -5.996   5.524  1.00  0.00     0.040 C 
BRANCH  10  11
ATOM     11  C   UNL     1       2.969  -7.292   4.825  1.00  0.00    -0.040 A 
ATOM     12  C   UNL     1       1.930  -8.122   4.373  1.00  0.00     0.050 A 
ATOM     13  C   UNL     1       4.302  -7.654   4.569  1.00  0.00     0.050 A 
ATOM     14  C   UNL     1       2.220  -9.311   3.695  1.00  0.00     0.119 A 
ATOM     15  C   UNL     1       4.593  -8.844   3.889  1.00  0.00     0.119 A 
ATOM     16  C   UNL     1       3.553  -9.672   3.456  1.00  0.00     0.092 A 
BRANCH  14  17
ATOM     17  O   UNL     1       1.175 -10.125   3.260  1.00  0.00    -0.508 OA
ATOM     18  H   UNL     1       0.441  -9.769   2.660  1.00  0.00     0.293 HD
ENDBRANCH  14  17
BRANCH  15  19
ATOM     19  O   UNL     1       5.913  -9.213   3.637  1.00  0.00    -0.508 OA
ATOM     20  H   UNL     1       6.181  -9.661   2.768  1.00  0.00     0.293 HD
ENDBRANCH  15  19
ENDBRANCH  10  11
ENDBRANCH   1  10
TORSDOF 6
ENDMDL
MODEL 4
REMARK VINA RESULT:    -5.410      1.355      6.758
REMARK INTER + INTRA:          -7.278
REMARK INTER:                  -6.731
REMARK INTRA:                  -0.547
REMARK UNBOUND:                -0.446
REMARK SMILES Oc1ccc(CCc2cc(O)cc(O)c2)cc1
REMARK SMILES IDX 6 1 5 2 4 3 3 4 2 5 16 6 17 7 1 8 7 10 8 11 15 12 9 13 13 14
REMARK SMILES IDX 10 15 12 16 14 17 11 19
REMARK H PARENT 1 9 14 18 11 20
REMARK Flexibility Score: inf
ROOT
ATOM      1  C   UNL     1       4.104  -8.159   4.434  1.00  0.00     0.040 C 
ENDROOT
BRANCH   1   2
ATOM      2  C   UNL     1       2.627  -7.910   4.576  1.00  0.00    -0.047 A 
ATOM      3  C   UNL     1       1.700  -8.840   4.078  1.00  0.00     0.007 A 
ATOM      4  C   UNL     1       0.328  -8.593   4.181  1.00  0.00     0.046 A 
ATOM      5  C   UNL     1      -0.131  -7.408   4.774  1.00  0.00     0.115 A 
ATOM      6  C   UNL     1       2.162  -6.719   5.156  1.00  0.00     0.007 A 
ATOM      7  C   UNL     1       0.788  -6.473   5.258  1.00  0.00     0.046 A 
BRANCH   5   8
ATOM      8  O   UNL     1      -1.496  -7.151   4.881  1.00  0.00    -0.508 OA
ATOM      9  H   UNL     1      -2.188  -7.854   4.650  1.00  0.00     0.293 HD
ENDBRANCH   5   8
ENDBRANCH   1   2
BRANCH   1  10
ATOM     10  C   UNL     1       4.884  -7.398   5.509  1.00  0.00     0.040 C 
BRANCH  10  11
ATOM     11  C   UNL     1       5.800  -6.382   4.880  1.00  0.00    -0.040 A 
ATOM     12  C   UNL     1       6.811  -6.793   3.996  1.00  0.00     0.050 A 
ATOM     13  C   UNL     1       5.613  -5.013   5.126  1.00  0.00     0.050 A 
ATOM     14  C   UNL     1       7.642  -5.848   3.385  1.00  0.00     0.119 A 
ATOM     15  C   UNL     1       6.444  -4.065   4.514  1.00  0.00     0.119 A 
ATOM     16  C   UNL     1       7.459  -4.484   3.648  1.00  0.00     0.092 A 
BRANCH  14  17
ATOM     17  O   UNL     1       8.645  -6.275   2.517  1.00  0.00    -0.508 OA
ATOM     18  H   UNL     1       9.049  -5.652   1.828  1.00  0.00     0.293 HD
ENDBRANCH  14  17
BRANCH  15  19
ATOM     19  O   UNL     1       6.269  -2.704   4.759  1.00  0.00    -0.508 OA
ATOM     20  H   UNL     1       5.622  -2.372   5.464  1.00  0.00     0.293 HD
ENDBRANCH  15  19
ENDBRANCH  10  11
ENDBRANCH   1  10
TORSDOF 6
ENDMDL
MODEL 5
REMARK VINA RESULT:    -5.396      1.358      6.975
REMARK INTER + INTRA:          -7.261
REMARK INTER:                  -6.721
REMARK INTRA:                  -0.540
REMARK UNBOUND:                -0.446
REMARK SMILES Oc1ccc(CCc2cc(O)cc(O)c2)cc1
REMARK SMILES IDX 6 1 5 2 4 3 3 4 2 5 16 6 17 7 1 8 7 10 8 11 15 12 9 13 13 14
REMARK SMILES IDX 10 15 12 16 14 17 11 19
REMARK H PARENT 1 9 14 18 11 20
REMARK Flexibility Score: inf
ROOT
ATOM      1  C   UNL     1       4.108  -8.164   4.495  1.00  0.00     0.040 C 
ENDROOT
BRANCH   1   2
ATOM      2  C   UNL     1       2.636  -7.864   4.579  1.00  0.00    -0.047 A 
ATOM      3  C   UNL     1       2.187  -6.682   5.191  1.00  0.00     0.007 A 
ATOM      4  C   UNL     1       0.818  -6.420   5.298  1.00  0.00     0.046 A 
ATOM      5  C   UNL     1      -0.116  -7.340   4.802  1.00  0.00     0.115 A 
ATOM      6  C   UNL     1       1.696  -8.788   4.096  1.00  0.00     0.007 A 
ATOM      7  C   UNL     1       0.327  -8.523   4.204  1.00  0.00     0.046 A 
BRANCH   5   8
ATOM      8  O   UNL     1      -1.482  -7.089   4.903  1.00  0.00    -0.508 OA
ATOM      9  H   UNL     1      -2.158  -7.843   4.946  1.00  0.00     0.293 HD
ENDBRANCH   5   8
ENDBRANCH   1   2
BRANCH   1  10
ATOM     10  C   UNL     1       4.886  -7.334   5.521  1.00  0.00     0.040 C 
BRANCH  10  11
ATOM     11  C   UNL     1       5.778  -6.338   4.830  1.00  0.00    -0.040 A 
ATOM     12  C   UNL     1       5.662  -4.968   5.114  1.00  0.00     0.050 A 
ATOM     13  C   UNL     1       6.773  -6.776   3.941  1.00  0.00     0.050 A 
ATOM     14  C   UNL     1       6.512  -4.044   4.497  1.00  0.00     0.119 A 
ATOM     15  C   UNL     1       7.626  -5.852   3.323  1.00  0.00     0.119 A 
ATOM     16  C   UNL     1       7.492  -4.488   3.599  1.00  0.00     0.092 A 
BRANCH  14  17
ATOM     17  O   UNL     1       6.376  -2.687   4.785  1.00  0.00    -0.508 OA
ATOM     18  H   UNL     1       5.600  -2.337   5.334  1.00  0.00     0.293 HD
ENDBRANCH  14  17
BRANCH  15  19
ATOM     19  O   UNL     1       8.611  -6.279   2.434  1.00  0.00    -0.508 OA
ATOM     20  H   UNL     1       9.367  -5.667   2.148  1.00  0.00     0.293 HD
ENDBRANCH  15  19
ENDBRANCH  10  11
ENDBRANCH   1  10
TORSDOF 6
ENDMDL
MODEL 6
REMARK VINA RESULT:    -5.393      1.895      2.426
REMARK INTER + INTRA:          -7.257
REMARK INTER:                  -6.713
REMARK INTRA:                  -0.543
REMARK UNBOUND:                -0.446
REMARK SMILES Oc1ccc(CCc2cc(O)cc(O)c2)cc1
REMARK SMILES IDX 6 1 5 2 4 3 3 4 2 5 16 6 17 7 1 8 7 10 8 11 15 12 9 13 13 14
REMARK SMILES IDX 10 15 12 16 14 17 11 19
REMARK H PARENT 1 9 14 18 11 20
REMARK Flexibility Score: inf
ROOT
ATOM      1  C   UNL     1       3.734  -5.540   6.432  1.00  0.00     0.040 C 
ENDROOT
BRANCH   1   2
ATOM      2  C   UNL     1       4.317  -4.256   5.907  1.00  0.00    -0.047 A 
ATOM      3  C   UNL     1       3.516  -3.108   5.795  1.00  0.00     0.007 A 
ATOM      4  C   UNL     1       4.049  -1.924   5.276  1.00  0.00     0.046 A 
ATOM      5  C   UNL     1       5.386  -1.879   4.856  1.00  0.00     0.115 A 
ATOM      6  C   UNL     1       5.650  -4.210   5.471  1.00  0.00     0.007 A 
ATOM      7  C   UNL     1       6.182  -3.024   4.953  1.00  0.00     0.046 A 
BRANCH   5   8
ATOM      8  O   UNL     1       5.928  -0.706   4.337  1.00  0.00    -0.508 OA
ATOM      9  H   UNL     1       6.735  -0.263   4.759  1.00  0.00     0.293 HD
ENDBRANCH   5   8
ENDBRANCH   1   2
BRANCH   1  10
ATOM     10  C   UNL     1       3.913  -6.669   5.413  1.00  0.00     0.040 C 
BRANCH  10  11
ATOM     11  C   UNL     1       2.577  -7.216   4.988  1.00  0.00    -0.040 A 
ATOM     12  C   UNL     1       2.502  -8.413   4.257  1.00  0.00     0.050 A 
ATOM     13  C   UNL     1       1.392  -6.565   5.367  1.00  0.00     0.050 A 
ATOM     14  C   UNL     1       1.260  -8.939   3.888  1.00  0.00     0.119 A 
ATOM     15  C   UNL     1       0.147  -7.091   5.000  1.00  0.00     0.119 A 
ATOM     16  C   UNL     1       0.083  -8.275   4.259  1.00  0.00     0.092 A 
BRANCH  14  17
ATOM     17  O   UNL     1       1.206 -10.124   3.156  1.00  0.00    -0.508 OA
ATOM     18  H   UNL     1       1.965 -10.794   3.178  1.00  0.00     0.293 HD
ENDBRANCH  14  17
BRANCH  15  19
ATOM     19  O   UNL     1      -1.033  -6.447   5.367  1.00  0.00    -0.508 OA
ATOM     20  H   UNL     1      -1.027  -5.641   5.981  1.00  0.00     0.293 HD
ENDBRANCH  15  19
ENDBRANCH  10  11
ENDBRANCH   1  10
TORSDOF 6
ENDMDL
MODEL 7
REMARK VINA RESULT:    -5.386      2.357      3.371
REMARK INTER + INTRA:          -7.249
REMARK INTER:                  -6.714
REMARK INTRA:                  -0.535
REMARK UNBOUND:                -0.446
REMARK SMILES Oc1ccc(CCc2cc(O)cc(O)c2)cc1
REMARK SMILES IDX 6 1 5 2 4 3 3 4 2 5 16 6 17 7 1 8 7 10 8 11 15 12 9 13 13 14
REMARK SMILES IDX 10 15 12 16 14 17 11 19
REMARK H PARENT 1 9 14 18 11 20
REMARK Flexibility Score: inf
ROOT
ATOM      1  C   UNL     1       3.836  -5.580   6.539  1.00  0.00     0.040 C 
ENDROOT
BRANCH   1   2
ATOM      2  C   UNL     1       4.410  -4.305   5.983  1.00  0.00    -0.047 A 
ATOM      3  C   UNL     1       3.589  -3.181   5.796  1.00  0.00     0.007 A 
ATOM      4  C   UNL     1       4.115  -2.007   5.248  1.00  0.00     0.046 A 
ATOM      5  C   UNL     1       5.465  -1.948   4.874  1.00  0.00     0.115 A 
ATOM      6  C   UNL     1       5.757  -4.245   5.594  1.00  0.00     0.007 A 
ATOM      7  C   UNL     1       6.282  -3.070   5.047  1.00  0.00     0.046 A 
BRANCH   5   8
ATOM      8  O   UNL     1       6.000  -0.785   4.328  1.00  0.00    -0.508 OA
ATOM      9  H   UNL     1       5.961  -0.600   3.332  1.00  0.00     0.293 HD
ENDBRANCH   5   8
ENDBRANCH   1   2
BRANCH   1  10
ATOM     10  C   UNL     1       2.631  -6.034   5.711  1.00  0.00     0.040 C 
BRANCH  10  11
ATOM     11  C   UNL     1       2.969  -7.267   4.916  1.00  0.00    -0.040 A 
ATOM     12  C   UNL     1       4.310  -7.609   4.678  1.00  0.00     0.050 A 
ATOM     13  C   UNL     1       1.948  -8.116   4.458  1.00  0.00     0.050 A 
ATOM     14  C   UNL     1       4.627  -8.772   3.967  1.00  0.00     0.119 A 
ATOM     15  C   UNL     1       2.264  -9.281   3.747  1.00  0.00     0.119 A 
ATOM     16  C   UNL     1       3.602  -9.606   3.500  1.00  0.00     0.092 A 
BRANCH  14  17
ATOM     17  O   UNL     1       5.963  -9.091   3.733  1.00  0.00    -0.508 OA
ATOM     18  H   UNL     1       6.373  -9.945   4.091  1.00  0.00     0.293 HD
ENDBRANCH  14  17
BRANCH  15  19
ATOM     19  O   UNL     1       1.256 -10.125   3.283  1.00  0.00    -0.508 OA
ATOM     20  H   UNL     1       0.939 -10.090   2.321  1.00  0.00     0.293 HD
ENDBRANCH  15  19
ENDBRANCH  10  11
ENDBRANCH   1  10
TORSDOF 6
ENDMDL
MODEL 8
REMARK VINA RESULT:    -5.347      1.839      3.288
REMARK INTER + INTRA:          -7.199
REMARK INTER:                  -6.662
REMARK INTRA:                  -0.537
REMARK UNBOUND:                -0.446
REMARK SMILES Oc1ccc(CCc2cc(O)cc(O)c2)cc1
REMARK SMILES IDX 6 1 5 2 4 3 3 4 2 5 16 6 17 7 1 8 7 10 8 11 15 12 9 13 13 14
REMARK SMILES IDX 10 15 12 16 14 17 11 19
REMARK H PARENT 1 9 14 18 11 20
REMARK Flexibility Score: inf
ROOT
ATOM      1  C   UNL     1       3.934  -5.602   6.429  1.00  0.00     0.040 C 
ENDROOT
BRANCH   1   2
ATOM      2  C   UNL     1       4.478  -4.315   5.872  1.00  0.00    -0.047 A 
ATOM      3  C   UNL     1       5.735  -4.288   5.247  1.00  0.00     0.007 A 
ATOM      4  C   UNL     1       6.254  -3.085   4.758  1.00  0.00     0.046 A 
ATOM      5  C   UNL     1       5.526  -1.896   4.898  1.00  0.00     0.115 A 
ATOM      6  C   UNL     1       3.759  -3.118   6.022  1.00  0.00     0.007 A 
ATOM      7  C   UNL     1       4.280  -1.916   5.532  1.00  0.00     0.046 A 
BRANCH   5   8
ATOM      8  O   UNL     1       6.033  -0.692   4.416  1.00  0.00    -0.508 OA
ATOM      9  H   UNL     1       5.612   0.197   4.661  1.00  0.00     0.293 HD
ENDBRANCH   5   8
ENDBRANCH   1   2
BRANCH   1  10
ATOM     10  C   UNL     1       4.067  -6.731   5.403  1.00  0.00     0.040 C 
BRANCH  10  11
ATOM     11  C   UNL     1       2.712  -7.280   5.043  1.00  0.00    -0.040 A 
ATOM     12  C   UNL     1       1.547  -6.588   5.411  1.00  0.00     0.050 A 
ATOM     13  C   UNL     1       2.604  -8.457   4.285  1.00  0.00     0.050 A 
ATOM     14  C   UNL     1       0.288  -7.079   5.048  1.00  0.00     0.119 A 
ATOM     15  C   UNL     1       1.344  -8.951   3.920  1.00  0.00     0.119 A 
ATOM     16  C   UNL     1       0.189  -8.263   4.305  1.00  0.00     0.092 A 
BRANCH  14  17
ATOM     17  O   UNL     1      -0.857  -6.383   5.430  1.00  0.00    -0.508 OA
ATOM     18  H   UNL     1      -1.783  -6.725   5.207  1.00  0.00     0.293 HD
ENDBRANCH  14  17
BRANCH  15  19
ATOM     19  O   UNL     1       1.229 -10.122   3.174  1.00  0.00    -0.508 OA
ATOM     20  H   UNL     1       1.920 -10.861   3.238  1.00  0.00     0.293 HD
ENDBRANCH  15  19
ENDBRANCH  10  11
ENDBRANCH   1  10
TORSDOF 6
ENDMDL
MODEL 9
REMARK VINA RESULT:    -5.241      3.452      6.606
REMARK INTER + INTRA:          -7.066
REMARK INTER:                  -6.633
REMARK INTRA:                  -0.433
REMARK UNBOUND:                -0.446
REMARK SMILES Oc1ccc(CCc2cc(O)cc(O)c2)cc1
REMARK SMILES IDX 6 1 5 2 4 3 3 4 2 5 16 6 17 7 1 8 7 10 8 11 15 12 9 13 13 14
REMARK SMILES IDX 10 15 12 16 14 17 11 19
REMARK H PARENT 1 9 14 18 11 20
REMARK Flexibility Score: inf
ROOT
ATOM      1  C   UNL     1       3.650  -5.605   5.781  1.00  0.00     0.040 C 
ENDROOT
BRANCH   1   2
ATOM      2  C   UNL     1       2.990  -6.780   5.114  1.00  0.00    -0.047 A 
ATOM      3  C   UNL     1       1.590  -6.896   5.105  1.00  0.00     0.007 A 
ATOM      4  C   UNL     1       0.978  -8.005   4.513  1.00  0.00     0.046 A 
ATOM      5  C   UNL     1       1.760  -9.014   3.933  1.00  0.00     0.115 A 
ATOM      6  C   UNL     1       3.768  -7.801   4.544  1.00  0.00     0.007 A 
ATOM      7  C   UNL     1       3.154  -8.909   3.952  1.00  0.00     0.046 A 
BRANCH   5   8
ATOM      8  O   UNL     1       1.161 -10.124   3.342  1.00  0.00    -0.508 OA
ATOM      9  H   UNL     1       0.214 -10.087   2.983  1.00  0.00     0.293 HD
ENDBRANCH   5   8
ENDBRANCH   1   2
BRANCH   1  10
ATOM     10  C   UNL     1       2.598  -4.628   6.315  1.00  0.00     0.040 C 
BRANCH  10  11
ATOM     11  C   UNL     1       3.134  -3.221   6.316  1.00  0.00    -0.040 A 
ATOM     12  C   UNL     1       4.123  -2.840   5.395  1.00  0.00     0.050 A 
ATOM     13  C   UNL     1       2.609  -2.265   7.200  1.00  0.00     0.050 A 
ATOM     14  C   UNL     1       4.599  -1.525   5.373  1.00  0.00     0.119 A 
ATOM     15  C   UNL     1       3.084  -0.947   7.179  1.00  0.00     0.119 A 
ATOM     16  C   UNL     1       4.080  -0.580   6.269  1.00  0.00     0.092 A 
BRANCH  14  17
ATOM     17  O   UNL     1       5.586  -1.166   4.456  1.00  0.00    -0.508 OA
ATOM     18  H   UNL     1       6.414  -1.733   4.322  1.00  0.00     0.293 HD
ENDBRANCH  14  17
BRANCH  15  19
ATOM     19  O   UNL     1       2.573   0.007   8.058  1.00  0.00    -0.508 OA
ATOM     20  H   UNL     1       2.958   0.943   8.106  1.00  0.00     0.293 HD
ENDBRANCH  15  19
ENDBRANCH  10  11
ENDBRANCH   1  10
TORSDOF 6
ENDMDL
