MODEL 1
REMARK VINA RESULT:    -4.399      0.000      0.000
REMARK INTER + INTRA:          -5.883
REMARK INTER:                  -5.685
REMARK INTRA:                  -0.198
REMARK UNBOUND:                -0.198
REMARK SMILES C=CC(=O)CCCCC
REMARK SMILES IDX 6 1 7 2 8 3 9 4 5 5 3 6 4 7 2 8 1 9
REMARK H PARENT
REMARK Flexibility Score: inf
ROOT
ATOM      1  C   UNL     1     -12.395 -17.527  31.566  1.00  0.00     0.008 C 
ENDROOT
BRANCH   1   2
ATOM      2  C   UNL     1     -12.870 -16.270  32.313  1.00  0.00     0.000 C 
BRANCH   2   3
ATOM      3  C   UNL     1     -14.035 -15.567  31.602  1.00  0.00    -0.003 C 
ATOM      4  C   UNL     1     -14.895 -14.789  32.594  1.00  0.00     0.004 C 
ENDBRANCH   2   3
ENDBRANCH   1   2
BRANCH   1   5
ATOM      5  C   UNL     1     -13.256 -18.759  31.880  1.00  0.00     0.080 C 
BRANCH   5   6
ATOM      6  C   UNL     1     -12.820 -19.937  31.049  1.00  0.00     0.155 C 
ATOM      7  O   UNL     1     -12.454 -20.988  31.638  1.00  0.00    -0.295 OA
BRANCH   6   8
ATOM      8  C   UNL     1     -12.829 -19.930  29.570  1.00  0.00     0.039 C 
ATOM      9  C   UNL     1     -13.937 -19.990  28.830  1.00  0.00     0.012 C 
ENDBRANCH   6   8
ENDBRANCH   5   6
ENDBRANCH   1   5
TORSDOF 5
ENDMDL
MODEL 2
REMARK VINA RESULT:    -4.357      3.634      3.966
REMARK INTER + INTRA:          -5.828
REMARK INTER:                  -5.604
REMARK INTRA:                  -0.224
REMARK UNBOUND:                -0.198
REMARK SMILES C=CC(=O)CCCCC
REMARK SMILES IDX 6 1 7 2 8 3 9 4 5 5 3 6 4 7 2 8 1 9
REMARK H PARENT
REMARK Flexibility Score: inf
ROOT
ATOM      1  C   UNL     1     -12.260 -16.228  29.854  1.00  0.00     0.008 C 
ENDROOT
BRANCH   1   2
ATOM      2  C   UNL     1     -13.288 -16.767  30.861  1.00  0.00     0.000 C 
BRANCH   2   3
ATOM      3  C   UNL     1     -13.279 -15.990  32.185  1.00  0.00    -0.003 C 
ATOM      4  C   UNL     1     -14.519 -15.109  32.314  1.00  0.00     0.004 C 
ENDBRANCH   2   3
ENDBRANCH   1   2
BRANCH   1   5
ATOM      5  C   UNL     1     -12.918 -15.515  28.663  1.00  0.00     0.080 C 
BRANCH   5   6
ATOM      6  C   UNL     1     -12.863 -16.379  27.431  1.00  0.00     0.155 C 
ATOM      7  O   UNL     1     -13.796 -16.288  26.589  1.00  0.00    -0.295 OA
BRANCH   6   8
ATOM      8  C   UNL     1     -11.749 -17.309  27.145  1.00  0.00     0.039 C 
ATOM      9  C   UNL     1     -11.110 -17.371  25.977  1.00  0.00     0.012 C 
ENDBRANCH   6   8
ENDBRANCH   5   6
ENDBRANCH   1   5
TORSDOF 5
ENDMDL
MODEL 3
REMARK VINA RESULT:    -4.319      2.700      3.560
REMARK INTER + INTRA:          -5.779
REMARK INTER:                  -5.310
REMARK INTRA:                  -0.469
REMARK UNBOUND:                -0.198
REMARK SMILES C=CC(=O)CCCCC
REMARK SMILES IDX 6 1 7 2 8 3 9 4 5 5 3 6 4 7 2 8 1 9
REMARK H PARENT
REMARK Flexibility Score: inf
ROOT
ATOM      1  C   UNL     1     -12.077 -16.282  29.448  1.00  0.00     0.008 C 
ENDROOT
BRANCH   1   2
ATOM      2  C   UNL     1     -12.818 -15.635  28.267  1.00  0.00     0.000 C 
BRANCH   2   3
ATOM      3  C   UNL     1     -13.051 -16.617  27.109  1.00  0.00    -0.003 C 
ATOM      4  C   UNL     1     -11.729 -17.053  26.484  1.00  0.00     0.004 C 
ENDBRANCH   2   3
ENDBRANCH   1   2
BRANCH   1   5
ATOM      5  C   UNL     1     -12.946 -17.294  30.207  1.00  0.00     0.080 C 
BRANCH   5   6
ATOM      6  C   UNL     1     -12.406 -18.690  30.037  1.00  0.00     0.155 C 
ATOM      7  O   UNL     1     -11.166 -18.876  30.157  1.00  0.00    -0.295 OA
BRANCH   6   8
ATOM      8  C   UNL     1     -13.267 -19.862  29.766  1.00  0.00     0.039 C 
ATOM      9  C   UNL     1     -13.999 -20.011  28.661  1.00  0.00     0.012 C 
ENDBRANCH   6   8
ENDBRANCH   5   6
ENDBRANCH   1   5
TORSDOF 5
ENDMDL
MODEL 4
REMARK VINA RESULT:    -4.278      2.343      4.270
REMARK INTER + INTRA:          -5.725
REMARK INTER:                  -5.229
REMARK INTRA:                  -0.497
REMARK UNBOUND:                -0.198
REMARK SMILES C=CC(=O)CCCCC
REMARK SMILES IDX 6 1 7 2 8 3 9 4 5 5 3 6 4 7 2 8 1 9
REMARK H PARENT
REMARK Flexibility Score: inf
ROOT
ATOM      1  C   UNL     1     -12.421 -18.728  31.701  1.00  0.00     0.008 C 
ENDROOT
BRANCH   1   2
ATOM      2  C   UNL     1     -13.029 -19.936  30.971  1.00  0.00     0.000 C 
BRANCH   2   3
ATOM      3  C   UNL     1     -12.806 -19.880  29.452  1.00  0.00    -0.003 C 
ATOM      4  C   UNL     1     -14.122 -20.037  28.697  1.00  0.00     0.004 C 
ENDBRANCH   2   3
ENDBRANCH   1   2
BRANCH   1   5
ATOM      5  C   UNL     1     -13.475 -17.679  32.084  1.00  0.00     0.080 C 
BRANCH   5   6
ATOM      6  C   UNL     1     -13.293 -16.423  31.274  1.00  0.00     0.155 C 
ATOM      7  O   UNL     1     -14.028 -15.431  31.526  1.00  0.00    -0.295 OA
BRANCH   6   8
ATOM      8  C   UNL     1     -12.270 -16.285  30.215  1.00  0.00     0.039 C 
ATOM      9  C   UNL     1     -12.545 -15.980  28.947  1.00  0.00     0.012 C 
ENDBRANCH   6   8
ENDBRANCH   5   6
ENDBRANCH   1   5
TORSDOF 5
ENDMDL
MODEL 5
REMARK VINA RESULT:    -4.272      3.020      4.812
REMARK INTER + INTRA:          -5.718
REMARK INTER:                  -5.468
REMARK INTRA:                  -0.250
REMARK UNBOUND:                -0.198
REMARK SMILES C=CC(=O)CCCCC
REMARK SMILES IDX 6 1 7 2 8 3 9 4 5 5 3 6 4 7 2 8 1 9
REMARK H PARENT
REMARK Flexibility Score: inf
ROOT
ATOM      1  C   UNL     1     -12.125 -16.108  29.352  1.00  0.00     0.008 C 
ENDROOT
BRANCH   1   2
ATOM      2  C   UNL     1     -12.911 -15.564  28.148  1.00  0.00     0.000 C 
BRANCH   2   3
ATOM      3  C   UNL     1     -13.079 -16.607  27.034  1.00  0.00    -0.003 C 
ATOM      4  C   UNL     1     -11.726 -17.031  26.469  1.00  0.00     0.004 C 
ENDBRANCH   2   3
ENDBRANCH   1   2
BRANCH   1   5
ATOM      5  C   UNL     1     -13.000 -16.942  30.299  1.00  0.00     0.080 C 
BRANCH   5   6
ATOM      6  C   UNL     1     -13.025 -16.331  31.675  1.00  0.00     0.155 C 
ATOM      7  O   UNL     1     -11.939 -16.215  32.303  1.00  0.00    -0.295 OA
BRANCH   6   8
ATOM      8  C   UNL     1     -14.261 -15.829  32.314  1.00  0.00     0.039 C 
ATOM      9  C   UNL     1     -14.859 -14.684  31.985  1.00  0.00     0.012 C 
ENDBRANCH   6   8
ENDBRANCH   5   6
ENDBRANCH   1   5
TORSDOF 5
ENDMDL
MODEL 6
REMARK VINA RESULT:    -4.267      1.490      2.063
REMARK INTER + INTRA:          -5.712
REMARK INTER:                  -5.207
REMARK INTRA:                  -0.506
REMARK UNBOUND:                -0.198
REMARK SMILES C=CC(=O)CCCCC
REMARK SMILES IDX 6 1 7 2 8 3 9 4 5 5 3 6 4 7 2 8 1 9
REMARK H PARENT
REMARK Flexibility Score: inf
ROOT
ATOM      1  C   UNL     1     -12.347 -17.106  31.365  1.00  0.00     0.008 C 
ENDROOT
BRANCH   1   2
ATOM      2  C   UNL     1     -13.258 -16.106  30.635  1.00  0.00     0.000 C 
BRANCH   2   3
ATOM      3  C   UNL     1     -12.795 -15.828  29.198  1.00  0.00    -0.003 C 
ATOM      4  C   UNL     1     -11.285 -16.004  29.063  1.00  0.00     0.004 C 
ENDBRANCH   2   3
ENDBRANCH   1   2
BRANCH   1   5
ATOM      5  C   UNL     1     -13.119 -18.316  31.912  1.00  0.00     0.080 C 
BRANCH   5   6
ATOM      6  C   UNL     1     -12.747 -19.567  31.161  1.00  0.00     0.155 C 
ATOM      7  O   UNL     1     -12.505 -20.614  31.817  1.00  0.00    -0.295 OA
BRANCH   6   8
ATOM      8  C   UNL     1     -12.682 -19.634  29.685  1.00  0.00     0.039 C 
ATOM      9  C   UNL     1     -13.728 -19.903  28.903  1.00  0.00     0.012 C 
ENDBRANCH   6   8
ENDBRANCH   5   6
ENDBRANCH   1   5
TORSDOF 5
ENDMDL
MODEL 7
REMARK VINA RESULT:    -4.227      1.840      2.627
REMARK INTER + INTRA:          -5.661
REMARK INTER:                  -5.107
REMARK INTRA:                  -0.553
REMARK UNBOUND:                -0.198
REMARK SMILES C=CC(=O)CCCCC
REMARK SMILES IDX 6 1 7 2 8 3 9 4 5 5 3 6 4 7 2 8 1 9
REMARK H PARENT
REMARK Flexibility Score: inf
ROOT
ATOM      1  C   UNL     1     -12.889 -17.222  28.720  1.00  0.00     0.008 C 
ENDROOT
BRANCH   1   2
ATOM      2  C   UNL     1     -12.502 -16.157  29.758  1.00  0.00     0.000 C 
BRANCH   2   3
ATOM      3  C   UNL     1     -13.384 -16.211  31.014  1.00  0.00    -0.003 C 
ATOM      4  C   UNL     1     -12.538 -16.372  32.274  1.00  0.00     0.004 C 
ENDBRANCH   2   3
ENDBRANCH   1   2
BRANCH   1   5
ATOM      5  C   UNL     1     -12.167 -18.558  28.948  1.00  0.00     0.080 C 
BRANCH   5   6
ATOM      6  C   UNL     1     -13.133 -19.608  29.428  1.00  0.00     0.155 C 
ATOM      7  O   UNL     1     -13.871 -20.181  28.582  1.00  0.00    -0.295 OA
BRANCH   6   8
ATOM      8  C   UNL     1     -13.237 -20.025  30.843  1.00  0.00     0.039 C 
ATOM      9  C   UNL     1     -12.210 -20.045  31.692  1.00  0.00     0.012 C 
ENDBRANCH   6   8
ENDBRANCH   5   6
ENDBRANCH   1   5
TORSDOF 5
ENDMDL
MODEL 8
REMARK VINA RESULT:    -4.215      1.671      2.156
REMARK INTER + INTRA:          -5.645
REMARK INTER:                  -5.266
REMARK INTRA:                  -0.379
REMARK UNBOUND:                -0.198
REMARK SMILES C=CC(=O)CCCCC
REMARK SMILES IDX 6 1 7 2 8 3 9 4 5 5 3 6 4 7 2 8 1 9
REMARK H PARENT
REMARK Flexibility Score: inf
ROOT
ATOM      1  C   UNL     1     -12.931 -16.591  30.068  1.00  0.00     0.008 C 
ENDROOT
BRANCH   1   2
ATOM      2  C   UNL     1     -12.730 -16.213  31.544  1.00  0.00     0.000 C 
BRANCH   2   3
ATOM      3  C   UNL     1     -14.057 -16.107  32.311  1.00  0.00    -0.003 C 
ATOM      4  C   UNL     1     -14.777 -14.802  31.985  1.00  0.00     0.004 C 
ENDBRANCH   2   3
ENDBRANCH   1   2
BRANCH   1   5
ATOM      5  C   UNL     1     -12.119 -17.830  29.661  1.00  0.00     0.080 C 
BRANCH   5   6
ATOM      6  C   UNL     1     -13.011 -19.039  29.557  1.00  0.00     0.155 C 
ATOM      7  O   UNL     1     -13.597 -19.264  28.465  1.00  0.00    -0.295 OA
BRANCH   6   8
ATOM      8  C   UNL     1     -13.208 -19.995  30.668  1.00  0.00     0.039 C 
ATOM      9  C   UNL     1     -12.437 -20.047  31.754  1.00  0.00     0.012 C 
ENDBRANCH   6   8
ENDBRANCH   5   6
ENDBRANCH   1   5
TORSDOF 5
ENDMDL
MODEL 9
REMARK VINA RESULT:    -4.173      1.976      2.469
REMARK INTER + INTRA:          -5.591
REMARK INTER:                  -5.143
REMARK INTRA:                  -0.448
REMARK UNBOUND:                -0.198
REMARK SMILES C=CC(=O)CCCCC
REMARK SMILES IDX 6 1 7 2 8 3 9 4 5 5 3 6 4 7 2 8 1 9
REMARK H PARENT
REMARK Flexibility Score: inf
ROOT
ATOM      1  C   UNL     1     -13.103 -17.888  31.893  1.00  0.00     0.008 C 
ENDROOT
BRANCH   1   2
ATOM      2  C   UNL     1     -12.982 -16.406  32.282  1.00  0.00     0.000 C 
BRANCH   2   3
ATOM      3  C   UNL     1     -14.068 -15.535  31.633  1.00  0.00    -0.003 C 
ATOM      4  C   UNL     1     -14.905 -14.822  32.691  1.00  0.00     0.004 C 
ENDBRANCH   2   3
ENDBRANCH   1   2
BRANCH   1   5
ATOM      5  C   UNL     1     -12.919 -18.118  30.385  1.00  0.00     0.080 C 
BRANCH   5   6
ATOM      6  C   UNL     1     -11.469 -17.993  30.002  1.00  0.00     0.155 C 
ATOM      7  O   UNL     1     -10.654 -18.849  30.438  1.00  0.00    -0.295 OA
BRANCH   6   8
ATOM      8  C   UNL     1     -10.957 -16.930  29.110  1.00  0.00     0.039 C 
ATOM      9  C   UNL     1     -11.635 -15.825  28.800  1.00  0.00     0.012 C 
ENDBRANCH   6   8
ENDBRANCH   5   6
ENDBRANCH   1   5
TORSDOF 5
ENDMDL
