MODEL 1
REMARK VINA RESULT:    -2.867      0.000      0.000
REMARK INTER + INTRA:          -6.201
REMARK INTER:                  -5.548
REMARK INTRA:                  -0.653
REMARK UNBOUND:                -0.653
REMARK SMILES CCCCCCCCCCCCCCCCCC(=O)[O-]
REMARK SMILES IDX 10 1 11 2 12 3 13 4 14 5 15 6 16 7 17 8 18 9 19 10 20 11
REMARK SMILES IDX 9 12 8 13 7 14 6 15 5 16 4 17 3 18 2 19 1 20
REMARK H PARENT
REMARK Flexibility Score: inf
ROOT
ATOM      1  C   UNL     1       2.716  12.840  15.614  1.00  0.00     0.000 C 
ENDROOT
BRANCH   1   2
ATOM      2  C   UNL     1       2.373  14.250  16.120  1.00  0.00     0.000 C 
BRANCH   2   3
ATOM      3  C   UNL     1       1.948  14.262  17.598  1.00  0.00     0.000 C 
BRANCH   3   4
ATOM      4  C   UNL     1       1.111  15.499  17.963  1.00  0.00     0.000 C 
BRANCH   4   5
ATOM      5  C   UNL     1      -0.280  15.137  18.512  1.00  0.00     0.000 C 
BRANCH   5   6
ATOM      6  C   UNL     1      -1.317  16.271  18.368  1.00  0.00     0.000 C 
BRANCH   6   7
ATOM      7  C   UNL     1      -1.749  16.838  19.729  1.00  0.00     0.006 C 
BRANCH   7   8
ATOM      8  C   UNL     1      -1.507  18.348  19.798  1.00  0.00     0.053 C 
BRANCH   8   9
ATOM      9  C   UNL     1      -0.886  18.838  18.529  1.00  0.00     0.041 C 
ATOM     10  O   UNL     1      -1.609  19.125  17.539  1.00  0.00    -0.550 OA
ATOM     11  O   UNL     1       0.489  19.024  18.454  1.00  0.00    -0.550 OA
ENDBRANCH   8   9
ENDBRANCH   7   8
ENDBRANCH   6   7
ENDBRANCH   5   6
ENDBRANCH   4   5
ENDBRANCH   3   4
ENDBRANCH   2   3
ENDBRANCH   1   2
BRANCH   1  12
ATOM     12  C   UNL     1       3.923  12.878  14.665  1.00  0.00     0.000 C 
BRANCH  12  13
ATOM     13  C   UNL     1       5.261  12.989  15.415  1.00  0.00    -0.000 C 
BRANCH  13  14
ATOM     14  C   UNL     1       5.567  11.745  16.266  1.00  0.00    -0.000 C 
BRANCH  14  15
ATOM     15  C   UNL     1       6.749  11.956  17.231  1.00  0.00    -0.000 C 
BRANCH  15  16
ATOM     16  C   UNL     1       6.817  10.967  18.409  1.00  0.00    -0.000 C 
BRANCH  16  17
ATOM     17  C   UNL     1       5.929  11.384  19.593  1.00  0.00    -0.000 C 
BRANCH  17  18
ATOM     18  C   UNL     1       4.578  10.646  19.619  1.00  0.00    -0.000 C 
BRANCH  18  19
ATOM     19  C   UNL     1       3.539  11.151  18.601  1.00  0.00    -0.003 C 
ATOM     20  C   UNL     1       2.373  10.183  18.405  1.00  0.00     0.004 C 
ENDBRANCH  18  19
ENDBRANCH  17  18
ENDBRANCH  16  17
ENDBRANCH  15  16
ENDBRANCH  14  15
ENDBRANCH  13  14
ENDBRANCH  12  13
ENDBRANCH   1  12
TORSDOF 16
ENDMDL
MODEL 2
REMARK VINA RESULT:    -2.723      2.903      7.375
REMARK INTER + INTRA:          -5.924
REMARK INTER:                  -5.179
REMARK INTRA:                  -0.744
REMARK UNBOUND:                -0.653
REMARK SMILES CCCCCCCCCCCCCCCCCC(=O)[O-]
REMARK SMILES IDX 10 1 11 2 12 3 13 4 14 5 15 6 16 7 17 8 18 9 19 10 20 11
REMARK SMILES IDX 9 12 8 13 7 14 6 15 5 16 4 17 3 18 2 19 1 20
REMARK H PARENT
REMARK Flexibility Score: inf
ROOT
ATOM      1  C   UNL     1       2.607  13.257  16.169  1.00  0.00     0.000 C 
ENDROOT
BRANCH   1   2
ATOM      2  C   UNL     1       3.243  13.106  14.778  1.00  0.00     0.000 C 
BRANCH   2   3
ATOM      3  C   UNL     1       4.699  12.617  14.843  1.00  0.00     0.000 C 
BRANCH   3   4
ATOM      4  C   UNL     1       5.253  12.595  16.277  1.00  0.00     0.000 C 
BRANCH   4   5
ATOM      5  C   UNL     1       6.460  11.654  16.435  1.00  0.00     0.000 C 
BRANCH   5   6
ATOM      6  C   UNL     1       6.492  10.909  17.786  1.00  0.00     0.000 C 
BRANCH   6   7
ATOM      7  C   UNL     1       5.726  11.663  18.883  1.00  0.00     0.006 C 
BRANCH   7   8
ATOM      8  C   UNL     1       4.642  10.778  19.505  1.00  0.00     0.053 C 
BRANCH   8   9
ATOM      9  C   UNL     1       3.310  11.071  18.891  1.00  0.00     0.041 C 
ATOM     10  O   UNL     1       2.631  10.142  18.380  1.00  0.00    -0.550 OA
ATOM     11  O   UNL     1       2.796  12.361  18.926  1.00  0.00    -0.550 OA
ENDBRANCH   8   9
ENDBRANCH   7   8
ENDBRANCH   6   7
ENDBRANCH   5   6
ENDBRANCH   4   5
ENDBRANCH   3   4
ENDBRANCH   2   3
ENDBRANCH   1   2
BRANCH   1  12
ATOM     12  C   UNL     1       2.150  14.704  16.408  1.00  0.00     0.000 C 
BRANCH  12  13
ATOM     13  C   UNL     1       1.144  14.823  17.564  1.00  0.00    -0.000 C 
BRANCH  13  14
ATOM     14  C   UNL     1       1.389  16.069  18.435  1.00  0.00    -0.000 C 
BRANCH  14  15
ATOM     15  C   UNL     1       0.470  17.247  18.065  1.00  0.00    -0.000 C 
BRANCH  15  16
ATOM     16  C   UNL     1      -0.730  17.462  19.006  1.00  0.00    -0.000 C 
BRANCH  16  17
ATOM     17  C   UNL     1      -1.803  16.369  18.868  1.00  0.00    -0.000 C 
BRANCH  17  18
ATOM     18  C   UNL     1      -2.098  15.648  20.196  1.00  0.00    -0.000 C 
BRANCH  18  19
ATOM     19  C   UNL     1      -2.109  14.111  20.117  1.00  0.00    -0.003 C 
ATOM     20  C   UNL     1      -1.890  13.439  21.472  1.00  0.00     0.004 C 
ENDBRANCH  18  19
ENDBRANCH  17  18
ENDBRANCH  16  17
ENDBRANCH  15  16
ENDBRANCH  14  15
ENDBRANCH  13  14
ENDBRANCH  12  13
ENDBRANCH   1  12
TORSDOF 16
ENDMDL
MODEL 3
REMARK VINA RESULT:    -2.567      2.538      7.603
REMARK INTER + INTRA:          -5.622
REMARK INTER:                  -4.222
REMARK INTRA:                  -1.400
REMARK UNBOUND:                -0.653
REMARK SMILES CCCCCCCCCCCCCCCCCC(=O)[O-]
REMARK SMILES IDX 10 1 11 2 12 3 13 4 14 5 15 6 16 7 17 8 18 9 19 10 20 11
REMARK SMILES IDX 9 12 8 13 7 14 6 15 5 16 4 17 3 18 2 19 1 20
REMARK H PARENT
REMARK Flexibility Score: inf
ROOT
ATOM      1  C   UNL     1       3.020  11.255  18.361  1.00  0.00     0.000 C 
ENDROOT
BRANCH   1   2
ATOM      2  C   UNL     1       4.021  10.556  19.294  1.00  0.00     0.000 C 
BRANCH   2   3
ATOM      3  C   UNL     1       5.292  11.388  19.531  1.00  0.00     0.000 C 
BRANCH   3   4
ATOM      4  C   UNL     1       6.460  10.952  18.631  1.00  0.00     0.000 C 
BRANCH   4   5
ATOM      5  C   UNL     1       6.701  11.917  17.457  1.00  0.00     0.000 C 
BRANCH   5   6
ATOM      6  C   UNL     1       5.806  11.638  16.232  1.00  0.00     0.000 C 
BRANCH   6   7
ATOM      7  C   UNL     1       5.307  12.932  15.571  1.00  0.00     0.006 C 
BRANCH   7   8
ATOM      8  C   UNL     1       4.545  12.632  14.278  1.00  0.00     0.053 C 
BRANCH   8   9
ATOM      9  C   UNL     1       3.073  12.790  14.487  1.00  0.00     0.041 C 
ATOM     10  O   UNL     1       2.629  13.754  15.165  1.00  0.00    -0.550 OA
ATOM     11  O   UNL     1       2.187  11.899  13.894  1.00  0.00    -0.550 OA
ENDBRANCH   8   9
ENDBRANCH   7   8
ENDBRANCH   6   7
ENDBRANCH   5   6
ENDBRANCH   4   5
ENDBRANCH   3   4
ENDBRANCH   2   3
ENDBRANCH   1   2
BRANCH   1  12
ATOM     12  C   UNL     1       3.139  12.782  18.476  1.00  0.00     0.000 C 
BRANCH  12  13
ATOM     13  C   UNL     1       1.772  13.485  18.458  1.00  0.00    -0.000 C 
BRANCH  13  14
ATOM     14  C   UNL     1       1.879  14.978  18.101  1.00  0.00    -0.000 C 
BRANCH  14  15
ATOM     15  C   UNL     1       0.530  15.592  17.685  1.00  0.00    -0.000 C 
BRANCH  15  16
ATOM     16  C   UNL     1      -0.592  15.477  18.733  1.00  0.00    -0.000 C 
BRANCH  16  17
ATOM     17  C   UNL     1      -1.639  16.597  18.615  1.00  0.00    -0.000 C 
BRANCH  17  18
ATOM     18  C   UNL     1      -1.500  17.664  19.717  1.00  0.00    -0.000 C 
BRANCH  18  19
ATOM     19  C   UNL     1      -1.106  19.068  19.220  1.00  0.00    -0.003 C 
ATOM     20  C   UNL     1       0.251  19.097  18.519  1.00  0.00     0.004 C 
ENDBRANCH  18  19
ENDBRANCH  17  18
ENDBRANCH  16  17
ENDBRANCH  15  16
ENDBRANCH  14  15
ENDBRANCH  13  14
ENDBRANCH  12  13
ENDBRANCH   1  12
TORSDOF 16
ENDMDL
MODEL 4
REMARK VINA RESULT:    -2.534      0.805      2.797
REMARK INTER + INTRA:          -5.558
REMARK INTER:                  -4.750
REMARK INTRA:                  -0.808
REMARK UNBOUND:                -0.653
REMARK SMILES CCCCCCCCCCCCCCCCCC(=O)[O-]
REMARK SMILES IDX 10 1 11 2 12 3 13 4 14 5 15 6 16 7 17 8 18 9 19 10 20 11
REMARK SMILES IDX 9 12 8 13 7 14 6 15 5 16 4 17 3 18 2 19 1 20
REMARK H PARENT
REMARK Flexibility Score: inf
ROOT
ATOM      1  C   UNL     1       2.708  13.130  18.618  1.00  0.00     0.000 C 
ENDROOT
BRANCH   1   2
ATOM      2  C   UNL     1       2.184  14.073  17.523  1.00  0.00     0.000 C 
BRANCH   2   3
ATOM      3  C   UNL     1       1.494  15.321  18.097  1.00  0.00     0.000 C 
BRANCH   3   4
ATOM      4  C   UNL     1      -0.001  15.384  17.746  1.00  0.00     0.000 C 
BRANCH   4   5
ATOM      5  C   UNL     1      -0.908  15.330  18.988  1.00  0.00     0.000 C 
BRANCH   5   6
ATOM      6  C   UNL     1      -1.981  16.439  19.021  1.00  0.00     0.000 C 
BRANCH   6   7
ATOM      7  C   UNL     1      -1.763  17.423  20.180  1.00  0.00     0.006 C 
BRANCH   7   8
ATOM      8  C   UNL     1      -1.864  18.873  19.699  1.00  0.00     0.053 C 
BRANCH   8   9
ATOM      9  C   UNL     1      -1.163  19.040  18.388  1.00  0.00     0.041 C 
ATOM     10  O   UNL     1       0.095  19.070  18.342  1.00  0.00    -0.550 OA
ATOM     11  O   UNL     1      -1.897  19.117  17.211  1.00  0.00    -0.550 OA
ENDBRANCH   8   9
ENDBRANCH   7   8
ENDBRANCH   6   7
ENDBRANCH   5   6
ENDBRANCH   4   5
ENDBRANCH   3   4
ENDBRANCH   2   3
ENDBRANCH   1   2
BRANCH   1  12
ATOM     12  C   UNL     1       3.180  11.799  18.014  1.00  0.00     0.000 C 
BRANCH  12  13
ATOM     13  C   UNL     1       3.900  10.907  19.038  1.00  0.00    -0.000 C 
BRANCH  13  14
ATOM     14  C   UNL     1       5.270  11.473  19.455  1.00  0.00    -0.000 C 
BRANCH  14  15
ATOM     15  C   UNL     1       6.418  10.984  18.553  1.00  0.00    -0.000 C 
BRANCH  15  16
ATOM     16  C   UNL     1       6.685  11.850  17.308  1.00  0.00    -0.000 C 
BRANCH  16  17
ATOM     17  C   UNL     1       5.672  11.603  16.178  1.00  0.00    -0.000 C 
BRANCH  17  18
ATOM     18  C   UNL     1       5.322  12.882  15.397  1.00  0.00    -0.000 C 
BRANCH  18  19
ATOM     19  C   UNL     1       4.505  12.660  14.111  1.00  0.00    -0.003 C 
ATOM     20  C   UNL     1       2.996  12.676  14.348  1.00  0.00     0.004 C 
ENDBRANCH  18  19
ENDBRANCH  17  18
ENDBRANCH  16  17
ENDBRANCH  15  16
ENDBRANCH  14  15
ENDBRANCH  13  14
ENDBRANCH  12  13
ENDBRANCH   1  12
TORSDOF 16
ENDMDL
MODEL 5
REMARK VINA RESULT:    -2.528      1.812      2.089
REMARK INTER + INTRA:          -5.546
REMARK INTER:                  -4.541
REMARK INTRA:                  -1.005
REMARK UNBOUND:                -0.653
REMARK SMILES CCCCCCCCCCCCCCCCCC(=O)[O-]
REMARK SMILES IDX 10 1 11 2 12 3 13 4 14 5 15 6 16 7 17 8 18 9 19 10 20 11
REMARK SMILES IDX 9 12 8 13 7 14 6 15 5 16 4 17 3 18 2 19 1 20
REMARK H PARENT
REMARK Flexibility Score: inf
ROOT
ATOM      1  C   UNL     1       2.751  12.916  15.657  1.00  0.00     0.000 C 
ENDROOT
BRANCH   1   2
ATOM      2  C   UNL     1       2.152  14.238  16.164  1.00  0.00     0.000 C 
BRANCH   2   3
ATOM      3  C   UNL     1       1.983  14.265  17.692  1.00  0.00     0.000 C 
BRANCH   3   4
ATOM      4  C   UNL     1       0.843  15.192  18.144  1.00  0.00     0.000 C 
BRANCH   4   5
ATOM      5  C   UNL     1       1.175  16.682  17.953  1.00  0.00     0.000 C 
BRANCH   5   6
ATOM      6  C   UNL     1       0.246  17.630  18.740  1.00  0.00     0.000 C 
BRANCH   6   7
ATOM      7  C   UNL     1      -1.238  17.366  18.445  1.00  0.00     0.006 C 
BRANCH   7   8
ATOM      8  C   UNL     1      -2.014  17.088  19.735  1.00  0.00     0.053 C 
BRANCH   8   9
ATOM      9  C   UNL     1      -2.075  15.618  20.005  1.00  0.00     0.041 C 
ATOM     10  O   UNL     1      -2.038  14.797  19.052  1.00  0.00    -0.550 OA
ATOM     11  O   UNL     1      -2.125  15.153  21.313  1.00  0.00    -0.550 OA
ENDBRANCH   8   9
ENDBRANCH   7   8
ENDBRANCH   6   7
ENDBRANCH   5   6
ENDBRANCH   4   5
ENDBRANCH   3   4
ENDBRANCH   2   3
ENDBRANCH   1   2
BRANCH   1  12
ATOM     12  C   UNL     1       3.483  13.123  14.323  1.00  0.00     0.000 C 
BRANCH  12  13
ATOM     13  C   UNL     1       4.977  12.769  14.407  1.00  0.00    -0.000 C 
BRANCH  13  14
ATOM     14  C   UNL     1       5.511  12.800  15.850  1.00  0.00    -0.000 C 
BRANCH  14  15
ATOM     15  C   UNL     1       6.466  11.633  16.159  1.00  0.00    -0.000 C 
BRANCH  15  16
ATOM     16  C   UNL     1       6.586  11.262  17.648  1.00  0.00    -0.000 C 
BRANCH  16  17
ATOM     17  C   UNL     1       5.501  11.918  18.518  1.00  0.00    -0.000 C 
BRANCH  17  18
ATOM     18  C   UNL     1       4.891  10.948  19.547  1.00  0.00    -0.000 C 
BRANCH  18  19
ATOM     19  C   UNL     1       3.436  10.528  19.267  1.00  0.00    -0.003 C 
ATOM     20  C   UNL     1       3.061  10.618  17.788  1.00  0.00     0.004 C 
ENDBRANCH  18  19
ENDBRANCH  17  18
ENDBRANCH  16  17
ENDBRANCH  15  16
ENDBRANCH  14  15
ENDBRANCH  13  14
ENDBRANCH  12  13
ENDBRANCH   1  12
TORSDOF 16
ENDMDL
MODEL 6
REMARK VINA RESULT:    -2.518      2.697      7.857
REMARK INTER + INTRA:          -5.526
REMARK INTER:                  -4.864
REMARK INTRA:                  -0.661
REMARK UNBOUND:                -0.653
REMARK SMILES CCCCCCCCCCCCCCCCCC(=O)[O-]
REMARK SMILES IDX 10 1 11 2 12 3 13 4 14 5 15 6 16 7 17 8 18 9 19 10 20 11
REMARK SMILES IDX 9 12 8 13 7 14 6 15 5 16 4 17 3 18 2 19 1 20
REMARK H PARENT
REMARK Flexibility Score: inf
ROOT
ATOM      1  C   UNL     1       2.361  13.202  15.953  1.00  0.00     0.000 C 
ENDROOT
BRANCH   1   2
ATOM      2  C   UNL     1       3.170  13.318  14.652  1.00  0.00     0.000 C 
BRANCH   2   3
ATOM      3  C   UNL     1       4.612  12.805  14.803  1.00  0.00     0.000 C 
BRANCH   3   4
ATOM      4  C   UNL     1       4.943  12.387  16.245  1.00  0.00     0.000 C 
BRANCH   4   5
ATOM      5  C   UNL     1       6.416  11.983  16.425  1.00  0.00     0.000 C 
BRANCH   5   6
ATOM      6  C   UNL     1       6.675  11.126  17.682  1.00  0.00     0.000 C 
BRANCH   6   7
ATOM      7  C   UNL     1       5.944  11.673  18.918  1.00  0.00     0.006 C 
BRANCH   7   8
ATOM      8  C   UNL     1       4.880  10.688  19.409  1.00  0.00     0.053 C 
BRANCH   8   9
ATOM      9  C   UNL     1       3.517  11.135  18.987  1.00  0.00     0.041 C 
ATOM     10  O   UNL     1       3.172  12.338  19.130  1.00  0.00    -0.550 OA
ATOM     11  O   UNL     1       2.642  10.234  18.392  1.00  0.00    -0.550 OA
ENDBRANCH   8   9
ENDBRANCH   7   8
ENDBRANCH   6   7
ENDBRANCH   5   6
ENDBRANCH   4   5
ENDBRANCH   3   4
ENDBRANCH   2   3
ENDBRANCH   1   2
BRANCH   1  12
ATOM     12  C   UNL     1       2.058  14.591  16.536  1.00  0.00     0.000 C 
BRANCH  12  13
ATOM     13  C   UNL     1       1.433  14.520  17.938  1.00  0.00    -0.000 C 
BRANCH  13  14
ATOM     14  C   UNL     1       0.529  15.727  18.244  1.00  0.00    -0.000 C 
BRANCH  14  15
ATOM     15  C   UNL     1      -0.968  15.368  18.241  1.00  0.00    -0.000 C 
BRANCH  15  16
ATOM     16  C   UNL     1      -1.928  16.560  18.414  1.00  0.00    -0.000 C 
BRANCH  16  17
ATOM     17  C   UNL     1      -1.657  17.366  19.695  1.00  0.00    -0.000 C 
BRANCH  17  18
ATOM     18  C   UNL     1      -1.324  18.843  19.415  1.00  0.00    -0.000 C 
BRANCH  18  19
ATOM     19  C   UNL     1      -0.723  19.125  18.026  1.00  0.00    -0.003 C 
ATOM     20  C   UNL     1       0.804  19.089  18.015  1.00  0.00     0.004 C 
ENDBRANCH  18  19
ENDBRANCH  17  18
ENDBRANCH  16  17
ENDBRANCH  15  16
ENDBRANCH  14  15
ENDBRANCH  13  14
ENDBRANCH  12  13
ENDBRANCH   1  12
TORSDOF 16
ENDMDL
MODEL 7
REMARK VINA RESULT:    -2.344      3.043      7.645
REMARK INTER + INTRA:          -5.190
REMARK INTER:                  -4.202
REMARK INTRA:                  -0.988
REMARK UNBOUND:                -0.653
REMARK SMILES CCCCCCCCCCCCCCCCCC(=O)[O-]
REMARK SMILES IDX 10 1 11 2 12 3 13 4 14 5 15 6 16 7 17 8 18 9 19 10 20 11
REMARK SMILES IDX 9 12 8 13 7 14 6 15 5 16 4 17 3 18 2 19 1 20
REMARK H PARENT
REMARK Flexibility Score: inf
ROOT
ATOM      1  C   UNL     1       2.276  13.045  18.622  1.00  0.00     0.000 C 
ENDROOT
BRANCH   1   2
ATOM      2  C   UNL     1       2.945  11.798  18.021  1.00  0.00     0.000 C 
BRANCH   2   3
ATOM      3  C   UNL     1       3.143  10.676  19.053  1.00  0.00     0.000 C 
BRANCH   3   4
ATOM      4  C   UNL     1       4.614  10.501  19.461  1.00  0.00     0.000 C 
BRANCH   4   5
ATOM      5  C   UNL     1       5.478  11.727  19.118  1.00  0.00     0.000 C 
BRANCH   5   6
ATOM      6  C   UNL     1       6.536  11.455  18.028  1.00  0.00     0.000 C 
BRANCH   6   7
ATOM      7  C   UNL     1       5.919  11.394  16.623  1.00  0.00     0.006 C 
BRANCH   7   8
ATOM      8  C   UNL     1       6.017  12.750  15.919  1.00  0.00     0.053 C 
BRANCH   8   9
ATOM      9  C   UNL     1       5.067  12.813  14.766  1.00  0.00     0.041 C 
ATOM     10  O   UNL     1       5.504  12.882  13.587  1.00  0.00    -0.550 OA
ATOM     11  O   UNL     1       3.697  12.748  14.990  1.00  0.00    -0.550 OA
ENDBRANCH   8   9
ENDBRANCH   7   8
ENDBRANCH   6   7
ENDBRANCH   5   6
ENDBRANCH   4   5
ENDBRANCH   3   4
ENDBRANCH   2   3
ENDBRANCH   1   2
BRANCH   1  12
ATOM     12  C   UNL     1       2.330  14.223  17.639  1.00  0.00     0.000 C 
BRANCH  12  13
ATOM     13  C   UNL     1       1.047  15.069  17.659  1.00  0.00    -0.000 C 
BRANCH  13  14
ATOM     14  C   UNL     1       1.191  16.341  18.514  1.00  0.00    -0.000 C 
BRANCH  14  15
ATOM     15  C   UNL     1       0.182  17.438  18.128  1.00  0.00    -0.000 C 
BRANCH  15  16
ATOM     16  C   UNL     1      -0.960  17.661  19.135  1.00  0.00    -0.000 C 
BRANCH  16  17
ATOM     17  C   UNL     1      -2.039  16.566  19.069  1.00  0.00    -0.000 C 
BRANCH  17  18
ATOM     18  C   UNL     1      -2.113  15.719  20.353  1.00  0.00    -0.000 C 
BRANCH  18  19
ATOM     19  C   UNL     1      -2.124  14.196  20.130  1.00  0.00    -0.003 C 
ATOM     20  C   UNL     1      -2.033  13.400  21.431  1.00  0.00     0.004 C 
ENDBRANCH  18  19
ENDBRANCH  17  18
ENDBRANCH  16  17
ENDBRANCH  15  16
ENDBRANCH  14  15
ENDBRANCH  13  14
ENDBRANCH  12  13
ENDBRANCH   1  12
TORSDOF 16
ENDMDL
MODEL 8
REMARK VINA RESULT:    -2.295      1.971      3.479
REMARK INTER + INTRA:          -5.094
REMARK INTER:                  -4.808
REMARK INTRA:                  -0.286
REMARK UNBOUND:                -0.653
REMARK SMILES CCCCCCCCCCCCCCCCCC(=O)[O-]
REMARK SMILES IDX 10 1 11 2 12 3 13 4 14 5 15 6 16 7 17 8 18 9 19 10 20 11
REMARK SMILES IDX 9 12 8 13 7 14 6 15 5 16 4 17 3 18 2 19 1 20
REMARK H PARENT
REMARK Flexibility Score: inf
ROOT
ATOM      1  C   UNL     1       3.089  12.458  17.936  1.00  0.00     0.000 C 
ENDROOT
BRANCH   1   2
ATOM      2  C   UNL     1       1.921  13.344  18.397  1.00  0.00     0.000 C 
BRANCH   2   3
ATOM      3  C   UNL     1       1.798  14.637  17.574  1.00  0.00     0.000 C 
BRANCH   3   4
ATOM      4  C   UNL     1       0.557  15.462  17.951  1.00  0.00     0.000 C 
BRANCH   4   5
ATOM      5  C   UNL     1       0.831  16.976  17.971  1.00  0.00     0.000 C 
BRANCH   5   6
ATOM      6  C   UNL     1      -0.087  17.759  18.934  1.00  0.00     0.000 C 
BRANCH   6   7
ATOM      7  C   UNL     1      -1.518  17.203  18.952  1.00  0.00     0.006 C 
BRANCH   7   8
ATOM      8  C   UNL     1      -1.863  16.617  20.324  1.00  0.00     0.053 C 
BRANCH   8   9
ATOM      9  C   UNL     1      -2.033  15.134  20.234  1.00  0.00     0.041 C 
ATOM     10  O   UNL     1      -2.050  14.565  19.111  1.00  0.00    -0.550 OA
ATOM     11  O   UNL     1      -2.124  14.373  21.393  1.00  0.00    -0.550 OA
ENDBRANCH   8   9
ENDBRANCH   7   8
ENDBRANCH   6   7
ENDBRANCH   5   6
ENDBRANCH   4   5
ENDBRANCH   3   4
ENDBRANCH   2   3
ENDBRANCH   1   2
BRANCH   1  12
ATOM     12  C   UNL     1       2.967  11.043  18.522  1.00  0.00     0.000 C 
BRANCH  12  13
ATOM     13  C   UNL     1       4.219  10.619  19.307  1.00  0.00    -0.000 C 
BRANCH  13  14
ATOM     14  C   UNL     1       5.415  11.557  19.065  1.00  0.00    -0.000 C 
BRANCH  14  15
ATOM     15  C   UNL     1       6.487  10.936  18.152  1.00  0.00    -0.000 C 
BRANCH  15  16
ATOM     16  C   UNL     1       6.860  11.776  16.916  1.00  0.00    -0.000 C 
BRANCH  16  17
ATOM     17  C   UNL     1       5.685  12.612  16.383  1.00  0.00    -0.000 C 
BRANCH  17  18
ATOM     18  C   UNL     1       5.700  12.757  14.850  1.00  0.00    -0.000 C 
BRANCH  18  19
ATOM     19  C   UNL     1       4.373  12.414  14.149  1.00  0.00    -0.003 C 
ATOM     20  C   UNL     1       3.160  13.074  14.805  1.00  0.00     0.004 C 
ENDBRANCH  18  19
ENDBRANCH  17  18
ENDBRANCH  16  17
ENDBRANCH  15  16
ENDBRANCH  14  15
ENDBRANCH  13  14
ENDBRANCH  12  13
ENDBRANCH   1  12
TORSDOF 16
ENDMDL
MODEL 9
REMARK VINA RESULT:    -2.049      1.749      3.369
REMARK INTER + INTRA:          -4.619
REMARK INTER:                  -3.830
REMARK INTRA:                  -0.789
REMARK UNBOUND:                -0.653
REMARK SMILES CCCCCCCCCCCCCCCCCC(=O)[O-]
REMARK SMILES IDX 10 1 11 2 12 3 13 4 14 5 15 6 16 7 17 8 18 9 19 10 20 11
REMARK SMILES IDX 9 12 8 13 7 14 6 15 5 16 4 17 3 18 2 19 1 20
REMARK H PARENT
REMARK Flexibility Score: inf
ROOT
ATOM      1  C   UNL     1       1.977  14.737  17.267  1.00  0.00     0.000 C 
ENDROOT
BRANCH   1   2
ATOM      2  C   UNL     1       0.823  15.678  17.647  1.00  0.00     0.000 C 
BRANCH   2   3
ATOM      3  C   UNL     1       1.295  16.900  18.451  1.00  0.00     0.000 C 
BRANCH   3   4
ATOM      4  C   UNL     1       1.130  18.217  17.676  1.00  0.00     0.000 C 
BRANCH   4   5
ATOM      5  C   UNL     1      -0.001  19.100  18.234  1.00  0.00     0.000 C 
BRANCH   5   6
ATOM      6  C   UNL     1      -0.555  18.613  19.589  1.00  0.00     0.000 C 
BRANCH   6   7
ATOM      7  C   UNL     1      -1.970  18.027  19.461  1.00  0.00     0.006 C 
BRANCH   7   8
ATOM      8  C   UNL     1      -2.119  16.759  20.305  1.00  0.00     0.053 C 
BRANCH   8   9
ATOM      9  C   UNL     1      -2.125  15.545  19.432  1.00  0.00     0.041 C 
ATOM     10  O   UNL     1      -2.125  15.666  18.179  1.00  0.00    -0.550 OA
ATOM     11  O   UNL     1      -2.083  14.279  20.002  1.00  0.00    -0.550 OA
ENDBRANCH   8   9
ENDBRANCH   7   8
ENDBRANCH   6   7
ENDBRANCH   5   6
ENDBRANCH   4   5
ENDBRANCH   3   4
ENDBRANCH   2   3
ENDBRANCH   1   2
BRANCH   1  12
ATOM     12  C   UNL     1       2.166  13.644  18.330  1.00  0.00     0.000 C 
BRANCH  12  13
ATOM     13  C   UNL     1       2.952  12.434  17.801  1.00  0.00    -0.000 C 
BRANCH  13  14
ATOM     14  C   UNL     1       3.111  11.325  18.856  1.00  0.00    -0.000 C 
BRANCH  14  15
ATOM     15  C   UNL     1       4.576  10.895  19.055  1.00  0.00    -0.000 C 
BRANCH  15  16
ATOM     16  C   UNL     1       5.626  11.963  18.699  1.00  0.00    -0.000 C 
BRANCH  16  17
ATOM     17  C   UNL     1       6.485  11.578  17.483  1.00  0.00    -0.000 C 
BRANCH  17  18
ATOM     18  C   UNL     1       5.663  11.441  16.188  1.00  0.00    -0.000 C 
BRANCH  18  19
ATOM     19  C   UNL     1       5.523  12.733  15.363  1.00  0.00    -0.003 C 
ATOM     20  C   UNL     1       4.145  12.888  14.721  1.00  0.00     0.004 C 
ENDBRANCH  18  19
ENDBRANCH  17  18
ENDBRANCH  16  17
ENDBRANCH  15  16
ENDBRANCH  14  15
ENDBRANCH  13  14
ENDBRANCH  12  13
ENDBRANCH   1  12
TORSDOF 16
ENDMDL
