MODEL 1
REMARK VINA RESULT:    -4.239      0.000      0.000
REMARK INTER + INTRA:          -5.357
REMARK INTER:                  -5.107
REMARK INTRA:                  -0.250
REMARK UNBOUND:                -0.250
REMARK SMILES O=c1c(O)c(-c2ccc(O)cc2O)oc2cc(O)cc(O)c12
REMARK SMILES IDX 5 1 3 2 2 3 1 4 22 5 20 6 19 7 17 8 16 9 15 10 14 11 6 12
REMARK SMILES IDX 8 13 7 14 9 15 11 16 12 17 10 18 13 20 4 22 21 24 18 26
REMARK H PARENT 10 19 13 21 4 23 21 25 18 27
REMARK Flexibility Score: inf
ROOT
ATOM      1  C   UNL     1     -20.142 -17.775  11.259  1.00  0.00     0.184 A 
ATOM      2  C   UNL     1     -18.852 -18.218  11.594  1.00  0.00     0.208 A 
ATOM      3  C   UNL     1     -18.451 -18.191  12.939  1.00  0.00     0.238 A 
ATOM      4  O   UNL     1     -17.274 -18.536  13.225  1.00  0.00    -0.285 OA
ATOM      5  C   UNL     1     -19.352 -17.741  13.934  1.00  0.00     0.111 A 
ATOM      6  C   UNL     1     -19.067 -17.710  15.332  1.00  0.00     0.134 A 
ATOM      7  C   UNL     1     -19.986 -17.126  16.212  1.00  0.00     0.093 A 
ATOM      8  C   UNL     1     -21.209 -16.632  15.751  1.00  0.00     0.123 A 
ATOM      9  C   UNL     1     -21.523 -16.712  14.397  1.00  0.00     0.094 A 
ATOM     10  C   UNL     1     -20.610 -17.256  13.489  1.00  0.00     0.146 A 
ATOM     11  O   UNL     1     -20.944 -17.303  12.206  1.00  0.00    -0.451 OA
ENDROOT
BRANCH   1  12
ATOM     12  C   UNL     1     -20.639 -17.799   9.862  1.00  0.00     0.063 A 
ATOM     13  C   UNL     1     -21.029 -19.001   7.782  1.00  0.00     0.047 A 
ATOM     14  C   UNL     1     -20.536 -18.969   9.089  1.00  0.00     0.020 A 
ATOM     15  C   UNL     1     -21.639 -17.872   7.232  1.00  0.00     0.119 A 
ATOM     16  C   UNL     1     -21.758 -16.705   7.997  1.00  0.00     0.093 A 
ATOM     17  C   UNL     1     -21.265 -16.663   9.309  1.00  0.00     0.130 A 
BRANCH  15  18
ATOM     18  O   UNL     1     -22.125 -17.920   5.927  1.00  0.00    -0.508 OA
ATOM     19  H   UNL     1     -23.106 -17.768   5.723  1.00  0.00     0.293 HD
ENDBRANCH  15  18
BRANCH  17  20
ATOM     20  O   UNL     1     -21.385 -15.492  10.059  1.00  0.00    -0.507 OA
ATOM     21  H   UNL     1     -22.290 -15.113  10.311  1.00  0.00     0.293 HD
ENDBRANCH  17  20
ENDBRANCH   1  12
BRANCH   2  22
ATOM     22  O   UNL     1     -17.975 -18.646  10.592  1.00  0.00    -0.502 OA
ATOM     23  H   UNL     1     -18.260 -18.740   9.625  1.00  0.00     0.293 HD
ENDBRANCH   2  22
BRANCH   6  24
ATOM     24  O   UNL     1     -17.916 -18.259  15.906  1.00  0.00    -0.507 OA
ATOM     25  H   UNL     1     -17.086 -17.736  16.143  1.00  0.00     0.293 HD
ENDBRANCH   6  24
BRANCH   8  26
ATOM     26  O   UNL     1     -22.125 -16.066  16.636  1.00  0.00    -0.508 OA
ATOM     27  H   UNL     1     -22.258 -15.063  16.692  1.00  0.00     0.293 HD
ENDBRANCH   8  26
TORSDOF 6
ENDMDL
MODEL 2
REMARK VINA RESULT:    -4.200      1.612      6.575
REMARK INTER + INTRA:          -5.310
REMARK INTER:                  -4.847
REMARK INTRA:                  -0.463
REMARK UNBOUND:                -0.250
REMARK SMILES O=c1c(O)c(-c2ccc(O)cc2O)oc2cc(O)cc(O)c12
REMARK SMILES IDX 5 1 3 2 2 3 1 4 22 5 20 6 19 7 17 8 16 9 15 10 14 11 6 12
REMARK SMILES IDX 8 13 7 14 9 15 11 16 12 17 10 18 13 20 4 22 21 24 18 26
REMARK H PARENT 10 19 13 21 4 23 21 25 18 27
REMARK Flexibility Score: inf
ROOT
ATOM      1  C   UNL     1     -20.389 -17.477  11.672  1.00  0.00     0.184 A 
ATOM      2  C   UNL     1     -20.629 -18.658  10.951  1.00  0.00     0.208 A 
ATOM      3  C   UNL     1     -21.100 -18.567   9.632  1.00  0.00     0.238 A 
ATOM      4  O   UNL     1     -21.367 -19.630   9.012  1.00  0.00    -0.285 OA
ATOM      5  C   UNL     1     -21.307 -17.296   9.044  1.00  0.00     0.111 A 
ATOM      6  C   UNL     1     -21.743 -17.085   7.702  1.00  0.00     0.134 A 
ATOM      7  C   UNL     1     -22.036 -15.786   7.267  1.00  0.00     0.093 A 
ATOM      8  C   UNL     1     -21.845 -14.686   8.106  1.00  0.00     0.123 A 
ATOM      9  C   UNL     1     -21.363 -14.876   9.399  1.00  0.00     0.094 A 
ATOM     10  C   UNL     1     -21.096 -16.162   9.873  1.00  0.00     0.146 A 
ATOM     11  O   UNL     1     -20.649 -16.300  11.115  1.00  0.00    -0.451 OA
ENDROOT
BRANCH   1  12
ATOM     12  C   UNL     1     -19.869 -17.500  13.060  1.00  0.00     0.063 A 
ATOM     13  C   UNL     1     -17.992 -17.597  14.607  1.00  0.00     0.047 A 
ATOM     14  C   UNL     1     -18.487 -17.603  13.300  1.00  0.00     0.020 A 
ATOM     15  C   UNL     1     -18.866 -17.477  15.690  1.00  0.00     0.119 A 
ATOM     16  C   UNL     1     -20.243 -17.360  15.462  1.00  0.00     0.093 A 
ATOM     17  C   UNL     1     -20.748 -17.367  14.154  1.00  0.00     0.130 A 
BRANCH  15  18
ATOM     18  O   UNL     1     -18.357 -17.472  16.987  1.00  0.00    -0.508 OA
ATOM     19  H   UNL     1     -18.619 -16.757  17.655  1.00  0.00     0.293 HD
ENDBRANCH  15  18
BRANCH  17  20
ATOM     20  O   UNL     1     -22.123 -17.257  13.940  1.00  0.00    -0.507 OA
ATOM     21  H   UNL     1     -22.795 -17.618  14.607  1.00  0.00     0.293 HD
ENDBRANCH  17  20
ENDBRANCH   1  12
BRANCH   2  22
ATOM     22  O   UNL     1     -20.430 -19.902  11.558  1.00  0.00    -0.502 OA
ATOM     23  H   UNL     1     -20.760 -20.109  12.493  1.00  0.00     0.293 HD
ENDBRANCH   2  22
BRANCH   6  24
ATOM     24  O   UNL     1     -21.878 -18.105   6.756  1.00  0.00    -0.507 OA
ATOM     25  H   UNL     1     -21.150 -18.756   6.504  1.00  0.00     0.293 HD
ENDBRANCH   6  24
BRANCH   8  26
ATOM     26  O   UNL     1     -22.124 -13.396   7.660  1.00  0.00    -0.508 OA
ATOM     27  H   UNL     1     -21.389 -12.714   7.514  1.00  0.00     0.293 HD
ENDBRANCH   8  26
TORSDOF 6
ENDMDL
MODEL 3
REMARK VINA RESULT:    -4.197      1.698      3.622
REMARK INTER + INTRA:          -5.306
REMARK INTER:                  -4.994
REMARK INTRA:                  -0.312
REMARK UNBOUND:                -0.250
REMARK SMILES O=c1c(O)c(-c2ccc(O)cc2O)oc2cc(O)cc(O)c12
REMARK SMILES IDX 5 1 3 2 2 3 1 4 22 5 20 6 19 7 17 8 16 9 15 10 14 11 6 12
REMARK SMILES IDX 8 13 7 14 9 15 11 16 12 17 10 18 13 20 4 22 21 24 18 26
REMARK H PARENT 10 19 13 21 4 23 21 25 18 27
REMARK Flexibility Score: inf
ROOT
ATOM      1  C   UNL     1     -20.060 -17.278  12.865  1.00  0.00     0.184 A 
ATOM      2  C   UNL     1     -20.839 -16.807  13.934  1.00  0.00     0.208 A 
ATOM      3  C   UNL     1     -20.320 -16.875  15.237  1.00  0.00     0.238 A 
ATOM      4  O   UNL     1     -21.046 -16.504  16.196  1.00  0.00    -0.285 OA
ATOM      5  C   UNL     1     -19.021 -17.395  15.451  1.00  0.00     0.111 A 
ATOM      6  C   UNL     1     -18.379 -17.474  16.723  1.00  0.00     0.134 A 
ATOM      7  C   UNL     1     -17.143 -18.123  16.834  1.00  0.00     0.093 A 
ATOM      8  C   UNL     1     -16.497 -18.638  15.707  1.00  0.00     0.123 A 
ATOM      9  C   UNL     1     -17.088 -18.514  14.452  1.00  0.00     0.094 A 
ATOM     10  C   UNL     1     -18.337 -17.903  14.315  1.00  0.00     0.146 A 
ATOM     11  O   UNL     1     -18.870 -17.816  13.103  1.00  0.00    -0.451 OA
ENDROOT
BRANCH   1  12
ATOM     12  C   UNL     1     -20.537 -17.215  11.462  1.00  0.00     0.063 A 
ATOM     13  C   UNL     1     -21.379 -15.925   9.577  1.00  0.00     0.047 A 
ATOM     14  C   UNL     1     -20.956 -15.992  10.908  1.00  0.00     0.020 A 
ATOM     15  C   UNL     1     -21.380 -17.072   8.781  1.00  0.00     0.119 A 
ATOM     16  C   UNL     1     -20.953 -18.293   9.319  1.00  0.00     0.093 A 
ATOM     17  C   UNL     1     -20.528 -18.369  10.654  1.00  0.00     0.130 A 
BRANCH  15  18
ATOM     18  O   UNL     1     -21.805 -16.989   7.457  1.00  0.00    -0.508 OA
ATOM     19  H   UNL     1     -21.298 -16.440   6.773  1.00  0.00     0.293 HD
ENDBRANCH  15  18
BRANCH  17  20
ATOM     20  O   UNL     1     -20.111 -19.592  11.180  1.00  0.00    -0.507 OA
ATOM     21  H   UNL     1     -20.723 -20.400  11.198  1.00  0.00     0.293 HD
ENDBRANCH  17  20
ENDBRANCH   1  12
BRANCH   2  22
ATOM     22  O   UNL     1     -22.125 -16.311  13.699  1.00  0.00    -0.502 OA
ATOM     23  H   UNL     1     -22.289 -15.417  13.251  1.00  0.00     0.293 HD
ENDBRANCH   2  22
BRANCH   6  24
ATOM     24  O   UNL     1     -18.895 -16.911  17.894  1.00  0.00    -0.507 OA
ATOM     25  H   UNL     1     -19.478 -16.088  17.929  1.00  0.00     0.293 HD
ENDBRANCH   6  24
BRANCH   8  26
ATOM     26  O   UNL     1     -15.261 -19.269  15.825  1.00  0.00    -0.508 OA
ATOM     27  H   UNL     1     -14.425 -18.756  16.080  1.00  0.00     0.293 HD
ENDBRANCH   8  26
TORSDOF 6
ENDMDL
MODEL 4
REMARK VINA RESULT:    -3.380      2.346      4.396
REMARK INTER + INTRA:          -4.321
REMARK INTER:                  -4.330
REMARK INTRA:                   0.009
REMARK UNBOUND:                -0.250
REMARK SMILES O=c1c(O)c(-c2ccc(O)cc2O)oc2cc(O)cc(O)c12
REMARK SMILES IDX 5 1 3 2 2 3 1 4 22 5 20 6 19 7 17 8 16 9 15 10 14 11 6 12
REMARK SMILES IDX 8 13 7 14 9 15 11 16 12 17 10 18 13 20 4 22 21 24 18 26
REMARK H PARENT 10 19 13 21 4 23 21 25 18 27
REMARK Flexibility Score: inf
ROOT
ATOM      1  C   UNL     1     -18.495 -18.530  13.457  1.00  0.00     0.184 A 
ATOM      2  C   UNL     1     -19.305 -17.568  14.083  1.00  0.00     0.208 A 
ATOM      3  C   UNL     1     -19.007 -17.180  15.399  1.00  0.00     0.238 A 
ATOM      4  O   UNL     1     -19.771 -16.359  15.974  1.00  0.00    -0.285 OA
ATOM      5  C   UNL     1     -17.892 -17.743  16.065  1.00  0.00     0.111 A 
ATOM      6  C   UNL     1     -17.474 -17.393  17.384  1.00  0.00     0.134 A 
ATOM      7  C   UNL     1     -16.433 -18.107  17.990  1.00  0.00     0.093 A 
ATOM      8  C   UNL     1     -15.752 -19.113  17.300  1.00  0.00     0.123 A 
ATOM      9  C   UNL     1     -16.114 -19.421  15.991  1.00  0.00     0.094 A 
ATOM     10  C   UNL     1     -17.172 -18.752  15.372  1.00  0.00     0.146 A 
ATOM     11  O   UNL     1     -17.492 -19.084  14.128  1.00  0.00    -0.451 OA
ENDROOT
BRANCH   1  12
ATOM     12  C   UNL     1     -18.737 -18.968  12.062  1.00  0.00     0.063 A 
ATOM     13  C   UNL     1     -20.279 -19.487  10.252  1.00  0.00     0.047 A 
ATOM     14  C   UNL     1     -20.050 -19.100  11.575  1.00  0.00     0.020 A 
ATOM     15  C   UNL     1     -19.205 -19.737   9.396  1.00  0.00     0.119 A 
ATOM     16  C   UNL     1     -17.894 -19.596   9.866  1.00  0.00     0.093 A 
ATOM     17  C   UNL     1     -17.654 -19.210  11.193  1.00  0.00     0.130 A 
BRANCH  15  18
ATOM     18  O   UNL     1     -19.451 -20.122   8.079  1.00  0.00    -0.508 OA
ATOM     19  H   UNL     1     -20.395 -20.196   7.718  1.00  0.00     0.293 HD
ENDBRANCH  15  18
BRANCH  17  20
ATOM     20  O   UNL     1     -16.343 -19.080  11.652  1.00  0.00    -0.507 OA
ATOM     21  H   UNL     1     -15.594 -19.660  11.292  1.00  0.00     0.293 HD
ENDBRANCH  17  20
ENDBRANCH   1  12
BRANCH   2  22
ATOM     22  O   UNL     1     -20.409 -17.036  13.410  1.00  0.00    -0.502 OA
ATOM     23  H   UNL     1     -21.237 -16.713  13.895  1.00  0.00     0.293 HD
ENDBRANCH   2  22
BRANCH   6  24
ATOM     24  O   UNL     1     -18.026 -16.344  18.125  1.00  0.00    -0.507 OA
ATOM     25  H   UNL     1     -18.544 -15.572  17.733  1.00  0.00     0.293 HD
ENDBRANCH   6  24
BRANCH   8  26
ATOM     26  O   UNL     1     -14.708 -19.807  17.906  1.00  0.00    -0.508 OA
ATOM     27  H   UNL     1     -14.862 -20.688  18.383  1.00  0.00     0.293 HD
ENDBRANCH   8  26
TORSDOF 6
ENDMDL
MODEL 5
REMARK VINA RESULT:    -3.367      1.995      2.835
REMARK INTER + INTRA:          -4.306
REMARK INTER:                  -3.909
REMARK INTRA:                  -0.397
REMARK UNBOUND:                -0.250
REMARK SMILES O=c1c(O)c(-c2ccc(O)cc2O)oc2cc(O)cc(O)c12
REMARK SMILES IDX 5 1 3 2 2 3 1 4 22 5 20 6 19 7 17 8 16 9 15 10 14 11 6 12
REMARK SMILES IDX 8 13 7 14 9 15 11 16 12 17 10 18 13 20 4 22 21 24 18 26
REMARK H PARENT 10 19 13 21 4 23 21 25 18 27
REMARK Flexibility Score: inf
ROOT
ATOM      1  C   UNL     1     -20.430 -17.782  12.680  1.00  0.00     0.184 A 
ATOM      2  C   UNL     1     -21.134 -18.818  13.314  1.00  0.00     0.208 A 
ATOM      3  C   UNL     1     -20.804 -19.157  14.635  1.00  0.00     0.238 A 
ATOM      4  O   UNL     1     -21.401 -20.125  15.177  1.00  0.00    -0.285 OA
ATOM      5  C   UNL     1     -19.788 -18.442  15.313  1.00  0.00     0.111 A 
ATOM      6  C   UNL     1     -19.399 -18.673  16.667  1.00  0.00     0.134 A 
ATOM      7  C   UNL     1     -18.296 -17.991  17.195  1.00  0.00     0.093 A 
ATOM      8  C   UNL     1     -17.608 -17.039  16.437  1.00  0.00     0.123 A 
ATOM      9  C   UNL     1     -18.017 -16.764  15.135  1.00  0.00     0.094 A 
ATOM     10  C   UNL     1     -19.092 -17.453  14.569  1.00  0.00     0.146 A 
ATOM     11  O   UNL     1     -19.442 -17.169  13.321  1.00  0.00    -0.451 OA
ENDROOT
BRANCH   1  12
ATOM     12  C   UNL     1     -20.742 -17.356  11.295  1.00  0.00     0.063 A 
ATOM     13  C   UNL     1     -20.822 -17.832   8.909  1.00  0.00     0.047 A 
ATOM     14  C   UNL     1     -20.502 -18.222  10.213  1.00  0.00     0.020 A 
ATOM     15  C   UNL     1     -21.393 -16.581   8.669  1.00  0.00     0.119 A 
ATOM     16  C   UNL     1     -21.648 -15.716   9.740  1.00  0.00     0.093 A 
ATOM     17  C   UNL     1     -21.329 -16.098  11.051  1.00  0.00     0.130 A 
BRANCH  15  18
ATOM     18  O   UNL     1     -21.705 -16.208   7.363  1.00  0.00    -0.508 OA
ATOM     19  H   UNL     1     -21.851 -16.899   6.636  1.00  0.00     0.293 HD
ENDBRANCH  15  18
BRANCH  17  20
ATOM     20  O   UNL     1     -21.583 -15.224  12.109  1.00  0.00    -0.507 OA
ATOM     21  H   UNL     1     -21.267 -15.425  13.051  1.00  0.00     0.293 HD
ENDBRANCH  17  20
ENDBRANCH   1  12
BRANCH   2  22
ATOM     22  O   UNL     1     -22.124 -19.520  12.619  1.00  0.00    -0.502 OA
ATOM     23  H   UNL     1     -22.870 -20.017  13.090  1.00  0.00     0.293 HD
ENDBRANCH   2  22
BRANCH   6  24
ATOM     24  O   UNL     1     -20.075 -19.534  17.537  1.00  0.00    -0.507 OA
ATOM     25  H   UNL     1     -21.076 -19.662  17.558  1.00  0.00     0.293 HD
ENDBRANCH   6  24
BRANCH   8  26
ATOM     26  O   UNL     1     -16.521 -16.355  16.975  1.00  0.00    -0.508 OA
ATOM     27  H   UNL     1     -15.618 -16.800  17.090  1.00  0.00     0.293 HD
ENDBRANCH   8  26
TORSDOF 6
ENDMDL
MODEL 6
REMARK VINA RESULT:    -1.965     19.902     21.173
REMARK INTER + INTRA:          -2.617
REMARK INTER:                  -2.743
REMARK INTRA:                   0.126
REMARK UNBOUND:                -0.250
REMARK SMILES O=c1c(O)c(-c2ccc(O)cc2O)oc2cc(O)cc(O)c12
REMARK SMILES IDX 5 1 3 2 2 3 1 4 22 5 20 6 19 7 17 8 16 9 15 10 14 11 6 12
REMARK SMILES IDX 8 13 7 14 9 15 11 16 12 17 10 18 13 20 4 22 21 24 18 26
REMARK H PARENT 10 19 13 21 4 23 21 25 18 27
REMARK Flexibility Score: inf
ROOT
ATOM      1  C   UNL     1      -6.056  -3.444   8.724  1.00  0.00     0.184 A 
ATOM      2  C   UNL     1      -5.907  -3.684   7.348  1.00  0.00     0.208 A 
ATOM      3  C   UNL     1      -6.783  -3.056   6.449  1.00  0.00     0.238 A 
ATOM      4  O   UNL     1      -6.680  -3.320   5.222  1.00  0.00    -0.285 OA
ATOM      5  C   UNL     1      -7.784  -2.180   6.935  1.00  0.00     0.111 A 
ATOM      6  C   UNL     1      -8.699  -1.459   6.112  1.00  0.00     0.134 A 
ATOM      7  C   UNL     1      -9.729  -0.720   6.708  1.00  0.00     0.093 A 
ATOM      8  C   UNL     1      -9.836  -0.625   8.097  1.00  0.00     0.123 A 
ATOM      9  C   UNL     1      -8.911  -1.277   8.909  1.00  0.00     0.094 A 
ATOM     10  C   UNL     1      -7.894  -2.051   8.345  1.00  0.00     0.146 A 
ATOM     11  O   UNL     1      -7.041  -2.666   9.154  1.00  0.00    -0.451 OA
ENDROOT
BRANCH   1  12
ATOM     12  C   UNL     1      -5.151  -4.055   9.727  1.00  0.00     0.063 A 
ATOM     13  C   UNL     1      -4.825  -5.381  11.742  1.00  0.00     0.047 A 
ATOM     14  C   UNL     1      -5.677  -4.781  10.811  1.00  0.00     0.020 A 
ATOM     15  C   UNL     1      -3.440  -5.274  11.600  1.00  0.00     0.119 A 
ATOM     16  C   UNL     1      -2.905  -4.565  10.516  1.00  0.00     0.093 A 
ATOM     17  C   UNL     1      -3.753  -3.958   9.578  1.00  0.00     0.130 A 
BRANCH  15  18
ATOM     18  O   UNL     1      -2.604  -5.878  12.537  1.00  0.00    -0.508 OA
ATOM     19  H   UNL     1      -1.719  -6.290  12.267  1.00  0.00     0.293 HD
ENDBRANCH  15  18
BRANCH  17  20
ATOM     20  O   UNL     1      -3.208  -3.249   8.507  1.00  0.00    -0.507 OA
ATOM     21  H   UNL     1      -3.354  -2.252   8.401  1.00  0.00     0.293 HD
ENDBRANCH  17  20
ENDBRANCH   1  12
BRANCH   2  22
ATOM     22  O   UNL     1      -4.920  -4.563   6.892  1.00  0.00    -0.502 OA
ATOM     23  H   UNL     1      -5.141  -5.466   6.489  1.00  0.00     0.293 HD
ENDBRANCH   2  22
BRANCH   6  24
ATOM     24  O   UNL     1      -8.625  -1.413   4.716  1.00  0.00    -0.507 OA
ATOM     25  H   UNL     1      -8.113  -0.721   4.190  1.00  0.00     0.293 HD
ENDBRANCH   6  24
BRANCH   8  26
ATOM     26  O   UNL     1     -10.854   0.125   8.681  1.00  0.00    -0.508 OA
ATOM     27  H   UNL     1     -11.623  -0.316   9.172  1.00  0.00     0.293 HD
ENDBRANCH   8  26
TORSDOF 6
ENDMDL
MODEL 7
REMARK VINA RESULT:    -1.898      2.260      6.883
REMARK INTER + INTRA:          -2.537
REMARK INTER:                  -2.492
REMARK INTRA:                  -0.045
REMARK UNBOUND:                -0.250
REMARK SMILES O=c1c(O)c(-c2ccc(O)cc2O)oc2cc(O)cc(O)c12
REMARK SMILES IDX 5 1 3 2 2 3 1 4 22 5 20 6 19 7 17 8 16 9 15 10 14 11 6 12
REMARK SMILES IDX 8 13 7 14 9 15 11 16 12 17 10 18 13 20 4 22 21 24 18 26
REMARK H PARENT 10 19 13 21 4 23 21 25 18 27
REMARK Flexibility Score: inf
ROOT
ATOM      1  C   UNL     1     -21.472 -17.521   9.629  1.00  0.00     0.184 A 
ATOM      2  C   UNL     1     -21.675 -18.278   8.464  1.00  0.00     0.208 A 
ATOM      3  C   UNL     1     -21.886 -17.611   7.247  1.00  0.00     0.238 A 
ATOM      4  O   UNL     1     -22.125 -18.296   6.217  1.00  0.00    -0.285 OA
ATOM      5  C   UNL     1     -21.870 -16.197   7.207  1.00  0.00     0.111 A 
ATOM      6  C   UNL     1     -22.031 -15.417   6.022  1.00  0.00     0.134 A 
ATOM      7  C   UNL     1     -22.125 -14.023   6.119  1.00  0.00     0.093 A 
ATOM      8  C   UNL     1     -21.997 -13.378   7.352  1.00  0.00     0.123 A 
ATOM      9  C   UNL     1     -21.780 -14.126   8.506  1.00  0.00     0.094 A 
ATOM     10  C   UNL     1     -21.718 -15.520   8.446  1.00  0.00     0.146 A 
ATOM     11  O   UNL     1     -21.521 -16.195   9.571  1.00  0.00    -0.451 OA
ENDROOT
BRANCH   1  12
ATOM     12  C   UNL     1     -21.220 -18.159  10.943  1.00  0.00     0.063 A 
ATOM     13  C   UNL     1     -21.670 -19.934  12.547  1.00  0.00     0.047 A 
ATOM     14  C   UNL     1     -21.926 -19.316  11.320  1.00  0.00     0.020 A 
ATOM     15  C   UNL     1     -20.701 -19.415  13.408  1.00  0.00     0.119 A 
ATOM     16  C   UNL     1     -19.983 -18.271  13.038  1.00  0.00     0.093 A 
ATOM     17  C   UNL     1     -20.234 -17.643  11.809  1.00  0.00     0.130 A 
BRANCH  15  18
ATOM     18  O   UNL     1     -20.458 -20.044  14.628  1.00  0.00    -0.508 OA
ATOM     19  H   UNL     1     -19.665 -19.789  15.205  1.00  0.00     0.293 HD
ENDBRANCH  15  18
BRANCH  17  20
ATOM     20  O   UNL     1     -19.517 -16.500  11.454  1.00  0.00    -0.507 OA
ATOM     21  H   UNL     1     -19.649 -16.046  10.558  1.00  0.00     0.293 HD
ENDBRANCH  17  20
ENDBRANCH   1  12
BRANCH   2  22
ATOM     22  O   UNL     1     -21.701 -19.675   8.532  1.00  0.00    -0.502 OA
ATOM     23  H   UNL     1     -22.176 -20.243   7.841  1.00  0.00     0.293 HD
ENDBRANCH   2  22
BRANCH   6  24
ATOM     24  O   UNL     1     -22.077 -15.957   4.733  1.00  0.00    -0.507 OA
ATOM     25  H   UNL     1     -21.951 -15.429   3.883  1.00  0.00     0.293 HD
ENDBRANCH   6  24
BRANCH   8  26
ATOM     26  O   UNL     1     -22.076 -11.990   7.437  1.00  0.00    -0.508 OA
ATOM     27  H   UNL     1     -22.751 -11.533   8.039  1.00  0.00     0.293 HD
ENDBRANCH   8  26
TORSDOF 6
ENDMDL
MODEL 8
REMARK VINA RESULT:    -1.596     20.630     21.306
REMARK INTER + INTRA:          -2.173
REMARK INTER:                  -2.756
REMARK INTRA:                   0.582
REMARK UNBOUND:                -0.250
REMARK SMILES O=c1c(O)c(-c2ccc(O)cc2O)oc2cc(O)cc(O)c12
REMARK SMILES IDX 5 1 3 2 2 3 1 4 22 5 20 6 19 7 17 8 16 9 15 10 14 11 6 12
REMARK SMILES IDX 8 13 7 14 9 15 11 16 12 17 10 18 13 20 4 22 21 24 18 26
REMARK H PARENT 10 19 13 21 4 23 21 25 18 27
REMARK Flexibility Score: inf
ROOT
ATOM      1  C   UNL     1      -7.104  -1.720   7.677  1.00  0.00     0.184 A 
ATOM      2  C   UNL     1      -7.001  -0.956   8.851  1.00  0.00     0.208 A 
ATOM      3  C   UNL     1      -6.047  -1.316   9.816  1.00  0.00     0.238 A 
ATOM      4  O   UNL     1      -5.999  -0.661  10.890  1.00  0.00    -0.285 OA
ATOM      5  C   UNL     1      -5.195  -2.422   9.586  1.00  0.00     0.111 A 
ATOM      6  C   UNL     1      -4.166  -2.852  10.476  1.00  0.00     0.134 A 
ATOM      7  C   UNL     1      -3.468  -4.036  10.206  1.00  0.00     0.093 A 
ATOM      8  C   UNL     1      -3.719  -4.770   9.045  1.00  0.00     0.123 A 
ATOM      9  C   UNL     1      -4.680  -4.327   8.139  1.00  0.00     0.094 A 
ATOM     10  C   UNL     1      -5.417  -3.169   8.399  1.00  0.00     0.146 A 
ATOM     11  O   UNL     1      -6.332  -2.788   7.516  1.00  0.00    -0.451 OA
ENDROOT
BRANCH   1  12
ATOM     12  C   UNL     1      -8.072  -1.383   6.606  1.00  0.00     0.063 A 
ATOM     13  C   UNL     1      -9.735   0.125   5.664  1.00  0.00     0.047 A 
ATOM     14  C   UNL     1      -8.842  -0.208   6.686  1.00  0.00     0.020 A 
ATOM     15  C   UNL     1      -9.865  -0.702   4.546  1.00  0.00     0.119 A 
ATOM     16  C   UNL     1      -9.094  -1.867   4.450  1.00  0.00     0.093 A 
ATOM     17  C   UNL     1      -8.196  -2.210   5.471  1.00  0.00     0.130 A 
BRANCH  15  18
ATOM     18  O   UNL     1     -10.759  -0.355   3.536  1.00  0.00    -0.508 OA
ATOM     19  H   UNL     1     -11.679  -0.776   3.477  1.00  0.00     0.293 HD
ENDBRANCH  15  18
BRANCH  17  20
ATOM     20  O   UNL     1      -7.438  -3.377   5.366  1.00  0.00    -0.507 OA
ATOM     21  H   UNL     1      -6.830  -3.684   6.116  1.00  0.00     0.293 HD
ENDBRANCH  17  20
ENDBRANCH   1  12
BRANCH   2  22
ATOM     22  O   UNL     1      -7.863   0.125   9.061  1.00  0.00    -0.502 OA
ATOM     23  H   UNL     1      -8.339   0.276   9.942  1.00  0.00     0.293 HD
ENDBRANCH   2  22
BRANCH   6  24
ATOM     24  O   UNL     1      -3.774  -2.143  11.616  1.00  0.00    -0.507 OA
ATOM     25  H   UNL     1      -2.909  -1.631  11.706  1.00  0.00     0.293 HD
ENDBRANCH   6  24
BRANCH   8  26
ATOM     26  O   UNL     1      -3.010  -5.938   8.777  1.00  0.00    -0.508 OA
ATOM     27  H   UNL     1      -2.033  -6.035   9.028  1.00  0.00     0.293 HD
ENDBRANCH   8  26
TORSDOF 6
ENDMDL
