MODEL 1
REMARK VINA RESULT:    -3.870      0.000      0.000
REMARK INTER + INTRA:          -4.209
REMARK INTER:                  -4.209
REMARK INTRA:                   0.000
REMARK UNBOUND:                 0.000
REMARK SMILES Oc1cccc(O)c1O
REMARK SMILES IDX 4 1 5 2 6 3 8 4 2 5 3 6 7 7 1 9 9 11
REMARK H PARENT 7 8 1 10 9 12
REMARK Flexibility Score: inf
ROOT
ATOM      1  C   UNL     1       7.666  24.465  -5.638  1.00  0.00     0.008 A 
ATOM      2  C   UNL     1       8.190  25.080  -4.502  1.00  0.00     0.050 A 
ATOM      3  C   UNL     1       9.134  24.416  -3.713  1.00  0.00     0.161 A 
ATOM      4  C   UNL     1       9.561  23.119  -4.061  1.00  0.00     0.200 A 
ATOM      5  C   UNL     1       9.025  22.498  -5.217  1.00  0.00     0.161 A 
ATOM      6  C   UNL     1       8.081  23.183  -5.993  1.00  0.00     0.050 A 
ENDROOT
BRANCH   3   7
ATOM      7  O   UNL     1       9.637  25.062  -2.583  1.00  0.00    -0.504 OA
ATOM      8  H   UNL     1      10.628  25.226  -2.451  1.00  0.00     0.293 HD
ENDBRANCH   3   7
BRANCH   5   9
ATOM      9  O   UNL     1       9.396  21.216  -5.628  1.00  0.00    -0.504 OA
ATOM     10  H   UNL     1       9.093  20.367  -5.174  1.00  0.00     0.293 HD
ENDBRANCH   5   9
BRANCH   4  11
ATOM     11  O   UNL     1      10.505  22.489  -3.246  1.00  0.00    -0.502 OA
ATOM     12  H   UNL     1      11.325  22.944  -2.871  1.00  0.00     0.293 HD
ENDBRANCH   4  11
TORSDOF 3
ENDMDL
MODEL 2
REMARK VINA RESULT:    -3.786      2.166      2.536
REMARK INTER + INTRA:          -4.119
REMARK INTER:                  -4.119
REMARK INTRA:                   0.000
REMARK UNBOUND:                 0.000
REMARK SMILES Oc1cccc(O)c1O
REMARK SMILES IDX 4 1 5 2 6 3 8 4 2 5 3 6 7 7 1 9 9 11
REMARK H PARENT 7 8 1 10 9 12
REMARK Flexibility Score: inf
ROOT
ATOM      1  C   UNL     1       9.070  25.114  -4.584  1.00  0.00     0.008 A 
ATOM      2  C   UNL     1       9.136  24.339  -3.427  1.00  0.00     0.050 A 
ATOM      3  C   UNL     1      10.271  23.568  -3.159  1.00  0.00     0.161 A 
ATOM      4  C   UNL     1      11.357  23.570  -4.057  1.00  0.00     0.200 A 
ATOM      5  C   UNL     1      11.286  24.360  -5.232  1.00  0.00     0.161 A 
ATOM      6  C   UNL     1      10.139  25.125  -5.480  1.00  0.00     0.050 A 
ENDROOT
BRANCH   3   7
ATOM      7  O   UNL     1      10.302  22.804  -1.992  1.00  0.00    -0.504 OA
ATOM      8  H   UNL     1       9.459  22.506  -1.518  1.00  0.00     0.293 HD
ENDBRANCH   3   7
BRANCH   5   9
ATOM      9  O   UNL     1      12.318  24.415  -6.170  1.00  0.00    -0.504 OA
ATOM     10  H   UNL     1      12.917  25.216  -6.305  1.00  0.00     0.293 HD
ENDBRANCH   5   9
BRANCH   4  11
ATOM     11  O   UNL     1      12.473  22.786  -3.753  1.00  0.00    -0.502 OA
ATOM     12  H   UNL     1      12.501  21.780  -3.844  1.00  0.00     0.293 HD
ENDBRANCH   4  11
TORSDOF 3
ENDMDL
MODEL 3
REMARK VINA RESULT:    -3.781      0.154      2.826
REMARK INTER + INTRA:          -4.113
REMARK INTER:                  -4.113
REMARK INTRA:                   0.000
REMARK UNBOUND:                 0.000
REMARK SMILES Oc1cccc(O)c1O
REMARK SMILES IDX 4 1 5 2 6 3 8 4 2 5 3 6 7 7 1 9 9 11
REMARK H PARENT 7 8 1 10 9 12
REMARK Flexibility Score: inf
ROOT
ATOM      1  C   UNL     1       7.528  24.375  -5.714  1.00  0.00     0.008 A 
ATOM      2  C   UNL     1       8.023  23.119  -6.060  1.00  0.00     0.050 A 
ATOM      3  C   UNL     1       8.992  22.499  -5.266  1.00  0.00     0.161 A 
ATOM      4  C   UNL     1       9.477  23.143  -4.109  1.00  0.00     0.200 A 
ATOM      5  C   UNL     1       8.970  24.420  -3.761  1.00  0.00     0.161 A 
ATOM      6  C   UNL     1       7.999  25.021  -4.572  1.00  0.00     0.050 A 
ENDROOT
BRANCH   3   7
ATOM      7  O   UNL     1       9.465  21.241  -5.643  1.00  0.00    -0.504 OA
ATOM      8  H   UNL     1       9.408  20.437  -5.030  1.00  0.00     0.293 HD
ENDBRANCH   3   7
BRANCH   5   9
ATOM      9  O   UNL     1       9.399  25.122  -2.633  1.00  0.00    -0.504 OA
ATOM     10  H   UNL     1       9.748  24.684  -1.793  1.00  0.00     0.293 HD
ENDBRANCH   5   9
BRANCH   4  11
ATOM     11  O   UNL     1      10.446  22.491  -3.343  1.00  0.00    -0.502 OA
ATOM     12  H   UNL     1      10.391  21.522  -3.063  1.00  0.00     0.293 HD
ENDBRANCH   4  11
TORSDOF 3
ENDMDL
MODEL 4
REMARK VINA RESULT:    -3.725      2.141      2.879
REMARK INTER + INTRA:          -4.052
REMARK INTER:                  -4.052
REMARK INTRA:                   0.000
REMARK UNBOUND:                 0.000
REMARK SMILES Oc1cccc(O)c1O
REMARK SMILES IDX 4 1 5 2 6 3 8 4 2 5 3 6 7 7 1 9 9 11
REMARK H PARENT 7 8 1 10 9 12
REMARK Flexibility Score: inf
ROOT
ATOM      1  C   UNL     1       9.014  25.107  -4.600  1.00  0.00     0.008 A 
ATOM      2  C   UNL     1      10.078  25.125  -5.501  1.00  0.00     0.050 A 
ATOM      3  C   UNL     1      11.225  24.366  -5.251  1.00  0.00     0.161 A 
ATOM      4  C   UNL     1      11.314  23.579  -4.085  1.00  0.00     0.200 A 
ATOM      5  C   UNL     1      10.229  23.565  -3.172  1.00  0.00     0.161 A 
ATOM      6  C   UNL     1       9.090  24.332  -3.444  1.00  0.00     0.050 A 
ENDROOT
BRANCH   3   7
ATOM      7  O   UNL     1      12.271  24.407  -6.174  1.00  0.00    -0.504 OA
ATOM      8  H   UNL     1      12.113  24.346  -7.172  1.00  0.00     0.293 HD
ENDBRANCH   3   7
BRANCH   5   9
ATOM      9  O   UNL     1      10.241  22.812  -1.997  1.00  0.00    -0.504 OA
ATOM     10  H   UNL     1       9.430  22.660  -1.415  1.00  0.00     0.293 HD
ENDBRANCH   5   9
BRANCH   4  11
ATOM     11  O   UNL     1      12.477  22.836  -3.872  1.00  0.00    -0.502 OA
ATOM     12  H   UNL     1      13.186  23.074  -3.193  1.00  0.00     0.293 HD
ENDBRANCH   4  11
TORSDOF 3
ENDMDL
MODEL 5
REMARK VINA RESULT:    -3.615      2.294      3.065
REMARK INTER + INTRA:          -3.932
REMARK INTER:                  -3.932
REMARK INTRA:                   0.000
REMARK UNBOUND:                 0.000
REMARK SMILES Oc1cccc(O)c1O
REMARK SMILES IDX 4 1 5 2 6 3 8 4 2 5 3 6 7 7 1 9 9 11
REMARK H PARENT 7 8 1 10 9 12
REMARK Flexibility Score: inf
ROOT
ATOM      1  C   UNL     1      12.491  25.106  -3.653  1.00  0.00     0.008 A 
ATOM      2  C   UNL     1      11.316  25.125  -2.903  1.00  0.00     0.050 A 
ATOM      3  C   UNL     1      10.268  24.252  -3.212  1.00  0.00     0.161 A 
ATOM      4  C   UNL     1      10.393  23.347  -4.285  1.00  0.00     0.200 A 
ATOM      5  C   UNL     1      11.590  23.332  -5.045  1.00  0.00     0.161 A 
ATOM      6  C   UNL     1      12.627  24.215  -4.716  1.00  0.00     0.050 A 
ENDROOT
BRANCH   3   7
ATOM      7  O   UNL     1       9.106  24.299  -2.440  1.00  0.00    -0.504 OA
ATOM      8  H   UNL     1       8.200  24.040  -2.811  1.00  0.00     0.293 HD
ENDBRANCH   3   7
BRANCH   5   9
ATOM      9  O   UNL     1      11.791  22.467  -6.122  1.00  0.00    -0.504 OA
ATOM     10  H   UNL     1      11.774  21.460  -6.049  1.00  0.00     0.293 HD
ENDBRANCH   5   9
BRANCH   4  11
ATOM     11  O   UNL     1       9.324  22.492  -4.562  1.00  0.00    -0.502 OA
ATOM     12  H   UNL     1       9.217  21.978  -5.425  1.00  0.00     0.293 HD
ENDBRANCH   4  11
TORSDOF 3
ENDMDL
MODEL 6
REMARK VINA RESULT:    -3.557      2.303      3.919
REMARK INTER + INTRA:          -3.869
REMARK INTER:                  -3.869
REMARK INTRA:                   0.000
REMARK UNBOUND:                 0.000
REMARK SMILES Oc1cccc(O)c1O
REMARK SMILES IDX 4 1 5 2 6 3 8 4 2 5 3 6 7 7 1 9 9 11
REMARK H PARENT 7 8 1 10 9 12
REMARK Flexibility Score: inf
ROOT
ATOM      1  C   UNL     1      12.523  25.065  -3.673  1.00  0.00     0.008 A 
ATOM      2  C   UNL     1      12.694  24.169  -4.727  1.00  0.00     0.050 A 
ATOM      3  C   UNL     1      11.651  23.319  -5.106  1.00  0.00     0.161 A 
ATOM      4  C   UNL     1      10.419  23.362  -4.422  1.00  0.00     0.200 A 
ATOM      5  C   UNL     1      10.250  24.275  -3.351  1.00  0.00     0.161 A 
ATOM      6  C   UNL     1      11.309  25.117  -2.990  1.00  0.00     0.050 A 
ENDROOT
BRANCH   3   7
ATOM      7  O   UNL     1      11.856  22.435  -6.166  1.00  0.00    -0.504 OA
ATOM      8  H   UNL     1      12.370  21.570  -6.056  1.00  0.00     0.293 HD
ENDBRANCH   3   7
BRANCH   5   9
ATOM      9  O   UNL     1       9.062  24.377  -2.625  1.00  0.00    -0.504 OA
ATOM     10  H   UNL     1       8.946  24.961  -1.809  1.00  0.00     0.293 HD
ENDBRANCH   5   9
BRANCH   4  11
ATOM     11  O   UNL     1       9.401  22.496  -4.830  1.00  0.00    -0.502 OA
ATOM     12  H   UNL     1       9.129  21.664  -4.327  1.00  0.00     0.293 HD
ENDBRANCH   4  11
TORSDOF 3
ENDMDL
MODEL 7
REMARK VINA RESULT:    -3.526      2.350      2.790
REMARK INTER + INTRA:          -3.836
REMARK INTER:                  -3.836
REMARK INTRA:                   0.000
REMARK UNBOUND:                 0.000
REMARK SMILES Oc1cccc(O)c1O
REMARK SMILES IDX 4 1 5 2 6 3 8 4 2 5 3 6 7 7 1 9 9 11
REMARK H PARENT 7 8 1 10 9 12
REMARK Flexibility Score: inf
ROOT
ATOM      1  C   UNL     1       8.422  24.392  -6.129  1.00  0.00     0.008 A 
ATOM      2  C   UNL     1       9.787  24.121  -6.040  1.00  0.00     0.050 A 
ATOM      3  C   UNL     1      10.252  22.806  -6.134  1.00  0.00     0.161 A 
ATOM      4  C   UNL     1       9.343  21.745  -6.318  1.00  0.00     0.200 A 
ATOM      5  C   UNL     1       7.956  22.026  -6.408  1.00  0.00     0.161 A 
ATOM      6  C   UNL     1       7.514  23.351  -6.312  1.00  0.00     0.050 A 
ENDROOT
BRANCH   3   7
ATOM      7  O   UNL     1      11.625  22.572  -6.041  1.00  0.00    -0.504 OA
ATOM      8  H   UNL     1      12.309  23.306  -6.174  1.00  0.00     0.293 HD
ENDBRANCH   3   7
BRANCH   5   9
ATOM      9  O   UNL     1       6.994  21.031  -6.590  1.00  0.00    -0.504 OA
ATOM     10  H   UNL     1       6.003  21.174  -6.466  1.00  0.00     0.293 HD
ENDBRANCH   5   9
BRANCH   4  11
ATOM     11  O   UNL     1       9.847  20.446  -6.407  1.00  0.00    -0.502 OA
ATOM     12  H   UNL     1      10.641  20.108  -5.882  1.00  0.00     0.293 HD
ENDBRANCH   4  11
TORSDOF 3
ENDMDL
MODEL 8
REMARK VINA RESULT:    -3.415      2.345      3.062
REMARK INTER + INTRA:          -3.715
REMARK INTER:                  -3.715
REMARK INTRA:                   0.000
REMARK UNBOUND:                 0.000
REMARK SMILES Oc1cccc(O)c1O
REMARK SMILES IDX 4 1 5 2 6 3 8 4 2 5 3 6 7 7 1 9 9 11
REMARK H PARENT 7 8 1 10 9 12
REMARK Flexibility Score: inf
ROOT
ATOM      1  C   UNL     1      10.299  25.041  -2.984  1.00  0.00     0.008 A 
ATOM      2  C   UNL     1      11.689  25.100  -3.074  1.00  0.00     0.050 A 
ATOM      3  C   UNL     1      12.378  24.229  -3.923  1.00  0.00     0.161 A 
ATOM      4  C   UNL     1      11.671  23.283  -4.693  1.00  0.00     0.200 A 
ATOM      5  C   UNL     1      10.258  23.227  -4.597  1.00  0.00     0.161 A 
ATOM      6  C   UNL     1       9.589  24.110  -3.741  1.00  0.00     0.050 A 
ENDROOT
BRANCH   3   7
ATOM      7  O   UNL     1      13.769  24.317  -3.988  1.00  0.00    -0.504 OA
ATOM      8  H   UNL     1      14.279  24.183  -4.852  1.00  0.00     0.293 HD
ENDBRANCH   3   7
BRANCH   5   9
ATOM      9  O   UNL     1       9.487  22.319  -5.326  1.00  0.00    -0.504 OA
ATOM     10  H   UNL     1       8.856  22.582  -6.069  1.00  0.00     0.293 HD
ENDBRANCH   5   9
BRANCH   4  11
ATOM     11  O   UNL     1      12.396  22.430  -5.528  1.00  0.00    -0.502 OA
ATOM     12  H   UNL     1      11.987  21.681  -6.067  1.00  0.00     0.293 HD
ENDBRANCH   4  11
TORSDOF 3
ENDMDL
