MODEL 1
REMARK VINA RESULT:    -3.627      0.000      0.000
REMARK INTER + INTRA:          -3.733
REMARK INTER:                  -3.733
REMARK INTRA:                   0.000
REMARK UNBOUND:                 0.000
REMARK SMILES Nc1ncnc2nc[nH]c12
REMARK SMILES IDX 8 1 7 2 6 3 5 4 4 5 3 6 2 7 10 8 9 9 1 11
REMARK H PARENT 9 10 1 12 1 13
REMARK Flexibility Score: inf
ROOT
ATOM      1  C   UNL     1      17.285  10.581  31.901  1.00  0.00     0.199 A 
ATOM      2  N   UNL     1      18.322  11.112  31.196  1.00  0.00    -0.217 NA
ATOM      3  C   UNL     1      19.388  10.549  31.787  1.00  0.00     0.182 A 
ATOM      4  N   UNL     1      20.688  10.742  31.462  1.00  0.00    -0.215 NA
ATOM      5  C   UNL     1      21.640  10.075  32.184  1.00  0.00     0.226 A 
ATOM      6  N   UNL     1      21.277   9.237  33.206  1.00  0.00    -0.217 NA
ATOM      7  C   UNL     1      19.966   9.039  33.536  1.00  0.00     0.152 A 
ATOM      8  C   UNL     1      19.009   9.725  32.792  1.00  0.00     0.127 A 
ATOM      9  N   UNL     1      17.673   9.730  32.884  1.00  0.00    -0.340 N 
ATOM     10  H   UNL     1      17.063   9.206  33.549  1.00  0.00     0.168 HD
ENDROOT
BRANCH   7  11
ATOM     11  N   UNL     1      19.611   8.161  34.604  1.00  0.00    -0.382 N 
ATOM     12  H   UNL     1      18.903   8.433  35.321  1.00  0.00     0.158 HD
ATOM     13  H   UNL     1      20.064   7.223  34.682  1.00  0.00     0.158 HD
ENDBRANCH   7  11
TORSDOF 1
ENDMDL
MODEL 2
REMARK VINA RESULT:    -3.591     14.829     15.253
REMARK INTER + INTRA:          -3.696
REMARK INTER:                  -3.696
REMARK INTRA:                   0.000
REMARK UNBOUND:                 0.000
REMARK SMILES Nc1ncnc2nc[nH]c12
REMARK SMILES IDX 8 1 7 2 6 3 5 4 4 5 3 6 2 7 10 8 9 9 1 11
REMARK H PARENT 9 10 1 12 1 13
REMARK Flexibility Score: inf
ROOT
ATOM      1  C   UNL     1       8.338   2.072  26.999  1.00  0.00     0.199 A 
ATOM      2  N   UNL     1       9.181   1.227  26.343  1.00  0.00    -0.217 NA
ATOM      3  C   UNL     1       9.323   1.833  25.153  1.00  0.00     0.182 A 
ATOM      4  N   UNL     1      10.073   1.400  24.111  1.00  0.00    -0.215 NA
ATOM      5  C   UNL     1      10.094   2.159  22.973  1.00  0.00     0.226 A 
ATOM      6  N   UNL     1       9.373   3.323  22.899  1.00  0.00    -0.217 NA
ATOM      7  C   UNL     1       8.617   3.762  23.949  1.00  0.00     0.152 A 
ATOM      8  C   UNL     1       8.605   2.979  25.101  1.00  0.00     0.127 A 
ATOM      9  N   UNL     1       7.969   3.152  26.266  1.00  0.00    -0.340 N 
ATOM     10  H   UNL     1       7.336   3.930  26.554  1.00  0.00     0.168 HD
ENDROOT
BRANCH   7  11
ATOM     11  N   UNL     1       7.875   4.978  23.850  1.00  0.00    -0.382 N 
ATOM     12  H   UNL     1       7.345   5.360  24.664  1.00  0.00     0.158 HD
ATOM     13  H   UNL     1       7.854   5.505  22.949  1.00  0.00     0.158 HD
ENDBRANCH   7  11
TORSDOF 1
ENDMDL
MODEL 3
REMARK VINA RESULT:    -3.527      0.719      2.444
REMARK INTER + INTRA:          -3.630
REMARK INTER:                  -3.630
REMARK INTRA:                   0.000
REMARK UNBOUND:                 0.000
REMARK SMILES Nc1ncnc2nc[nH]c12
REMARK SMILES IDX 8 1 7 2 6 3 5 4 4 5 3 6 2 7 10 8 9 9 1 11
REMARK H PARENT 9 10 1 12 1 13
REMARK Flexibility Score: inf
ROOT
ATOM      1  C   UNL     1      17.378  10.989  31.537  1.00  0.00     0.199 A 
ATOM      2  N   UNL     1      17.282  10.172  32.621  1.00  0.00    -0.217 NA
ATOM      3  C   UNL     1      18.565   9.847  32.849  1.00  0.00     0.182 A 
ATOM      4  N   UNL     1      19.033   9.042  33.832  1.00  0.00    -0.215 NA
ATOM      5  C   UNL     1      20.383   8.829  33.905  1.00  0.00     0.226 A 
ATOM      6  N   UNL     1      21.230   9.420  33.003  1.00  0.00    -0.217 NA
ATOM      7  C   UNL     1      20.760  10.233  32.011  1.00  0.00     0.152 A 
ATOM      8  C   UNL     1      19.384  10.440  31.949  1.00  0.00     0.127 A 
ATOM      9  N   UNL     1      18.650  11.173  31.102  1.00  0.00    -0.340 N 
ATOM     10  H   UNL     1      18.970  11.752  30.296  1.00  0.00     0.168 HD
ENDROOT
BRANCH   7  11
ATOM     11  N   UNL     1      21.661  10.838  31.082  1.00  0.00    -0.382 N 
ATOM     12  H   UNL     1      21.949  10.349  30.205  1.00  0.00     0.158 HD
ATOM     13  H   UNL     1      22.048  11.789  31.273  1.00  0.00     0.158 HD
ENDBRANCH   7  11
TORSDOF 1
ENDMDL
MODEL 4
REMARK VINA RESULT:    -3.497      2.928      3.845
REMARK INTER + INTRA:          -3.599
REMARK INTER:                  -3.599
REMARK INTRA:                   0.000
REMARK UNBOUND:                 0.000
REMARK SMILES Nc1ncnc2nc[nH]c12
REMARK SMILES IDX 8 1 7 2 6 3 5 4 4 5 3 6 2 7 10 8 9 9 1 11
REMARK H PARENT 9 10 1 12 1 13
REMARK Flexibility Score: inf
ROOT
ATOM      1  C   UNL     1      19.921   9.105  33.646  1.00  0.00     0.199 A 
ATOM      2  N   UNL     1      20.467  10.348  33.738  1.00  0.00    -0.217 NA
ATOM      3  C   UNL     1      20.423  10.581  35.060  1.00  0.00     0.182 A 
ATOM      4  N   UNL     1      20.852  11.697  35.698  1.00  0.00    -0.215 NA
ATOM      5  C   UNL     1      20.725  11.751  37.059  1.00  0.00     0.226 A 
ATOM      6  N   UNL     1      20.177  10.700  37.749  1.00  0.00    -0.217 NA
ATOM      7  C   UNL     1      19.744   9.574  37.108  1.00  0.00     0.152 A 
ATOM      8  C   UNL     1      19.881   9.533  35.722  1.00  0.00     0.127 A 
ATOM      9  N   UNL     1      19.552   8.580  34.842  1.00  0.00    -0.340 N 
ATOM     10  H   UNL     1      19.116   7.649  35.021  1.00  0.00     0.168 HD
ENDROOT
BRANCH   7  11
ATOM     11  N   UNL     1      19.177   8.492  37.846  1.00  0.00    -0.382 N 
ATOM     12  H   UNL     1      18.256   8.075  37.583  1.00  0.00     0.158 HD
ATOM     13  H   UNL     1      19.684   8.099  38.671  1.00  0.00     0.158 HD
ENDBRANCH   7  11
TORSDOF 1
ENDMDL
MODEL 5
REMARK VINA RESULT:    -3.430     14.295     15.737
REMARK INTER + INTRA:          -3.530
REMARK INTER:                  -3.530
REMARK INTRA:                   0.000
REMARK UNBOUND:                 0.000
REMARK SMILES Nc1ncnc2nc[nH]c12
REMARK SMILES IDX 8 1 7 2 6 3 5 4 4 5 3 6 2 7 10 8 9 9 1 11
REMARK H PARENT 9 10 1 12 1 13
REMARK Flexibility Score: inf
ROOT
ATOM      1  C   UNL     1       8.690   3.040  27.009  1.00  0.00     0.199 A 
ATOM      2  N   UNL     1       8.063   1.833  26.963  1.00  0.00    -0.217 NA
ATOM      3  C   UNL     1       8.290   1.440  25.700  1.00  0.00     0.182 A 
ATOM      4  N   UNL     1       7.875   0.286  25.125  1.00  0.00    -0.215 NA
ATOM      5  C   UNL     1       8.207   0.060  23.817  1.00  0.00     0.226 A 
ATOM      6  N   UNL     1       8.941   0.983  23.116  1.00  0.00    -0.217 NA
ATOM      7  C   UNL     1       9.361   2.148  23.694  1.00  0.00     0.152 A 
ATOM      8  C   UNL     1       9.015   2.363  25.026  1.00  0.00     0.127 A 
ATOM      9  N   UNL     1       9.282   3.392  25.840  1.00  0.00    -0.340 N 
ATOM     10  H   UNL     1       9.817   4.264  25.635  1.00  0.00     0.168 HD
ENDROOT
BRANCH   7  11
ATOM     11  N   UNL     1      10.124   3.094  22.945  1.00  0.00    -0.382 N 
ATOM     12  H   UNL     1      10.537   2.850  22.018  1.00  0.00     0.158 HD
ATOM     13  H   UNL     1      10.280   4.055  23.323  1.00  0.00     0.158 HD
ENDBRANCH   7  11
TORSDOF 1
ENDMDL
MODEL 6
REMARK VINA RESULT:    -3.333      4.150      5.228
REMARK INTER + INTRA:          -3.431
REMARK INTER:                  -3.431
REMARK INTRA:                   0.000
REMARK UNBOUND:                 0.000
REMARK SMILES Nc1ncnc2nc[nH]c12
REMARK SMILES IDX 8 1 7 2 6 3 5 4 4 5 3 6 2 7 10 8 9 9 1 11
REMARK H PARENT 9 10 1 12 1 13
REMARK Flexibility Score: inf
ROOT
ATOM      1  C   UNL     1      20.836  12.118  38.874  1.00  0.00     0.199 A 
ATOM      2  N   UNL     1      21.190  12.476  37.609  1.00  0.00    -0.217 NA
ATOM      3  C   UNL     1      20.757  11.432  36.884  1.00  0.00     0.182 A 
ATOM      4  N   UNL     1      20.862  11.281  35.542  1.00  0.00    -0.215 NA
ATOM      5  C   UNL     1      20.356  10.141  34.980  1.00  0.00     0.226 A 
ATOM      6  N   UNL     1      19.762   9.184  35.761  1.00  0.00    -0.217 NA
ATOM      7  C   UNL     1      19.654   9.334  37.115  1.00  0.00     0.152 A 
ATOM      8  C   UNL     1      20.173  10.500  37.673  1.00  0.00     0.127 A 
ATOM      9  N   UNL     1      20.212  10.915  38.945  1.00  0.00    -0.340 N 
ATOM     10  H   UNL     1      19.850  10.436  39.799  1.00  0.00     0.168 HD
ENDROOT
BRANCH   7  11
ATOM     11  N   UNL     1      19.030   8.325  37.909  1.00  0.00    -0.382 N 
ATOM     12  H   UNL     1      18.438   8.568  38.733  1.00  0.00     0.158 HD
ATOM     13  H   UNL     1      19.163   7.317  37.671  1.00  0.00     0.158 HD
ENDBRANCH   7  11
TORSDOF 1
ENDMDL
MODEL 7
REMARK VINA RESULT:    -3.311      2.681      3.988
REMARK INTER + INTRA:          -3.408
REMARK INTER:                  -3.408
REMARK INTRA:                   0.000
REMARK UNBOUND:                 0.000
REMARK SMILES Nc1ncnc2nc[nH]c12
REMARK SMILES IDX 8 1 7 2 6 3 5 4 4 5 3 6 2 7 10 8 9 9 1 11
REMARK H PARENT 9 10 1 12 1 13
REMARK Flexibility Score: inf
ROOT
ATOM      1  C   UNL     1      19.601   9.556  33.868  1.00  0.00     0.199 A 
ATOM      2  N   UNL     1      20.843   9.032  33.678  1.00  0.00    -0.217 NA
ATOM      3  C   UNL     1      21.121   8.512  34.885  1.00  0.00     0.182 A 
ATOM      4  N   UNL     1      22.255   7.863  35.243  1.00  0.00    -0.215 NA
ATOM      5  C   UNL     1      22.356   7.401  36.527  1.00  0.00     0.226 A 
ATOM      6  N   UNL     1      21.332   7.594  37.418  1.00  0.00    -0.217 NA
ATOM      7  C   UNL     1      20.187   8.248  37.059  1.00  0.00     0.152 A 
ATOM      8  C   UNL     1      20.100   8.713  35.749  1.00  0.00     0.127 A 
ATOM      9  N   UNL     1      19.119   9.377  35.124  1.00  0.00    -0.340 N 
ATOM     10  H   UNL     1      18.198   9.687  35.502  1.00  0.00     0.168 HD
ENDROOT
BRANCH   7  11
ATOM     11  N   UNL     1      19.134   8.439  38.004  1.00  0.00    -0.382 N 
ATOM     12  H   UNL     1      18.935   7.733  38.747  1.00  0.00     0.158 HD
ATOM     13  H   UNL     1      18.543   9.298  37.961  1.00  0.00     0.158 HD
ENDBRANCH   7  11
TORSDOF 1
ENDMDL
MODEL 8
REMARK VINA RESULT:    -3.293      1.022      3.470
REMARK INTER + INTRA:          -3.389
REMARK INTER:                  -3.389
REMARK INTRA:                   0.000
REMARK UNBOUND:                 0.000
REMARK SMILES Nc1ncnc2nc[nH]c12
REMARK SMILES IDX 8 1 7 2 6 3 5 4 4 5 3 6 2 7 10 8 9 9 1 11
REMARK H PARENT 9 10 1 12 1 13
REMARK Flexibility Score: inf
ROOT
ATOM      1  C   UNL     1      22.203  10.380  30.999  1.00  0.00     0.199 A 
ATOM      2  N   UNL     1      22.359   9.585  32.093  1.00  0.00    -0.217 NA
ATOM      3  C   UNL     1      21.125   9.581  32.621  1.00  0.00     0.182 A 
ATOM      4  N   UNL     1      20.727   8.928  33.740  1.00  0.00    -0.215 NA
ATOM      5  C   UNL     1      19.419   9.043  34.124  1.00  0.00     0.226 A 
ATOM      6  N   UNL     1      18.542   9.800  33.389  1.00  0.00    -0.217 NA
ATOM      7  C   UNL     1      18.941  10.458  32.260  1.00  0.00     0.152 A 
ATOM      8  C   UNL     1      20.276  10.332  31.882  1.00  0.00     0.127 A 
ATOM      9  N   UNL     1      20.940  10.852  30.843  1.00  0.00    -0.340 N 
ATOM     10  H   UNL     1      20.582  11.474  30.086  1.00  0.00     0.168 HD
ENDROOT
BRANCH   7  11
ATOM     11  N   UNL     1      18.011  11.240  31.511  1.00  0.00    -0.382 N 
ATOM     12  H   UNL     1      18.206  11.524  30.526  1.00  0.00     0.158 HD
ATOM     13  H   UNL     1      17.111  11.542  31.947  1.00  0.00     0.158 HD
ENDBRANCH   7  11
TORSDOF 1
ENDMDL
MODEL 9
REMARK VINA RESULT:    -3.288      1.435      3.228
REMARK INTER + INTRA:          -3.384
REMARK INTER:                  -3.384
REMARK INTRA:                   0.000
REMARK UNBOUND:                 0.000
REMARK SMILES Nc1ncnc2nc[nH]c12
REMARK SMILES IDX 8 1 7 2 6 3 5 4 4 5 3 6 2 7 10 8 9 9 1 11
REMARK H PARENT 9 10 1 12 1 13
REMARK Flexibility Score: inf
ROOT
ATOM      1  C   UNL     1      20.204   9.224  36.261  1.00  0.00     0.199 A 
ATOM      2  N   UNL     1      21.385   9.276  35.586  1.00  0.00    -0.217 NA
ATOM      3  C   UNL     1      20.980   9.438  34.315  1.00  0.00     0.182 A 
ATOM      4  N   UNL     1      21.774   9.550  33.223  1.00  0.00    -0.215 NA
ATOM      5  C   UNL     1      21.174   9.712  32.004  1.00  0.00     0.226 A 
ATOM      6  N   UNL     1      19.807   9.759  31.902  1.00  0.00    -0.217 NA
ATOM      7  C   UNL     1      19.005   9.647  33.002  1.00  0.00     0.152 A 
ATOM      8  C   UNL     1      19.630   9.482  34.236  1.00  0.00     0.127 A 
ATOM      9  N   UNL     1      19.113   9.348  35.463  1.00  0.00    -0.340 N 
ATOM     10  H   UNL     1      18.111   9.339  35.751  1.00  0.00     0.168 HD
ENDROOT
BRANCH   7  11
ATOM     11  N   UNL     1      17.584   9.699  32.872  1.00  0.00    -0.382 N 
ATOM     12  H   UNL     1      17.028   8.848  32.633  1.00  0.00     0.158 HD
ATOM     13  H   UNL     1      17.079  10.601  33.016  1.00  0.00     0.158 HD
ENDBRANCH   7  11
TORSDOF 1
ENDMDL
