MODEL 1
REMARK VINA RESULT:    14.551      0.000      0.000
REMARK INTER + INTRA:          26.499
REMARK INTER:                  27.311
REMARK INTRA:                  -0.812
REMARK UNBOUND:                -0.812
REMARK SMILES O=C([O-])CCCCCCCCCCCCCCC(=O)[O-]
REMARK SMILES IDX 10 1 9 2 8 3 7 4 6 5 5 6 4 7 2 8 1 9 3 10 11 11 12 12 13 13
REMARK SMILES IDX 14 14 15 15 16 16 17 17 18 18 19 19 20 20
REMARK H PARENT
REMARK Flexibility Score: inf
ROOT
ATOM      1  C   UNL     1      -5.701  10.979 -23.711  1.00  0.00     0.000 C 
ENDROOT
BRANCH   1   2
ATOM      2  C   UNL     1      -5.810  10.119 -24.982  1.00  0.00     0.000 C 
BRANCH   2   3
ATOM      3  C   UNL     1      -4.931   8.857 -24.908  1.00  0.00     0.000 C 
BRANCH   3   4
ATOM      4  C   UNL     1      -3.419   9.163 -24.880  1.00  0.00     0.000 C 
BRANCH   4   5
ATOM      5  C   UNL     1      -2.615   8.276 -23.910  1.00  0.00     0.000 C 
BRANCH   5   6
ATOM      6  C   UNL     1      -1.098   8.551 -23.916  1.00  0.00     0.006 C 
BRANCH   6   7
ATOM      7  C   UNL     1      -0.674   9.494 -25.050  1.00  0.00     0.053 C 
BRANCH   7   8
ATOM      8  C   UNL     1       0.252   8.793 -25.993  1.00  0.00     0.041 C 
ATOM      9  O   UNL     1       0.617   9.355 -27.059  1.00  0.00    -0.550 OA
ATOM     10  O   UNL     1       0.752   7.537 -25.670  1.00  0.00    -0.550 OA
ENDBRANCH   7   8
ENDBRANCH   6   7
ENDBRANCH   5   6
ENDBRANCH   4   5
ENDBRANCH   3   4
ENDBRANCH   2   3
ENDBRANCH   1   2
BRANCH   1  11
ATOM     11  C   UNL     1      -6.506  12.288 -23.803  1.00  0.00     0.000 C 
BRANCH  11  12
ATOM     12  C   UNL     1      -6.448  12.992 -25.172  1.00  0.00     0.000 C 
BRANCH  12  13
ATOM     13  C   UNL     1      -5.467  14.174 -25.196  1.00  0.00     0.000 C 
BRANCH  13  14
ATOM     14  C   UNL     1      -5.058  14.518 -26.633  1.00  0.00     0.000 C 
BRANCH  14  15
ATOM     15  C   UNL     1      -5.256  16.012 -26.919  1.00  0.00     0.000 C 
BRANCH  15  16
ATOM     16  C   UNL     1      -4.728  16.869 -25.762  1.00  0.00     0.006 C 
BRANCH  16  17
ATOM     17  C   UNL     1      -5.579  18.128 -25.577  1.00  0.00     0.053 C 
BRANCH  17  18
ATOM     18  C   UNL     1      -5.773  18.422 -24.123  1.00  0.00     0.041 C 
ATOM     19  O   UNL     1      -6.618  19.282 -23.758  1.00  0.00    -0.550 OA
ATOM     20  O   UNL     1      -4.991  17.779 -23.172  1.00  0.00    -0.550 OA
ENDBRANCH  17  18
ENDBRANCH  16  17
ENDBRANCH  15  16
ENDBRANCH  14  15
ENDBRANCH  13  14
ENDBRANCH  12  13
ENDBRANCH  11  12
ENDBRANCH   1  11
TORSDOF 15
ENDMDL
MODEL 2
REMARK VINA RESULT:    14.911      0.363      8.793
REMARK INTER + INTRA:          27.175
REMARK INTER:                  27.957
REMARK INTRA:                  -0.783
REMARK UNBOUND:                -0.812
REMARK SMILES O=C([O-])CCCCCCCCCCCCCCC(=O)[O-]
REMARK SMILES IDX 10 1 9 2 8 3 7 4 6 5 5 6 4 7 2 8 1 9 3 10 11 11 12 12 13 13
REMARK SMILES IDX 14 14 15 15 16 16 17 17 18 18 19 19 20 20
REMARK H PARENT
REMARK Flexibility Score: inf
ROOT
ATOM      1  C   UNL     1      -6.523  12.127 -23.748  1.00  0.00     0.000 C 
ENDROOT
BRANCH   1   2
ATOM      2  C   UNL     1      -6.511  12.772 -25.144  1.00  0.00     0.000 C 
BRANCH   2   3
ATOM      3  C   UNL     1      -5.658  14.054 -25.185  1.00  0.00     0.000 C 
BRANCH   3   4
ATOM      4  C   UNL     1      -5.163  14.416 -26.600  1.00  0.00     0.000 C 
BRANCH   4   5
ATOM      5  C   UNL     1      -5.133  15.930 -26.888  1.00  0.00     0.000 C 
BRANCH   5   6
ATOM      6  C   UNL     1      -4.682  16.790 -25.691  1.00  0.00     0.006 C 
BRANCH   6   7
ATOM      7  C   UNL     1      -5.516  18.068 -25.536  1.00  0.00     0.053 C 
BRANCH   7   8
ATOM      8  C   UNL     1      -5.755  18.364 -24.088  1.00  0.00     0.041 C 
ATOM      9  O   UNL     1      -5.037  17.826 -23.205  1.00  0.00    -0.550 OA
ATOM     10  O   UNL     1      -6.739  19.272 -23.718  1.00  0.00    -0.550 OA
ENDBRANCH   7   8
ENDBRANCH   6   7
ENDBRANCH   5   6
ENDBRANCH   4   5
ENDBRANCH   3   4
ENDBRANCH   2   3
ENDBRANCH   1   2
BRANCH   1  11
ATOM     11  C   UNL     1      -5.646  10.864 -23.665  1.00  0.00     0.000 C 
BRANCH  11  12
ATOM     12  C   UNL     1      -5.712   9.945 -24.898  1.00  0.00     0.000 C 
BRANCH  12  13
ATOM     13  C   UNL     1      -4.749   8.751 -24.806  1.00  0.00     0.000 C 
BRANCH  13  14
ATOM     14  C   UNL     1      -3.304   9.189 -25.072  1.00  0.00     0.000 C 
BRANCH  14  15
ATOM     15  C   UNL     1      -2.394   8.832 -23.890  1.00  0.00     0.000 C 
BRANCH  15  16
ATOM     16  C   UNL     1      -0.917   9.000 -24.263  1.00  0.00     0.006 C 
BRANCH  16  17
ATOM     17  C   UNL     1      -0.765   9.459 -25.716  1.00  0.00     0.053 C 
BRANCH  17  18
ATOM     18  C   UNL     1       0.471   8.875 -26.325  1.00  0.00     0.041 C 
ATOM     19  O   UNL     1       0.739   7.655 -26.168  1.00  0.00    -0.550 OA
ATOM     20  O   UNL     1       1.351   9.688 -27.029  1.00  0.00    -0.550 OA
ENDBRANCH  17  18
ENDBRANCH  16  17
ENDBRANCH  15  16
ENDBRANCH  14  15
ENDBRANCH  13  14
ENDBRANCH  12  13
ENDBRANCH  11  12
ENDBRANCH   1  11
TORSDOF 15
ENDMDL
MODEL 3
REMARK VINA RESULT:    16.981      2.613      8.796
REMARK INTER + INTRA:          31.060
REMARK INTER:                  31.888
REMARK INTRA:                  -0.829
REMARK UNBOUND:                -0.812
REMARK SMILES O=C([O-])CCCCCCCCCCCCCCC(=O)[O-]
REMARK SMILES IDX 10 1 9 2 8 3 7 4 6 5 5 6 4 7 2 8 1 9 3 10 11 11 12 12 13 13
REMARK SMILES IDX 14 14 15 15 16 16 17 17 18 18 19 19 20 20
REMARK H PARENT
REMARK Flexibility Score: inf
ROOT
ATOM      1  C   UNL     1      -5.545  11.154 -23.798  1.00  0.00     0.000 C 
ENDROOT
BRANCH   1   2
ATOM      2  C   UNL     1      -6.674  12.169 -24.048  1.00  0.00     0.000 C 
BRANCH   2   3
ATOM      3  C   UNL     1      -6.476  12.946 -25.363  1.00  0.00     0.000 C 
BRANCH   3   4
ATOM      4  C   UNL     1      -5.333  13.979 -25.299  1.00  0.00     0.000 C 
BRANCH   4   5
ATOM      5  C   UNL     1      -5.164  14.812 -26.585  1.00  0.00     0.000 C 
BRANCH   5   6
ATOM      6  C   UNL     1      -5.252  16.336 -26.364  1.00  0.00     0.006 C 
BRANCH   6   7
ATOM      7  C   UNL     1      -4.555  16.785 -25.073  1.00  0.00     0.053 C 
BRANCH   7   8
ATOM      8  C   UNL     1      -5.249  17.977 -24.492  1.00  0.00     0.041 C 
ATOM      9  O   UNL     1      -5.361  18.100 -23.245  1.00  0.00    -0.550 OA
ATOM     10  O   UNL     1      -5.730  18.976 -25.329  1.00  0.00    -0.550 OA
ENDBRANCH   7   8
ENDBRANCH   6   7
ENDBRANCH   5   6
ENDBRANCH   4   5
ENDBRANCH   3   4
ENDBRANCH   2   3
ENDBRANCH   1   2
BRANCH   1  11
ATOM     11  C   UNL     1      -5.771   9.817 -24.526  1.00  0.00     0.000 C 
BRANCH  11  12
ATOM     12  C   UNL     1      -4.569   9.311 -25.344  1.00  0.00     0.000 C 
BRANCH  12  13
ATOM     13  C   UNL     1      -3.539   8.555 -24.490  1.00  0.00     0.000 C 
BRANCH  13  14
ATOM     14  C   UNL     1      -2.174   9.252 -24.531  1.00  0.00     0.000 C 
BRANCH  14  15
ATOM     15  C   UNL     1      -1.266   8.751 -23.401  1.00  0.00     0.000 C 
BRANCH  15  16
ATOM     16  C   UNL     1      -1.953   7.645 -22.592  1.00  0.00     0.006 C 
BRANCH  16  17
ATOM     17  C   UNL     1      -1.658   7.793 -21.097  1.00  0.00     0.053 C 
BRANCH  17  18
ATOM     18  C   UNL     1      -2.860   7.424 -20.286  1.00  0.00     0.041 C 
ATOM     19  O   UNL     1      -2.760   7.264 -19.040  1.00  0.00    -0.550 OA
ATOM     20  O   UNL     1      -4.083   7.212 -20.910  1.00  0.00    -0.550 OA
ENDBRANCH  17  18
ENDBRANCH  16  17
ENDBRANCH  15  16
ENDBRANCH  14  15
ENDBRANCH  13  14
ENDBRANCH  12  13
ENDBRANCH  11  12
ENDBRANCH   1  11
TORSDOF 15
ENDMDL
MODEL 4
REMARK VINA RESULT:    17.264      2.824      3.549
REMARK INTER + INTRA:          31.591
REMARK INTER:                  32.369
REMARK INTRA:                  -0.778
REMARK UNBOUND:                -0.812
REMARK SMILES O=C([O-])CCCCCCCCCCCCCCC(=O)[O-]
REMARK SMILES IDX 10 1 9 2 8 3 7 4 6 5 5 6 4 7 2 8 1 9 3 10 11 11 12 12 13 13
REMARK SMILES IDX 14 14 15 15 16 16 17 17 18 18 19 19 20 20
REMARK H PARENT
REMARK Flexibility Score: inf
ROOT
ATOM      1  C   UNL     1      -5.732  10.518 -24.942  1.00  0.00     0.000 C 
ENDROOT
BRANCH   1   2
ATOM      2  C   UNL     1      -5.199   9.135 -24.530  1.00  0.00     0.000 C 
BRANCH   2   3
ATOM      3  C   UNL     1      -3.670   9.032 -24.685  1.00  0.00     0.000 C 
BRANCH   3   4
ATOM      4  C   UNL     1      -3.035   7.950 -23.786  1.00  0.00     0.000 C 
BRANCH   4   5
ATOM      5  C   UNL     1      -1.703   8.374 -23.137  1.00  0.00     0.000 C 
BRANCH   5   6
ATOM      6  C   UNL     1      -1.539   7.909 -21.676  1.00  0.00     0.006 C 
BRANCH   6   7
ATOM      7  C   UNL     1      -2.796   7.217 -21.133  1.00  0.00     0.053 C 
BRANCH   7   8
ATOM      8  C   UNL     1      -3.116   7.719 -19.760  1.00  0.00     0.041 C 
ATOM      9  O   UNL     1      -4.292   7.644 -19.316  1.00  0.00    -0.550 OA
ATOM     10  O   UNL     1      -2.105   8.225 -18.952  1.00  0.00    -0.550 OA
ENDBRANCH   7   8
ENDBRANCH   6   7
ENDBRANCH   5   6
ENDBRANCH   4   5
ENDBRANCH   3   4
ENDBRANCH   2   3
ENDBRANCH   1   2
BRANCH   1  11
ATOM     11  C   UNL     1      -6.100  11.401 -23.736  1.00  0.00     0.000 C 
BRANCH  11  12
ATOM     12  C   UNL     1      -6.495  12.848 -24.086  1.00  0.00     0.000 C 
BRANCH  12  13
ATOM     13  C   UNL     1      -6.228  13.202 -25.557  1.00  0.00     0.000 C 
BRANCH  13  14
ATOM     14  C   UNL     1      -5.030  14.150 -25.684  1.00  0.00     0.000 C 
BRANCH  14  15
ATOM     15  C   UNL     1      -5.219  15.123 -26.855  1.00  0.00     0.000 C 
BRANCH  15  16
ATOM     16  C   UNL     1      -5.428  16.556 -26.351  1.00  0.00     0.006 C 
BRANCH  16  17
ATOM     17  C   UNL     1      -4.577  16.831 -25.108  1.00  0.00     0.053 C 
BRANCH  17  18
ATOM     18  C   UNL     1      -5.174  17.940 -24.299  1.00  0.00     0.041 C 
ATOM     19  O   UNL     1      -5.149  17.890 -23.041  1.00  0.00    -0.550 OA
ATOM     20  O   UNL     1      -5.798  19.007 -24.933  1.00  0.00    -0.550 OA
ENDBRANCH  17  18
ENDBRANCH  16  17
ENDBRANCH  15  16
ENDBRANCH  14  15
ENDBRANCH  13  14
ENDBRANCH  12  13
ENDBRANCH  11  12
ENDBRANCH   1  11
TORSDOF 15
ENDMDL
MODEL 5
REMARK VINA RESULT:    17.371      4.826      8.004
REMARK INTER + INTRA:          31.792
REMARK INTER:                  32.449
REMARK INTRA:                  -0.657
REMARK UNBOUND:                -0.812
REMARK SMILES O=C([O-])CCCCCCCCCCCCCCC(=O)[O-]
REMARK SMILES IDX 10 1 9 2 8 3 7 4 6 5 5 6 4 7 2 8 1 9 3 10 11 11 12 12 13 13
REMARK SMILES IDX 14 14 15 15 16 16 17 17 18 18 19 19 20 20
REMARK H PARENT
REMARK Flexibility Score: inf
ROOT
ATOM      1  C   UNL     1      -6.289  12.490 -23.288  1.00  0.00     0.000 C 
ENDROOT
BRANCH   1   2
ATOM      2  C   UNL     1      -6.492  12.051 -24.748  1.00  0.00     0.000 C 
BRANCH   2   3
ATOM      3  C   UNL     1      -6.525  13.248 -25.716  1.00  0.00     0.000 C 
BRANCH   3   4
ATOM      4  C   UNL     1      -5.216  14.064 -25.726  1.00  0.00     0.000 C 
BRANCH   4   5
ATOM      5  C   UNL     1      -5.279  15.345 -26.581  1.00  0.00     0.000 C 
BRANCH   5   6
ATOM      6  C   UNL     1      -4.626  16.576 -25.921  1.00  0.00     0.006 C 
BRANCH   6   7
ATOM      7  C   UNL     1      -5.591  17.763 -25.803  1.00  0.00     0.053 C 
BRANCH   7   8
ATOM      8  C   UNL     1      -5.539  18.343 -24.425  1.00  0.00     0.041 C 
ATOM      9  O   UNL     1      -4.918  17.745 -23.508  1.00  0.00    -0.550 OA
ATOM     10  O   UNL     1      -6.135  19.571 -24.166  1.00  0.00    -0.550 OA
ENDBRANCH   7   8
ENDBRANCH   6   7
ENDBRANCH   5   6
ENDBRANCH   4   5
ENDBRANCH   3   4
ENDBRANCH   2   3
ENDBRANCH   1   2
BRANCH   1  11
ATOM     11  C   UNL     1      -7.507  12.187 -22.397  1.00  0.00     0.000 C 
BRANCH  11  12
ATOM     12  C   UNL     1      -8.177  13.424 -21.770  1.00  0.00     0.000 C 
BRANCH  12  13
ATOM     13  C   UNL     1      -8.712  13.161 -20.353  1.00  0.00     0.000 C 
BRANCH  13  14
ATOM     14  C   UNL     1      -8.735  14.453 -19.527  1.00  0.00     0.000 C 
BRANCH  14  15
ATOM     15  C   UNL     1      -9.121  14.168 -18.070  1.00  0.00     0.000 C 
BRANCH  15  16
ATOM     16  C   UNL     1      -9.282  15.471 -17.279  1.00  0.00     0.006 C 
BRANCH  16  17
ATOM     17  C   UNL     1      -9.894  16.571 -18.150  1.00  0.00     0.053 C 
BRANCH  17  18
ATOM     18  C   UNL     1      -9.705  17.912 -17.512  1.00  0.00     0.041 C 
ATOM     19  O   UNL     1     -10.624  18.772 -17.562  1.00  0.00    -0.550 OA
ATOM     20  O   UNL     1      -8.499  18.229 -16.901  1.00  0.00    -0.550 OA
ENDBRANCH  17  18
ENDBRANCH  16  17
ENDBRANCH  15  16
ENDBRANCH  14  15
ENDBRANCH  13  14
ENDBRANCH  12  13
ENDBRANCH  11  12
ENDBRANCH   1  11
TORSDOF 15
ENDMDL
