MODEL 1
REMARK VINA RESULT:    -4.661      0.000      0.000
REMARK INTER + INTRA:          -5.856
REMARK INTER:                  -5.751
REMARK INTRA:                  -0.105
REMARK UNBOUND:                -0.105
REMARK SMILES COc1cc(-c2oc3cc(O)cc(O)c3c(=O)c2O)ccc1O
REMARK SMILES IDX 6 1 18 2 16 3 17 4 15 5 13 6 12 7 10 8 9 9 8 10 7 11 5 12
REMARK SMILES IDX 3 13 22 14 4 15 21 16 20 17 2 18 1 19 23 20 19 22 14 24
REMARK SMILES IDX 11 26
REMARK H PARENT 23 21 19 23 14 25 11 27
REMARK Flexibility Score: inf
ROOT
ATOM      1  C   UNL     1       3.094   1.850  -9.206  1.00  0.00     0.180 A 
ATOM      2  C   UNL     1       4.435   2.240  -9.384  1.00  0.00     0.208 A 
ATOM      3  C   UNL     1       4.726   3.598  -9.584  1.00  0.00     0.238 A 
ATOM      4  O   UNL     1       5.923   3.957  -9.755  1.00  0.00    -0.285 OA
ATOM      5  C   UNL     1       3.679   4.543  -9.582  1.00  0.00     0.111 A 
ATOM      6  C   UNL     1       3.888   5.931  -9.772  1.00  0.00     0.134 A 
ATOM      7  C   UNL     1       2.794   6.808  -9.747  1.00  0.00     0.093 A 
ATOM      8  C   UNL     1       1.500   6.327  -9.537  1.00  0.00     0.123 A 
ATOM      9  C   UNL     1       1.287   4.958  -9.348  1.00  0.00     0.094 A 
ATOM     10  C   UNL     1       2.364   4.067  -9.371  1.00  0.00     0.146 A 
ATOM     11  O   UNL     1       2.134   2.771  -9.195  1.00  0.00    -0.452 OA
ENDROOT
BRANCH   1  12
ATOM     12  C   UNL     1       2.706   0.435  -9.009  1.00  0.00     0.025 A 
ATOM     13  C   UNL     1       2.926  -1.704  -7.844  1.00  0.00     0.161 A 
ATOM     14  C   UNL     1       1.979  -2.266  -8.711  1.00  0.00     0.157 A 
ATOM     15  C   UNL     1       3.292  -0.352  -8.003  1.00  0.00     0.062 A 
ATOM     16  C   UNL     1       1.410  -1.489  -9.728  1.00  0.00     0.051 A 
ATOM     17  C   UNL     1       1.777  -0.151  -9.882  1.00  0.00     0.016 A 
BRANCH  13  18
ATOM     18  O   UNL     1       3.481  -2.518  -6.844  1.00  0.00    -0.493 OA
ATOM     19  C   UNL     1       4.878  -2.676  -6.617  1.00  0.00     0.278 C 
ENDBRANCH  13  18
BRANCH  14  20
ATOM     20  O   UNL     1       1.609  -3.601  -8.557  1.00  0.00    -0.504 OA
ATOM     21  H   UNL     1       1.157  -4.116  -9.304  1.00  0.00     0.293 HD
ENDBRANCH  14  20
ENDBRANCH   1  12
BRANCH   2  22
ATOM     22  O   UNL     1       5.459   1.290  -9.332  1.00  0.00    -0.502 OA
ATOM     23  H   UNL     1       6.048   1.171  -8.517  1.00  0.00     0.293 HD
ENDBRANCH   2  22
BRANCH   6  24
ATOM     24  O   UNL     1       5.169   6.442  -9.984  1.00  0.00    -0.507 OA
ATOM     25  H   UNL     1       5.332   7.432 -10.117  1.00  0.00     0.293 HD
ENDBRANCH   6  24
BRANCH   8  26
ATOM     26  O   UNL     1       0.431   7.221  -9.516  1.00  0.00    -0.508 OA
ATOM     27  H   UNL     1      -0.132   7.394 -10.341  1.00  0.00     0.293 HD
ENDBRANCH   8  26
TORSDOF 6
ENDMDL
MODEL 2
REMARK VINA RESULT:    -4.516     21.268     23.109
REMARK INTER + INTRA:          -5.677
REMARK INTER:                  -5.548
REMARK INTRA:                  -0.129
REMARK UNBOUND:                -0.105
REMARK SMILES COc1cc(-c2oc3cc(O)cc(O)c3c(=O)c2O)ccc1O
REMARK SMILES IDX 6 1 18 2 16 3 17 4 15 5 13 6 12 7 10 8 9 9 8 10 7 11 5 12
REMARK SMILES IDX 3 13 22 14 4 15 21 16 20 17 2 18 1 19 23 20 19 22 14 24
REMARK SMILES IDX 11 26
REMARK H PARENT 23 21 19 23 14 25 11 27
REMARK Flexibility Score: inf
ROOT
ATOM      1  C   UNL     1     -10.216   2.574   8.745  1.00  0.00     0.180 A 
ATOM      2  C   UNL     1      -9.008   2.241   9.390  1.00  0.00     0.208 A 
ATOM      3  C   UNL     1      -8.600   0.899   9.412  1.00  0.00     0.238 A 
ATOM      4  O   UNL     1      -7.526   0.587   9.996  1.00  0.00    -0.285 OA
ATOM      5  C   UNL     1      -9.390  -0.081   8.776  1.00  0.00     0.111 A 
ATOM      6  C   UNL     1      -9.046  -1.455   8.749  1.00  0.00     0.134 A 
ATOM      7  C   UNL     1      -9.881  -2.368   8.087  1.00  0.00     0.093 A 
ATOM      8  C   UNL     1     -11.047  -1.935   7.453  1.00  0.00     0.123 A 
ATOM      9  C   UNL     1     -11.391  -0.580   7.475  1.00  0.00     0.094 A 
ATOM     10  C   UNL     1     -10.574   0.345   8.131  1.00  0.00     0.146 A 
ATOM     11  O   UNL     1     -10.927   1.625   8.142  1.00  0.00    -0.452 OA
ENDROOT
BRANCH   1  12
ATOM     12  C   UNL     1     -10.723   3.964   8.696  1.00  0.00     0.025 A 
ATOM     13  C   UNL     1     -11.422   5.946   7.445  1.00  0.00     0.161 A 
ATOM     14  C   UNL     1     -11.633   6.626   8.653  1.00  0.00     0.157 A 
ATOM     15  C   UNL     1     -10.959   4.615   7.473  1.00  0.00     0.062 A 
ATOM     16  C   UNL     1     -11.377   5.986   9.873  1.00  0.00     0.051 A 
ATOM     17  C   UNL     1     -10.917   4.668   9.894  1.00  0.00     0.016 A 
BRANCH  13  18
ATOM     18  O   UNL     1     -11.680   6.625   6.244  1.00  0.00    -0.493 OA
ATOM     19  C   UNL     1     -12.125   6.000   5.044  1.00  0.00     0.278 C 
ENDBRANCH  13  18
BRANCH  14  20
ATOM     20  O   UNL     1     -12.094   7.941   8.634  1.00  0.00    -0.504 OA
ATOM     21  H   UNL     1     -12.085   8.494   7.784  1.00  0.00     0.293 HD
ENDBRANCH  14  20
ENDBRANCH   1  12
BRANCH   2  22
ATOM     22  O   UNL     1      -8.219   3.238   9.970  1.00  0.00    -0.502 OA
ATOM     23  H   UNL     1      -8.478   4.216   9.946  1.00  0.00     0.293 HD
ENDBRANCH   2  22
BRANCH   6  24
ATOM     24  O   UNL     1      -7.887  -1.918   9.374  1.00  0.00    -0.507 OA
ATOM     25  H   UNL     1      -7.240  -2.538   8.904  1.00  0.00     0.293 HD
ENDBRANCH   6  24
BRANCH   8  26
ATOM     26  O   UNL     1     -11.858  -2.863   6.800  1.00  0.00    -0.508 OA
ATOM     27  H   UNL     1     -11.993  -2.834   5.796  1.00  0.00     0.293 HD
ENDBRANCH   8  26
TORSDOF 6
ENDMDL
MODEL 3
REMARK VINA RESULT:    -4.474      4.934      7.639
REMARK INTER + INTRA:          -5.625
REMARK INTER:                  -5.219
REMARK INTRA:                  -0.405
REMARK UNBOUND:                -0.105
REMARK SMILES COc1cc(-c2oc3cc(O)cc(O)c3c(=O)c2O)ccc1O
REMARK SMILES IDX 6 1 18 2 16 3 17 4 15 5 13 6 12 7 10 8 9 9 8 10 7 11 5 12
REMARK SMILES IDX 3 13 22 14 4 15 21 16 20 17 2 18 1 19 23 20 19 22 14 24
REMARK SMILES IDX 11 26
REMARK H PARENT 23 21 19 23 14 25 11 27
REMARK Flexibility Score: inf
ROOT
ATOM      1  C   UNL     1       2.753  -2.675  -8.312  1.00  0.00     0.180 A 
ATOM      2  C   UNL     1       2.760  -4.056  -8.034  1.00  0.00     0.208 A 
ATOM      3  C   UNL     1       1.559  -4.775  -8.139  1.00  0.00     0.238 A 
ATOM      4  O   UNL     1       1.551  -6.010  -7.882  1.00  0.00    -0.285 OA
ATOM      5  C   UNL     1       0.381  -4.110  -8.537  1.00  0.00     0.111 A 
ATOM      6  C   UNL     1      -0.869  -4.762  -8.671  1.00  0.00     0.134 A 
ATOM      7  C   UNL     1      -1.994  -4.032  -9.081  1.00  0.00     0.093 A 
ATOM      8  C   UNL     1      -1.895  -2.667  -9.359  1.00  0.00     0.123 A 
ATOM      9  C   UNL     1      -0.663  -2.017  -9.230  1.00  0.00     0.094 A 
ATOM     10  C   UNL     1       0.469  -2.727  -8.820  1.00  0.00     0.146 A 
ATOM     11  O   UNL     1       1.626  -2.085  -8.699  1.00  0.00    -0.452 OA
ENDROOT
BRANCH   1  12
ATOM     12  C   UNL     1       3.975  -1.846  -8.205  1.00  0.00     0.025 A 
ATOM     13  C   UNL     1       5.487  -0.418  -6.919  1.00  0.00     0.161 A 
ATOM     14  C   UNL     1       6.276  -0.235  -8.063  1.00  0.00     0.157 A 
ATOM     15  C   UNL     1       4.331  -1.220  -6.998  1.00  0.00     0.062 A 
ATOM     16  C   UNL     1       5.911  -0.841  -9.272  1.00  0.00     0.051 A 
ATOM     17  C   UNL     1       4.764  -1.634  -9.345  1.00  0.00     0.016 A 
BRANCH  13  18
ATOM     18  O   UNL     1       5.880   0.215  -5.729  1.00  0.00    -0.493 OA
ATOM     19  C   UNL     1       6.139  -0.463  -4.504  1.00  0.00     0.278 C 
ENDBRANCH  13  18
BRANCH  14  20
ATOM     20  O   UNL     1       7.423   0.555  -7.992  1.00  0.00    -0.504 OA
ATOM     21  H   UNL     1       8.331   0.196  -8.261  1.00  0.00     0.293 HD
ENDBRANCH  14  20
ENDBRANCH   1  12
BRANCH   2  22
ATOM     22  O   UNL     1       3.950  -4.701  -7.690  1.00  0.00    -0.502 OA
ATOM     23  H   UNL     1       4.833  -4.487  -8.138  1.00  0.00     0.293 HD
ENDBRANCH   2  22
BRANCH   6  24
ATOM     24  O   UNL     1      -1.001  -6.125  -8.400  1.00  0.00    -0.507 OA
ATOM     25  H   UNL     1      -0.280  -6.644  -7.915  1.00  0.00     0.293 HD
ENDBRANCH   6  24
BRANCH   8  26
ATOM     26  O   UNL     1      -3.028  -1.965  -9.766  1.00  0.00    -0.508 OA
ATOM     27  H   UNL     1      -3.102  -1.573 -10.698  1.00  0.00     0.293 HD
ENDBRANCH   8  26
TORSDOF 6
ENDMDL
MODEL 4
REMARK VINA RESULT:    -4.407      3.965      5.790
REMARK INTER + INTRA:          -5.542
REMARK INTER:                  -5.302
REMARK INTRA:                  -0.240
REMARK UNBOUND:                -0.105
REMARK SMILES COc1cc(-c2oc3cc(O)cc(O)c3c(=O)c2O)ccc1O
REMARK SMILES IDX 6 1 18 2 16 3 17 4 15 5 13 6 12 7 10 8 9 9 8 10 7 11 5 12
REMARK SMILES IDX 3 13 22 14 4 15 21 16 20 17 2 18 1 19 23 20 19 22 14 24
REMARK SMILES IDX 11 26
REMARK H PARENT 23 21 19 23 14 25 11 27
REMARK Flexibility Score: inf
ROOT
ATOM      1  C   UNL     1       3.299  -1.391  -7.947  1.00  0.00     0.180 A 
ATOM      2  C   UNL     1       3.804  -0.417  -8.830  1.00  0.00     0.208 A 
ATOM      3  C   UNL     1       4.911   0.348  -8.434  1.00  0.00     0.238 A 
ATOM      4  O   UNL     1       5.366   1.231  -9.213  1.00  0.00    -0.285 OA
ATOM      5  C   UNL     1       5.506   0.117  -7.177  1.00  0.00     0.111 A 
ATOM      6  C   UNL     1       6.627   0.841  -6.704  1.00  0.00     0.134 A 
ATOM      7  C   UNL     1       7.167   0.544  -5.444  1.00  0.00     0.093 A 
ATOM      8  C   UNL     1       6.610  -0.460  -4.650  1.00  0.00     0.123 A 
ATOM      9  C   UNL     1       5.503  -1.180  -5.111  1.00  0.00     0.094 A 
ATOM     10  C   UNL     1       4.949  -0.898  -6.363  1.00  0.00     0.146 A 
ATOM     11  O   UNL     1       3.895  -1.592  -6.775  1.00  0.00    -0.452 OA
ENDROOT
BRANCH   1  12
ATOM     12  C   UNL     1       2.123  -2.224  -8.285  1.00  0.00     0.025 A 
ATOM     13  C   UNL     1      -0.281  -2.487  -8.649  1.00  0.00     0.161 A 
ATOM     14  C   UNL     1      -0.090  -3.857  -8.876  1.00  0.00     0.157 A 
ATOM     15  C   UNL     1       0.830  -1.675  -8.346  1.00  0.00     0.062 A 
ATOM     16  C   UNL     1       1.195  -4.409  -8.795  1.00  0.00     0.051 A 
ATOM     17  C   UNL     1       2.292  -3.601  -8.493  1.00  0.00     0.016 A 
BRANCH  13  18
ATOM     18  O   UNL     1      -1.585  -1.973  -8.729  1.00  0.00    -0.493 OA
ATOM     19  C   UNL     1      -2.234  -1.608  -9.943  1.00  0.00     0.278 C 
ENDBRANCH  13  18
BRANCH  14  20
ATOM     20  O   UNL     1      -1.184  -4.665  -9.180  1.00  0.00    -0.504 OA
ATOM     21  H   UNL     1      -1.576  -5.305  -8.499  1.00  0.00     0.293 HD
ENDBRANCH  14  20
ENDBRANCH   1  12
BRANCH   2  22
ATOM     22  O   UNL     1       3.228  -0.240 -10.091  1.00  0.00    -0.502 OA
ATOM     23  H   UNL     1       3.279   0.638 -10.593  1.00  0.00     0.293 HD
ENDBRANCH   2  22
BRANCH   6  24
ATOM     24  O   UNL     1       7.206   1.851  -7.474  1.00  0.00    -0.507 OA
ATOM     25  H   UNL     1       7.973   1.665  -8.108  1.00  0.00     0.293 HD
ENDBRANCH   6  24
BRANCH   8  26
ATOM     26  O   UNL     1       7.166  -0.736  -3.403  1.00  0.00    -0.508 OA
ATOM     27  H   UNL     1       7.815  -1.505  -3.270  1.00  0.00     0.293 HD
ENDBRANCH   8  26
TORSDOF 6
ENDMDL
MODEL 5
REMARK VINA RESULT:    -4.364      1.949      3.177
REMARK INTER + INTRA:          -5.490
REMARK INTER:                  -5.123
REMARK INTRA:                  -0.366
REMARK UNBOUND:                -0.105
REMARK SMILES COc1cc(-c2oc3cc(O)cc(O)c3c(=O)c2O)ccc1O
REMARK SMILES IDX 6 1 18 2 16 3 17 4 15 5 13 6 12 7 10 8 9 9 8 10 7 11 5 12
REMARK SMILES IDX 3 13 22 14 4 15 21 16 20 17 2 18 1 19 23 20 19 22 14 24
REMARK SMILES IDX 11 26
REMARK H PARENT 23 21 19 23 14 25 11 27
REMARK Flexibility Score: inf
ROOT
ATOM      1  C   UNL     1       4.034   1.042  -8.754  1.00  0.00     0.180 A 
ATOM      2  C   UNL     1       2.839   1.662  -9.170  1.00  0.00     0.208 A 
ATOM      3  C   UNL     1       2.770   3.063  -9.179  1.00  0.00     0.238 A 
ATOM      4  O   UNL     1       1.702   3.630  -9.540  1.00  0.00    -0.285 OA
ATOM      5  C   UNL     1       3.896   3.820  -8.793  1.00  0.00     0.111 A 
ATOM      6  C   UNL     1       3.910   5.236  -8.778  1.00  0.00     0.134 A 
ATOM      7  C   UNL     1       5.073   5.916  -8.389  1.00  0.00     0.093 A 
ATOM      8  C   UNL     1       6.220   5.210  -8.017  1.00  0.00     0.123 A 
ATOM      9  C   UNL     1       6.213   3.812  -8.030  1.00  0.00     0.094 A 
ATOM     10  C   UNL     1       5.062   3.116  -8.412  1.00  0.00     0.146 A 
ATOM     11  O   UNL     1       5.080   1.788  -8.411  1.00  0.00    -0.452 OA
ENDROOT
BRANCH   1  12
ATOM     12  C   UNL     1       4.177  -0.430  -8.699  1.00  0.00     0.025 A 
ATOM     13  C   UNL     1       4.205  -2.534  -7.451  1.00  0.00     0.161 A 
ATOM     14  C   UNL     1       4.512  -3.222  -8.633  1.00  0.00     0.157 A 
ATOM     15  C   UNL     1       4.045  -1.134  -7.489  1.00  0.00     0.062 A 
ATOM     16  C   UNL     1       4.666  -2.520  -9.835  1.00  0.00     0.051 A 
ATOM     17  C   UNL     1       4.507  -1.133  -9.867  1.00  0.00     0.016 A 
BRANCH  13  18
ATOM     18  O   UNL     1       4.069  -3.272  -6.265  1.00  0.00    -0.493 OA
ATOM     19  C   UNL     1       5.124  -3.505  -5.336  1.00  0.00     0.278 C 
ENDBRANCH  13  18
BRANCH  14  20
ATOM     20  O   UNL     1       4.668  -4.607  -8.604  1.00  0.00    -0.504 OA
ATOM     21  H   UNL     1       4.221  -5.177  -7.895  1.00  0.00     0.293 HD
ENDBRANCH  14  20
ENDBRANCH   1  12
BRANCH   2  22
ATOM     22  O   UNL     1       1.755   0.891  -9.596  1.00  0.00    -0.502 OA
ATOM     23  H   UNL     1       1.236   1.101 -10.440  1.00  0.00     0.293 HD
ENDBRANCH   2  22
BRANCH   6  24
ATOM     24  O   UNL     1       2.780   5.969  -9.145  1.00  0.00    -0.507 OA
ATOM     25  H   UNL     1       2.790   6.605  -9.933  1.00  0.00     0.293 HD
ENDBRANCH   6  24
BRANCH   8  26
ATOM     26  O   UNL     1       7.363   5.911  -7.637  1.00  0.00    -0.508 OA
ATOM     27  H   UNL     1       7.661   6.745  -8.129  1.00  0.00     0.293 HD
ENDBRANCH   8  26
TORSDOF 6
ENDMDL
MODEL 6
REMARK VINA RESULT:    -4.329     14.179     17.222
REMARK INTER + INTRA:          -5.446
REMARK INTER:                  -5.873
REMARK INTRA:                   0.427
REMARK UNBOUND:                -0.105
REMARK SMILES COc1cc(-c2oc3cc(O)cc(O)c3c(=O)c2O)ccc1O
REMARK SMILES IDX 6 1 18 2 16 3 17 4 15 5 13 6 12 7 10 8 9 9 8 10 7 11 5 12
REMARK SMILES IDX 3 13 22 14 4 15 21 16 20 17 2 18 1 19 23 20 19 22 14 24
REMARK SMILES IDX 11 26
REMARK H PARENT 23 21 19 23 14 25 11 27
REMARK Flexibility Score: inf
ROOT
ATOM      1  C   UNL     1     -11.792   6.665  -4.852  1.00  0.00     0.180 A 
ATOM      2  C   UNL     1     -11.924   7.317  -3.611  1.00  0.00     0.208 A 
ATOM      3  C   UNL     1     -11.994   6.543  -2.443  1.00  0.00     0.238 A 
ATOM      4  O   UNL     1     -12.123   7.116  -1.326  1.00  0.00    -0.285 OA
ATOM      5  C   UNL     1     -11.912   5.138  -2.531  1.00  0.00     0.111 A 
ATOM      6  C   UNL     1     -11.969   4.286  -1.401  1.00  0.00     0.134 A 
ATOM      7  C   UNL     1     -11.871   2.897  -1.571  1.00  0.00     0.093 A 
ATOM      8  C   UNL     1     -11.715   2.345  -2.845  1.00  0.00     0.123 A 
ATOM      9  C   UNL     1     -11.657   3.181  -3.964  1.00  0.00     0.094 A 
ATOM     10  C   UNL     1     -11.755   4.568  -3.816  1.00  0.00     0.146 A 
ATOM     11  O   UNL     1     -11.702   5.339  -4.896  1.00  0.00    -0.452 OA
ENDROOT
BRANCH   1  12
ATOM     12  C   UNL     1     -11.731   7.412  -6.129  1.00  0.00     0.025 A 
ATOM     13  C   UNL     1     -11.164   7.551  -8.504  1.00  0.00     0.161 A 
ATOM     14  C   UNL     1     -11.583   8.888  -8.519  1.00  0.00     0.157 A 
ATOM     15  C   UNL     1     -11.233   6.818  -7.302  1.00  0.00     0.062 A 
ATOM     16  C   UNL     1     -12.059   9.488  -7.346  1.00  0.00     0.051 A 
ATOM     17  C   UNL     1     -12.125   8.758  -6.158  1.00  0.00     0.016 A 
BRANCH  13  18
ATOM     18  O   UNL     1     -10.683   6.988  -9.697  1.00  0.00    -0.493 OA
ATOM     19  C   UNL     1      -9.320   7.016 -10.110  1.00  0.00     0.278 C 
ENDBRANCH  13  18
BRANCH  14  20
ATOM     20  O   UNL     1     -11.520   9.618  -9.706  1.00  0.00    -0.504 OA
ATOM     21  H   UNL     1     -10.872   9.373 -10.445  1.00  0.00     0.293 HD
ENDBRANCH  14  20
ENDBRANCH   1  12
BRANCH   2  22
ATOM     22  O   UNL     1     -11.954   8.713  -3.546  1.00  0.00    -0.502 OA
ATOM     23  H   UNL     1     -12.731   9.221  -3.141  1.00  0.00     0.293 HD
ENDBRANCH   2  22
BRANCH   6  24
ATOM     24  O   UNL     1     -12.125   4.807  -0.116  1.00  0.00    -0.507 OA
ATOM     25  H   UNL     1     -12.687   4.340   0.584  1.00  0.00     0.293 HD
ENDBRANCH   6  24
BRANCH   8  26
ATOM     26  O   UNL     1     -11.618   0.963  -2.986  1.00  0.00    -0.508 OA
ATOM     27  H   UNL     1     -10.891   0.537  -3.549  1.00  0.00     0.293 HD
ENDBRANCH   8  26
TORSDOF 6
ENDMDL
MODEL 7
REMARK VINA RESULT:    -4.291      6.069      8.194
REMARK INTER + INTRA:          -5.399
REMARK INTER:                  -5.515
REMARK INTRA:                   0.116
REMARK UNBOUND:                -0.105
REMARK SMILES COc1cc(-c2oc3cc(O)cc(O)c3c(=O)c2O)ccc1O
REMARK SMILES IDX 6 1 18 2 16 3 17 4 15 5 13 6 12 7 10 8 9 9 8 10 7 11 5 12
REMARK SMILES IDX 3 13 22 14 4 15 21 16 20 17 2 18 1 19 23 20 19 22 14 24
REMARK SMILES IDX 11 26
REMARK H PARENT 23 21 19 23 14 25 11 27
REMARK Flexibility Score: inf
ROOT
ATOM      1  C   UNL     1       3.250  -4.004  -7.439  1.00  0.00     0.180 A 
ATOM      2  C   UNL     1       4.088  -3.035  -8.024  1.00  0.00     0.208 A 
ATOM      3  C   UNL     1       5.280  -2.687  -7.372  1.00  0.00     0.238 A 
ATOM      4  O   UNL     1       6.034  -1.813  -7.882  1.00  0.00    -0.285 OA
ATOM      5  C   UNL     1       5.625  -3.323  -6.162  1.00  0.00     0.111 A 
ATOM      6  C   UNL     1       6.811  -3.033  -5.444  1.00  0.00     0.134 A 
ATOM      7  C   UNL     1       7.087  -3.716  -4.251  1.00  0.00     0.093 A 
ATOM      8  C   UNL     1       6.203  -4.682  -3.763  1.00  0.00     0.123 A 
ATOM      9  C   UNL     1       5.031  -4.974  -4.467  1.00  0.00     0.094 A 
ATOM     10  C   UNL     1       4.737  -4.302  -5.657  1.00  0.00     0.146 A 
ATOM     11  O   UNL     1       3.614  -4.594  -6.304  1.00  0.00    -0.452 OA
ENDROOT
BRANCH   1  12
ATOM     12  C   UNL     1       1.967  -4.410  -8.056  1.00  0.00     0.025 A 
ATOM     13  C   UNL     1      -0.059  -3.889  -9.324  1.00  0.00     0.161 A 
ATOM     14  C   UNL     1      -0.491  -5.213  -9.164  1.00  0.00     0.157 A 
ATOM     15  C   UNL     1       1.170  -3.490  -8.761  1.00  0.00     0.062 A 
ATOM     16  C   UNL     1       0.292  -6.125  -8.444  1.00  0.00     0.051 A 
ATOM     17  C   UNL     1       1.507  -5.725  -7.887  1.00  0.00     0.016 A 
BRANCH  13  18
ATOM     18  O   UNL     1      -0.876  -3.002 -10.043  1.00  0.00    -0.493 OA
ATOM     19  C   UNL     1      -1.732  -2.033  -9.448  1.00  0.00     0.278 C 
ENDBRANCH  13  18
BRANCH  14  20
ATOM     20  O   UNL     1      -1.703  -5.615  -9.722  1.00  0.00    -0.504 OA
ATOM     21  H   UNL     1      -2.111  -6.518  -9.510  1.00  0.00     0.293 HD
ENDBRANCH  14  20
ENDBRANCH   1  12
BRANCH   2  22
ATOM     22  O   UNL     1       3.748  -2.456  -9.250  1.00  0.00    -0.502 OA
ATOM     23  H   UNL     1       3.204  -1.604  -9.315  1.00  0.00     0.293 HD
ENDBRANCH   2  22
BRANCH   6  24
ATOM     24  O   UNL     1       7.713  -2.073  -5.906  1.00  0.00    -0.507 OA
ATOM     25  H   UNL     1       8.694  -2.100  -5.656  1.00  0.00     0.293 HD
ENDBRANCH   6  24
BRANCH   8  26
ATOM     26  O   UNL     1       6.502  -5.347  -2.576  1.00  0.00    -0.508 OA
ATOM     27  H   UNL     1       7.429  -5.309  -2.165  1.00  0.00     0.293 HD
ENDBRANCH   8  26
TORSDOF 6
ENDMDL
MODEL 8
REMARK VINA RESULT:    -4.278      3.344      8.496
REMARK INTER + INTRA:          -5.382
REMARK INTER:                  -4.996
REMARK INTRA:                  -0.387
REMARK UNBOUND:                -0.105
REMARK SMILES COc1cc(-c2oc3cc(O)cc(O)c3c(=O)c2O)ccc1O
REMARK SMILES IDX 6 1 18 2 16 3 17 4 15 5 13 6 12 7 10 8 9 9 8 10 7 11 5 12
REMARK SMILES IDX 3 13 22 14 4 15 21 16 20 17 2 18 1 19 23 20 19 22 14 24
REMARK SMILES IDX 11 26
REMARK H PARENT 23 21 19 23 14 25 11 27
REMARK Flexibility Score: inf
ROOT
ATOM      1  C   UNL     1       6.536  -0.150  -6.308  1.00  0.00     0.180 A 
ATOM      2  C   UNL     1       7.162  -0.512  -5.099  1.00  0.00     0.208 A 
ATOM      3  C   UNL     1       6.823  -1.734  -4.500  1.00  0.00     0.238 A 
ATOM      4  O   UNL     1       7.370  -2.064  -3.411  1.00  0.00    -0.285 OA
ATOM      5  C   UNL     1       5.885  -2.581  -5.124  1.00  0.00     0.111 A 
ATOM      6  C   UNL     1       5.493  -3.832  -4.589  1.00  0.00     0.134 A 
ATOM      7  C   UNL     1       4.559  -4.622  -5.276  1.00  0.00     0.093 A 
ATOM      8  C   UNL     1       4.013  -4.187  -6.486  1.00  0.00     0.123 A 
ATOM      9  C   UNL     1       4.396  -2.953  -7.021  1.00  0.00     0.094 A 
ATOM     10  C   UNL     1       5.324  -2.151  -6.349  1.00  0.00     0.146 A 
ATOM     11  O   UNL     1       5.667  -0.981  -6.876  1.00  0.00    -0.452 OA
ENDROOT
BRANCH   1  12
ATOM     12  C   UNL     1       6.826   1.132  -6.990  1.00  0.00     0.025 A 
ATOM     13  C   UNL     1       6.341   3.492  -7.409  1.00  0.00     0.161 A 
ATOM     14  C   UNL     1       7.378   3.531  -8.351  1.00  0.00     0.157 A 
ATOM     15  C   UNL     1       6.064   2.286  -6.735  1.00  0.00     0.062 A 
ATOM     16  C   UNL     1       8.124   2.376  -8.622  1.00  0.00     0.051 A 
ATOM     17  C   UNL     1       7.845   1.183  -7.953  1.00  0.00     0.016 A 
BRANCH  13  18
ATOM     18  O   UNL     1       5.609   4.666  -7.173  1.00  0.00    -0.493 OA
ATOM     19  C   UNL     1       4.408   5.018  -7.853  1.00  0.00     0.278 C 
ENDBRANCH  13  18
BRANCH  14  20
ATOM     20  O   UNL     1       7.659   4.722  -9.019  1.00  0.00    -0.504 OA
ATOM     21  H   UNL     1       8.172   4.732  -9.893  1.00  0.00     0.293 HD
ENDBRANCH  14  20
ENDBRANCH   1  12
BRANCH   2  22
ATOM     22  O   UNL     1       8.125   0.323  -4.525  1.00  0.00    -0.502 OA
ATOM     23  H   UNL     1       9.099   0.297  -4.801  1.00  0.00     0.293 HD
ENDBRANCH   2  22
BRANCH   6  24
ATOM     24  O   UNL     1       6.021  -4.294  -3.382  1.00  0.00    -0.507 OA
ATOM     25  H   UNL     1       6.309  -5.257  -3.261  1.00  0.00     0.293 HD
ENDBRANCH   6  24
BRANCH   8  26
ATOM     26  O   UNL     1       3.088  -4.992  -7.149  1.00  0.00    -0.508 OA
ATOM     27  H   UNL     1       2.275  -5.366  -6.674  1.00  0.00     0.293 HD
ENDBRANCH   8  26
TORSDOF 6
ENDMDL
MODEL 9
REMARK VINA RESULT:    -4.253      1.541      1.993
REMARK INTER + INTRA:          -5.352
REMARK INTER:                  -5.332
REMARK INTRA:                  -0.019
REMARK UNBOUND:                -0.105
REMARK SMILES COc1cc(-c2oc3cc(O)cc(O)c3c(=O)c2O)ccc1O
REMARK SMILES IDX 6 1 18 2 16 3 17 4 15 5 13 6 12 7 10 8 9 9 8 10 7 11 5 12
REMARK SMILES IDX 3 13 22 14 4 15 21 16 20 17 2 18 1 19 23 20 19 22 14 24
REMARK SMILES IDX 11 26
REMARK H PARENT 23 21 19 23 14 25 11 27
REMARK Flexibility Score: inf
ROOT
ATOM      1  C   UNL     1       3.112   1.456  -9.162  1.00  0.00     0.180 A 
ATOM      2  C   UNL     1       4.425   1.744  -8.741  1.00  0.00     0.208 A 
ATOM      3  C   UNL     1       4.830   3.084  -8.653  1.00  0.00     0.238 A 
ATOM      4  O   UNL     1       6.008   3.354  -8.288  1.00  0.00    -0.285 OA
ATOM      5  C   UNL     1       3.917   4.111  -8.967  1.00  0.00     0.111 A 
ATOM      6  C   UNL     1       4.244   5.487  -8.900  1.00  0.00     0.134 A 
ATOM      7  C   UNL     1       3.275   6.450  -9.220  1.00  0.00     0.093 A 
ATOM      8  C   UNL     1       1.989   6.065  -9.603  1.00  0.00     0.123 A 
ATOM      9  C   UNL     1       1.658   4.708  -9.670  1.00  0.00     0.094 A 
ATOM     10  C   UNL     1       2.611   3.733  -9.358  1.00  0.00     0.146 A 
ATOM     11  O   UNL     1       2.273   2.451  -9.435  1.00  0.00    -0.452 OA
ENDROOT
BRANCH   1  12
ATOM     12  C   UNL     1       2.617   0.067  -9.297  1.00  0.00     0.025 A 
ATOM     13  C   UNL     1       0.974  -1.678  -8.813  1.00  0.00     0.161 A 
ATOM     14  C   UNL     1       1.746  -2.597  -9.537  1.00  0.00     0.157 A 
ATOM     15  C   UNL     1       1.419  -0.346  -8.690  1.00  0.00     0.062 A 
ATOM     16  C   UNL     1       2.951  -2.191 -10.125  1.00  0.00     0.051 A 
ATOM     17  C   UNL     1       3.388  -0.872  -9.999  1.00  0.00     0.016 A 
BRANCH  13  18
ATOM     18  O   UNL     1      -0.222  -2.124  -8.229  1.00  0.00    -0.493 OA
ATOM     19  C   UNL     1      -1.497  -2.067  -8.860  1.00  0.00     0.278 C 
ENDBRANCH  13  18
BRANCH  14  20
ATOM     20  O   UNL     1       1.310  -3.914  -9.665  1.00  0.00    -0.504 OA
ATOM     21  H   UNL     1       0.428  -4.140 -10.110  1.00  0.00     0.293 HD
ENDBRANCH  14  20
ENDBRANCH   1  12
BRANCH   2  22
ATOM     22  O   UNL     1       5.296   0.710  -8.388  1.00  0.00    -0.502 OA
ATOM     23  H   UNL     1       4.971  -0.157  -7.977  1.00  0.00     0.293 HD
ENDBRANCH   2  22
BRANCH   6  24
ATOM     24  O   UNL     1       5.522   5.904  -8.521  1.00  0.00    -0.507 OA
ATOM     25  H   UNL     1       6.281   5.246  -8.395  1.00  0.00     0.293 HD
ENDBRANCH   6  24
BRANCH   8  26
ATOM     26  O   UNL     1       1.044   7.041  -9.914  1.00  0.00    -0.508 OA
ATOM     27  H   UNL     1       0.379   6.914 -10.668  1.00  0.00     0.293 HD
ENDBRANCH   8  26
TORSDOF 6
ENDMDL
