MODEL 1
REMARK VINA RESULT:    -3.954      0.000      0.000
REMARK INTER + INTRA:         -10.145
REMARK INTER:                  -7.653
REMARK INTRA:                  -2.492
REMARK UNBOUND:                -2.492
REMARK SMILES CCCCCCCCCCCCCCCCCC(=O)[O-]
REMARK SMILES IDX 10 1 11 2 12 3 13 4 14 5 15 6 16 7 17 8 18 9 19 10 20 11
REMARK SMILES IDX 9 12 8 13 7 14 6 15 5 16 4 17 3 18 2 19 1 20
REMARK H PARENT
REMARK Flexibility Score: inf
ROOT
ATOM      1  C   UNL     1      10.879 -22.904  41.702  1.00  0.00     0.000 C 
ENDROOT
BRANCH   1   2
ATOM      2  C   UNL     1      11.948 -21.809  41.567  1.00  0.00     0.000 C 
BRANCH   2   3
ATOM      3  C   UNL     1      13.372 -22.379  41.482  1.00  0.00     0.000 C 
BRANCH   3   4
ATOM      4  C   UNL     1      13.503 -23.357  40.308  1.00  0.00     0.000 C 
BRANCH   4   5
ATOM      5  C   UNL     1      14.143 -24.676  40.759  1.00  0.00     0.000 C 
BRANCH   5   6
ATOM      6  C   UNL     1      13.262 -25.872  40.379  1.00  0.00     0.000 C 
BRANCH   6   7
ATOM      7  C   UNL     1      12.520 -25.613  39.060  1.00  0.00     0.006 C 
BRANCH   7   8
ATOM      8  C   UNL     1      12.851 -26.662  37.990  1.00  0.00     0.053 C 
BRANCH   8   9
ATOM      9  C   UNL     1      13.840 -26.143  36.992  1.00  0.00     0.041 C 
ATOM     10  O   UNL     1      15.055 -26.035  37.300  1.00  0.00    -0.550 OA
ATOM     11  O   UNL     1      13.424 -25.812  35.708  1.00  0.00    -0.550 OA
ENDBRANCH   8   9
ENDBRANCH   7   8
ENDBRANCH   6   7
ENDBRANCH   5   6
ENDBRANCH   4   5
ENDBRANCH   3   4
ENDBRANCH   2   3
ENDBRANCH   1   2
BRANCH   1  12
ATOM     12  C   UNL     1       9.803 -22.819  40.605  1.00  0.00     0.000 C 
BRANCH  12  13
ATOM     13  C   UNL     1       9.361 -24.203  40.104  1.00  0.00    -0.000 C 
BRANCH  13  14
ATOM     14  C   UNL     1       9.540 -25.299  41.167  1.00  0.00    -0.000 C 
BRANCH  14  15
ATOM     15  C   UNL     1       8.408 -26.341  41.146  1.00  0.00    -0.000 C 
BRANCH  15  16
ATOM     16  C   UNL     1       8.840 -27.730  41.663  1.00  0.00    -0.000 C 
BRANCH  16  17
ATOM     17  C   UNL     1      10.366 -27.919  41.618  1.00  0.00    -0.000 C 
BRANCH  17  18
ATOM     18  C   UNL     1      10.835 -28.716  40.387  1.00  0.00    -0.000 C 
BRANCH  18  19
ATOM     19  C   UNL     1      12.045 -29.633  40.636  1.00  0.00    -0.003 C 
ATOM     20  C   UNL     1      12.507 -30.366  39.377  1.00  0.00     0.004 C 
ENDBRANCH  18  19
ENDBRANCH  17  18
ENDBRANCH  16  17
ENDBRANCH  15  16
ENDBRANCH  14  15
ENDBRANCH  13  14
ENDBRANCH  12  13
ENDBRANCH   1  12
TORSDOF 16
ENDMDL
MODEL 2
REMARK VINA RESULT:    -3.903      1.773      5.453
REMARK INTER + INTRA:         -10.045
REMARK INTER:                  -7.345
REMARK INTRA:                  -2.700
REMARK UNBOUND:                -2.492
REMARK SMILES CCCCCCCCCCCCCCCCCC(=O)[O-]
REMARK SMILES IDX 10 1 11 2 12 3 13 4 14 5 15 6 16 7 17 8 18 9 19 10 20 11
REMARK SMILES IDX 9 12 8 13 7 14 6 15 5 16 4 17 3 18 2 19 1 20
REMARK H PARENT
REMARK Flexibility Score: inf
ROOT
ATOM      1  C   UNL     1       9.544 -22.714  40.623  1.00  0.00     0.000 C 
ENDROOT
BRANCH   1   2
ATOM      2  C   UNL     1       9.539 -24.042  39.851  1.00  0.00     0.000 C 
BRANCH   2   3
ATOM      3  C   UNL     1       9.261 -25.252  40.756  1.00  0.00     0.000 C 
BRANCH   3   4
ATOM      4  C   UNL     1      10.568 -25.943  41.165  1.00  0.00     0.000 C 
BRANCH   4   5
ATOM      5  C   UNL     1      11.056 -26.893  40.065  1.00  0.00     0.000 C 
BRANCH   5   6
ATOM      6  C   UNL     1      12.556 -26.709  39.804  1.00  0.00     0.000 C 
BRANCH   6   7
ATOM      7  C   UNL     1      12.980 -25.251  40.037  1.00  0.00     0.006 C 
BRANCH   7   8
ATOM      8  C   UNL     1      13.009 -24.439  38.736  1.00  0.00     0.053 C 
BRANCH   8   9
ATOM      9  C   UNL     1      13.995 -24.996  37.755  1.00  0.00     0.041 C 
ATOM     10  O   UNL     1      13.604 -25.432  36.641  1.00  0.00    -0.550 OA
ATOM     11  O   UNL     1      15.351 -25.001  38.059  1.00  0.00    -0.550 OA
ENDBRANCH   8   9
ENDBRANCH   7   8
ENDBRANCH   6   7
ENDBRANCH   5   6
ENDBRANCH   4   5
ENDBRANCH   3   4
ENDBRANCH   2   3
ENDBRANCH   1   2
BRANCH   1  12
ATOM     12  C   UNL     1      10.965 -22.240  40.975  1.00  0.00     0.000 C 
BRANCH  12  13
ATOM     13  C   UNL     1      11.353 -22.568  42.425  1.00  0.00    -0.000 C 
BRANCH  13  14
ATOM     14  C   UNL     1      12.866 -22.444  42.674  1.00  0.00    -0.000 C 
BRANCH  14  15
ATOM     15  C   UNL     1      13.331 -20.984  42.809  1.00  0.00    -0.000 C 
BRANCH  15  16
ATOM     16  C   UNL     1      14.373 -20.568  41.749  1.00  0.00    -0.000 C 
BRANCH  16  17
ATOM     17  C   UNL     1      14.842 -21.759  40.897  1.00  0.00    -0.000 C 
BRANCH  17  18
ATOM     18  C   UNL     1      14.860 -21.448  39.389  1.00  0.00    -0.000 C 
BRANCH  18  19
ATOM     19  C   UNL     1      13.667 -20.614  38.889  1.00  0.00    -0.003 C 
ATOM     20  C   UNL     1      13.827 -20.154  37.441  1.00  0.00     0.004 C 
ENDBRANCH  18  19
ENDBRANCH  17  18
ENDBRANCH  16  17
ENDBRANCH  15  16
ENDBRANCH  14  15
ENDBRANCH  13  14
ENDBRANCH  12  13
ENDBRANCH   1  12
TORSDOF 16
ENDMDL
MODEL 3
REMARK VINA RESULT:    -3.769      1.389      4.729
REMARK INTER + INTRA:          -9.787
REMARK INTER:                  -7.465
REMARK INTRA:                  -2.322
REMARK UNBOUND:                -2.492
REMARK SMILES CCCCCCCCCCCCCCCCCC(=O)[O-]
REMARK SMILES IDX 10 1 11 2 12 3 13 4 14 5 15 6 16 7 17 8 18 9 19 10 20 11
REMARK SMILES IDX 9 12 8 13 7 14 6 15 5 16 4 17 3 18 2 19 1 20
REMARK H PARENT
REMARK Flexibility Score: inf
ROOT
ATOM      1  C   UNL     1      11.829 -29.217  42.594  1.00  0.00     0.000 C 
ENDROOT
BRANCH   1   2
ATOM      2  C   UNL     1      13.345 -29.031  42.754  1.00  0.00     0.000 C 
BRANCH   2   3
ATOM      3  C   UNL     1      14.050 -28.746  41.418  1.00  0.00     0.000 C 
BRANCH   3   4
ATOM      4  C   UNL     1      15.032 -27.576  41.555  1.00  0.00     0.000 C 
BRANCH   4   5
ATOM      5  C   UNL     1      14.891 -26.599  40.380  1.00  0.00     0.000 C 
BRANCH   5   6
ATOM      6  C   UNL     1      13.662 -25.700  40.557  1.00  0.00     0.000 C 
BRANCH   6   7
ATOM      7  C   UNL     1      12.816 -25.668  39.275  1.00  0.00     0.006 C 
BRANCH   7   8
ATOM      8  C   UNL     1      12.969 -26.948  38.444  1.00  0.00     0.053 C 
BRANCH   8   9
ATOM      9  C   UNL     1      12.983 -26.658  36.975  1.00  0.00     0.041 C 
ATOM     10  O   UNL     1      12.229 -27.297  36.195  1.00  0.00    -0.550 OA
ATOM     11  O   UNL     1      13.805 -25.657  36.471  1.00  0.00    -0.550 OA
ENDBRANCH   8   9
ENDBRANCH   7   8
ENDBRANCH   6   7
ENDBRANCH   5   6
ENDBRANCH   4   5
ENDBRANCH   3   4
ENDBRANCH   2   3
ENDBRANCH   1   2
BRANCH   1  12
ATOM     12  C   UNL     1      11.252 -28.398  41.425  1.00  0.00     0.000 C 
BRANCH  12  13
ATOM     13  C   UNL     1       9.931 -27.702  41.790  1.00  0.00    -0.000 C 
BRANCH  13  14
ATOM     14  C   UNL     1      10.013 -26.173  41.653  1.00  0.00    -0.000 C 
BRANCH  14  15
ATOM     15  C   UNL     1       8.897 -25.593  40.767  1.00  0.00    -0.000 C 
BRANCH  15  16
ATOM     16  C   UNL     1       9.369 -24.434  39.862  1.00  0.00    -0.000 C 
BRANCH  16  17
ATOM     17  C   UNL     1       9.612 -23.139  40.654  1.00  0.00    -0.000 C 
BRANCH  17  18
ATOM     18  C   UNL     1      11.054 -22.616  40.520  1.00  0.00    -0.000 C 
BRANCH  18  19
ATOM     19  C   UNL     1      11.576 -21.844  41.745  1.00  0.00    -0.003 C 
ATOM     20  C   UNL     1      13.101 -21.762  41.793  1.00  0.00     0.004 C 
ENDBRANCH  18  19
ENDBRANCH  17  18
ENDBRANCH  16  17
ENDBRANCH  15  16
ENDBRANCH  14  15
ENDBRANCH  13  14
ENDBRANCH  12  13
ENDBRANCH   1  12
TORSDOF 16
ENDMDL
MODEL 4
REMARK VINA RESULT:    -3.754      2.087      3.723
REMARK INTER + INTRA:          -9.757
REMARK INTER:                  -7.481
REMARK INTRA:                  -2.276
REMARK UNBOUND:                -2.492
REMARK SMILES CCCCCCCCCCCCCCCCCC(=O)[O-]
REMARK SMILES IDX 10 1 11 2 12 3 13 4 14 5 15 6 16 7 17 8 18 9 19 10 20 11
REMARK SMILES IDX 9 12 8 13 7 14 6 15 5 16 4 17 3 18 2 19 1 20
REMARK H PARENT
REMARK Flexibility Score: inf
ROOT
ATOM      1  C   UNL     1      10.218 -23.996  39.697  1.00  0.00     0.000 C 
ENDROOT
BRANCH   1   2
ATOM      2  C   UNL     1       9.719 -22.906  40.658  1.00  0.00     0.000 C 
BRANCH   2   3
ATOM      3  C   UNL     1      10.844 -22.321  41.525  1.00  0.00     0.000 C 
BRANCH   3   4
ATOM      4  C   UNL     1      12.151 -23.099  41.327  1.00  0.00     0.000 C 
BRANCH   4   5
ATOM      5  C   UNL     1      13.313 -22.150  41.008  1.00  0.00     0.000 C 
BRANCH   5   6
ATOM      6  C   UNL     1      12.980 -21.255  39.809  1.00  0.00     0.000 C 
BRANCH   6   7
ATOM      7  C   UNL     1      14.258 -20.690  39.171  1.00  0.00     0.006 C 
BRANCH   7   8
ATOM      8  C   UNL     1      14.096 -20.444  37.665  1.00  0.00     0.053 C 
BRANCH   8   9
ATOM      9  C   UNL     1      14.402 -21.673  36.865  1.00  0.00     0.041 C 
ATOM     10  O   UNL     1      13.853 -21.854  35.748  1.00  0.00    -0.550 OA
ATOM     11  O   UNL     1      15.321 -22.600  37.339  1.00  0.00    -0.550 OA
ENDBRANCH   8   9
ENDBRANCH   7   8
ENDBRANCH   6   7
ENDBRANCH   5   6
ENDBRANCH   4   5
ENDBRANCH   3   4
ENDBRANCH   2   3
ENDBRANCH   1   2
BRANCH   1  12
ATOM     12  C   UNL     1       9.231 -25.170  39.570  1.00  0.00     0.000 C 
BRANCH  12  13
ATOM     13  C   UNL     1       8.809 -25.735  40.935  1.00  0.00    -0.000 C 
BRANCH  13  14
ATOM     14  C   UNL     1       9.968 -26.426  41.672  1.00  0.00    -0.000 C 
BRANCH  14  15
ATOM     15  C   UNL     1      10.258 -27.839  41.136  1.00  0.00    -0.000 C 
BRANCH  15  16
ATOM     16  C   UNL     1      11.634 -27.967  40.448  1.00  0.00    -0.000 C 
BRANCH  16  17
ATOM     17  C   UNL     1      12.458 -26.672  40.550  1.00  0.00    -0.000 C 
BRANCH  17  18
ATOM     18  C   UNL     1      13.139 -26.289  39.224  1.00  0.00    -0.000 C 
BRANCH  18  19
ATOM     19  C   UNL     1      14.599 -25.822  39.361  1.00  0.00    -0.003 C 
ATOM     20  C   UNL     1      15.011 -25.573  40.811  1.00  0.00     0.004 C 
ENDBRANCH  18  19
ENDBRANCH  17  18
ENDBRANCH  16  17
ENDBRANCH  15  16
ENDBRANCH  14  15
ENDBRANCH  13  14
ENDBRANCH  12  13
ENDBRANCH   1  12
TORSDOF 16
ENDMDL
MODEL 5
REMARK VINA RESULT:    -3.737      1.460      3.486
REMARK INTER + INTRA:          -9.724
REMARK INTER:                  -7.205
REMARK INTRA:                  -2.519
REMARK UNBOUND:                -2.492
REMARK SMILES CCCCCCCCCCCCCCCCCC(=O)[O-]
REMARK SMILES IDX 10 1 11 2 12 3 13 4 14 5 15 6 16 7 17 8 18 9 19 10 20 11
REMARK SMILES IDX 9 12 8 13 7 14 6 15 5 16 4 17 3 18 2 19 1 20
REMARK H PARENT
REMARK Flexibility Score: inf
ROOT
ATOM      1  C   UNL     1      10.252 -25.338  41.451  1.00  0.00     0.000 C 
ENDROOT
BRANCH   1   2
ATOM      2  C   UNL     1       9.339 -24.485  40.557  1.00  0.00     0.000 C 
BRANCH   2   3
ATOM      3  C   UNL     1       9.702 -22.992  40.594  1.00  0.00     0.000 C 
BRANCH   3   4
ATOM      4  C   UNL     1      10.752 -22.709  41.676  1.00  0.00     0.000 C 
BRANCH   4   5
ATOM      5  C   UNL     1      11.892 -21.846  41.123  1.00  0.00     0.000 C 
BRANCH   5   6
ATOM      6  C   UNL     1      12.411 -22.405  39.793  1.00  0.00     0.000 C 
BRANCH   6   7
ATOM      7  C   UNL     1      13.321 -23.621  40.024  1.00  0.00     0.006 C 
BRANCH   7   8
ATOM      8  C   UNL     1      13.041 -24.754  39.028  1.00  0.00     0.053 C 
BRANCH   8   9
ATOM      9  C   UNL     1      13.953 -24.688  37.842  1.00  0.00     0.041 C 
ATOM     10  O   UNL     1      13.627 -25.243  36.760  1.00  0.00    -0.550 OA
ATOM     11  O   UNL     1      15.148 -23.983  37.921  1.00  0.00    -0.550 OA
ENDBRANCH   8   9
ENDBRANCH   7   8
ENDBRANCH   6   7
ENDBRANCH   5   6
ENDBRANCH   4   5
ENDBRANCH   3   4
ENDBRANCH   2   3
ENDBRANCH   1   2
BRANCH   1  12
ATOM     12  C   UNL     1      10.365 -26.794  40.965  1.00  0.00     0.000 C 
BRANCH  12  13
ATOM     13  C   UNL     1      10.118 -26.931  39.454  1.00  0.00    -0.000 C 
BRANCH  13  14
ATOM     14  C   UNL     1      10.731 -28.214  38.871  1.00  0.00    -0.000 C 
BRANCH  14  15
ATOM     15  C   UNL     1      11.276 -28.021  37.445  1.00  0.00    -0.000 C 
BRANCH  15  16
ATOM     16  C   UNL     1      12.671 -28.644  37.228  1.00  0.00    -0.000 C 
BRANCH  16  17
ATOM     17  C   UNL     1      13.600 -28.424  38.435  1.00  0.00    -0.000 C 
BRANCH  17  18
ATOM     18  C   UNL     1      14.250 -29.726  38.936  1.00  0.00    -0.000 C 
BRANCH  18  19
ATOM     19  C   UNL     1      13.502 -30.417  40.090  1.00  0.00    -0.003 C 
ATOM     20  C   UNL     1      13.287 -29.500  41.294  1.00  0.00     0.004 C 
ENDBRANCH  18  19
ENDBRANCH  17  18
ENDBRANCH  16  17
ENDBRANCH  15  16
ENDBRANCH  14  15
ENDBRANCH  13  14
ENDBRANCH  12  13
ENDBRANCH   1  12
TORSDOF 16
ENDMDL
MODEL 6
REMARK VINA RESULT:    -3.720      3.193      6.228
REMARK INTER + INTRA:          -9.691
REMARK INTER:                  -7.106
REMARK INTRA:                  -2.585
REMARK UNBOUND:                -2.492
REMARK SMILES CCCCCCCCCCCCCCCCCC(=O)[O-]
REMARK SMILES IDX 10 1 11 2 12 3 13 4 14 5 15 6 16 7 17 8 18 9 19 10 20 11
REMARK SMILES IDX 9 12 8 13 7 14 6 15 5 16 4 17 3 18 2 19 1 20
REMARK H PARENT
REMARK Flexibility Score: inf
ROOT
ATOM      1  C   UNL     1      15.358 -27.245  40.158  1.00  0.00     0.000 C 
ENDROOT
BRANCH   1   2
ATOM      2  C   UNL     1      15.298 -27.854  38.748  1.00  0.00     0.000 C 
BRANCH   2   3
ATOM      3  C   UNL     1      14.758 -29.292  38.748  1.00  0.00     0.000 C 
BRANCH   3   4
ATOM      4  C   UNL     1      13.366 -29.356  38.108  1.00  0.00     0.000 C 
BRANCH   4   5
ATOM      5  C   UNL     1      12.407 -30.198  38.959  1.00  0.00     0.000 C 
BRANCH   5   6
ATOM      6  C   UNL     1      12.958 -30.395  40.376  1.00  0.00     0.000 C 
BRANCH   6   7
ATOM      7  C   UNL     1      12.074 -29.686  41.413  1.00  0.00     0.006 C 
BRANCH   7   8
ATOM      8  C   UNL     1      12.901 -28.970  42.490  1.00  0.00     0.053 C 
BRANCH   8   9
ATOM      9  C   UNL     1      12.969 -29.765  43.758  1.00  0.00     0.041 C 
ATOM     10  O   UNL     1      14.041 -29.820  44.414  1.00  0.00    -0.550 OA
ATOM     11  O   UNL     1      11.837 -30.416  44.232  1.00  0.00    -0.550 OA
ENDBRANCH   8   9
ENDBRANCH   7   8
ENDBRANCH   6   7
ENDBRANCH   5   6
ENDBRANCH   4   5
ENDBRANCH   3   4
ENDBRANCH   2   3
ENDBRANCH   1   2
BRANCH   1  12
ATOM     12  C   UNL     1      14.226 -26.235  40.415  1.00  0.00     0.000 C 
BRANCH  12  13
ATOM     13  C   UNL     1      13.516 -25.804  39.122  1.00  0.00    -0.000 C 
BRANCH  13  14
ATOM     14  C   UNL     1      11.989 -25.966  39.206  1.00  0.00    -0.000 C 
BRANCH  14  15
ATOM     15  C   UNL     1      11.480 -26.089  40.652  1.00  0.00    -0.000 C 
BRANCH  15  16
ATOM     16  C   UNL     1      10.030 -25.594  40.839  1.00  0.00    -0.000 C 
BRANCH  16  17
ATOM     17  C   UNL     1       9.712 -24.378  39.954  1.00  0.00    -0.000 C 
BRANCH  17  18
ATOM     18  C   UNL     1       9.603 -23.066  40.753  1.00  0.00    -0.000 C 
BRANCH  18  19
ATOM     19  C   UNL     1      10.938 -22.332  40.971  1.00  0.00    -0.003 C 
ATOM     20  C   UNL     1      11.521 -22.557  42.365  1.00  0.00     0.004 C 
ENDBRANCH  18  19
ENDBRANCH  17  18
ENDBRANCH  16  17
ENDBRANCH  15  16
ENDBRANCH  14  15
ENDBRANCH  13  14
ENDBRANCH  12  13
ENDBRANCH   1  12
TORSDOF 16
ENDMDL
MODEL 7
REMARK VINA RESULT:    -3.702      1.180      4.890
REMARK INTER + INTRA:          -9.657
REMARK INTER:                  -7.263
REMARK INTRA:                  -2.394
REMARK UNBOUND:                -2.492
REMARK SMILES CCCCCCCCCCCCCCCCCC(=O)[O-]
REMARK SMILES IDX 10 1 11 2 12 3 13 4 14 5 15 6 16 7 17 8 18 9 19 10 20 11
REMARK SMILES IDX 9 12 8 13 7 14 6 15 5 16 4 17 3 18 2 19 1 20
REMARK H PARENT
REMARK Flexibility Score: inf
ROOT
ATOM      1  C   UNL     1       8.041 -27.725  41.246  1.00  0.00     0.000 C 
ENDROOT
BRANCH   1   2
ATOM      2  C   UNL     1       9.115 -28.303  42.180  1.00  0.00     0.000 C 
BRANCH   2   3
ATOM      3  C   UNL     1       9.871 -29.485  41.552  1.00  0.00     0.000 C 
BRANCH   3   4
ATOM      4  C   UNL     1      10.654 -29.039  40.312  1.00  0.00     0.000 C 
BRANCH   4   5
ATOM      5  C   UNL     1      11.753 -28.036  40.686  1.00  0.00     0.000 C 
BRANCH   5   6
ATOM      6  C   UNL     1      12.176 -27.204  39.470  1.00  0.00     0.000 C 
BRANCH   6   7
ATOM      7  C   UNL     1      13.151 -26.090  39.878  1.00  0.00     0.006 C 
BRANCH   7   8
ATOM      8  C   UNL     1      13.279 -25.006  38.800  1.00  0.00     0.053 C 
BRANCH   8   9
ATOM      9  C   UNL     1      14.141 -25.454  37.660  1.00  0.00     0.041 C 
ATOM     10  O   UNL     1      15.362 -25.697  37.846  1.00  0.00    -0.550 OA
ATOM     11  O   UNL     1      13.587 -25.639  36.399  1.00  0.00    -0.550 OA
ENDBRANCH   8   9
ENDBRANCH   7   8
ENDBRANCH   6   7
ENDBRANCH   5   6
ENDBRANCH   4   5
ENDBRANCH   3   4
ENDBRANCH   2   3
ENDBRANCH   1   2
BRANCH   1  12
ATOM     12  C   UNL     1       8.009 -26.186  41.262  1.00  0.00     0.000 C 
BRANCH  12  13
ATOM     13  C   UNL     1       9.006 -25.566  40.272  1.00  0.00    -0.000 C 
BRANCH  13  14
ATOM     14  C   UNL     1       9.947 -24.551  40.941  1.00  0.00    -0.000 C 
BRANCH  14  15
ATOM     15  C   UNL     1      10.051 -23.229  40.162  1.00  0.00    -0.000 C 
BRANCH  15  16
ATOM     16  C   UNL     1      11.210 -22.324  40.633  1.00  0.00    -0.000 C 
BRANCH  16  17
ATOM     17  C   UNL     1      11.361 -22.323  42.164  1.00  0.00    -0.000 C 
BRANCH  17  18
ATOM     18  C   UNL     1      12.827 -22.428  42.622  1.00  0.00    -0.000 C 
BRANCH  18  19
ATOM     19  C   UNL     1      13.864 -22.335  41.489  1.00  0.00    -0.003 C 
ATOM     20  C   UNL     1      14.974 -23.378  41.611  1.00  0.00     0.004 C 
ENDBRANCH  18  19
ENDBRANCH  17  18
ENDBRANCH  16  17
ENDBRANCH  15  16
ENDBRANCH  14  15
ENDBRANCH  13  14
ENDBRANCH  12  13
ENDBRANCH   1  12
TORSDOF 16
ENDMDL
MODEL 8
REMARK VINA RESULT:    -3.682      2.633      4.355
REMARK INTER + INTRA:          -9.618
REMARK INTER:                  -6.886
REMARK INTRA:                  -2.733
REMARK UNBOUND:                -2.492
REMARK SMILES CCCCCCCCCCCCCCCCCC(=O)[O-]
REMARK SMILES IDX 10 1 11 2 12 3 13 4 14 5 15 6 16 7 17 8 18 9 19 10 20 11
REMARK SMILES IDX 9 12 8 13 7 14 6 15 5 16 4 17 3 18 2 19 1 20
REMARK H PARENT
REMARK Flexibility Score: inf
ROOT
ATOM      1  C   UNL     1      11.210 -23.723  41.187  1.00  0.00     0.000 C 
ENDROOT
BRANCH   1   2
ATOM      2  C   UNL     1      11.078 -22.264  41.650  1.00  0.00     0.000 C 
BRANCH   2   3
ATOM      3  C   UNL     1      12.387 -21.707  42.230  1.00  0.00     0.000 C 
BRANCH   3   4
ATOM      4  C   UNL     1      13.134 -20.866  41.188  1.00  0.00     0.000 C 
BRANCH   4   5
ATOM      5  C   UNL     1      14.533 -21.436  40.922  1.00  0.00     0.000 C 
BRANCH   5   6
ATOM      6  C   UNL     1      14.862 -21.409  39.425  1.00  0.00     0.000 C 
BRANCH   6   7
ATOM      7  C   UNL     1      13.632 -21.004  38.598  1.00  0.00     0.006 C 
BRANCH   7   8
ATOM      8  C   UNL     1      14.015 -20.258  37.313  1.00  0.00     0.053 C 
BRANCH   8   9
ATOM      9  C   UNL     1      13.878 -21.129  36.102  1.00  0.00     0.041 C 
ATOM     10  O   UNL     1      14.008 -22.377  36.202  1.00  0.00    -0.550 OA
ATOM     11  O   UNL     1      13.572 -20.565  34.870  1.00  0.00    -0.550 OA
ENDBRANCH   8   9
ENDBRANCH   7   8
ENDBRANCH   6   7
ENDBRANCH   5   6
ENDBRANCH   4   5
ENDBRANCH   3   4
ENDBRANCH   2   3
ENDBRANCH   1   2
BRANCH   1  12
ATOM     12  C   UNL     1      11.438 -23.845  39.670  1.00  0.00     0.000 C 
BRANCH  12  13
ATOM     13  C   UNL     1      12.776 -24.517  39.327  1.00  0.00    -0.000 C 
BRANCH  13  14
ATOM     14  C   UNL     1      13.518 -25.024  40.575  1.00  0.00    -0.000 C 
BRANCH  14  15
ATOM     15  C   UNL     1      15.045 -25.048  40.393  1.00  0.00    -0.000 C 
BRANCH  15  16
ATOM     16  C   UNL     1      15.500 -25.763  39.103  1.00  0.00    -0.000 C 
BRANCH  16  17
ATOM     17  C   UNL     1      15.633 -27.283  39.296  1.00  0.00    -0.000 C 
BRANCH  17  18
ATOM     18  C   UNL     1      14.664 -28.087  38.411  1.00  0.00    -0.000 C 
BRANCH  18  19
ATOM     19  C   UNL     1      13.366 -28.527  39.112  1.00  0.00    -0.003 C 
ATOM     20  C   UNL     1      12.107 -28.022  38.406  1.00  0.00     0.004 C 
ENDBRANCH  18  19
ENDBRANCH  17  18
ENDBRANCH  16  17
ENDBRANCH  15  16
ENDBRANCH  14  15
ENDBRANCH  13  14
ENDBRANCH  12  13
ENDBRANCH   1  12
TORSDOF 16
ENDMDL
MODEL 9
REMARK VINA RESULT:    -3.603      2.339      6.037
REMARK INTER + INTRA:          -9.465
REMARK INTER:                  -6.430
REMARK INTRA:                  -3.036
REMARK UNBOUND:                -2.492
REMARK SMILES CCCCCCCCCCCCCCCCCC(=O)[O-]
REMARK SMILES IDX 10 1 11 2 12 3 13 4 14 5 15 6 16 7 17 8 18 9 19 10 20 11
REMARK SMILES IDX 9 12 8 13 7 14 6 15 5 16 4 17 3 18 2 19 1 20
REMARK H PARENT
REMARK Flexibility Score: inf
ROOT
ATOM      1  C   UNL     1      12.401 -29.384  42.691  1.00  0.00     0.000 C 
ENDROOT
BRANCH   1   2
ATOM      2  C   UNL     1      11.286 -30.430  42.844  1.00  0.00     0.000 C 
BRANCH   2   3
ATOM      3  C   UNL     1      10.062 -30.121  41.968  1.00  0.00     0.000 C 
BRANCH   3   4
ATOM      4  C   UNL     1      10.029 -28.640  41.573  1.00  0.00     0.000 C 
BRANCH   4   5
ATOM      5  C   UNL     1       8.740 -27.968  42.064  1.00  0.00     0.000 C 
BRANCH   5   6
ATOM      6  C   UNL     1       8.429 -26.710  41.244  1.00  0.00     0.000 C 
BRANCH   6   7
ATOM      7  C   UNL     1       9.657 -26.258  40.441  1.00  0.00     0.006 C 
BRANCH   7   8
ATOM      8  C   UNL     1      10.303 -24.996  41.027  1.00  0.00     0.053 C 
BRANCH   8   9
ATOM      9  C   UNL     1      10.829 -24.092  39.955  1.00  0.00     0.041 C 
ATOM     10  O   UNL     1      11.207 -24.569  38.853  1.00  0.00    -0.550 OA
ATOM     11  O   UNL     1      10.868 -22.718  40.160  1.00  0.00    -0.550 OA
ENDBRANCH   8   9
ENDBRANCH   7   8
ENDBRANCH   6   7
ENDBRANCH   5   6
ENDBRANCH   4   5
ENDBRANCH   3   4
ENDBRANCH   2   3
ENDBRANCH   1   2
BRANCH   1  12
ATOM     12  C   UNL     1      13.779 -30.022  42.441  1.00  0.00     0.000 C 
BRANCH  12  13
ATOM     13  C   UNL     1      13.677 -31.406  41.781  1.00  0.00    -0.000 C 
BRANCH  13  14
ATOM     14  C   UNL     1      13.844 -31.344  40.254  1.00  0.00    -0.000 C 
BRANCH  14  15
ATOM     15  C   UNL     1      12.529 -31.598  39.498  1.00  0.00    -0.000 C 
BRANCH  15  16
ATOM     16  C   UNL     1      12.052 -30.387  38.667  1.00  0.00    -0.000 C 
BRANCH  16  17
ATOM     17  C   UNL     1      13.133 -29.300  38.551  1.00  0.00    -0.000 C 
BRANCH  17  18
ATOM     18  C   UNL     1      12.687 -27.946  39.133  1.00  0.00    -0.000 C 
BRANCH  18  19
ATOM     19  C   UNL     1      13.764 -27.208  39.947  1.00  0.00    -0.003 C 
ATOM     20  C   UNL     1      15.159 -27.805  39.769  1.00  0.00     0.004 C 
ENDBRANCH  18  19
ENDBRANCH  17  18
ENDBRANCH  16  17
ENDBRANCH  15  16
ENDBRANCH  14  15
ENDBRANCH  13  14
ENDBRANCH  12  13
ENDBRANCH   1  12
TORSDOF 16
ENDMDL
