MODEL 1
REMARK VINA RESULT:    -3.089      0.000      0.000
REMARK INTER + INTRA:          -4.875
REMARK INTER:                  -4.353
REMARK INTRA:                  -0.522
REMARK UNBOUND:                -0.522
REMARK SMILES CCCCCCCCC(=O)[O-]
REMARK SMILES IDX 6 1 7 2 8 3 9 4 10 5 11 6 5 7 4 8 3 9 2 10 1 11
REMARK H PARENT
REMARK Flexibility Score: inf
ROOT
ATOM      1  C   UNL     1     -96.725 -40.812  90.148  1.00  0.00     0.000 C 
ENDROOT
BRANCH   1   2
ATOM      2  C   UNL     1     -97.466 -40.025  89.055  1.00  0.00     0.006 C 
BRANCH   2   3
ATOM      3  C   UNL     1     -97.144 -40.529  87.642  1.00  0.00     0.053 C 
BRANCH   3   4
ATOM      4  C   UNL     1     -97.455 -41.988  87.524  1.00  0.00     0.041 C 
ATOM      5  O   UNL     1     -96.546 -42.807  87.227  1.00  0.00    -0.550 OA
ATOM      6  O   UNL     1     -98.758 -42.437  87.694  1.00  0.00    -0.550 OA
ENDBRANCH   3   4
ENDBRANCH   2   3
ENDBRANCH   1   2
BRANCH   1   7
ATOM      7  C   UNL     1     -97.664 -41.291  91.269  1.00  0.00     0.000 C 
BRANCH   7   8
ATOM      8  C   UNL     1     -99.112 -40.812  91.070  1.00  0.00    -0.000 C 
BRANCH   8   9
ATOM      9  C   UNL     1     -99.520 -39.728  92.082  1.00  0.00    -0.000 C 
BRANCH   9  10
ATOM     10  C   UNL     1     -99.943 -38.416  91.400  1.00  0.00    -0.003 C 
ATOM     11  C   UNL     1    -100.608 -37.434  92.366  1.00  0.00     0.004 C 
ENDBRANCH   9  10
ENDBRANCH   8   9
ENDBRANCH   7   8
ENDBRANCH   1   7
TORSDOF 7
ENDMDL
MODEL 2
REMARK VINA RESULT:    -3.054     13.590     14.555
REMARK INTER + INTRA:          -4.826
REMARK INTER:                  -4.093
REMARK INTRA:                  -0.733
REMARK UNBOUND:                -0.522
REMARK SMILES CCCCCCCCC(=O)[O-]
REMARK SMILES IDX 6 1 7 2 8 3 9 4 10 5 11 6 5 7 4 8 3 9 2 10 1 11
REMARK H PARENT
REMARK Flexibility Score: inf
ROOT
ATOM      1  C   UNL     1     -97.750 -27.469  81.189  1.00  0.00     0.000 C 
ENDROOT
BRANCH   1   2
ATOM      2  C   UNL     1     -99.166 -27.250  81.748  1.00  0.00     0.006 C 
BRANCH   2   3
ATOM      3  C   UNL     1     -99.803 -28.545  82.271  1.00  0.00     0.053 C 
BRANCH   3   4
ATOM      4  C   UNL     1    -100.223 -28.380  83.698  1.00  0.00     0.041 C 
ATOM      5  O   UNL     1    -100.773 -29.334  84.310  1.00  0.00    -0.550 OA
ATOM      6  O   UNL     1    -100.051 -27.160  84.337  1.00  0.00    -0.550 OA
ENDBRANCH   3   4
ENDBRANCH   2   3
ENDBRANCH   1   2
BRANCH   1   7
ATOM      7  C   UNL     1     -96.764 -27.970  82.259  1.00  0.00     0.000 C 
BRANCH   7   8
ATOM      8  C   UNL     1     -96.395 -26.879  83.277  1.00  0.00    -0.000 C 
BRANCH   8   9
ATOM      9  C   UNL     1     -96.457 -27.381  84.730  1.00  0.00    -0.000 C 
BRANCH   9  10
ATOM     10  C   UNL     1     -96.790 -28.880  84.820  1.00  0.00    -0.003 C 
ATOM     11  C   UNL     1     -95.787 -29.660  85.671  1.00  0.00     0.004 C 
ENDBRANCH   9  10
ENDBRANCH   8   9
ENDBRANCH   7   8
ENDBRANCH   1   7
TORSDOF 7
ENDMDL
MODEL 3
REMARK VINA RESULT:    -3.051     14.001     14.860
REMARK INTER + INTRA:          -4.822
REMARK INTER:                  -4.521
REMARK INTRA:                  -0.301
REMARK UNBOUND:                -0.522
REMARK SMILES CCCCCCCCC(=O)[O-]
REMARK SMILES IDX 6 1 7 2 8 3 9 4 10 5 11 6 5 7 4 8 3 9 2 10 1 11
REMARK H PARENT
REMARK Flexibility Score: inf
ROOT
ATOM      1  C   UNL     1     -97.205 -27.835  80.995  1.00  0.00     0.000 C 
ENDROOT
BRANCH   1   2
ATOM      2  C   UNL     1     -96.539 -27.889  79.610  1.00  0.00     0.006 C 
BRANCH   2   3
ATOM      3  C   UNL     1     -96.377 -29.322  79.086  1.00  0.00     0.053 C 
BRANCH   3   4
ATOM      4  C   UNL     1     -97.702 -29.875  78.664  1.00  0.00     0.041 C 
ATOM      5  O   UNL     1     -98.292 -30.724  79.384  1.00  0.00    -0.550 OA
ATOM      6  O   UNL     1     -98.262 -29.491  77.452  1.00  0.00    -0.550 OA
ENDBRANCH   3   4
ENDBRANCH   2   3
ENDBRANCH   1   2
BRANCH   1   7
ATOM      7  C   UNL     1     -96.193 -27.588  82.127  1.00  0.00     0.000 C 
BRANCH   7   8
ATOM      8  C   UNL     1     -96.781 -26.742  83.269  1.00  0.00    -0.000 C 
BRANCH   8   9
ATOM      9  C   UNL     1     -96.492 -27.340  84.657  1.00  0.00    -0.000 C 
BRANCH   9  10
ATOM     10  C   UNL     1     -96.854 -28.832  84.741  1.00  0.00    -0.003 C 
ATOM     11  C   UNL     1     -95.828 -29.647  85.532  1.00  0.00     0.004 C 
ENDBRANCH   9  10
ENDBRANCH   8   9
ENDBRANCH   7   8
ENDBRANCH   1   7
TORSDOF 7
ENDMDL
MODEL 4
REMARK VINA RESULT:    -3.048     15.110     16.274
REMARK INTER + INTRA:          -4.818
REMARK INTER:                  -4.519
REMARK INTRA:                  -0.298
REMARK UNBOUND:                -0.522
REMARK SMILES CCCCCCCCC(=O)[O-]
REMARK SMILES IDX 6 1 7 2 8 3 9 4 10 5 11 6 5 7 4 8 3 9 2 10 1 11
REMARK H PARENT
REMARK Flexibility Score: inf
ROOT
ATOM      1  C   UNL     1     -96.855 -27.923  81.387  1.00  0.00     0.000 C 
ENDROOT
BRANCH   1   2
ATOM      2  C   UNL     1     -96.329 -27.623  82.801  1.00  0.00     0.006 C 
BRANCH   2   3
ATOM      3  C   UNL     1     -97.124 -28.347  83.895  1.00  0.00     0.053 C 
BRANCH   3   4
ATOM      4  C   UNL     1     -96.267 -28.572  85.100  1.00  0.00     0.041 C 
ATOM      5  O   UNL     1     -95.919 -27.599  85.821  1.00  0.00    -0.550 OA
ATOM      6  O   UNL     1     -95.811 -29.849  85.401  1.00  0.00    -0.550 OA
ENDBRANCH   3   4
ENDBRANCH   2   3
ENDBRANCH   1   2
BRANCH   1   7
ATOM      7  C   UNL     1     -96.115 -27.124  80.300  1.00  0.00     0.000 C 
BRANCH   7   8
ATOM      8  C   UNL     1     -95.343 -25.924  80.873  1.00  0.00    -0.000 C 
BRANCH   8   9
ATOM      9  C   UNL     1     -94.197 -25.466  79.955  1.00  0.00    -0.000 C 
BRANCH   9  10
ATOM     10  C   UNL     1     -92.912 -25.140  80.736  1.00  0.00    -0.003 C 
ATOM     11  C   UNL     1     -93.164 -24.224  81.935  1.00  0.00     0.004 C 
ENDBRANCH   9  10
ENDBRANCH   8   9
ENDBRANCH   7   8
ENDBRANCH   1   7
TORSDOF 7
ENDMDL
MODEL 5
REMARK VINA RESULT:    -3.048      3.476      5.388
REMARK INTER + INTRA:          -4.817
REMARK INTER:                  -4.149
REMARK INTRA:                  -0.668
REMARK UNBOUND:                -0.522
REMARK SMILES CCCCCCCCC(=O)[O-]
REMARK SMILES IDX 6 1 7 2 8 3 9 4 10 5 11 6 5 7 4 8 3 9 2 10 1 11
REMARK H PARENT
REMARK Flexibility Score: inf
ROOT
ATOM      1  C   UNL     1     -97.996 -41.083  90.638  1.00  0.00     0.000 C 
ENDROOT
BRANCH   1   2
ATOM      2  C   UNL     1     -96.509 -41.169  91.018  1.00  0.00     0.006 C 
BRANCH   2   3
ATOM      3  C   UNL     1     -96.183 -42.411  91.857  1.00  0.00     0.053 C 
BRANCH   3   4
ATOM      4  C   UNL     1     -95.928 -42.027  93.281  1.00  0.00     0.041 C 
ATOM      5  O   UNL     1     -95.930 -42.905  94.184  1.00  0.00    -0.550 OA
ATOM      6  O   UNL     1     -95.738 -40.693  93.618  1.00  0.00    -0.550 OA
ENDBRANCH   3   4
ENDBRANCH   2   3
ENDBRANCH   1   2
BRANCH   1   7
ATOM      7  C   UNL     1     -98.269 -40.018  89.562  1.00  0.00     0.000 C 
BRANCH   7   8
ATOM      8  C   UNL     1     -97.156 -39.949  88.504  1.00  0.00    -0.000 C 
BRANCH   8   9
ATOM      9  C   UNL     1     -97.313 -41.018  87.409  1.00  0.00    -0.000 C 
BRANCH   9  10
ATOM     10  C   UNL     1     -96.197 -42.074  87.454  1.00  0.00    -0.003 C 
ATOM     11  C   UNL     1     -96.671 -43.415  88.017  1.00  0.00     0.004 C 
ENDBRANCH   9  10
ENDBRANCH   8   9
ENDBRANCH   7   8
ENDBRANCH   1   7
TORSDOF 7
ENDMDL
MODEL 6
REMARK VINA RESULT:    -3.038      2.163      2.847
REMARK INTER + INTRA:          -4.803
REMARK INTER:                  -4.099
REMARK INTRA:                  -0.704
REMARK UNBOUND:                -0.522
REMARK SMILES CCCCCCCCC(=O)[O-]
REMARK SMILES IDX 6 1 7 2 8 3 9 4 10 5 11 6 5 7 4 8 3 9 2 10 1 11
REMARK H PARENT
REMARK Flexibility Score: inf
ROOT
ATOM      1  C   UNL     1     -96.422 -41.789  90.575  1.00  0.00     0.000 C 
ENDROOT
BRANCH   1   2
ATOM      2  C   UNL     1     -97.807 -41.606  89.934  1.00  0.00     0.006 C 
BRANCH   2   3
ATOM      3  C   UNL     1     -98.104 -40.145  89.573  1.00  0.00     0.053 C 
BRANCH   3   4
ATOM      4  C   UNL     1     -97.295 -39.726  88.384  1.00  0.00     0.041 C 
ATOM      5  O   UNL     1     -96.804 -38.568  88.329  1.00  0.00    -0.550 OA
ATOM      6  O   UNL     1     -97.126 -40.598  87.317  1.00  0.00    -0.550 OA
ENDBRANCH   3   4
ENDBRANCH   2   3
ENDBRANCH   1   2
BRANCH   1   7
ATOM      7  C   UNL     1     -96.506 -42.246  92.041  1.00  0.00     0.000 C 
BRANCH   7   8
ATOM      8  C   UNL     1     -96.098 -41.140  93.029  1.00  0.00    -0.000 C 
BRANCH   8   9
ATOM      9  C   UNL     1     -97.188 -40.850  94.075  1.00  0.00    -0.000 C 
BRANCH   9  10
ATOM     10  C   UNL     1     -98.603 -41.134  93.545  1.00  0.00    -0.003 C 
ATOM     11  C   UNL     1     -99.328 -39.869  93.085  1.00  0.00     0.004 C 
ENDBRANCH   9  10
ENDBRANCH   8   9
ENDBRANCH   7   8
ENDBRANCH   1   7
TORSDOF 7
ENDMDL
MODEL 7
REMARK VINA RESULT:    -3.028     14.275     15.565
REMARK INTER + INTRA:          -4.790
REMARK INTER:                  -4.263
REMARK INTRA:                  -0.527
REMARK UNBOUND:                -0.522
REMARK SMILES CCCCCCCCC(=O)[O-]
REMARK SMILES IDX 6 1 7 2 8 3 9 4 10 5 11 6 5 7 4 8 3 9 2 10 1 11
REMARK H PARENT
REMARK Flexibility Score: inf
ROOT
ATOM      1  C   UNL     1     -96.209 -26.547  82.612  1.00  0.00     0.000 C 
ENDROOT
BRANCH   1   2
ATOM      2  C   UNL     1     -96.396 -28.062  82.791  1.00  0.00     0.006 C 
BRANCH   2   3
ATOM      3  C   UNL     1     -97.193 -28.416  84.053  1.00  0.00     0.053 C 
BRANCH   3   4
ATOM      4  C   UNL     1     -96.269 -28.638  85.209  1.00  0.00     0.041 C 
ATOM      5  O   UNL     1     -95.942 -29.809  85.542  1.00  0.00    -0.550 OA
ATOM      6  O   UNL     1     -95.808 -27.558  85.949  1.00  0.00    -0.550 OA
ENDBRANCH   3   4
ENDBRANCH   2   3
ENDBRANCH   1   2
BRANCH   1   7
ATOM      7  C   UNL     1     -95.861 -26.162  81.164  1.00  0.00     0.000 C 
BRANCH   7   8
ATOM      8  C   UNL     1     -96.763 -26.862  80.134  1.00  0.00    -0.000 C 
BRANCH   8   9
ATOM      9  C   UNL     1     -95.961 -27.640  79.077  1.00  0.00    -0.000 C 
BRANCH   9  10
ATOM     10  C   UNL     1     -96.429 -29.098  78.938  1.00  0.00    -0.003 C 
ATOM     11  C   UNL     1     -97.747 -29.369  79.665  1.00  0.00     0.004 C 
ENDBRANCH   9  10
ENDBRANCH   8   9
ENDBRANCH   7   8
ENDBRANCH   1   7
TORSDOF 7
ENDMDL
MODEL 8
REMARK VINA RESULT:    -2.999      2.745      5.271
REMARK INTER + INTRA:          -4.748
REMARK INTER:                  -4.244
REMARK INTRA:                  -0.504
REMARK UNBOUND:                -0.522
REMARK SMILES CCCCCCCCC(=O)[O-]
REMARK SMILES IDX 6 1 7 2 8 3 9 4 10 5 11 6 5 7 4 8 3 9 2 10 1 11
REMARK H PARENT
REMARK Flexibility Score: inf
ROOT
ATOM      1  C   UNL     1     -96.788 -41.162  89.999  1.00  0.00     0.000 C 
ENDROOT
BRANCH   1   2
ATOM      2  C   UNL     1     -97.555 -41.046  91.327  1.00  0.00     0.006 C 
BRANCH   2   3
ATOM      3  C   UNL     1     -99.055 -40.800  91.124  1.00  0.00     0.053 C 
BRANCH   3   4
ATOM      4  C   UNL     1     -99.478 -39.548  91.826  1.00  0.00     0.041 C 
ATOM      5  O   UNL     1     -99.560 -39.524  93.084  1.00  0.00    -0.550 OA
ATOM      6  O   UNL     1     -99.828 -38.422  91.092  1.00  0.00    -0.550 OA
ENDBRANCH   3   4
ENDBRANCH   2   3
ENDBRANCH   1   2
BRANCH   1   7
ATOM      7  C   UNL     1     -97.324 -40.204  88.922  1.00  0.00     0.000 C 
BRANCH   7   8
ATOM      8  C   UNL     1     -97.186 -40.776  87.501  1.00  0.00    -0.000 C 
BRANCH   8   9
ATOM      9  C   UNL     1     -96.488 -42.147  87.482  1.00  0.00    -0.000 C 
BRANCH   9  10
ATOM     10  C   UNL     1     -97.435 -43.283  87.063  1.00  0.00    -0.003 C 
ATOM     11  C   UNL     1     -98.840 -42.786  86.717  1.00  0.00     0.004 C 
ENDBRANCH   9  10
ENDBRANCH   8   9
ENDBRANCH   7   8
ENDBRANCH   1   7
TORSDOF 7
ENDMDL
MODEL 9
REMARK VINA RESULT:    -2.989     15.929     16.775
REMARK INTER + INTRA:          -4.735
REMARK INTER:                  -4.318
REMARK INTRA:                  -0.417
REMARK UNBOUND:                -0.522
REMARK SMILES CCCCCCCCC(=O)[O-]
REMARK SMILES IDX 6 1 7 2 8 3 9 4 10 5 11 6 5 7 4 8 3 9 2 10 1 11
REMARK H PARENT
REMARK Flexibility Score: inf
ROOT
ATOM      1  C   UNL     1     -96.592 -25.737  81.650  1.00  0.00     0.000 C 
ENDROOT
BRANCH   1   2
ATOM      2  C   UNL     1     -95.537 -24.935  80.870  1.00  0.00     0.006 C 
BRANCH   2   3
ATOM      3  C   UNL     1     -94.242 -25.726  80.641  1.00  0.00     0.053 C 
BRANCH   3   4
ATOM      4  C   UNL     1     -93.052 -24.899  81.013  1.00  0.00     0.041 C 
ATOM      5  O   UNL     1     -93.026 -24.287  82.115  1.00  0.00    -0.550 OA
ATOM      6  O   UNL     1     -91.994 -24.763  80.125  1.00  0.00    -0.550 OA
ENDBRANCH   3   4
ENDBRANCH   2   3
ENDBRANCH   1   2
BRANCH   1   7
ATOM      7  C   UNL     1     -96.421 -27.256  81.483  1.00  0.00     0.000 C 
BRANCH   7   8
ATOM      8  C   UNL     1     -96.965 -28.047  82.684  1.00  0.00    -0.000 C 
BRANCH   8   9
ATOM      9  C   UNL     1     -97.105 -27.180  83.947  1.00  0.00    -0.000 C 
BRANCH   9  10
ATOM     10  C   UNL     1     -96.217 -27.673  85.101  1.00  0.00    -0.003 C 
ATOM     11  C   UNL     1     -96.137 -29.199  85.177  1.00  0.00     0.004 C 
ENDBRANCH   9  10
ENDBRANCH   8   9
ENDBRANCH   7   8
ENDBRANCH   1   7
TORSDOF 7
ENDMDL
