MODEL 1
REMARK VINA RESULT:    -3.802      0.000      0.000
REMARK INTER + INTRA:          -4.041
REMARK INTER:                  -4.024
REMARK INTRA:                  -0.016
REMARK UNBOUND:                -0.016
REMARK SMILES O=C([O-])c1cccnc1
REMARK SMILES IDX 4 1 5 2 9 3 6 4 8 5 7 6 2 7 1 8 3 9
REMARK H PARENT
REMARK Flexibility Score: inf
ROOT
ATOM      1  C   UNL     1      -8.728   5.608  -7.880  1.00  0.00     0.016 A 
ATOM      2  C   UNL     1      -7.365   5.949  -7.862  1.00  0.00     0.013 A 
ATOM      3  C   UNL     1      -9.475   5.781  -6.701  1.00  0.00     0.120 A 
ATOM      4  C   UNL     1      -6.782   6.446  -6.695  1.00  0.00     0.021 A 
ATOM      5  N   UNL     1      -8.882   6.266  -5.578  1.00  0.00    -0.264 NA
ATOM      6  C   UNL     1      -7.565   6.599  -5.551  1.00  0.00     0.111 A 
ENDROOT
BRANCH   1   7
ATOM      7  C   UNL     1      -9.356   5.081  -9.110  1.00  0.00     0.073 C 
ATOM      8  O   UNL     1      -9.181   3.882  -9.455  1.00  0.00    -0.545 OA
ATOM      9  O   UNL     1     -10.150   5.902  -9.903  1.00  0.00    -0.545 OA
ENDBRANCH   1   7
TORSDOF 1
ENDMDL
MODEL 2
REMARK VINA RESULT:    -3.529      2.799      3.542
REMARK INTER + INTRA:          -3.752
REMARK INTER:                  -3.729
REMARK INTRA:                  -0.023
REMARK UNBOUND:                -0.016
REMARK SMILES O=C([O-])c1cccnc1
REMARK SMILES IDX 4 1 5 2 9 3 6 4 8 5 7 6 2 7 1 8 3 9
REMARK H PARENT
REMARK Flexibility Score: inf
ROOT
ATOM      1  C   UNL     1      -7.050   6.795  -6.734  1.00  0.00     0.016 A 
ATOM      2  C   UNL     1      -7.930   5.953  -7.433  1.00  0.00     0.013 A 
ATOM      3  C   UNL     1      -7.477   7.337  -5.508  1.00  0.00     0.120 A 
ATOM      4  C   UNL     1      -9.194   5.670  -6.911  1.00  0.00     0.021 A 
ATOM      5  N   UNL     1      -8.713   7.047  -5.023  1.00  0.00    -0.264 NA
ATOM      6  C   UNL     1      -9.572   6.233  -5.691  1.00  0.00     0.111 A 
ENDROOT
BRANCH   1   7
ATOM      7  C   UNL     1      -5.710   7.101  -7.276  1.00  0.00     0.073 C 
ATOM      8  O   UNL     1      -4.840   7.662  -6.557  1.00  0.00    -0.545 OA
ATOM      9  O   UNL     1      -5.390   6.775  -8.590  1.00  0.00    -0.545 OA
ENDBRANCH   1   7
TORSDOF 1
ENDMDL
MODEL 3
REMARK VINA RESULT:    -3.493      1.955      2.392
REMARK INTER + INTRA:          -3.714
REMARK INTER:                  -3.696
REMARK INTRA:                  -0.018
REMARK UNBOUND:                -0.016
REMARK SMILES O=C([O-])c1cccnc1
REMARK SMILES IDX 4 1 5 2 9 3 6 4 8 5 7 6 2 7 1 8 3 9
REMARK H PARENT
REMARK Flexibility Score: inf
ROOT
ATOM      1  C   UNL     1      -8.267   5.711  -6.027  1.00  0.00     0.016 A 
ATOM      2  C   UNL     1      -7.458   4.935  -5.181  1.00  0.00     0.013 A 
ATOM      3  C   UNL     1      -9.149   6.639  -5.442  1.00  0.00     0.120 A 
ATOM      4  C   UNL     1      -7.537   5.092  -3.796  1.00  0.00     0.021 A 
ATOM      5  N   UNL     1      -9.206   6.771  -4.090  1.00  0.00    -0.264 NA
ATOM      6  C   UNL     1      -8.428   6.025  -3.263  1.00  0.00     0.111 A 
ENDROOT
BRANCH   1   7
ATOM      7  C   UNL     1      -8.192   5.554  -7.495  1.00  0.00     0.073 C 
ATOM      8  O   UNL     1      -7.092   5.679  -8.096  1.00  0.00    -0.545 OA
ATOM      9  O   UNL     1      -9.335   5.266  -8.232  1.00  0.00    -0.545 OA
ENDBRANCH   1   7
TORSDOF 1
ENDMDL
MODEL 4
REMARK VINA RESULT:    -3.480      1.999      2.430
REMARK INTER + INTRA:          -3.700
REMARK INTER:                  -3.677
REMARK INTRA:                  -0.023
REMARK UNBOUND:                -0.016
REMARK SMILES O=C([O-])c1cccnc1
REMARK SMILES IDX 4 1 5 2 9 3 6 4 8 5 7 6 2 7 1 8 3 9
REMARK H PARENT
REMARK Flexibility Score: inf
ROOT
ATOM      1  C   UNL     1      -7.726   6.550  -6.689  1.00  0.00     0.016 A 
ATOM      2  C   UNL     1      -6.594   6.481  -7.517  1.00  0.00     0.013 A 
ATOM      3  C   UNL     1      -7.666   7.360  -5.541  1.00  0.00     0.120 A 
ATOM      4  C   UNL     1      -5.444   7.205  -7.195  1.00  0.00     0.021 A 
ATOM      5  N   UNL     1      -6.534   8.054  -5.250  1.00  0.00    -0.264 NA
ATOM      6  C   UNL     1      -5.433   7.994  -6.044  1.00  0.00     0.111 A 
ENDROOT
BRANCH   1   7
ATOM      7  C   UNL     1      -8.949   5.788  -7.020  1.00  0.00     0.073 C 
ATOM      8  O   UNL     1      -9.860   5.635  -6.164  1.00  0.00    -0.545 OA
ATOM      9  O   UNL     1      -9.110   5.228  -8.283  1.00  0.00    -0.545 OA
ENDBRANCH   1   7
TORSDOF 1
ENDMDL
MODEL 5
REMARK VINA RESULT:    -3.461      2.026      2.670
REMARK INTER + INTRA:          -3.679
REMARK INTER:                  -3.662
REMARK INTRA:                  -0.018
REMARK UNBOUND:                -0.016
REMARK SMILES O=C([O-])c1cccnc1
REMARK SMILES IDX 4 1 5 2 9 3 6 4 8 5 7 6 2 7 1 8 3 9
REMARK H PARENT
REMARK Flexibility Score: inf
ROOT
ATOM      1  C   UNL     1      -8.318   5.752  -6.079  1.00  0.00     0.016 A 
ATOM      2  C   UNL     1      -9.176   6.732  -5.554  1.00  0.00     0.013 A 
ATOM      3  C   UNL     1      -7.572   4.967  -5.181  1.00  0.00     0.120 A 
ATOM      4  C   UNL     1      -9.275   6.911  -4.173  1.00  0.00     0.021 A 
ATOM      5  N   UNL     1      -7.686   5.163  -3.841  1.00  0.00    -0.264 NA
ATOM      6  C   UNL     1      -8.513   6.108  -3.323  1.00  0.00     0.111 A 
ENDROOT
BRANCH   1   7
ATOM      7  C   UNL     1      -8.205   5.553  -7.540  1.00  0.00     0.073 C 
ATOM      8  O   UNL     1      -9.213   5.227  -8.221  1.00  0.00    -0.545 OA
ATOM      9  O   UNL     1      -6.984   5.723  -8.181  1.00  0.00    -0.545 OA
ENDBRANCH   1   7
TORSDOF 1
ENDMDL
MODEL 6
REMARK VINA RESULT:    -3.386      3.488      4.314
REMARK INTER + INTRA:          -3.601
REMARK INTER:                  -3.583
REMARK INTRA:                  -0.017
REMARK UNBOUND:                -0.016
REMARK SMILES O=C([O-])c1cccnc1
REMARK SMILES IDX 4 1 5 2 9 3 6 4 8 5 7 6 2 7 1 8 3 9
REMARK H PARENT
REMARK Flexibility Score: inf
ROOT
ATOM      1  C   UNL     1      -8.737   6.806  -5.222  1.00  0.00     0.016 A 
ATOM      2  C   UNL     1      -9.536   5.982  -6.031  1.00  0.00     0.013 A 
ATOM      3  C   UNL     1      -7.469   7.184  -5.699  1.00  0.00     0.120 A 
ATOM      4  C   UNL     1      -9.069   5.557  -7.276  1.00  0.00     0.021 A 
ATOM      5  N   UNL     1      -7.039   6.756  -6.915  1.00  0.00    -0.264 NA
ATOM      6  C   UNL     1      -7.804   5.958  -7.705  1.00  0.00     0.111 A 
ENDROOT
BRANCH   1   7
ATOM      7  C   UNL     1      -9.221   7.263  -3.901  1.00  0.00     0.073 C 
ATOM      8  O   UNL     1      -8.642   6.895  -2.845  1.00  0.00    -0.545 OA
ATOM      9  O   UNL     1     -10.324   8.104  -3.808  1.00  0.00    -0.545 OA
ENDBRANCH   1   7
TORSDOF 1
ENDMDL
MODEL 7
REMARK VINA RESULT:    -3.378      3.364      4.092
REMARK INTER + INTRA:          -3.592
REMARK INTER:                  -3.571
REMARK INTRA:                  -0.020
REMARK UNBOUND:                -0.016
REMARK SMILES O=C([O-])c1cccnc1
REMARK SMILES IDX 4 1 5 2 9 3 6 4 8 5 7 6 2 7 1 8 3 9
REMARK H PARENT
REMARK Flexibility Score: inf
ROOT
ATOM      1  C   UNL     1      -8.491   6.727  -5.519  1.00  0.00     0.016 A 
ATOM      2  C   UNL     1      -7.240   6.933  -6.123  1.00  0.00     0.013 A 
ATOM      3  C   UNL     1      -9.437   5.936  -6.197  1.00  0.00     0.120 A 
ATOM      4  C   UNL     1      -6.956   6.360  -7.364  1.00  0.00     0.021 A 
ATOM      5  N   UNL     1      -9.135   5.390  -7.405  1.00  0.00    -0.264 NA
ATOM      6  C   UNL     1      -7.928   5.584  -7.997  1.00  0.00     0.111 A 
ENDROOT
BRANCH   1   7
ATOM      7  C   UNL     1      -8.803   7.328  -4.205  1.00  0.00     0.073 C 
ATOM      8  O   UNL     1      -9.948   7.796  -3.971  1.00  0.00    -0.545 OA
ATOM      9  O   UNL     1      -7.834   7.386  -3.210  1.00  0.00    -0.545 OA
ENDBRANCH   1   7
TORSDOF 1
ENDMDL
MODEL 8
REMARK VINA RESULT:    -3.342      3.355      4.179
REMARK INTER + INTRA:          -3.554
REMARK INTER:                  -3.532
REMARK INTRA:                  -0.022
REMARK UNBOUND:                -0.016
REMARK SMILES O=C([O-])c1cccnc1
REMARK SMILES IDX 4 1 5 2 9 3 6 4 8 5 7 6 2 7 1 8 3 9
REMARK H PARENT
REMARK Flexibility Score: inf
ROOT
ATOM      1  C   UNL     1      -6.933   7.154  -6.232  1.00  0.00     0.016 A 
ATOM      2  C   UNL     1      -7.002   6.330  -7.368  1.00  0.00     0.013 A 
ATOM      3  C   UNL     1      -8.053   7.219  -5.384  1.00  0.00     0.120 A 
ATOM      4  C   UNL     1      -8.162   5.600  -7.635  1.00  0.00     0.021 A 
ATOM      5  N   UNL     1      -9.170   6.498  -5.668  1.00  0.00    -0.264 NA
ATOM      6  C   UNL     1      -9.248   5.699  -6.764  1.00  0.00     0.111 A 
ENDROOT
BRANCH   1   7
ATOM      7  C   UNL     1      -5.710   7.932  -5.939  1.00  0.00     0.073 C 
ATOM      8  O   UNL     1      -5.770   8.983  -5.248  1.00  0.00    -0.545 OA
ATOM      9  O   UNL     1      -4.476   7.512  -6.423  1.00  0.00    -0.545 OA
ENDBRANCH   1   7
TORSDOF 1
ENDMDL
MODEL 9
REMARK VINA RESULT:    -3.271      6.674      7.925
REMARK INTER + INTRA:          -3.478
REMARK INTER:                  -3.462
REMARK INTRA:                  -0.017
REMARK UNBOUND:                -0.016
REMARK SMILES O=C([O-])c1cccnc1
REMARK SMILES IDX 4 1 5 2 9 3 6 4 8 5 7 6 2 7 1 8 3 9
REMARK H PARENT
REMARK Flexibility Score: inf
ROOT
ATOM      1  C   UNL     1      -7.226   5.219 -14.217  1.00  0.00     0.016 A 
ATOM      2  C   UNL     1      -8.011   6.025 -15.058  1.00  0.00     0.013 A 
ATOM      3  C   UNL     1      -6.156   4.504 -14.785  1.00  0.00     0.120 A 
ATOM      4  C   UNL     1      -7.724   6.104 -16.422  1.00  0.00     0.021 A 
ATOM      5  N   UNL     1      -5.899   4.598 -16.117  1.00  0.00    -0.264 NA
ATOM      6  C   UNL     1      -6.652   5.375 -16.939  1.00  0.00     0.111 A 
ENDROOT
BRANCH   1   7
ATOM      7  C   UNL     1      -7.520   5.128 -12.771  1.00  0.00     0.073 C 
ATOM      8  O   UNL     1      -6.743   5.645 -11.925  1.00  0.00    -0.545 OA
ATOM      9  O   UNL     1      -8.660   4.469 -12.325  1.00  0.00    -0.545 OA
ENDBRANCH   1   7
TORSDOF 1
ENDMDL
