MODEL 1
REMARK VINA RESULT:    -6.482      0.000      0.000
REMARK INTER + INTRA:         -11.809
REMARK INTER:                 -10.082
REMARK INTRA:                  -1.727
REMARK UNBOUND:                -1.727
REMARK SMILES C[C@@]12C[C@@]3(O)O[C@@H](O1)[C@]1(COC(=O)c4ccccc4)[C@H]3C[C@@]12O[C@H]1O[C@@H](CO)[C@@H](O)[C@H](O)[C@H]1O
REMARK SMILES IDX 1 1 2 2 3 3 4 4 20 5 21 6 22 7 9 8 7 9 8 10 6 11 23 12 24 13
REMARK SMILES IDX 33 14 25 15 31 16 26 17 29 18 34 19 32 21 27 23 28 24 30 26
REMARK SMILES IDX 5 28 10 30 11 31 12 32 13 33 14 34 15 35 19 36 16 37 18 38
REMARK SMILES IDX 17 39
REMARK H PARENT 34 20 32 22 28 25 30 27 5 29
REMARK Flexibility Score: inf
ROOT
ATOM      1  C   UNL     1     483.306  39.132 454.714  1.00  0.00     0.046 C 
ATOM      2  C   UNL     1     481.879  39.097 455.242  1.00  0.00     0.104 C 
ATOM      3  C   UNL     1     480.933  39.145 453.961  1.00  0.00     0.104 C 
ATOM      4  C   UNL     1     479.498  39.005 454.556  1.00  0.00     0.175 C 
ATOM      5  C   UNL     1     479.290  40.007 455.737  1.00  0.00     0.070 C 
ATOM      6  C   UNL     1     480.295  41.170 455.777  1.00  0.00     0.050 C 
ATOM      7  C   UNL     1     481.329  40.157 456.361  1.00  0.00     0.115 C 
ATOM      8  C   UNL     1     480.086  39.307 456.823  1.00  0.00     0.096 C 
ATOM      9  C   UNL     1     480.318  37.884 456.273  1.00  0.00     0.267 C 
ATOM     10  O   UNL     1     481.649  37.797 455.798  1.00  0.00    -0.342 OA
ATOM     11  O   UNL     1     479.450  37.734 455.171  1.00  0.00    -0.320 OA
ENDROOT
BRANCH   7  12
ATOM     12  O   UNL     1     482.153  40.716 457.408  1.00  0.00    -0.339 OA
BRANCH  12  13
ATOM     13  C   UNL     1     483.214  39.823 457.752  1.00  0.00     0.282 C 
ATOM     14  C   UNL     1     483.091  38.776 459.002  1.00  0.00     0.202 C 
ATOM     15  O   UNL     1     484.480  40.463 457.603  1.00  0.00    -0.341 OA
ATOM     16  C   UNL     1     484.447  38.014 459.077  1.00  0.00     0.179 C 
ATOM     17  C   UNL     1     485.221  40.550 458.805  1.00  0.00     0.178 C 
ATOM     18  C   UNL     1     485.609  39.079 459.238  1.00  0.00     0.177 C 
BRANCH  14  19
ATOM     19  O   UNL     1     482.824  39.276 460.346  1.00  0.00    -0.385 OA
ATOM     20  H   UNL     1     482.069  39.945 460.280  1.00  0.00     0.211 HD
ENDBRANCH  14  19
BRANCH  16  21
ATOM     21  O   UNL     1     484.604  37.196 457.896  1.00  0.00    -0.387 OA
ATOM     22  H   UNL     1     484.377  36.245 458.138  1.00  0.00     0.211 HD
ENDBRANCH  16  21
BRANCH  17  23
ATOM     23  C   UNL     1     484.605  41.609 459.812  1.00  0.00     0.191 C 
BRANCH  23  24
ATOM     24  O   UNL     1     484.643  41.286 461.199  1.00  0.00    -0.394 OA
ATOM     25  H   UNL     1     484.043  40.527 461.528  1.00  0.00     0.210 HD
ENDBRANCH  23  24
ENDBRANCH  17  23
BRANCH  18  26
ATOM     26  O   UNL     1     486.110  39.024 460.553  1.00  0.00    -0.387 OA
ATOM     27  H   UNL     1     486.244  38.057 460.802  1.00  0.00     0.211 HD
ENDBRANCH  18  26
ENDBRANCH  12  13
ENDBRANCH   7  12
BRANCH   4  28
ATOM     28  O   UNL     1     478.521  39.118 453.548  1.00  0.00    -0.365 OA
ATOM     29  H   UNL     1     477.906  38.324 453.633  1.00  0.00     0.214 HD
ENDBRANCH   4  28
BRANCH   8  30
ATOM     30  C   UNL     1     479.522  39.414 458.249  1.00  0.00     0.249 C 
BRANCH  30  31
ATOM     31  O   UNL     1     479.232  38.185 458.885  1.00  0.00    -0.461 OA
BRANCH  31  32
ATOM     32  C   UNL     1     479.320  37.943 460.276  1.00  0.00     0.338 C 
ATOM     33  O   UNL     1     480.137  38.606 461.016  1.00  0.00    -0.246 OA
BRANCH  32  34
ATOM     34  C   UNL     1     478.399  36.983 460.937  1.00  0.00     0.060 A 
ATOM     35  C   UNL     1     478.604  35.590 460.844  1.00  0.00     0.015 A 
ATOM     36  C   UNL     1     477.334  37.457 461.728  1.00  0.00     0.015 A 
ATOM     37  C   UNL     1     477.794  34.718 461.541  1.00  0.00     0.001 A 
ATOM     38  C   UNL     1     476.494  36.540 462.379  1.00  0.00     0.001 A 
ATOM     39  C   UNL     1     476.786  35.199 462.360  1.00  0.00     0.000 A 
ENDBRANCH  32  34
ENDBRANCH  31  32
ENDBRANCH  30  31
ENDBRANCH   8  30
TORSDOF 12
ENDMDL
MODEL 2
REMARK VINA RESULT:    -6.063      1.450      2.055
REMARK INTER + INTRA:         -11.157
REMARK INTER:                 -10.322
REMARK INTRA:                  -0.835
REMARK UNBOUND:                -1.727
REMARK SMILES C[C@@]12C[C@@]3(O)O[C@@H](O1)[C@]1(COC(=O)c4ccccc4)[C@H]3C[C@@]12O[C@H]1O[C@@H](CO)[C@@H](O)[C@H](O)[C@H]1O
REMARK SMILES IDX 1 1 2 2 3 3 4 4 20 5 21 6 22 7 9 8 7 9 8 10 6 11 23 12 24 13
REMARK SMILES IDX 33 14 25 15 31 16 26 17 29 18 34 19 32 21 27 23 28 24 30 26
REMARK SMILES IDX 5 28 10 30 11 31 12 32 13 33 14 34 15 35 19 36 16 37 18 38
REMARK SMILES IDX 17 39
REMARK H PARENT 34 20 32 22 28 25 30 27 5 29
REMARK Flexibility Score: inf
ROOT
ATOM      1  C   UNL     1     483.675  39.013 456.804  1.00  0.00     0.046 C 
ATOM      2  C   UNL     1     482.162  38.913 456.920  1.00  0.00     0.104 C 
ATOM      3  C   UNL     1     481.573  39.563 455.589  1.00  0.00     0.104 C 
ATOM      4  C   UNL     1     480.035  39.342 455.720  1.00  0.00     0.175 C 
ATOM      5  C   UNL     1     479.527  39.807 457.123  1.00  0.00     0.070 C 
ATOM      6  C   UNL     1     480.483  40.750 457.872  1.00  0.00     0.050 C 
ATOM      7  C   UNL     1     481.338  39.489 458.213  1.00  0.00     0.115 C 
ATOM      8  C   UNL     1     480.023  38.655 457.978  1.00  0.00     0.096 C 
ATOM      9  C   UNL     1     480.394  37.554 456.964  1.00  0.00     0.267 C 
ATOM     10  O   UNL     1     481.803  37.530 456.822  1.00  0.00    -0.342 OA
ATOM     11  O   UNL     1     479.837  37.944 455.728  1.00  0.00    -0.320 OA
ENDROOT
BRANCH   7  12
ATOM     12  O   UNL     1     481.866  39.499 459.557  1.00  0.00    -0.339 OA
BRANCH  12  13
ATOM     13  C   UNL     1     483.278  39.714 459.550  1.00  0.00     0.282 C 
ATOM     14  C   UNL     1     484.291  38.834 460.483  1.00  0.00     0.202 C 
ATOM     15  O   UNL     1     483.576  41.106 459.454  1.00  0.00    -0.341 OA
ATOM     16  C   UNL     1     485.725  39.385 460.223  1.00  0.00     0.179 C 
ATOM     17  C   UNL     1     484.299  41.612 460.560  1.00  0.00     0.178 C 
ATOM     18  C   UNL     1     485.729  40.936 460.548  1.00  0.00     0.177 C 
BRANCH  14  19
ATOM     19  O   UNL     1     484.114  38.814 461.930  1.00  0.00    -0.385 OA
ATOM     20  H   UNL     1     484.112  37.846 462.226  1.00  0.00     0.211 HD
ENDBRANCH  14  19
BRANCH  16  21
ATOM     21  O   UNL     1     486.107  39.103 458.858  1.00  0.00    -0.387 OA
ATOM     22  H   UNL     1     486.173  38.104 458.748  1.00  0.00     0.211 HD
ENDBRANCH  16  21
BRANCH  17  23
ATOM     23  C   UNL     1     483.405  41.711 461.866  1.00  0.00     0.191 C 
BRANCH  23  24
ATOM     24  O   UNL     1     484.031  41.402 463.108  1.00  0.00    -0.394 OA
ATOM     25  H   UNL     1     484.189  40.418 463.331  1.00  0.00     0.210 HD
ENDBRANCH  23  24
ENDBRANCH  17  23
BRANCH  18  26
ATOM     26  O   UNL     1     486.434  41.156 461.747  1.00  0.00    -0.387 OA
ATOM     27  H   UNL     1     487.369  41.451 461.517  1.00  0.00     0.211 HD
ENDBRANCH  18  26
ENDBRANCH  12  13
ENDBRANCH   7  12
BRANCH   4  28
ATOM     28  O   UNL     1     479.346  39.945 454.649  1.00  0.00    -0.365 OA
ATOM     29  H   UNL     1     479.975  39.970 453.861  1.00  0.00     0.214 HD
ENDBRANCH   4  28
BRANCH   8  30
ATOM     30  C   UNL     1     479.113  38.242 459.147  1.00  0.00     0.249 C 
BRANCH  30  31
ATOM     31  O   UNL     1     479.631  37.238 459.997  1.00  0.00    -0.461 OA
BRANCH  31  32
ATOM     32  C   UNL     1     479.086  35.943 460.159  1.00  0.00     0.338 C 
ATOM     33  O   UNL     1     479.497  34.954 459.447  1.00  0.00    -0.246 OA
BRANCH  32  34
ATOM     34  C   UNL     1     478.090  35.668 461.227  1.00  0.00     0.060 A 
ATOM     35  C   UNL     1     477.283  36.697 461.757  1.00  0.00     0.015 A 
ATOM     36  C   UNL     1     477.891  34.351 461.685  1.00  0.00     0.015 A 
ATOM     37  C   UNL     1     476.301  36.406 462.681  1.00  0.00     0.001 A 
ATOM     38  C   UNL     1     476.921  34.098 462.666  1.00  0.00     0.001 A 
ATOM     39  C   UNL     1     476.077  35.099 463.080  1.00  0.00     0.000 A 
ENDBRANCH  32  34
ENDBRANCH  31  32
ENDBRANCH  30  31
ENDBRANCH   8  30
TORSDOF 12
ENDMDL
MODEL 3
REMARK VINA RESULT:    -5.921      1.723      2.340
REMARK INTER + INTRA:         -10.936
REMARK INTER:                  -9.291
REMARK INTRA:                  -1.646
REMARK UNBOUND:                -1.727
REMARK SMILES C[C@@]12C[C@@]3(O)O[C@@H](O1)[C@]1(COC(=O)c4ccccc4)[C@H]3C[C@@]12O[C@H]1O[C@@H](CO)[C@@H](O)[C@H](O)[C@H]1O
REMARK SMILES IDX 1 1 2 2 3 3 4 4 20 5 21 6 22 7 9 8 7 9 8 10 6 11 23 12 24 13
REMARK SMILES IDX 33 14 25 15 31 16 26 17 29 18 34 19 32 21 27 23 28 24 30 26
REMARK SMILES IDX 5 28 10 30 11 31 12 32 13 33 14 34 15 35 19 36 16 37 18 38
REMARK SMILES IDX 17 39
REMARK H PARENT 34 20 32 22 28 25 30 27 5 29
REMARK Flexibility Score: inf
ROOT
ATOM      1  C   UNL     1     483.783  39.351 457.123  1.00  0.00     0.046 C 
ATOM      2  C   UNL     1     482.380  39.240 457.700  1.00  0.00     0.104 C 
ATOM      3  C   UNL     1     481.434  38.823 456.487  1.00  0.00     0.104 C 
ATOM      4  C   UNL     1     480.040  38.627 457.156  1.00  0.00     0.175 C 
ATOM      5  C   UNL     1     479.683  39.854 458.057  1.00  0.00     0.070 C 
ATOM      6  C   UNL     1     480.499  41.124 457.765  1.00  0.00     0.050 C 
ATOM      7  C   UNL     1     481.676  40.455 458.541  1.00  0.00     0.115 C 
ATOM      8  C   UNL     1     480.579  39.575 459.250  1.00  0.00     0.096 C 
ATOM      9  C   UNL     1     481.025  38.111 459.063  1.00  0.00     0.267 C 
ATOM     10  O   UNL     1     482.352  38.104 458.572  1.00  0.00    -0.342 OA
ATOM     11  O   UNL     1     480.188  37.561 458.071  1.00  0.00    -0.320 OA
ENDROOT
BRANCH   7  12
ATOM     12  O   UNL     1     482.407  41.376 459.381  1.00  0.00    -0.339 OA
BRANCH  12  13
ATOM     13  C   UNL     1     483.665  40.821 459.771  1.00  0.00     0.282 C 
ATOM     14  C   UNL     1     483.819  39.879 461.098  1.00  0.00     0.202 C 
ATOM     15  O   UNL     1     484.719  41.755 459.548  1.00  0.00    -0.341 OA
ATOM     16  C   UNL     1     485.328  39.506 461.204  1.00  0.00     0.179 C 
ATOM     17  C   UNL     1     485.410  42.127 460.725  1.00  0.00     0.178 C 
ATOM     18  C   UNL     1     486.170  40.847 461.260  1.00  0.00     0.177 C 
BRANCH  14  19
ATOM     19  O   UNL     1     483.430  40.396 462.406  1.00  0.00    -0.385 OA
ATOM     20  H   UNL     1     483.653  41.383 462.424  1.00  0.00     0.211 HD
ENDBRANCH  14  19
BRANCH  16  21
ATOM     21  O   UNL     1     485.694  38.667 460.086  1.00  0.00    -0.387 OA
ATOM     22  H   UNL     1     485.422  37.721 460.298  1.00  0.00     0.211 HD
ENDBRANCH  16  21
BRANCH  17  23
ATOM     23  C   UNL     1     484.538  43.064 461.661  1.00  0.00     0.191 C 
BRANCH  23  24
ATOM     24  O   UNL     1     484.675  42.886 463.068  1.00  0.00    -0.394 OA
ATOM     25  H   UNL     1     483.822  42.795 463.622  1.00  0.00     0.210 HD
ENDBRANCH  23  24
ENDBRANCH  17  23
BRANCH  18  26
ATOM     26  O   UNL     1     486.668  41.028 462.565  1.00  0.00    -0.387 OA
ATOM     27  H   UNL     1     486.952  40.131 462.924  1.00  0.00     0.211 HD
ENDBRANCH  18  26
ENDBRANCH  12  13
ENDBRANCH   7  12
BRANCH   4  28
ATOM     28  O   UNL     1     479.054  38.337 456.193  1.00  0.00    -0.365 OA
ATOM     29  H   UNL     1     479.529  38.128 455.328  1.00  0.00     0.214 HD
ENDBRANCH   4  28
BRANCH   8  30
ATOM     30  C   UNL     1     480.008  39.955 460.627  1.00  0.00     0.249 C 
BRANCH  30  31
ATOM     31  O   UNL     1     479.393  38.903 461.343  1.00  0.00    -0.461 OA
BRANCH  31  32
ATOM     32  C   UNL     1     478.092  38.402 461.104  1.00  0.00     0.338 C 
ATOM     33  O   UNL     1     477.197  39.124 460.527  1.00  0.00    -0.246 OA
BRANCH  32  34
ATOM     34  C   UNL     1     477.753  36.992 461.425  1.00  0.00     0.060 A 
ATOM     35  C   UNL     1     478.492  35.920 460.881  1.00  0.00     0.015 A 
ATOM     36  C   UNL     1     476.717  36.704 462.334  1.00  0.00     0.015 A 
ATOM     37  C   UNL     1     478.222  34.623 461.263  1.00  0.00     0.001 A 
ATOM     38  C   UNL     1     476.431  35.369 462.658  1.00  0.00     0.001 A 
ATOM     39  C   UNL     1     477.239  34.357 462.201  1.00  0.00     0.000 A 
ENDBRANCH  32  34
ENDBRANCH  31  32
ENDBRANCH  30  31
ENDBRANCH   8  30
TORSDOF 12
ENDMDL
MODEL 4
REMARK VINA RESULT:    -5.919      2.580      4.839
REMARK INTER + INTRA:         -10.934
REMARK INTER:                  -9.144
REMARK INTRA:                  -1.790
REMARK UNBOUND:                -1.727
REMARK SMILES C[C@@]12C[C@@]3(O)O[C@@H](O1)[C@]1(COC(=O)c4ccccc4)[C@H]3C[C@@]12O[C@H]1O[C@@H](CO)[C@@H](O)[C@H](O)[C@H]1O
REMARK SMILES IDX 1 1 2 2 3 3 4 4 20 5 21 6 22 7 9 8 7 9 8 10 6 11 23 12 24 13
REMARK SMILES IDX 33 14 25 15 31 16 26 17 29 18 34 19 32 21 27 23 28 24 30 26
REMARK SMILES IDX 5 28 10 30 11 31 12 32 13 33 14 34 15 35 19 36 16 37 18 38
REMARK SMILES IDX 17 39
REMARK H PARENT 34 20 32 22 28 25 30 27 5 29
REMARK Flexibility Score: inf
ROOT
ATOM      1  C   UNL     1     481.520  43.034 459.691  1.00  0.00     0.046 C 
ATOM      2  C   UNL     1     480.688  42.108 460.564  1.00  0.00     0.104 C 
ATOM      3  C   UNL     1     479.974  43.040 461.642  1.00  0.00     0.104 C 
ATOM      4  C   UNL     1     479.064  42.055 462.437  1.00  0.00     0.175 C 
ATOM      5  C   UNL     1     479.873  40.796 462.887  1.00  0.00     0.070 C 
ATOM      6  C   UNL     1     481.400  40.974 462.866  1.00  0.00     0.050 C 
ATOM      7  C   UNL     1     481.324  40.801 461.317  1.00  0.00     0.115 C 
ATOM      8  C   UNL     1     479.961  40.052 461.567  1.00  0.00     0.096 C 
ATOM      9  C   UNL     1     478.924  40.748 460.663  1.00  0.00     0.267 C 
ATOM     10  O   UNL     1     479.609  41.604 459.768  1.00  0.00    -0.342 OA
ATOM     11  O   UNL     1     478.127  41.547 461.509  1.00  0.00    -0.320 OA
ENDROOT
BRANCH   7  12
ATOM     12  O   UNL     1     482.405  40.011 460.773  1.00  0.00    -0.339 OA
BRANCH  12  13
ATOM     13  C   UNL     1     482.437  40.104 459.348  1.00  0.00     0.282 C 
ATOM     14  C   UNL     1     481.599  39.072 458.396  1.00  0.00     0.202 C 
ATOM     15  O   UNL     1     483.746  40.443 458.894  1.00  0.00    -0.341 OA
ATOM     16  C   UNL     1     481.916  39.471 456.924  1.00  0.00     0.179 C 
ATOM     17  C   UNL     1     484.329  39.464 458.056  1.00  0.00     0.178 C 
ATOM     18  C   UNL     1     483.486  39.412 456.718  1.00  0.00     0.177 C 
BRANCH  14  19
ATOM     19  O   UNL     1     481.837  37.637 458.494  1.00  0.00    -0.385 OA
ATOM     20  H   UNL     1     482.793  37.464 458.212  1.00  0.00     0.211 HD
ENDBRANCH  14  19
BRANCH  16  21
ATOM     21  O   UNL     1     481.370  40.781 456.654  1.00  0.00    -0.387 OA
ATOM     22  H   UNL     1     480.998  41.153 457.513  1.00  0.00     0.211 HD
ENDBRANCH  16  21
BRANCH  17  23
ATOM     23  C   UNL     1     484.751  38.163 458.858  1.00  0.00     0.191 C 
BRANCH  23  24
ATOM     24  O   UNL     1     484.653  36.917 458.175  1.00  0.00    -0.394 OA
ATOM     25  H   UNL     1     484.223  36.134 458.670  1.00  0.00     0.210 HD
ENDBRANCH  23  24
ENDBRANCH  17  23
BRANCH  18  26
ATOM     26  O   UNL     1     483.808  38.293 455.927  1.00  0.00    -0.387 OA
ATOM     27  H   UNL     1     483.920  38.598 454.974  1.00  0.00     0.211 HD
ENDBRANCH  18  26
ENDBRANCH  12  13
ENDBRANCH   7  12
BRANCH   4  28
ATOM     28  O   UNL     1     478.417  42.713 463.501  1.00  0.00    -0.365 OA
ATOM     29  H   UNL     1     477.660  43.250 463.109  1.00  0.00     0.214 HD
ENDBRANCH   4  28
BRANCH   8  30
ATOM     30  C   UNL     1     479.889  38.518 461.651  1.00  0.00     0.249 C 
BRANCH  30  31
ATOM     31  O   UNL     1     479.233  37.879 460.574  1.00  0.00    -0.461 OA
BRANCH  31  32
ATOM     32  C   UNL     1     478.969  36.492 460.484  1.00  0.00     0.338 C 
ATOM     33  O   UNL     1     479.655  35.733 459.703  1.00  0.00    -0.246 OA
BRANCH  32  34
ATOM     34  C   UNL     1     477.956  35.856 461.364  1.00  0.00     0.060 A 
ATOM     35  C   UNL     1     477.977  34.468 461.619  1.00  0.00     0.015 A 
ATOM     36  C   UNL     1     476.988  36.646 462.014  1.00  0.00     0.015 A 
ATOM     37  C   UNL     1     477.086  33.910 462.511  1.00  0.00     0.001 A 
ATOM     38  C   UNL     1     476.061  36.038 462.873  1.00  0.00     0.001 A 
ATOM     39  C   UNL     1     476.177  34.707 463.187  1.00  0.00     0.000 A 
ENDBRANCH  32  34
ENDBRANCH  31  32
ENDBRANCH  30  31
ENDBRANCH   8  30
TORSDOF 12
ENDMDL
MODEL 5
REMARK VINA RESULT:    -5.721      1.874      2.863
REMARK INTER + INTRA:         -10.625
REMARK INTER:                  -8.676
REMARK INTRA:                  -1.949
REMARK UNBOUND:                -1.727
REMARK SMILES C[C@@]12C[C@@]3(O)O[C@@H](O1)[C@]1(COC(=O)c4ccccc4)[C@H]3C[C@@]12O[C@H]1O[C@@H](CO)[C@@H](O)[C@H](O)[C@H]1O
REMARK SMILES IDX 1 1 2 2 3 3 4 4 20 5 21 6 22 7 9 8 7 9 8 10 6 11 23 12 24 13
REMARK SMILES IDX 33 14 25 15 31 16 26 17 29 18 34 19 32 21 27 23 28 24 30 26
REMARK SMILES IDX 5 28 10 30 11 31 12 32 13 33 14 34 15 35 19 36 16 37 18 38
REMARK SMILES IDX 17 39
REMARK H PARENT 34 20 32 22 28 25 30 27 5 29
REMARK Flexibility Score: inf
ROOT
ATOM      1  C   UNL     1     485.245  39.477 458.323  1.00  0.00     0.046 C 
ATOM      2  C   UNL     1     483.796  39.359 457.875  1.00  0.00     0.104 C 
ATOM      3  C   UNL     1     483.841  38.926 456.342  1.00  0.00     0.104 C 
ATOM      4  C   UNL     1     482.340  38.726 455.971  1.00  0.00     0.175 C 
ATOM      5  C   UNL     1     481.489  39.956 456.425  1.00  0.00     0.070 C 
ATOM      6  C   UNL     1     482.303  41.230 456.706  1.00  0.00     0.050 C 
ATOM      7  C   UNL     1     482.716  40.576 458.062  1.00  0.00     0.115 C 
ATOM      8  C   UNL     1     481.419  39.693 457.918  1.00  0.00     0.096 C 
ATOM      9  C   UNL     1     481.883  38.231 458.074  1.00  0.00     0.267 C 
ATOM     10  O   UNL     1     483.220  38.230 458.541  1.00  0.00    -0.342 OA
ATOM     11  O   UNL     1     481.872  37.667 456.781  1.00  0.00    -0.320 OA
ENDROOT
BRANCH   7  12
ATOM     12  O   UNL     1     482.744  41.508 459.165  1.00  0.00    -0.339 OA
BRANCH  12  13
ATOM     13  C   UNL     1     483.407  40.940 460.296  1.00  0.00     0.282 C 
ATOM     14  C   UNL     1     482.606  40.053 461.411  1.00  0.00     0.202 C 
ATOM     15  O   UNL     1     484.390  41.838 460.807  1.00  0.00    -0.341 OA
ATOM     16  C   UNL     1     483.654  39.648 462.491  1.00  0.00     0.179 C 
ATOM     17  C   UNL     1     484.153  42.243 462.142  1.00  0.00     0.178 C 
ATOM     18  C   UNL     1     484.313  40.969 463.066  1.00  0.00     0.177 C 
BRANCH  14  19
ATOM     19  O   UNL     1     481.478  40.634 462.130  1.00  0.00    -0.385 OA
ATOM     20  H   UNL     1     481.845  41.110 462.944  1.00  0.00     0.211 HD
ENDBRANCH  14  19
BRANCH  16  21
ATOM     21  O   UNL     1     484.626  38.753 461.904  1.00  0.00    -0.387 OA
ATOM     22  H   UNL     1     485.451  38.761 462.482  1.00  0.00     0.211 HD
ENDBRANCH  16  21
BRANCH  17  23
ATOM     23  C   UNL     1     482.925  43.240 462.256  1.00  0.00     0.191 C 
BRANCH  23  24
ATOM     24  O   UNL     1     482.092  43.117 463.406  1.00  0.00    -0.394 OA
ATOM     25  H   UNL     1     481.089  42.999 463.257  1.00  0.00     0.210 HD
ENDBRANCH  23  24
ENDBRANCH  17  23
BRANCH  18  26
ATOM     26  O   UNL     1     483.837  41.193 464.372  1.00  0.00    -0.387 OA
ATOM     27  H   UNL     1     484.624  41.399 464.967  1.00  0.00     0.211 HD
ENDBRANCH  18  26
ENDBRANCH  12  13
ENDBRANCH   7  12
BRANCH   4  28
ATOM     28  O   UNL     1     482.195  38.420 454.604  1.00  0.00    -0.365 OA
ATOM     29  H   UNL     1     481.291  38.759 454.312  1.00  0.00     0.214 HD
ENDBRANCH   4  28
BRANCH   8  30
ATOM     30  C   UNL     1     480.102  40.080 458.610  1.00  0.00     0.249 C 
BRANCH  30  31
ATOM     31  O   UNL     1     479.288  38.998 459.020  1.00  0.00    -0.461 OA
BRANCH  31  32
ATOM     32  C   UNL     1     478.944  38.695 460.358  1.00  0.00     0.338 C 
ATOM     33  O   UNL     1     478.910  39.611 461.260  1.00  0.00    -0.246 OA
BRANCH  32  34
ATOM     34  C   UNL     1     478.516  37.324 460.738  1.00  0.00     0.060 A 
ATOM     35  C   UNL     1     479.062  36.186 460.108  1.00  0.00     0.015 A 
ATOM     36  C   UNL     1     477.595  37.137 461.787  1.00  0.00     0.015 A 
ATOM     37  C   UNL     1     478.721  34.921 460.538  1.00  0.00     0.001 A 
ATOM     38  C   UNL     1     477.227  35.836 462.162  1.00  0.00     0.001 A 
ATOM     39  C   UNL     1     477.858  34.751 461.608  1.00  0.00     0.000 A 
ENDBRANCH  32  34
ENDBRANCH  31  32
ENDBRANCH  30  31
ENDBRANCH   8  30
TORSDOF 12
ENDMDL
MODEL 6
REMARK VINA RESULT:    -5.676      2.692      4.162
REMARK INTER + INTRA:         -10.554
REMARK INTER:                  -8.682
REMARK INTRA:                  -1.872
REMARK UNBOUND:                -1.727
REMARK SMILES C[C@@]12C[C@@]3(O)O[C@@H](O1)[C@]1(COC(=O)c4ccccc4)[C@H]3C[C@@]12O[C@H]1O[C@@H](CO)[C@@H](O)[C@H](O)[C@H]1O
REMARK SMILES IDX 1 1 2 2 3 3 4 4 20 5 21 6 22 7 9 8 7 9 8 10 6 11 23 12 24 13
REMARK SMILES IDX 33 14 25 15 31 16 26 17 29 18 34 19 32 21 27 23 28 24 30 26
REMARK SMILES IDX 5 28 10 30 11 31 12 32 13 33 14 34 15 35 19 36 16 37 18 38
REMARK SMILES IDX 17 39
REMARK H PARENT 34 20 32 22 28 25 30 27 5 29
REMARK Flexibility Score: inf
ROOT
ATOM      1  C   UNL     1     484.762  40.906 460.244  1.00  0.00     0.046 C 
ATOM      2  C   UNL     1     483.685  40.266 459.381  1.00  0.00     0.104 C 
ATOM      3  C   UNL     1     484.188  40.398 457.874  1.00  0.00     0.104 C 
ATOM      4  C   UNL     1     483.100  39.641 457.054  1.00  0.00     0.175 C 
ATOM      5  C   UNL     1     481.669  40.123 457.458  1.00  0.00     0.070 C 
ATOM      6  C   UNL     1     481.630  41.473 458.192  1.00  0.00     0.050 C 
ATOM      7  C   UNL     1     482.111  40.710 459.465  1.00  0.00     0.115 C 
ATOM      8  C   UNL     1     481.519  39.415 458.793  1.00  0.00     0.096 C 
ATOM      9  C   UNL     1     482.657  38.373 458.806  1.00  0.00     0.267 C 
ATOM     10  O   UNL     1     483.700  38.857 459.632  1.00  0.00    -0.342 OA
ATOM     11  O   UNL     1     483.145  38.297 457.485  1.00  0.00    -0.320 OA
ENDROOT
BRANCH   7  12
ATOM     12  O   UNL     1     481.471  41.157 460.681  1.00  0.00    -0.339 OA
BRANCH  12  13
ATOM     13  C   UNL     1     482.177  40.691 461.831  1.00  0.00     0.282 C 
ATOM     14  C   UNL     1     481.902  39.213 462.474  1.00  0.00     0.202 C 
ATOM     15  O   UNL     1     482.369  41.749 462.769  1.00  0.00    -0.341 OA
ATOM     16  C   UNL     1     482.828  39.093 463.721  1.00  0.00     0.179 C 
ATOM     17  C   UNL     1     481.759  41.516 464.024  1.00  0.00     0.178 C 
ATOM     18  C   UNL     1     482.504  40.296 464.700  1.00  0.00     0.177 C 
BRANCH  14  19
ATOM     19  O   UNL     1     480.561  38.854 462.921  1.00  0.00    -0.385 OA
ATOM     20  H   UNL     1     479.976  39.674 462.829  1.00  0.00     0.211 HD
ENDBRANCH  14  19
BRANCH  16  21
ATOM     21  O   UNL     1     484.208  39.082 463.294  1.00  0.00    -0.387 OA
ATOM     22  H   UNL     1     484.241  38.766 462.338  1.00  0.00     0.211 HD
ENDBRANCH  16  21
BRANCH  17  23
ATOM     23  C   UNL     1     480.179  41.627 463.951  1.00  0.00     0.191 C 
BRANCH  23  24
ATOM     24  O   UNL     1     479.427  40.750 464.785  1.00  0.00    -0.394 OA
ATOM     25  H   UNL     1     479.939  40.053 465.329  1.00  0.00     0.210 HD
ENDBRANCH  23  24
ENDBRANCH  17  23
BRANCH  18  26
ATOM     26  O   UNL     1     481.813  39.805 465.825  1.00  0.00    -0.387 OA
ATOM     27  H   UNL     1     481.539  38.854 465.640  1.00  0.00     0.211 HD
ENDBRANCH  18  26
ENDBRANCH  12  13
ENDBRANCH   7  12
BRANCH   4  28
ATOM     28  O   UNL     1     483.352  39.739 455.671  1.00  0.00    -0.365 OA
ATOM     29  H   UNL     1     484.351  39.698 455.543  1.00  0.00     0.214 HD
ENDBRANCH   4  28
BRANCH   8  30
ATOM     30  C   UNL     1     480.109  38.905 459.132  1.00  0.00     0.249 C 
BRANCH  30  31
ATOM     31  O   UNL     1     480.048  37.887 460.111  1.00  0.00    -0.461 OA
BRANCH  31  32
ATOM     32  C   UNL     1     479.404  36.637 459.952  1.00  0.00     0.338 C 
ATOM     33  O   UNL     1     479.797  35.794 459.062  1.00  0.00    -0.246 OA
BRANCH  32  34
ATOM     34  C   UNL     1     478.317  36.222 460.875  1.00  0.00     0.060 A 
ATOM     35  C   UNL     1     478.142  34.870 461.238  1.00  0.00     0.015 A 
ATOM     36  C   UNL     1     477.475  37.190 461.456  1.00  0.00     0.015 A 
ATOM     37  C   UNL     1     477.187  34.516 462.168  1.00  0.00     0.001 A 
ATOM     38  C   UNL     1     476.477  36.789 462.357  1.00  0.00     0.001 A 
ATOM     39  C   UNL     1     476.405  35.484 462.775  1.00  0.00     0.000 A 
ENDBRANCH  32  34
ENDBRANCH  31  32
ENDBRANCH  30  31
ENDBRANCH   8  30
TORSDOF 12
ENDMDL
MODEL 7
REMARK VINA RESULT:    -5.667      1.931      3.113
REMARK INTER + INTRA:         -10.542
REMARK INTER:                  -9.365
REMARK INTRA:                  -1.177
REMARK UNBOUND:                -1.727
REMARK SMILES C[C@@]12C[C@@]3(O)O[C@@H](O1)[C@]1(COC(=O)c4ccccc4)[C@H]3C[C@@]12O[C@H]1O[C@@H](CO)[C@@H](O)[C@H](O)[C@H]1O
REMARK SMILES IDX 1 1 2 2 3 3 4 4 20 5 21 6 22 7 9 8 7 9 8 10 6 11 23 12 24 13
REMARK SMILES IDX 33 14 25 15 31 16 26 17 29 18 34 19 32 21 27 23 28 24 30 26
REMARK SMILES IDX 5 28 10 30 11 31 12 32 13 33 14 34 15 35 19 36 16 37 18 38
REMARK SMILES IDX 17 39
REMARK H PARENT 34 20 32 22 28 25 30 27 5 29
REMARK Flexibility Score: inf
ROOT
ATOM      1  C   UNL     1     484.349  38.031 458.033  1.00  0.00     0.046 C 
ATOM      2  C   UNL     1     483.053  38.666 457.552  1.00  0.00     0.104 C 
ATOM      3  C   UNL     1     483.425  39.494 456.242  1.00  0.00     0.104 C 
ATOM      4  C   UNL     1     482.050  40.035 455.744  1.00  0.00     0.175 C 
ATOM      5  C   UNL     1     481.265  40.710 456.914  1.00  0.00     0.070 C 
ATOM      6  C   UNL     1     482.128  41.097 458.127  1.00  0.00     0.050 C 
ATOM      7  C   UNL     1     482.112  39.588 458.525  1.00  0.00     0.115 C 
ATOM      8  C   UNL     1     480.797  39.477 457.666  1.00  0.00     0.096 C 
ATOM      9  C   UNL     1     481.032  38.314 456.680  1.00  0.00     0.267 C 
ATOM     10  O   UNL     1     482.201  37.620 457.074  1.00  0.00    -0.342 OA
ATOM     11  O   UNL     1     481.275  38.899 455.421  1.00  0.00    -0.320 OA
ENDROOT
BRANCH   7  12
ATOM     12  O   UNL     1     481.975  39.370 459.946  1.00  0.00    -0.339 OA
BRANCH  12  13
ATOM     13  C   UNL     1     482.824  40.251 460.682  1.00  0.00     0.282 C 
ATOM     14  C   UNL     1     484.400  39.906 460.953  1.00  0.00     0.202 C 
ATOM     15  O   UNL     1     482.120  40.833 461.777  1.00  0.00    -0.341 OA
ATOM     16  C   UNL     1     484.968  41.077 461.810  1.00  0.00     0.179 C 
ATOM     17  C   UNL     1     482.671  40.519 463.042  1.00  0.00     0.178 C 
ATOM     18  C   UNL     1     484.097  41.200 463.127  1.00  0.00     0.177 C 
BRANCH  14  19
ATOM     19  O   UNL     1     484.766  38.675 461.644  1.00  0.00    -0.385 OA
ATOM     20  H   UNL     1     484.411  38.737 462.589  1.00  0.00     0.211 HD
ENDBRANCH  14  19
BRANCH  16  21
ATOM     21  O   UNL     1     484.963  42.291 461.026  1.00  0.00    -0.387 OA
ATOM     22  H   UNL     1     485.137  42.047 460.064  1.00  0.00     0.211 HD
ENDBRANCH  16  21
BRANCH  17  23
ATOM     23  C   UNL     1     482.414  39.008 463.448  1.00  0.00     0.191 C 
BRANCH  23  24
ATOM     24  O   UNL     1     483.457  38.337 464.149  1.00  0.00    -0.394 OA
ATOM     25  H   UNL     1     483.646  38.622 465.111  1.00  0.00     0.210 HD
ENDBRANCH  23  24
ENDBRANCH  17  23
BRANCH  18  26
ATOM     26  O   UNL     1     484.847  40.735 464.224  1.00  0.00    -0.387 OA
ATOM     27  H   UNL     1     484.527  39.809 464.459  1.00  0.00     0.211 HD
ENDBRANCH  18  26
ENDBRANCH  12  13
ENDBRANCH   7  12
BRANCH   4  28
ATOM     28  O   UNL     1     482.214  40.873 454.624  1.00  0.00    -0.365 OA
ATOM     29  H   UNL     1     483.190  40.858 454.375  1.00  0.00     0.214 HD
ENDBRANCH   4  28
BRANCH   8  30
ATOM     30  C   UNL     1     479.404  39.568 458.310  1.00  0.00     0.249 C 
BRANCH  30  31
ATOM     31  O   UNL     1     478.984  38.419 459.020  1.00  0.00    -0.461 OA
BRANCH  31  32
ATOM     32  C   UNL     1     478.573  38.398 460.373  1.00  0.00     0.338 C 
ATOM     33  O   UNL     1     478.493  39.483 461.061  1.00  0.00    -0.246 OA
BRANCH  32  34
ATOM     34  C   UNL     1     478.126  37.133 461.010  1.00  0.00     0.060 A 
ATOM     35  C   UNL     1     477.075  37.120 461.952  1.00  0.00     0.015 A 
ATOM     36  C   UNL     1     478.708  35.908 460.632  1.00  0.00     0.015 A 
ATOM     37  C   UNL     1     476.612  35.925 462.463  1.00  0.00     0.001 A 
ATOM     38  C   UNL     1     478.251  34.715 461.213  1.00  0.00     0.001 A 
ATOM     39  C   UNL     1     477.155  34.723 462.039  1.00  0.00     0.000 A 
ENDBRANCH  32  34
ENDBRANCH  31  32
ENDBRANCH  30  31
ENDBRANCH   8  30
TORSDOF 12
ENDMDL
MODEL 8
REMARK VINA RESULT:    -5.565      1.521      5.359
REMARK INTER + INTRA:         -10.382
REMARK INTER:                  -8.647
REMARK INTRA:                  -1.735
REMARK UNBOUND:                -1.727
REMARK SMILES C[C@@]12C[C@@]3(O)O[C@@H](O1)[C@]1(COC(=O)c4ccccc4)[C@H]3C[C@@]12O[C@H]1O[C@@H](CO)[C@@H](O)[C@H](O)[C@H]1O
REMARK SMILES IDX 1 1 2 2 3 3 4 4 20 5 21 6 22 7 9 8 7 9 8 10 6 11 23 12 24 13
REMARK SMILES IDX 33 14 25 15 31 16 26 17 29 18 34 19 32 21 27 23 28 24 30 26
REMARK SMILES IDX 5 28 10 30 11 31 12 32 13 33 14 34 15 35 19 36 16 37 18 38
REMARK SMILES IDX 17 39
REMARK H PARENT 34 20 32 22 28 25 30 27 5 29
REMARK Flexibility Score: inf
ROOT
ATOM      1  C   UNL     1     484.567  41.748 457.126  1.00  0.00     0.046 C 
ATOM      2  C   UNL     1     484.083  40.607 458.009  1.00  0.00     0.104 C 
ATOM      3  C   UNL     1     485.349  40.133 458.853  1.00  0.00     0.104 C 
ATOM      4  C   UNL     1     484.771  39.040 459.803  1.00  0.00     0.175 C 
ATOM      5  C   UNL     1     483.919  38.005 459.000  1.00  0.00     0.070 C 
ATOM      6  C   UNL     1     484.179  37.998 457.485  1.00  0.00     0.050 C 
ATOM      7  C   UNL     1     483.313  39.294 457.406  1.00  0.00     0.115 C 
ATOM      8  C   UNL     1     482.664  38.824 458.762  1.00  0.00     0.096 C 
ATOM      9  C   UNL     1     482.793  40.018 459.730  1.00  0.00     0.267 C 
ATOM     10  O   UNL     1     483.195  41.156 458.989  1.00  0.00    -0.342 OA
ATOM     11  O   UNL     1     483.830  39.694 460.629  1.00  0.00    -0.320 OA
ENDROOT
BRANCH   7  12
ATOM     12  O   UNL     1     482.444  39.336 456.253  1.00  0.00    -0.339 OA
BRANCH  12  13
ATOM     13  C   UNL     1     481.840  40.623 456.116  1.00  0.00     0.282 C 
ATOM     14  C   UNL     1     480.459  41.018 456.898  1.00  0.00     0.202 C 
ATOM     15  O   UNL     1     481.946  41.089 454.772  1.00  0.00    -0.341 OA
ATOM     16  C   UNL     1     480.108  42.473 456.468  1.00  0.00     0.179 C 
ATOM     17  C   UNL     1     480.698  41.309 454.144  1.00  0.00     0.178 C 
ATOM     18  C   UNL     1     479.991  42.512 454.888  1.00  0.00     0.177 C 
BRANCH  14  19
ATOM     19  O   UNL     1     479.254  40.224 456.690  1.00  0.00    -0.385 OA
ATOM     20  H   UNL     1     478.877  39.994 457.600  1.00  0.00     0.211 HD
ENDBRANCH  14  19
BRANCH  16  21
ATOM     21  O   UNL     1     481.114  43.379 456.972  1.00  0.00    -0.387 OA
ATOM     22  H   UNL     1     481.036  44.249 456.471  1.00  0.00     0.211 HD
ENDBRANCH  16  21
BRANCH  17  23
ATOM     23  C   UNL     1     479.953  39.951 453.803  1.00  0.00     0.191 C 
BRANCH  23  24
ATOM     24  O   UNL     1     478.533  39.943 453.916  1.00  0.00    -0.394 OA
ATOM     25  H   UNL     1     477.992  39.636 453.106  1.00  0.00     0.210 HD
ENDBRANCH  23  24
ENDBRANCH  17  23
BRANCH  18  26
ATOM     26  O   UNL     1     478.636  42.642 454.527  1.00  0.00    -0.387 OA
ATOM     27  H   UNL     1     478.509  42.235 453.615  1.00  0.00     0.211 HD
ENDBRANCH  18  26
ENDBRANCH  12  13
ENDBRANCH   7  12
BRANCH   4  28
ATOM     28  O   UNL     1     485.794  38.447 460.570  1.00  0.00    -0.365 OA
ATOM     29  H   UNL     1     486.645  38.501 460.032  1.00  0.00     0.214 HD
ENDBRANCH   4  28
BRANCH   8  30
ATOM     30  C   UNL     1     481.336  38.049 458.792  1.00  0.00     0.249 C 
BRANCH  30  31
ATOM     31  O   UNL     1     480.500  38.314 459.901  1.00  0.00    -0.461 OA
BRANCH  31  32
ATOM     32  C   UNL     1     479.092  38.175 459.915  1.00  0.00     0.338 C 
ATOM     33  O   UNL     1     478.344  38.908 459.168  1.00  0.00    -0.246 OA
BRANCH  32  34
ATOM     34  C   UNL     1     478.445  37.110 460.723  1.00  0.00     0.060 A 
ATOM     35  C   UNL     1     477.440  37.415 461.665  1.00  0.00     0.015 A 
ATOM     36  C   UNL     1     478.783  35.759 460.512  1.00  0.00     0.015 A 
ATOM     37  C   UNL     1     476.785  36.405 462.338  1.00  0.00     0.001 A 
ATOM     38  C   UNL     1     478.137  34.759 461.253  1.00  0.00     0.001 A 
ATOM     39  C   UNL     1     477.088  35.078 462.079  1.00  0.00     0.000 A 
ENDBRANCH  32  34
ENDBRANCH  31  32
ENDBRANCH  30  31
ENDBRANCH   8  30
TORSDOF 12
ENDMDL
MODEL 9
REMARK VINA RESULT:    -5.484      1.551      5.403
REMARK INTER + INTRA:         -10.257
REMARK INTER:                  -8.971
REMARK INTRA:                  -1.286
REMARK UNBOUND:                -1.727
REMARK SMILES C[C@@]12C[C@@]3(O)O[C@@H](O1)[C@]1(COC(=O)c4ccccc4)[C@H]3C[C@@]12O[C@H]1O[C@@H](CO)[C@@H](O)[C@H](O)[C@H]1O
REMARK SMILES IDX 1 1 2 2 3 3 4 4 20 5 21 6 22 7 9 8 7 9 8 10 6 11 23 12 24 13
REMARK SMILES IDX 33 14 25 15 31 16 26 17 29 18 34 19 32 21 27 23 28 24 30 26
REMARK SMILES IDX 5 28 10 30 11 31 12 32 13 33 14 34 15 35 19 36 16 37 18 38
REMARK SMILES IDX 17 39
REMARK H PARENT 34 20 32 22 28 25 30 27 5 29
REMARK Flexibility Score: inf
ROOT
ATOM      1  C   UNL     1     484.826  41.362 457.846  1.00  0.00     0.046 C 
ATOM      2  C   UNL     1     484.302  40.850 459.179  1.00  0.00     0.104 C 
ATOM      3  C   UNL     1     485.475  41.080 460.233  1.00  0.00     0.104 C 
ATOM      4  C   UNL     1     484.846  40.633 461.588  1.00  0.00     0.175 C 
ATOM      5  C   UNL     1     484.169  39.231 461.447  1.00  0.00     0.070 C 
ATOM      6  C   UNL     1     484.622  38.420 460.222  1.00  0.00     0.050 C 
ATOM      7  C   UNL     1     483.698  39.339 459.364  1.00  0.00     0.115 C 
ATOM      8  C   UNL     1     482.908  39.621 460.698  1.00  0.00     0.096 C 
ATOM      9  C   UNL     1     482.839  41.156 460.833  1.00  0.00     0.267 C 
ATOM     10  O   UNL     1     483.263  41.735 459.613  1.00  0.00    -0.342 OA
ATOM     11  O   UNL     1     483.768  41.512 461.832  1.00  0.00    -0.320 OA
ENDROOT
BRANCH   7  12
ATOM     12  O   UNL     1     482.983  38.631 458.328  1.00  0.00    -0.339 OA
BRANCH  12  13
ATOM     13  C   UNL     1     482.710  39.488 457.219  1.00  0.00     0.282 C 
ATOM     14  C   UNL     1     481.335  40.367 457.124  1.00  0.00     0.202 C 
ATOM     15  O   UNL     1     483.150  38.892 456.000  1.00  0.00    -0.341 OA
ATOM     16  C   UNL     1     481.392  41.134 455.769  1.00  0.00     0.179 C 
ATOM     17  C   UNL     1     482.110  38.665 455.068  1.00  0.00     0.178 C 
ATOM     18  C   UNL     1     481.565  40.075 454.604  1.00  0.00     0.177 C 
BRANCH  14  19
ATOM     19  O   UNL     1     480.040  39.698 457.164  1.00  0.00    -0.385 OA
ATOM     20  H   UNL     1     480.112  38.857 456.606  1.00  0.00     0.211 HD
ENDBRANCH  14  19
BRANCH  16  21
ATOM     21  O   UNL     1     482.469  42.097 455.808  1.00  0.00    -0.387 OA
ATOM     22  H   UNL     1     482.092  42.980 456.114  1.00  0.00     0.211 HD
ENDBRANCH  16  21
BRANCH  17  23
ATOM     23  C   UNL     1     481.157  37.478 455.513  1.00  0.00     0.191 C 
BRANCH  23  24
ATOM     24  O   UNL     1     481.694  36.518 456.419  1.00  0.00    -0.394 OA
ATOM     25  H   UNL     1     481.478  36.625 457.411  1.00  0.00     0.210 HD
ENDBRANCH  23  24
ENDBRANCH  17  23
BRANCH  18  26
ATOM     26  O   UNL     1     480.356  39.971 453.888  1.00  0.00    -0.387 OA
ATOM     27  H   UNL     1     480.438  40.516 453.045  1.00  0.00     0.211 HD
ENDBRANCH  18  26
ENDBRANCH  12  13
ENDBRANCH   7  12
BRANCH   4  28
ATOM     28  O   UNL     1     485.795  40.692 462.628  1.00  0.00    -0.365 OA
ATOM     29  H   UNL     1     485.940  39.751 462.959  1.00  0.00     0.214 HD
ENDBRANCH   4  28
BRANCH   8  30
ATOM     30  C   UNL     1     481.637  38.836 461.062  1.00  0.00     0.249 C 
BRANCH  30  31
ATOM     31  O   UNL     1     480.600  38.874 460.101  1.00  0.00    -0.461 OA
BRANCH  31  32
ATOM     32  C   UNL     1     479.826  37.764 459.688  1.00  0.00     0.338 C 
ATOM     33  O   UNL     1     480.100  37.128 458.604  1.00  0.00    -0.246 OA
BRANCH  32  34
ATOM     34  C   UNL     1     478.734  37.241 460.548  1.00  0.00     0.060 A 
ATOM     35  C   UNL     1     478.627  35.865 460.839  1.00  0.00     0.015 A 
ATOM     36  C   UNL     1     477.816  38.129 461.143  1.00  0.00     0.015 A 
ATOM     37  C   UNL     1     477.662  35.410 461.713  1.00  0.00     0.001 A 
ATOM     38  C   UNL     1     476.812  37.626 461.984  1.00  0.00     0.001 A 
ATOM     39  C   UNL     1     476.803  36.300 462.336  1.00  0.00     0.000 A 
ENDBRANCH  32  34
ENDBRANCH  31  32
ENDBRANCH  30  31
ENDBRANCH   8  30
TORSDOF 12
ENDMDL
