MODEL 1
REMARK VINA RESULT:    -4.978      0.000      0.000
REMARK INTER + INTRA:         -13.937
REMARK INTER:                 -10.798
REMARK INTRA:                  -3.139
REMARK UNBOUND:                -3.139
REMARK SMILES CCCCCCCCCCCCCCCCCCCCCC(=O)[O-]
REMARK SMILES IDX 12 1 11 2 10 3 9 4 8 5 7 6 6 7 5 8 4 9 3 10 2 11 1 12 13 13
REMARK SMILES IDX 14 14 15 15 16 16 17 17 18 18 19 19 20 20 21 21 22 22 23 23
REMARK SMILES IDX 24 24
REMARK H PARENT
REMARK Flexibility Score: inf
ROOT
ATOM      1  C   UNL     1      59.516  28.572  12.271  1.00  0.00     0.000 C 
ENDROOT
BRANCH   1   2
ATOM      2  C   UNL     1      59.670  29.510  11.058  1.00  0.00     0.000 C 
BRANCH   2   3
ATOM      3  C   UNL     1      60.126  28.770   9.789  1.00  0.00     0.000 C 
BRANCH   3   4
ATOM      4  C   UNL     1      61.400  29.378   9.174  1.00  0.00    -0.000 C 
BRANCH   4   5
ATOM      5  C   UNL     1      62.680  28.647   9.619  1.00  0.00    -0.000 C 
BRANCH   5   6
ATOM      6  C   UNL     1      63.994  29.269   9.109  1.00  0.00    -0.000 C 
BRANCH   6   7
ATOM      7  C   UNL     1      63.895  30.791   8.901  1.00  0.00    -0.000 C 
BRANCH   7   8
ATOM      8  C   UNL     1      64.756  31.575   9.915  1.00  0.00    -0.000 C 
BRANCH   8   9
ATOM      9  C   UNL     1      64.450  31.232  11.386  1.00  0.00    -0.000 C 
BRANCH   9  10
ATOM     10  C   UNL     1      63.757  32.352  12.181  1.00  0.00    -0.000 C 
BRANCH  10  11
ATOM     11  C   UNL     1      64.374  32.562  13.572  1.00  0.00    -0.003 C 
ATOM     12  C   UNL     1      65.211  33.839  13.614  1.00  0.00     0.004 C 
ENDBRANCH  10  11
ENDBRANCH   9  10
ENDBRANCH   8   9
ENDBRANCH   7   8
ENDBRANCH   6   7
ENDBRANCH   5   6
ENDBRANCH   4   5
ENDBRANCH   3   4
ENDBRANCH   2   3
ENDBRANCH   1   2
BRANCH   1  13
ATOM     13  C   UNL     1      60.852  28.306  12.985  1.00  0.00     0.000 C 
BRANCH  13  14
ATOM     14  C   UNL     1      61.730  29.569  13.082  1.00  0.00     0.000 C 
BRANCH  14  15
ATOM     15  C   UNL     1      61.860  30.089  14.523  1.00  0.00     0.000 C 
BRANCH  15  16
ATOM     16  C   UNL     1      60.661  30.947  14.956  1.00  0.00     0.000 C 
BRANCH  16  17
ATOM     17  C   UNL     1      60.224  31.886  13.825  1.00  0.00     0.000 C 
BRANCH  17  18
ATOM     18  C   UNL     1      60.679  33.328  14.094  1.00  0.00     0.000 C 
BRANCH  18  19
ATOM     19  C   UNL     1      60.723  33.666  15.592  1.00  0.00     0.000 C 
BRANCH  19  20
ATOM     20  C   UNL     1      62.151  33.937  16.099  1.00  0.00     0.006 C 
BRANCH  20  21
ATOM     21  C   UNL     1      62.453  33.191  17.406  1.00  0.00     0.053 C 
BRANCH  21  22
ATOM     22  C   UNL     1      62.426  34.106  18.591  1.00  0.00     0.041 C 
ATOM     23  O   UNL     1      61.327  34.492  19.070  1.00  0.00    -0.550 OA
ATOM     24  O   UNL     1      63.616  34.556  19.151  1.00  0.00    -0.550 OA
ENDBRANCH  21  22
ENDBRANCH  20  21
ENDBRANCH  19  20
ENDBRANCH  18  19
ENDBRANCH  17  18
ENDBRANCH  16  17
ENDBRANCH  15  16
ENDBRANCH  14  15
ENDBRANCH  13  14
ENDBRANCH   1  13
TORSDOF 20
ENDMDL
MODEL 2
REMARK VINA RESULT:    -4.906      3.117      6.807
REMARK INTER + INTRA:         -13.782
REMARK INTER:                 -10.340
REMARK INTRA:                  -3.442
REMARK UNBOUND:                -3.139
REMARK SMILES CCCCCCCCCCCCCCCCCCCCCC(=O)[O-]
REMARK SMILES IDX 12 1 11 2 10 3 9 4 8 5 7 6 6 7 5 8 4 9 3 10 2 11 1 12 13 13
REMARK SMILES IDX 14 14 15 15 16 16 17 17 18 18 19 19 20 20 21 21 22 22 23 23
REMARK SMILES IDX 24 24
REMARK H PARENT
REMARK Flexibility Score: inf
ROOT
ATOM      1  C   UNL     1      65.082  31.927  14.979  1.00  0.00     0.000 C 
ENDROOT
BRANCH   1   2
ATOM      2  C   UNL     1      63.986  30.858  15.154  1.00  0.00     0.000 C 
BRANCH   2   3
ATOM      3  C   UNL     1      64.045  29.764  14.075  1.00  0.00     0.000 C 
BRANCH   3   4
ATOM      4  C   UNL     1      62.671  29.482  13.440  1.00  0.00    -0.000 C 
BRANCH   4   5
ATOM      5  C   UNL     1      61.509  29.675  14.432  1.00  0.00    -0.000 C 
BRANCH   5   6
ATOM      6  C   UNL     1      60.448  30.703  13.997  1.00  0.00    -0.000 C 
BRANCH   6   7
ATOM      7  C   UNL     1      61.026  31.825  13.116  1.00  0.00    -0.000 C 
BRANCH   7   8
ATOM      8  C   UNL     1      60.695  33.228  13.668  1.00  0.00    -0.000 C 
BRANCH   8   9
ATOM      9  C   UNL     1      60.535  33.272  15.200  1.00  0.00    -0.000 C 
BRANCH   9  10
ATOM     10  C   UNL     1      61.766  33.789  15.965  1.00  0.00    -0.000 C 
BRANCH  10  11
ATOM     11  C   UNL     1      61.822  33.281  17.413  1.00  0.00    -0.003 C 
ATOM     12  C   UNL     1      61.130  34.255  18.364  1.00  0.00     0.004 C 
ENDBRANCH  10  11
ENDBRANCH   9  10
ENDBRANCH   8   9
ENDBRANCH   7   8
ENDBRANCH   6   7
ENDBRANCH   5   6
ENDBRANCH   4   5
ENDBRANCH   3   4
ENDBRANCH   2   3
ENDBRANCH   1   2
BRANCH   1  13
ATOM     13  C   UNL     1      64.549  33.221  14.342  1.00  0.00     0.000 C 
BRANCH  13  14
ATOM     14  C   UNL     1      65.160  33.487  12.952  1.00  0.00     0.000 C 
BRANCH  14  15
ATOM     15  C   UNL     1      64.499  32.647  11.846  1.00  0.00     0.000 C 
BRANCH  15  16
ATOM     16  C   UNL     1      65.394  32.487  10.607  1.00  0.00     0.000 C 
BRANCH  16  17
ATOM     17  C   UNL     1      64.841  31.407   9.669  1.00  0.00     0.000 C 
BRANCH  17  18
ATOM     18  C   UNL     1      63.696  30.627  10.334  1.00  0.00     0.000 C 
BRANCH  18  19
ATOM     19  C   UNL     1      63.639  29.159   9.885  1.00  0.00     0.000 C 
BRANCH  19  20
ATOM     20  C   UNL     1      62.295  28.788   9.235  1.00  0.00     0.006 C 
BRANCH  20  21
ATOM     21  C   UNL     1      61.312  28.177  10.243  1.00  0.00     0.053 C 
BRANCH  21  22
ATOM     22  C   UNL     1      60.115  29.051  10.458  1.00  0.00     0.041 C 
ATOM     23  O   UNL     1      59.923  30.055   9.723  1.00  0.00    -0.550 OA
ATOM     24  O   UNL     1      59.226  28.774  11.490  1.00  0.00    -0.550 OA
ENDBRANCH  21  22
ENDBRANCH  20  21
ENDBRANCH  19  20
ENDBRANCH  18  19
ENDBRANCH  17  18
ENDBRANCH  16  17
ENDBRANCH  15  16
ENDBRANCH  14  15
ENDBRANCH  13  14
ENDBRANCH   1  13
TORSDOF 20
ENDMDL
MODEL 3
REMARK VINA RESULT:    -4.862      1.049      3.992
REMARK INTER + INTRA:         -13.686
REMARK INTER:                 -10.512
REMARK INTRA:                  -3.175
REMARK UNBOUND:                -3.139
REMARK SMILES CCCCCCCCCCCCCCCCCCCCCC(=O)[O-]
REMARK SMILES IDX 12 1 11 2 10 3 9 4 8 5 7 6 6 7 5 8 4 9 3 10 2 11 1 12 13 13
REMARK SMILES IDX 14 14 15 15 16 16 17 17 18 18 19 19 20 20 21 21 22 22 23 23
REMARK SMILES IDX 24 24
REMARK H PARENT
REMARK Flexibility Score: inf
ROOT
ATOM      1  C   UNL     1      62.783  29.004   9.386  1.00  0.00     0.000 C 
ENDROOT
BRANCH   1   2
ATOM      2  C   UNL     1      61.651  29.958   8.959  1.00  0.00     0.000 C 
BRANCH   2   3
ATOM      3  C   UNL     1      60.323  29.662   9.676  1.00  0.00     0.000 C 
BRANCH   3   4
ATOM      4  C   UNL     1      60.419  28.456  10.629  1.00  0.00    -0.000 C 
BRANCH   4   5
ATOM      5  C   UNL     1      59.566  28.635  11.899  1.00  0.00    -0.000 C 
BRANCH   5   6
ATOM      6  C   UNL     1      60.310  28.373  13.222  1.00  0.00    -0.000 C 
BRANCH   6   7
ATOM      7  C   UNL     1      61.829  28.588  13.109  1.00  0.00    -0.000 C 
BRANCH   7   8
ATOM      8  C   UNL     1      62.351  29.614  14.139  1.00  0.00    -0.000 C 
BRANCH   8   9
ATOM      9  C   UNL     1      61.288  30.064  15.160  1.00  0.00    -0.000 C 
BRANCH   9  10
ATOM     10  C   UNL     1      60.903  31.552  15.079  1.00  0.00    -0.000 C 
BRANCH  10  11
ATOM     11  C   UNL     1      59.778  31.819  14.068  1.00  0.00    -0.003 C 
ATOM     12  C   UNL     1      60.345  32.270  12.723  1.00  0.00     0.004 C 
ENDBRANCH  10  11
ENDBRANCH   9  10
ENDBRANCH   8   9
ENDBRANCH   7   8
ENDBRANCH   6   7
ENDBRANCH   5   6
ENDBRANCH   4   5
ENDBRANCH   3   4
ENDBRANCH   2   3
ENDBRANCH   1   2
BRANCH   1  13
ATOM     13  C   UNL     1      64.120  29.734   9.604  1.00  0.00     0.000 C 
BRANCH  13  14
ATOM     14  C   UNL     1      64.052  30.755  10.756  1.00  0.00     0.000 C 
BRANCH  14  15
ATOM     15  C   UNL     1      64.885  32.017  10.476  1.00  0.00     0.000 C 
BRANCH  15  16
ATOM     16  C   UNL     1      64.985  32.946  11.696  1.00  0.00     0.000 C 
BRANCH  16  17
ATOM     17  C   UNL     1      63.907  32.606  12.733  1.00  0.00     0.000 C 
BRANCH  17  18
ATOM     18  C   UNL     1      64.498  32.549  14.149  1.00  0.00     0.000 C 
BRANCH  18  19
ATOM     19  C   UNL     1      64.410  33.896  14.883  1.00  0.00     0.000 C 
BRANCH  19  20
ATOM     20  C   UNL     1      63.312  33.916  15.961  1.00  0.00     0.006 C 
BRANCH  20  21
ATOM     21  C   UNL     1      63.886  33.745  17.375  1.00  0.00     0.053 C 
BRANCH  21  22
ATOM     22  C   UNL     1      62.811  33.744  18.418  1.00  0.00     0.041 C 
ATOM     23  O   UNL     1      63.038  34.213  19.565  1.00  0.00    -0.550 OA
ATOM     24  O   UNL     1      61.564  33.200  18.133  1.00  0.00    -0.550 OA
ENDBRANCH  21  22
ENDBRANCH  20  21
ENDBRANCH  19  20
ENDBRANCH  18  19
ENDBRANCH  17  18
ENDBRANCH  16  17
ENDBRANCH  15  16
ENDBRANCH  14  15
ENDBRANCH  13  14
ENDBRANCH   1  13
TORSDOF 20
ENDMDL
MODEL 4
REMARK VINA RESULT:    -4.861      1.033      3.793
REMARK INTER + INTRA:         -13.683
REMARK INTER:                 -10.219
REMARK INTRA:                  -3.464
REMARK UNBOUND:                -3.139
REMARK SMILES CCCCCCCCCCCCCCCCCCCCCC(=O)[O-]
REMARK SMILES IDX 12 1 11 2 10 3 9 4 8 5 7 6 6 7 5 8 4 9 3 10 2 11 1 12 13 13
REMARK SMILES IDX 14 14 15 15 16 16 17 17 18 18 19 19 20 20 21 21 22 22 23 23
REMARK SMILES IDX 24 24
REMARK H PARENT
REMARK Flexibility Score: inf
ROOT
ATOM      1  C   UNL     1      62.784  29.511  14.099  1.00  0.00     0.000 C 
ENDROOT
BRANCH   1   2
ATOM      2  C   UNL     1      64.191  30.024  13.740  1.00  0.00     0.000 C 
BRANCH   2   3
ATOM      3  C   UNL     1      64.413  31.490  14.150  1.00  0.00     0.000 C 
BRANCH   3   4
ATOM      4  C   UNL     1      64.238  32.468  12.973  1.00  0.00    -0.000 C 
BRANCH   4   5
ATOM      5  C   UNL     1      63.797  31.762  11.677  1.00  0.00    -0.000 C 
BRANCH   5   6
ATOM      6  C   UNL     1      64.683  32.047  10.449  1.00  0.00    -0.000 C 
BRANCH   6   7
ATOM      7  C   UNL     1      65.099  30.767   9.701  1.00  0.00    -0.000 C 
BRANCH   7   8
ATOM      8  C   UNL     1      64.137  29.592   9.978  1.00  0.00    -0.000 C 
BRANCH   8   9
ATOM      9  C   UNL     1      63.055  29.407   8.896  1.00  0.00    -0.000 C 
BRANCH   9  10
ATOM     10  C   UNL     1      61.610  29.602   9.387  1.00  0.00    -0.000 C 
BRANCH  10  11
ATOM     11  C   UNL     1      60.755  28.335   9.239  1.00  0.00    -0.003 C 
ATOM     12  C   UNL     1      59.314  28.683   8.876  1.00  0.00     0.004 C 
ENDBRANCH  10  11
ENDBRANCH   9  10
ENDBRANCH   8   9
ENDBRANCH   7   8
ENDBRANCH   6   7
ENDBRANCH   5   6
ENDBRANCH   4   5
ENDBRANCH   3   4
ENDBRANCH   2   3
ENDBRANCH   1   2
BRANCH   1  13
ATOM     13  C   UNL     1      62.168  28.646  12.987  1.00  0.00     0.000 C 
BRANCH  13  14
ATOM     14  C   UNL     1      60.656  28.419  13.187  1.00  0.00     0.000 C 
BRANCH  14  15
ATOM     15  C   UNL     1      59.806  29.556  12.597  1.00  0.00     0.000 C 
BRANCH  15  16
ATOM     16  C   UNL     1      59.747  30.790  13.511  1.00  0.00     0.000 C 
BRANCH  16  17
ATOM     17  C   UNL     1      60.354  32.015  12.816  1.00  0.00     0.000 C 
BRANCH  17  18
ATOM     18  C   UNL     1      60.553  33.173  13.806  1.00  0.00     0.000 C 
BRANCH  18  19
ATOM     19  C   UNL     1      61.027  32.697  15.188  1.00  0.00     0.000 C 
BRANCH  19  20
ATOM     20  C   UNL     1      61.969  33.702  15.873  1.00  0.00     0.006 C 
BRANCH  20  21
ATOM     21  C   UNL     1      62.676  33.095  17.093  1.00  0.00     0.053 C 
BRANCH  21  22
ATOM     22  C   UNL     1      62.169  33.673  18.378  1.00  0.00     0.041 C 
ATOM     23  O   UNL     1      62.738  34.672  18.892  1.00  0.00    -0.550 OA
ATOM     24  O   UNL     1      61.085  33.092  19.024  1.00  0.00    -0.550 OA
ENDBRANCH  21  22
ENDBRANCH  20  21
ENDBRANCH  19  20
ENDBRANCH  18  19
ENDBRANCH  17  18
ENDBRANCH  16  17
ENDBRANCH  15  16
ENDBRANCH  14  15
ENDBRANCH  13  14
ENDBRANCH   1  13
TORSDOF 20
ENDMDL
MODEL 5
REMARK VINA RESULT:    -4.784      1.015      3.875
REMARK INTER + INTRA:         -13.516
REMARK INTER:                 -10.061
REMARK INTRA:                  -3.455
REMARK UNBOUND:                -3.139
REMARK SMILES CCCCCCCCCCCCCCCCCCCCCC(=O)[O-]
REMARK SMILES IDX 12 1 11 2 10 3 9 4 8 5 7 6 6 7 5 8 4 9 3 10 2 11 1 12 13 13
REMARK SMILES IDX 14 14 15 15 16 16 17 17 18 18 19 19 20 20 21 21 22 22 23 23
REMARK SMILES IDX 24 24
REMARK H PARENT
REMARK Flexibility Score: inf
ROOT
ATOM      1  C   UNL     1      63.904  30.876  14.833  1.00  0.00     0.000 C 
ENDROOT
BRANCH   1   2
ATOM      2  C   UNL     1      64.612  32.132  14.291  1.00  0.00     0.000 C 
BRANCH   2   3
ATOM      3  C   UNL     1      63.977  32.659  12.993  1.00  0.00     0.000 C 
BRANCH   3   4
ATOM      4  C   UNL     1      65.027  33.113  11.962  1.00  0.00    -0.000 C 
BRANCH   4   5
ATOM      5  C   UNL     1      64.935  32.330  10.638  1.00  0.00    -0.000 C 
BRANCH   5   6
ATOM      6  C   UNL     1      64.363  30.906  10.765  1.00  0.00    -0.000 C 
BRANCH   6   7
ATOM      7  C   UNL     1      63.750  30.387   9.452  1.00  0.00    -0.000 C 
BRANCH   7   8
ATOM      8  C   UNL     1      63.236  28.937   9.582  1.00  0.00    -0.000 C 
BRANCH   8   9
ATOM      9  C   UNL     1      62.220  28.737  10.723  1.00  0.00    -0.000 C 
BRANCH   9  10
ATOM     10  C   UNL     1      60.745  28.757  10.286  1.00  0.00    -0.000 C 
BRANCH  10  11
ATOM     11  C   UNL     1      59.846  29.527  11.265  1.00  0.00    -0.003 C 
ATOM     12  C   UNL     1      59.278  28.599  12.336  1.00  0.00     0.004 C 
ENDBRANCH  10  11
ENDBRANCH   9  10
ENDBRANCH   8   9
ENDBRANCH   7   8
ENDBRANCH   6   7
ENDBRANCH   5   6
ENDBRANCH   4   5
ENDBRANCH   3   4
ENDBRANCH   2   3
ENDBRANCH   1   2
BRANCH   1  13
ATOM     13  C   UNL     1      62.631  30.528  14.043  1.00  0.00     0.000 C 
BRANCH  13  14
ATOM     14  C   UNL     1      61.463  30.115  14.960  1.00  0.00     0.000 C 
BRANCH  14  15
ATOM     15  C   UNL     1      60.350  31.174  15.010  1.00  0.00     0.000 C 
BRANCH  15  16
ATOM     16  C   UNL     1      60.335  32.081  13.769  1.00  0.00     0.000 C 
BRANCH  16  17
ATOM     17  C   UNL     1      60.663  33.531  14.148  1.00  0.00     0.000 C 
BRANCH  17  18
ATOM     18  C   UNL     1      60.733  33.704  15.673  1.00  0.00     0.000 C 
BRANCH  18  19
ATOM     19  C   UNL     1      62.158  33.990  16.172  1.00  0.00     0.000 C 
BRANCH  19  20
ATOM     20  C   UNL     1      62.545  33.131  17.389  1.00  0.00     0.006 C 
BRANCH  20  21
ATOM     21  C   UNL     1      63.928  33.502  17.943  1.00  0.00     0.053 C 
BRANCH  21  22
ATOM     22  C   UNL     1      63.830  34.244  19.240  1.00  0.00     0.041 C 
ATOM     23  O   UNL     1      62.882  34.009  20.035  1.00  0.00    -0.550 OA
ATOM     24  O   UNL     1      64.770  35.216  19.559  1.00  0.00    -0.550 OA
ENDBRANCH  21  22
ENDBRANCH  20  21
ENDBRANCH  19  20
ENDBRANCH  18  19
ENDBRANCH  17  18
ENDBRANCH  16  17
ENDBRANCH  15  16
ENDBRANCH  14  15
ENDBRANCH  13  14
ENDBRANCH   1  13
TORSDOF 20
ENDMDL
MODEL 6
REMARK VINA RESULT:    -4.757      1.270      1.961
REMARK INTER + INTRA:         -13.458
REMARK INTER:                 -10.204
REMARK INTRA:                  -3.254
REMARK UNBOUND:                -3.139
REMARK SMILES CCCCCCCCCCCCCCCCCCCCCC(=O)[O-]
REMARK SMILES IDX 12 1 11 2 10 3 9 4 8 5 7 6 6 7 5 8 4 9 3 10 2 11 1 12 13 13
REMARK SMILES IDX 14 14 15 15 16 16 17 17 18 18 19 19 20 20 21 21 22 22 23 23
REMARK SMILES IDX 24 24
REMARK H PARENT
REMARK Flexibility Score: inf
ROOT
ATOM      1  C   UNL     1      60.214  28.209  12.862  1.00  0.00     0.000 C 
ENDROOT
BRANCH   1   2
ATOM      2  C   UNL     1      59.347  28.782  11.725  1.00  0.00     0.000 C 
BRANCH   2   3
ATOM      3  C   UNL     1      60.022  28.665  10.347  1.00  0.00     0.000 C 
BRANCH   3   4
ATOM      4  C   UNL     1      60.914  29.876  10.019  1.00  0.00    -0.000 C 
BRANCH   4   5
ATOM      5  C   UNL     1      62.152  29.492   9.187  1.00  0.00    -0.000 C 
BRANCH   5   6
ATOM      6  C   UNL     1      63.392  29.097  10.012  1.00  0.00    -0.000 C 
BRANCH   6   7
ATOM      7  C   UNL     1      63.410  29.738  11.411  1.00  0.00    -0.000 C 
BRANCH   7   8
ATOM      8  C   UNL     1      64.057  31.140  11.400  1.00  0.00    -0.000 C 
BRANCH   8   9
ATOM      9  C   UNL     1      63.574  32.057  12.541  1.00  0.00    -0.000 C 
BRANCH   9  10
ATOM     10  C   UNL     1      63.809  31.505  13.958  1.00  0.00    -0.000 C 
BRANCH  10  11
ATOM     11  C   UNL     1      64.707  32.415  14.808  1.00  0.00    -0.003 C 
ATOM     12  C   UNL     1      64.464  33.887  14.482  1.00  0.00     0.004 C 
ENDBRANCH  10  11
ENDBRANCH   9  10
ENDBRANCH   8   9
ENDBRANCH   7   8
ENDBRANCH   6   7
ENDBRANCH   5   6
ENDBRANCH   4   5
ENDBRANCH   3   4
ENDBRANCH   2   3
ENDBRANCH   1   2
BRANCH   1  13
ATOM     13  C   UNL     1      60.785  29.304  13.778  1.00  0.00     0.000 C 
BRANCH  13  14
ATOM     14  C   UNL     1      60.253  30.706  13.422  1.00  0.00     0.000 C 
BRANCH  14  15
ATOM     15  C   UNL     1      60.123  31.618  14.653  1.00  0.00     0.000 C 
BRANCH  15  16
ATOM     16  C   UNL     1      60.395  33.096  14.330  1.00  0.00     0.000 C 
BRANCH  16  17
ATOM     17  C   UNL     1      60.930  33.836  15.562  1.00  0.00     0.000 C 
BRANCH  17  18
ATOM     18  C   UNL     1      61.419  32.848  16.633  1.00  0.00     0.000 C 
BRANCH  18  19
ATOM     19  C   UNL     1      61.694  33.527  17.984  1.00  0.00     0.000 C 
BRANCH  19  20
ATOM     20  C   UNL     1      63.002  34.340  17.985  1.00  0.00     0.006 C 
BRANCH  20  21
ATOM     21  C   UNL     1      64.083  33.695  18.864  1.00  0.00     0.053 C 
BRANCH  21  22
ATOM     22  C   UNL     1      64.148  34.324  20.222  1.00  0.00     0.041 C 
ATOM     23  O   UNL     1      63.581  33.775  21.203  1.00  0.00    -0.550 OA
ATOM     24  O   UNL     1      64.811  35.533  20.399  1.00  0.00    -0.550 OA
ENDBRANCH  21  22
ENDBRANCH  20  21
ENDBRANCH  19  20
ENDBRANCH  18  19
ENDBRANCH  17  18
ENDBRANCH  16  17
ENDBRANCH  15  16
ENDBRANCH  14  15
ENDBRANCH  13  14
ENDBRANCH   1  13
TORSDOF 20
ENDMDL
MODEL 7
REMARK VINA RESULT:    -4.658      9.404     13.222
REMARK INTER + INTRA:         -13.242
REMARK INTER:                 -10.167
REMARK INTRA:                  -3.076
REMARK UNBOUND:                -3.139
REMARK SMILES CCCCCCCCCCCCCCCCCCCCCC(=O)[O-]
REMARK SMILES IDX 12 1 11 2 10 3 9 4 8 5 7 6 6 7 5 8 4 9 3 10 2 11 1 12 13 13
REMARK SMILES IDX 14 14 15 15 16 16 17 17 18 18 19 19 20 20 21 21 22 22 23 23
REMARK SMILES IDX 24 24
REMARK H PARENT
REMARK Flexibility Score: inf
ROOT
ATOM      1  C   UNL     1      61.043  27.222  28.234  1.00  0.00     0.000 C 
ENDROOT
BRANCH   1   2
ATOM      2  C   UNL     1      60.617  27.007  26.769  1.00  0.00     0.000 C 
BRANCH   2   3
ATOM      3  C   UNL     1      60.775  28.276  25.913  1.00  0.00     0.000 C 
BRANCH   3   4
ATOM      4  C   UNL     1      61.853  28.126  24.824  1.00  0.00    -0.000 C 
BRANCH   4   5
ATOM      5  C   UNL     1      62.545  26.750  24.861  1.00  0.00    -0.000 C 
BRANCH   5   6
ATOM      6  C   UNL     1      63.849  26.700  25.679  1.00  0.00    -0.000 C 
BRANCH   6   7
ATOM      7  C   UNL     1      65.051  26.196  24.861  1.00  0.00    -0.000 C 
BRANCH   7   8
ATOM      8  C   UNL     1      64.753  26.166  23.346  1.00  0.00    -0.000 C 
BRANCH   8   9
ATOM      9  C   UNL     1      66.005  25.967  22.470  1.00  0.00    -0.000 C 
BRANCH   9  10
ATOM     10  C   UNL     1      66.386  27.180  21.602  1.00  0.00    -0.000 C 
BRANCH  10  11
ATOM     11  C   UNL     1      67.052  26.776  20.278  1.00  0.00    -0.003 C 
ATOM     12  C   UNL     1      66.051  26.101  19.344  1.00  0.00     0.004 C 
ENDBRANCH  10  11
ENDBRANCH   9  10
ENDBRANCH   8   9
ENDBRANCH   7   8
ENDBRANCH   6   7
ENDBRANCH   5   6
ENDBRANCH   4   5
ENDBRANCH   3   4
ENDBRANCH   2   3
ENDBRANCH   1   2
BRANCH   1  13
ATOM     13  C   UNL     1      61.120  28.710  28.615  1.00  0.00     0.000 C 
BRANCH  13  14
ATOM     14  C   UNL     1      62.555  29.158  28.953  1.00  0.00     0.000 C 
BRANCH  14  15
ATOM     15  C   UNL     1      62.920  30.506  28.311  1.00  0.00     0.000 C 
BRANCH  15  16
ATOM     16  C   UNL     1      64.436  30.753  28.265  1.00  0.00     0.000 C 
BRANCH  16  17
ATOM     17  C   UNL     1      65.143  29.661  27.451  1.00  0.00     0.000 C 
BRANCH  17  18
ATOM     18  C   UNL     1      66.343  30.233  26.681  1.00  0.00     0.000 C 
BRANCH  18  19
ATOM     19  C   UNL     1      66.766  29.346  25.500  1.00  0.00     0.000 C 
BRANCH  19  20
ATOM     20  C   UNL     1      66.462  29.989  24.135  1.00  0.00     0.006 C 
BRANCH  20  21
ATOM     21  C   UNL     1      64.982  29.857  23.749  1.00  0.00     0.053 C 
BRANCH  21  22
ATOM     22  C   UNL     1      64.229  31.131  23.978  1.00  0.00     0.041 C 
ATOM     23  O   UNL     1      63.353  31.197  24.881  1.00  0.00    -0.550 OA
ATOM     24  O   UNL     1      64.474  32.238  23.175  1.00  0.00    -0.550 OA
ENDBRANCH  21  22
ENDBRANCH  20  21
ENDBRANCH  19  20
ENDBRANCH  18  19
ENDBRANCH  17  18
ENDBRANCH  16  17
ENDBRANCH  15  16
ENDBRANCH  14  15
ENDBRANCH  13  14
ENDBRANCH   1  13
TORSDOF 20
ENDMDL
MODEL 8
REMARK VINA RESULT:    -4.605      1.910      4.882
REMARK INTER + INTRA:         -13.129
REMARK INTER:                 -10.433
REMARK INTRA:                  -2.696
REMARK UNBOUND:                -3.139
REMARK SMILES CCCCCCCCCCCCCCCCCCCCCC(=O)[O-]
REMARK SMILES IDX 12 1 11 2 10 3 9 4 8 5 7 6 6 7 5 8 4 9 3 10 2 11 1 12 13 13
REMARK SMILES IDX 14 14 15 15 16 16 17 17 18 18 19 19 20 20 21 21 22 22 23 23
REMARK SMILES IDX 24 24
REMARK H PARENT
REMARK Flexibility Score: inf
ROOT
ATOM      1  C   UNL     1      63.078  28.901   9.280  1.00  0.00     0.000 C 
ENDROOT
BRANCH   1   2
ATOM      2  C   UNL     1      63.170  30.395   9.645  1.00  0.00     0.000 C 
BRANCH   2   3
ATOM      3  C   UNL     1      64.591  30.960   9.481  1.00  0.00     0.000 C 
BRANCH   3   4
ATOM      4  C   UNL     1      64.929  32.029  10.537  1.00  0.00    -0.000 C 
BRANCH   4   5
ATOM      5  C   UNL     1      64.124  31.851  11.838  1.00  0.00    -0.000 C 
BRANCH   5   6
ATOM      6  C   UNL     1      64.135  33.071  12.779  1.00  0.00    -0.000 C 
BRANCH   6   7
ATOM      7  C   UNL     1      64.331  32.686  14.257  1.00  0.00    -0.000 C 
BRANCH   7   8
ATOM      8  C   UNL     1      64.058  33.871  15.208  1.00  0.00    -0.000 C 
BRANCH   8   9
ATOM      9  C   UNL     1      64.342  33.556  16.690  1.00  0.00    -0.000 C 
BRANCH   9  10
ATOM     10  C   UNL     1      63.565  34.424  17.696  1.00  0.00    -0.000 C 
BRANCH  10  11
ATOM     11  C   UNL     1      62.046  34.375  17.472  1.00  0.00    -0.003 C 
ATOM     12  C   UNL     1      61.302  34.203  18.795  1.00  0.00     0.004 C 
ENDBRANCH  10  11
ENDBRANCH   9  10
ENDBRANCH   8   9
ENDBRANCH   7   8
ENDBRANCH   6   7
ENDBRANCH   5   6
ENDBRANCH   4   5
ENDBRANCH   3   4
ENDBRANCH   2   3
ENDBRANCH   1   2
BRANCH   1  13
ATOM     13  C   UNL     1      61.654  28.341   9.434  1.00  0.00     0.000 C 
BRANCH  13  14
ATOM     14  C   UNL     1      60.600  29.453   9.607  1.00  0.00     0.000 C 
BRANCH  14  15
ATOM     15  C   UNL     1      59.481  29.059  10.585  1.00  0.00     0.000 C 
BRANCH  15  16
ATOM     16  C   UNL     1      59.811  29.421  12.042  1.00  0.00     0.000 C 
BRANCH  16  17
ATOM     17  C   UNL     1      60.480  28.242  12.760  1.00  0.00     0.000 C 
BRANCH  17  18
ATOM     18  C   UNL     1      61.905  28.602  13.208  1.00  0.00     0.000 C 
BRANCH  18  19
ATOM     19  C   UNL     1      61.998  30.011  13.814  1.00  0.00     0.000 C 
BRANCH  19  20
ATOM     20  C   UNL     1      61.369  30.098  15.216  1.00  0.00     0.006 C 
BRANCH  20  21
ATOM     21  C   UNL     1      61.111  31.548  15.646  1.00  0.00     0.053 C 
BRANCH  21  22
ATOM     22  C   UNL     1      60.248  32.278  14.664  1.00  0.00     0.041 C 
ATOM     23  O   UNL     1      60.723  33.222  13.980  1.00  0.00    -0.550 OA
ATOM     24  O   UNL     1      58.908  31.934  14.524  1.00  0.00    -0.550 OA
ENDBRANCH  21  22
ENDBRANCH  20  21
ENDBRANCH  19  20
ENDBRANCH  18  19
ENDBRANCH  17  18
ENDBRANCH  16  17
ENDBRANCH  15  16
ENDBRANCH  14  15
ENDBRANCH  13  14
ENDBRANCH   1  13
TORSDOF 20
ENDMDL
MODEL 9
REMARK VINA RESULT:    -4.589      3.314      7.232
REMARK INTER + INTRA:         -13.093
REMARK INTER:                  -9.705
REMARK INTRA:                  -3.388
REMARK UNBOUND:                -3.139
REMARK SMILES CCCCCCCCCCCCCCCCCCCCCC(=O)[O-]
REMARK SMILES IDX 12 1 11 2 10 3 9 4 8 5 7 6 6 7 5 8 4 9 3 10 2 11 1 12 13 13
REMARK SMILES IDX 14 14 15 15 16 16 17 17 18 18 19 19 20 20 21 21 22 22 23 23
REMARK SMILES IDX 24 24
REMARK H PARENT
REMARK Flexibility Score: inf
ROOT
ATOM      1  C   UNL     1      60.360  32.841  14.100  1.00  0.00     0.000 C 
ENDROOT
BRANCH   1   2
ATOM      2  C   UNL     1      60.856  33.827  15.175  1.00  0.00     0.000 C 
BRANCH   2   3
ATOM      3  C   UNL     1      61.244  33.127  16.489  1.00  0.00     0.000 C 
BRANCH   3   4
ATOM      4  C   UNL     1      61.606  34.122  17.606  1.00  0.00    -0.000 C 
BRANCH   4   5
ATOM      5  C   UNL     1      63.108  34.461  17.634  1.00  0.00    -0.000 C 
BRANCH   5   6
ATOM      6  C   UNL     1      63.943  33.628  18.625  1.00  0.00    -0.000 C 
BRANCH   6   7
ATOM      7  C   UNL     1      65.437  33.581  18.257  1.00  0.00    -0.000 C 
BRANCH   7   8
ATOM      8  C   UNL     1      65.667  33.723  16.737  1.00  0.00    -0.000 C 
BRANCH   8   9
ATOM      9  C   UNL     1      65.735  32.376  15.989  1.00  0.00    -0.000 C 
BRANCH   9  10
ATOM     10  C   UNL     1      64.575  32.121  15.011  1.00  0.00    -0.000 C 
BRANCH  10  11
ATOM     11  C   UNL     1      64.240  33.351  14.154  1.00  0.00    -0.003 C 
ATOM     12  C   UNL     1      65.252  33.526  13.024  1.00  0.00     0.004 C 
ENDBRANCH  10  11
ENDBRANCH   9  10
ENDBRANCH   8   9
ENDBRANCH   7   8
ENDBRANCH   6   7
ENDBRANCH   5   6
ENDBRANCH   4   5
ENDBRANCH   3   4
ENDBRANCH   2   3
ENDBRANCH   1   2
BRANCH   1  13
ATOM     13  C   UNL     1      60.934  31.426  14.286  1.00  0.00     0.000 C 
BRANCH  13  14
ATOM     14  C   UNL     1      61.589  30.883  13.001  1.00  0.00     0.000 C 
BRANCH  14  15
ATOM     15  C   UNL     1      62.500  29.673  13.268  1.00  0.00     0.000 C 
BRANCH  15  16
ATOM     16  C   UNL     1      63.715  29.624  12.329  1.00  0.00     0.000 C 
BRANCH  16  17
ATOM     17  C   UNL     1      63.657  30.759  11.300  1.00  0.00     0.000 C 
BRANCH  17  18
ATOM     18  C   UNL     1      64.223  30.309   9.945  1.00  0.00     0.000 C 
BRANCH  18  19
ATOM     19  C   UNL     1      63.627  28.976   9.466  1.00  0.00     0.000 C 
BRANCH  19  20
ATOM     20  C   UNL     1      62.152  29.102   9.043  1.00  0.00     0.006 C 
BRANCH  20  21
ATOM     21  C   UNL     1      61.220  28.271   9.935  1.00  0.00     0.053 C 
BRANCH  21  22
ATOM     22  C   UNL     1      59.948  28.998  10.246  1.00  0.00     0.041 C 
ATOM     23  O   UNL     1      59.482  29.837   9.431  1.00  0.00    -0.550 OA
ATOM     24  O   UNL     1      59.292  28.771  11.450  1.00  0.00    -0.550 OA
ENDBRANCH  21  22
ENDBRANCH  20  21
ENDBRANCH  19  20
ENDBRANCH  18  19
ENDBRANCH  17  18
ENDBRANCH  16  17
ENDBRANCH  15  16
ENDBRANCH  14  15
ENDBRANCH  13  14
ENDBRANCH   1  13
TORSDOF 20
ENDMDL
