MODEL 1
REMARK VINA RESULT:    -5.682      0.000      0.000
REMARK INTER + INTRA:         -11.291
REMARK INTER:                  -9.834
REMARK INTRA:                  -1.457
REMARK UNBOUND:                -1.457
REMARK SMILES OC[C@@H]1O[C@@H](O[C@@H]2[C@H](O)[C@@H](O)[C@@H](O[C@H]3[C@H](O)[C@@H](O)[C@@H](O)O[C@@H]3CO)O[C@@H]2CO)[C@@H](O)[C@@H](O)[C@@H]1O
REMARK SMILES IDX 7 1 26 2 25 3 12 4 10 5 8 6 6 7 5 8 3 9 33 10 4 11 31 12
REMARK SMILES IDX 29 13 2 14 1 15 34 17 32 19 30 21 27 23 28 24 9 26 11 28
REMARK SMILES IDX 13 30 14 31 22 32 15 33 21 34 17 35 19 36 23 37 24 38 16 40
REMARK SMILES IDX 18 42 20 44
REMARK H PARENT 1 16 34 18 32 20 30 22 28 25 9 27 11 29 24 39 16 41 18 43
REMARK H PARENT 20 45
REMARK Flexibility Score: inf
ROOT
ATOM      1  C   UNL     1      38.912  43.001  25.976  1.00  0.00     0.184 C 
ATOM      2  C   UNL     1      39.961  42.622  24.911  1.00  0.00     0.178 C 
ATOM      3  O   UNL     1      40.583  41.385  25.248  1.00  0.00    -0.341 OA
ATOM      4  C   UNL     1      39.658  40.303  25.202  1.00  0.00     0.282 C 
ATOM      5  C   UNL     1      38.466  40.526  26.173  1.00  0.00     0.202 C 
ATOM      6  C   UNL     1      37.826  41.913  25.975  1.00  0.00     0.180 C 
ENDROOT
BRANCH   1   7
ATOM      7  O   UNL     1      39.528  43.063  27.256  1.00  0.00    -0.341 OA
BRANCH   7   8
ATOM      8  C   UNL     1      40.043  44.359  27.539  1.00  0.00     0.282 C 
ATOM      9  C   UNL     1      42.106  43.502  28.267  1.00  0.00     0.178 C 
ATOM     10  C   UNL     1      41.885  43.915  29.746  1.00  0.00     0.177 C 
ATOM     11  O   UNL     1      41.453  44.392  27.369  1.00  0.00    -0.341 OA
ATOM     12  C   UNL     1      40.374  43.992  30.052  1.00  0.00     0.179 C 
ATOM     13  C   UNL     1      39.650  44.812  28.964  1.00  0.00     0.202 C 
BRANCH   9  14
ATOM     14  C   UNL     1      43.599  43.423  27.914  1.00  0.00     0.191 C 
BRANCH  14  15
ATOM     15  O   UNL     1      44.065  44.665  27.444  1.00  0.00    -0.394 OA
ATOM     16  H   UNL     1      43.402  45.352  27.720  1.00  0.00     0.210 HD
ENDBRANCH  14  15
ENDBRANCH   9  14
BRANCH  10  17
ATOM     17  O   UNL     1      42.538  45.125  30.064  1.00  0.00    -0.387 OA
ATOM     18  H   UNL     1      41.930  45.667  30.627  1.00  0.00     0.211 HD
ENDBRANCH  10  17
BRANCH  12  19
ATOM     19  O   UNL     1      39.833  42.695  30.118  1.00  0.00    -0.387 OA
ATOM     20  H   UNL     1      40.145  42.202  29.316  1.00  0.00     0.211 HD
ENDBRANCH  12  19
BRANCH  13  21
ATOM     21  O   UNL     1      38.255  44.798  29.148  1.00  0.00    -0.385 OA
ATOM     22  H   UNL     1      37.950  45.726  29.326  1.00  0.00     0.211 HD
ENDBRANCH  13  21
ENDBRANCH   7   8
ENDBRANCH   1   7
BRANCH   2  23
ATOM     23  C   UNL     1      41.030  43.722  24.721  1.00  0.00     0.191 C 
BRANCH  23  24
ATOM     24  O   UNL     1      42.318  43.163  24.685  1.00  0.00    -0.394 OA
ATOM     25  H   UNL     1      42.721  43.324  25.577  1.00  0.00     0.210 HD
ENDBRANCH  23  24
ENDBRANCH   2  23
BRANCH   6  26
ATOM     26  O   UNL     1      36.902  42.168  27.002  1.00  0.00    -0.387 OA
ATOM     27  H   UNL     1      36.030  41.801  26.706  1.00  0.00     0.211 HD
ENDBRANCH   6  26
BRANCH   5  28
ATOM     28  O   UNL     1      37.492  39.531  26.005  1.00  0.00    -0.385 OA
ATOM     29  H   UNL     1      37.802  38.739  26.514  1.00  0.00     0.211 HD
ENDBRANCH   5  28
BRANCH   4  30
ATOM     30  O   UNL     1      39.207  40.085  23.866  1.00  0.00    -0.341 OA
BRANCH  30  31
ATOM     31  C   UNL     1      39.978  39.083  23.217  1.00  0.00     0.184 C 
ATOM     32  C   UNL     1      39.712  37.690  23.869  1.00  0.00     0.178 C 
ATOM     33  C   UNL     1      41.480  39.390  23.383  1.00  0.00     0.180 C 
ATOM     34  O   UNL     1      40.724  36.704  23.654  1.00  0.00    -0.342 OA
ATOM     35  C   UNL     1      42.347  38.292  22.712  1.00  0.00     0.201 C 
ATOM     36  C   UNL     1      41.542  36.975  22.525  1.00  0.00     0.279 C 
BRANCH  32  37
ATOM     37  C   UNL     1      38.327  37.100  23.535  1.00  0.00     0.191 C 
BRANCH  37  38
ATOM     38  O   UNL     1      37.299  38.054  23.624  1.00  0.00    -0.394 OA
ATOM     39  H   UNL     1      36.556  37.634  24.130  1.00  0.00     0.210 HD
ENDBRANCH  37  38
ENDBRANCH  32  37
BRANCH  33  40
ATOM     40  O   UNL     1      41.819  40.664  22.893  1.00  0.00    -0.387 OA
ATOM     41  H   UNL     1      42.425  40.538  22.116  1.00  0.00     0.211 HD
ENDBRANCH  33  40
BRANCH  35  42
ATOM     42  O   UNL     1      43.527  38.091  23.456  1.00  0.00    -0.385 OA
ATOM     43  H   UNL     1      44.085  38.904  23.363  1.00  0.00     0.211 HD
ENDBRANCH  35  42
BRANCH  36  44
ATOM     44  O   UNL     1      42.402  35.890  22.282  1.00  0.00    -0.366 OA
ATOM     45  H   UNL     1      41.855  35.152  21.897  1.00  0.00     0.213 HD
ENDBRANCH  36  44
ENDBRANCH  30  31
ENDBRANCH   4  30
TORSDOF 18
ENDMDL
MODEL 2
REMARK VINA RESULT:    -4.957     15.089     18.797
REMARK INTER + INTRA:         -10.037
REMARK INTER:                  -8.222
REMARK INTRA:                  -1.814
REMARK UNBOUND:                -1.457
REMARK SMILES OC[C@@H]1O[C@@H](O[C@@H]2[C@H](O)[C@@H](O)[C@@H](O[C@H]3[C@H](O)[C@@H](O)[C@@H](O)O[C@@H]3CO)O[C@@H]2CO)[C@@H](O)[C@@H](O)[C@@H]1O
REMARK SMILES IDX 7 1 26 2 25 3 12 4 10 5 8 6 6 7 5 8 3 9 33 10 4 11 31 12
REMARK SMILES IDX 29 13 2 14 1 15 34 17 32 19 30 21 27 23 28 24 9 26 11 28
REMARK SMILES IDX 13 30 14 31 22 32 15 33 21 34 17 35 19 36 23 37 24 38 16 40
REMARK SMILES IDX 18 42 20 44
REMARK H PARENT 1 16 34 18 32 20 30 22 28 25 9 27 11 29 24 39 16 41 18 43
REMARK H PARENT 20 45
REMARK Flexibility Score: inf
ROOT
ATOM      1  C   UNL     1      49.786  27.775  16.180  1.00  0.00     0.184 C 
ATOM      2  C   UNL     1      51.040  27.500  17.035  1.00  0.00     0.178 C 
ATOM      3  O   UNL     1      50.730  27.623  18.421  1.00  0.00    -0.341 OA
ATOM      4  C   UNL     1      49.812  26.620  18.844  1.00  0.00     0.282 C 
ATOM      5  C   UNL     1      48.483  26.682  18.044  1.00  0.00     0.202 C 
ATOM      6  C   UNL     1      48.737  26.705  16.525  1.00  0.00     0.180 C 
ENDROOT
BRANCH   1   7
ATOM      7  O   UNL     1      49.272  29.066  16.483  1.00  0.00    -0.341 OA
BRANCH   7   8
ATOM      8  C   UNL     1      49.686  30.042  15.534  1.00  0.00     0.282 C 
ATOM      9  C   UNL     1      49.361  31.811  17.047  1.00  0.00     0.178 C 
ATOM     10  C   UNL     1      48.167  32.414  16.261  1.00  0.00     0.177 C 
ATOM     11  O   UNL     1      50.283  31.155  16.182  1.00  0.00    -0.341 OA
ATOM     12  C   UNL     1      47.463  31.311  15.441  1.00  0.00     0.179 C 
ATOM     13  C   UNL     1      48.501  30.490  14.648  1.00  0.00     0.202 C 
BRANCH   9  14
ATOM     14  C   UNL     1      50.100  32.877  17.869  1.00  0.00     0.191 C 
BRANCH  14  15
ATOM     15  O   UNL     1      49.353  34.068  17.922  1.00  0.00    -0.394 OA
ATOM     16  H   UNL     1      48.679  34.027  17.193  1.00  0.00     0.210 HD
ENDBRANCH  14  15
ENDBRANCH   9  14
BRANCH  10  17
ATOM     17  O   UNL     1      48.560  33.493  15.441  1.00  0.00    -0.387 OA
ATOM     18  H   UNL     1      49.284  33.180  14.842  1.00  0.00     0.211 HD
ENDBRANCH  10  17
BRANCH  12  19
ATOM     19  O   UNL     1      46.737  30.467  16.303  1.00  0.00    -0.387 OA
ATOM     20  H   UNL     1      46.807  29.545  15.943  1.00  0.00     0.211 HD
ENDBRANCH  12  19
BRANCH  13  21
ATOM     21  O   UNL     1      47.904  29.401  13.988  1.00  0.00    -0.385 OA
ATOM     22  H   UNL     1      48.290  29.334  13.075  1.00  0.00     0.211 HD
ENDBRANCH  13  21
ENDBRANCH   7   8
ENDBRANCH   1   7
BRANCH   2  23
ATOM     23  C   UNL     1      52.218  28.430  16.668  1.00  0.00     0.191 C 
BRANCH  23  24
ATOM     24  O   UNL     1      52.224  29.572  17.486  1.00  0.00    -0.394 OA
ATOM     25  H   UNL     1      53.074  30.048  17.299  1.00  0.00     0.210 HD
ENDBRANCH  23  24
ENDBRANCH   2  23
BRANCH   6  26
ATOM     26  O   UNL     1      47.541  26.979  15.840  1.00  0.00    -0.387 OA
ATOM     27  H   UNL     1      47.214  26.118  15.473  1.00  0.00     0.211 HD
ENDBRANCH   6  26
BRANCH   5  28
ATOM     28  O   UNL     1      47.654  25.597  18.366  1.00  0.00    -0.385 OA
ATOM     29  H   UNL     1      47.213  25.820  19.225  1.00  0.00     0.211 HD
ENDBRANCH   5  28
BRANCH   4  30
ATOM     30  O   UNL     1      50.410  25.326  18.761  1.00  0.00    -0.341 OA
BRANCH  30  31
ATOM     31  C   UNL     1      51.067  24.980  19.973  1.00  0.00     0.184 C 
ATOM     32  C   UNL     1      50.304  25.587  21.192  1.00  0.00     0.178 C 
ATOM     33  C   UNL     1      52.492  25.569  19.982  1.00  0.00     0.180 C 
ATOM     34  O   UNL     1      51.068  25.725  22.392  1.00  0.00    -0.342 OA
ATOM     35  C   UNL     1      53.220  25.235  21.311  1.00  0.00     0.201 C 
ATOM     36  C   UNL     1      52.207  24.878  22.434  1.00  0.00     0.279 C 
BRANCH  32  37
ATOM     37  C   UNL     1      48.966  24.885  21.501  1.00  0.00     0.191 C 
BRANCH  37  38
ATOM     38  O   UNL     1      47.873  25.768  21.470  1.00  0.00    -0.394 OA
ATOM     39  H   UNL     1      47.114  25.276  21.065  1.00  0.00     0.210 HD
ENDBRANCH  37  38
ENDBRANCH  32  37
BRANCH  33  40
ATOM     40  O   UNL     1      53.249  25.144  18.876  1.00  0.00    -0.387 OA
ATOM     41  H   UNL     1      53.010  25.722  18.105  1.00  0.00     0.211 HD
ENDBRANCH  33  40
BRANCH  35  42
ATOM     42  O   UNL     1      54.063  26.304  21.677  1.00  0.00    -0.385 OA
ATOM     43  H   UNL     1      54.787  25.936  22.245  1.00  0.00     0.211 HD
ENDBRANCH  35  42
BRANCH  36  44
ATOM     44  O   UNL     1      52.814  24.949  23.700  1.00  0.00    -0.366 OA
ATOM     45  H   UNL     1      53.753  24.630  23.603  1.00  0.00     0.213 HD
ENDBRANCH  36  44
ENDBRANCH  30  31
ENDBRANCH   4  30
TORSDOF 18
ENDMDL
MODEL 3
REMARK VINA RESULT:    -4.596     15.994     21.340
REMARK INTER + INTRA:          -9.412
REMARK INTER:                  -7.758
REMARK INTRA:                  -1.654
REMARK UNBOUND:                -1.457
REMARK SMILES OC[C@@H]1O[C@@H](O[C@@H]2[C@H](O)[C@@H](O)[C@@H](O[C@H]3[C@H](O)[C@@H](O)[C@@H](O)O[C@@H]3CO)O[C@@H]2CO)[C@@H](O)[C@@H](O)[C@@H]1O
REMARK SMILES IDX 7 1 26 2 25 3 12 4 10 5 8 6 6 7 5 8 3 9 33 10 4 11 31 12
REMARK SMILES IDX 29 13 2 14 1 15 34 17 32 19 30 21 27 23 28 24 9 26 11 28
REMARK SMILES IDX 13 30 14 31 22 32 15 33 21 34 17 35 19 36 23 37 24 38 16 40
REMARK SMILES IDX 18 42 20 44
REMARK H PARENT 1 16 34 18 32 20 30 22 28 25 9 27 11 29 24 39 16 41 18 43
REMARK H PARENT 20 45
REMARK Flexibility Score: inf
ROOT
ATOM      1  C   UNL     1      49.768  27.075  15.681  1.00  0.00     0.184 C 
ATOM      2  C   UNL     1      50.033  26.362  14.339  1.00  0.00     0.178 C 
ATOM      3  O   UNL     1      51.166  26.934  13.690  1.00  0.00    -0.341 OA
ATOM      4  C   UNL     1      52.363  26.709  14.428  1.00  0.00     0.282 C 
ATOM      5  C   UNL     1      52.274  27.302  15.860  1.00  0.00     0.202 C 
ATOM      6  C   UNL     1      50.992  26.849  16.584  1.00  0.00     0.180 C 
ENDROOT
BRANCH   1   7
ATOM      7  O   UNL     1      49.587  28.467  15.457  1.00  0.00    -0.341 OA
BRANCH   7   8
ATOM      8  C   UNL     1      48.212  28.834  15.455  1.00  0.00     0.282 C 
ATOM      9  C   UNL     1      48.671  30.977  14.608  1.00  0.00     0.178 C 
ATOM     10  C   UNL     1      48.253  31.706  15.912  1.00  0.00     0.177 C 
ATOM     11  O   UNL     1      47.940  29.770  14.422  1.00  0.00    -0.341 OA
ATOM     12  C   UNL     1      48.430  30.765  17.123  1.00  0.00     0.179 C 
ATOM     13  C   UNL     1      47.787  29.393  16.832  1.00  0.00     0.202 C 
BRANCH   9  14
ATOM     14  C   UNL     1      48.500  31.875  13.373  1.00  0.00     0.191 C 
BRANCH  14  15
ATOM     15  O   UNL     1      48.702  33.226  13.710  1.00  0.00    -0.394 OA
ATOM     16  H   UNL     1      49.112  33.246  14.614  1.00  0.00     0.210 HD
ENDBRANCH  14  15
ENDBRANCH   9  14
BRANCH  10  17
ATOM     17  O   UNL     1      46.937  32.212  15.841  1.00  0.00    -0.387 OA
ATOM     18  H   UNL     1      46.841  32.925  16.521  1.00  0.00     0.211 HD
ENDBRANCH  10  17
BRANCH  12  19
ATOM     19  O   UNL     1      49.799  30.605  17.407  1.00  0.00    -0.387 OA
ATOM     20  H   UNL     1      50.147  29.899  16.805  1.00  0.00     0.211 HD
ENDBRANCH  12  19
BRANCH  13  21
ATOM     21  O   UNL     1      48.038  28.474  17.867  1.00  0.00    -0.385 OA
ATOM     22  H   UNL     1      47.507  28.741  18.663  1.00  0.00     0.211 HD
ENDBRANCH  13  21
ENDBRANCH   7   8
ENDBRANCH   1   7
BRANCH   2  23
ATOM     23  C   UNL     1      48.806  26.399  13.401  1.00  0.00     0.191 C 
BRANCH  23  24
ATOM     24  O   UNL     1      48.407  25.098  13.052  1.00  0.00    -0.394 OA
ATOM     25  H   UNL     1      49.234  24.553  12.996  1.00  0.00     0.210 HD
ENDBRANCH  23  24
ENDBRANCH   2  23
BRANCH   6  26
ATOM     26  O   UNL     1      50.834  27.567  17.780  1.00  0.00    -0.387 OA
ATOM     27  H   UNL     1      51.104  28.502  17.595  1.00  0.00     0.211 HD
ENDBRANCH   6  26
BRANCH   5  28
ATOM     28  O   UNL     1      53.396  26.941  16.622  1.00  0.00    -0.385 OA
ATOM     29  H   UNL     1      54.147  26.825  15.986  1.00  0.00     0.211 HD
ENDBRANCH   5  28
BRANCH   4  30
ATOM     30  O   UNL     1      52.678  25.318  14.460  1.00  0.00    -0.341 OA
BRANCH  30  31
ATOM     31  C   UNL     1      53.596  24.972  13.431  1.00  0.00     0.184 C 
ATOM     32  C   UNL     1      54.987  25.623  13.709  1.00  0.00     0.178 C 
ATOM     33  C   UNL     1      53.095  25.515  12.078  1.00  0.00     0.180 C 
ATOM     34  O   UNL     1      55.844  25.757  12.572  1.00  0.00    -0.342 OA
ATOM     35  C   UNL     1      54.097  25.181  10.941  1.00  0.00     0.201 C 
ATOM     36  C   UNL     1      55.511  24.875  11.510  1.00  0.00     0.279 C 
BRANCH  32  37
ATOM     37  C   UNL     1      55.760  24.969  14.872  1.00  0.00     0.191 C 
BRANCH  37  38
ATOM     38  O   UNL     1      55.713  25.734  16.049  1.00  0.00    -0.394 OA
ATOM     39  H   UNL     1      56.072  25.168  16.779  1.00  0.00     0.210 HD
ENDBRANCH  37  38
ENDBRANCH  32  37
BRANCH  33  40
ATOM     40  O   UNL     1      51.807  25.048  11.763  1.00  0.00    -0.387 OA
ATOM     41  H   UNL     1      51.564  25.409  10.871  1.00  0.00     0.211 HD
ENDBRANCH  33  40
BRANCH  35  42
ATOM     42  O   UNL     1      54.119  26.229   9.998  1.00  0.00    -0.385 OA
ATOM     43  H   UNL     1      53.183  26.510   9.838  1.00  0.00     0.211 HD
ENDBRANCH  35  42
BRANCH  36  44
ATOM     44  O   UNL     1      56.486  24.949  10.500  1.00  0.00    -0.366 OA
ATOM     45  H   UNL     1      56.214  25.673   9.871  1.00  0.00     0.213 HD
ENDBRANCH  36  44
ENDBRANCH  30  31
ENDBRANCH   4  30
TORSDOF 18
ENDMDL
MODEL 4
REMARK VINA RESULT:    -4.540     15.367     20.141
REMARK INTER + INTRA:          -9.315
REMARK INTER:                  -7.079
REMARK INTRA:                  -2.236
REMARK UNBOUND:                -1.457
REMARK SMILES OC[C@@H]1O[C@@H](O[C@@H]2[C@H](O)[C@@H](O)[C@@H](O[C@H]3[C@H](O)[C@@H](O)[C@@H](O)O[C@@H]3CO)O[C@@H]2CO)[C@@H](O)[C@@H](O)[C@@H]1O
REMARK SMILES IDX 7 1 26 2 25 3 12 4 10 5 8 6 6 7 5 8 3 9 33 10 4 11 31 12
REMARK SMILES IDX 29 13 2 14 1 15 34 17 32 19 30 21 27 23 28 24 9 26 11 28
REMARK SMILES IDX 13 30 14 31 22 32 15 33 21 34 17 35 19 36 23 37 24 38 16 40
REMARK SMILES IDX 18 42 20 44
REMARK H PARENT 1 16 34 18 32 20 30 22 28 25 9 27 11 29 24 39 16 41 18 43
REMARK H PARENT 20 45
REMARK Flexibility Score: inf
ROOT
ATOM      1  C   UNL     1      48.838  27.512  16.564  1.00  0.00     0.184 C 
ATOM      2  C   UNL     1      49.597  26.933  15.353  1.00  0.00     0.178 C 
ATOM      3  O   UNL     1      50.957  27.359  15.373  1.00  0.00    -0.341 OA
ATOM      4  C   UNL     1      51.659  26.824  16.491  1.00  0.00     0.282 C 
ATOM      5  C   UNL     1      51.001  27.242  17.834  1.00  0.00     0.202 C 
ATOM      6  C   UNL     1      49.489  26.951  17.840  1.00  0.00     0.180 C 
ENDROOT
BRANCH   1   7
ATOM      7  O   UNL     1      48.936  28.930  16.560  1.00  0.00    -0.341 OA
BRANCH   7   8
ATOM      8  C   UNL     1      47.666  29.553  16.404  1.00  0.00     0.282 C 
ATOM      9  C   UNL     1      48.532  31.215  14.986  1.00  0.00     0.178 C 
ATOM     10  C   UNL     1      48.308  32.362  16.006  1.00  0.00     0.177 C 
ATOM     11  O   UNL     1      47.564  30.182  15.135  1.00  0.00    -0.341 OA
ATOM     12  C   UNL     1      48.322  31.800  17.444  1.00  0.00     0.179 C 
ATOM     13  C   UNL     1      47.403  30.565  17.543  1.00  0.00     0.202 C 
BRANCH   9  14
ATOM     14  C   UNL     1      48.514  31.728  13.538  1.00  0.00     0.191 C 
BRANCH  14  15
ATOM     15  O   UNL     1      48.711  33.120  13.502  1.00  0.00    -0.394 OA
ATOM     16  H   UNL     1      48.142  33.480  12.772  1.00  0.00     0.210 HD
ENDBRANCH  14  15
ENDBRANCH   9  14
BRANCH  10  17
ATOM     17  O   UNL     1      47.123  33.082  15.746  1.00  0.00    -0.387 OA
ATOM     18  H   UNL     1      46.658  32.651  14.985  1.00  0.00     0.211 HD
ENDBRANCH  10  17
BRANCH  12  19
ATOM     19  O   UNL     1      49.636  31.454  17.809  1.00  0.00    -0.387 OA
ATOM     20  H   UNL     1      49.616  31.168  18.758  1.00  0.00     0.211 HD
ENDBRANCH  12  19
BRANCH  13  21
ATOM     21  O   UNL     1      47.488  29.957  18.809  1.00  0.00    -0.385 OA
ATOM     22  H   UNL     1      47.376  30.657  19.504  1.00  0.00     0.211 HD
ENDBRANCH  13  21
ENDBRANCH   7   8
ENDBRANCH   1   7
BRANCH   2  23
ATOM     23  C   UNL     1      48.939  27.315  14.009  1.00  0.00     0.191 C 
BRANCH  23  24
ATOM     24  O   UNL     1      49.089  26.282  13.069  1.00  0.00    -0.394 OA
ATOM     25  H   UNL     1      49.923  26.475  12.567  1.00  0.00     0.210 HD
ENDBRANCH  23  24
ENDBRANCH   2  23
BRANCH   6  26
ATOM     26  O   UNL     1      48.890  27.532  18.969  1.00  0.00    -0.387 OA
ATOM     27  H   UNL     1      47.925  27.635  18.765  1.00  0.00     0.211 HD
ENDBRANCH   6  26
BRANCH   5  28
ATOM     28  O   UNL     1      51.610  26.585  18.914  1.00  0.00    -0.385 OA
ATOM     29  H   UNL     1      51.262  27.009  19.739  1.00  0.00     0.211 HD
ENDBRANCH   5  28
BRANCH   4  30
ATOM     30  O   UNL     1      51.766  25.405  16.383  1.00  0.00    -0.341 OA
BRANCH  30  31
ATOM     31  C   UNL     1      52.961  25.026  15.712  1.00  0.00     0.184 C 
ATOM     32  C   UNL     1      54.188  25.754  16.344  1.00  0.00     0.178 C 
ATOM     33  C   UNL     1      52.885  25.450  14.231  1.00  0.00     0.180 C 
ATOM     34  O   UNL     1      55.348  25.844  15.513  1.00  0.00    -0.342 OA
ATOM     35  C   UNL     1      54.193  25.079  13.482  1.00  0.00     0.201 C 
ATOM     36  C   UNL     1      55.372  24.875  14.474  1.00  0.00     0.279 C 
BRANCH  32  37
ATOM     37  C   UNL     1      54.582  25.218  17.735  1.00  0.00     0.191 C 
BRANCH  37  38
ATOM     38  O   UNL     1      54.670  26.235  18.700  1.00  0.00    -0.394 OA
ATOM     39  H   UNL     1      53.942  26.080  19.354  1.00  0.00     0.210 HD
ENDBRANCH  37  38
ENDBRANCH  32  37
BRANCH  33  40
ATOM     40  O   UNL     1      51.764  24.907  13.580  1.00  0.00    -0.387 OA
ATOM     41  H   UNL     1      51.263  24.364  14.241  1.00  0.00     0.211 HD
ENDBRANCH  33  40
BRANCH  35  42
ATOM     42  O   UNL     1      54.482  26.057  12.509  1.00  0.00    -0.385 OA
ATOM     43  H   UNL     1      53.926  26.853  12.706  1.00  0.00     0.211 HD
ENDBRANCH  35  42
BRANCH  36  44
ATOM     44  O   UNL     1      56.607  24.918  13.804  1.00  0.00    -0.366 OA
ATOM     45  H   UNL     1      57.325  24.896  14.494  1.00  0.00     0.213 HD
ENDBRANCH  36  44
ENDBRANCH  30  31
ENDBRANCH   4  30
TORSDOF 18
ENDMDL
MODEL 5
REMARK VINA RESULT:    -4.438     15.503     19.186
REMARK INTER + INTRA:          -9.139
REMARK INTER:                  -8.633
REMARK INTRA:                  -0.506
REMARK UNBOUND:                -1.457
REMARK SMILES OC[C@@H]1O[C@@H](O[C@@H]2[C@H](O)[C@@H](O)[C@@H](O[C@H]3[C@H](O)[C@@H](O)[C@@H](O)O[C@@H]3CO)O[C@@H]2CO)[C@@H](O)[C@@H](O)[C@@H]1O
REMARK SMILES IDX 7 1 26 2 25 3 12 4 10 5 8 6 6 7 5 8 3 9 33 10 4 11 31 12
REMARK SMILES IDX 29 13 2 14 1 15 34 17 32 19 30 21 27 23 28 24 9 26 11 28
REMARK SMILES IDX 13 30 14 31 22 32 15 33 21 34 17 35 19 36 23 37 24 38 16 40
REMARK SMILES IDX 18 42 20 44
REMARK H PARENT 1 16 34 18 32 20 30 22 28 25 9 27 11 29 24 39 16 41 18 43
REMARK H PARENT 20 45
REMARK Flexibility Score: inf
ROOT
ATOM      1  C   UNL     1      49.576  28.080  15.515  1.00  0.00     0.184 C 
ATOM      2  C   UNL     1      50.988  27.584  15.889  1.00  0.00     0.178 C 
ATOM      3  O   UNL     1      51.228  27.780  17.281  1.00  0.00    -0.341 OA
ATOM      4  C   UNL     1      50.370  26.973  18.080  1.00  0.00     0.282 C 
ATOM      5  C   UNL     1      48.873  27.274  17.800  1.00  0.00     0.202 C 
ATOM      6  C   UNL     1      48.558  27.230  16.293  1.00  0.00     0.180 C 
ENDROOT
BRANCH   1   7
ATOM      7  O   UNL     1      49.436  29.448  15.877  1.00  0.00    -0.341 OA
BRANCH   7   8
ATOM      8  C   UNL     1      48.107  29.918  15.682  1.00  0.00     0.282 C 
ATOM      9  C   UNL     1      48.834  31.806  14.486  1.00  0.00     0.178 C 
ATOM     10  C   UNL     1      48.396  32.811  15.584  1.00  0.00     0.177 C 
ATOM     11  O   UNL     1      48.004  30.650  14.469  1.00  0.00    -0.341 OA
ATOM     12  C   UNL     1      48.392  32.117  16.964  1.00  0.00     0.179 C 
ATOM     13  C   UNL     1      47.640  30.772  16.882  1.00  0.00     0.202 C 
BRANCH   9  14
ATOM     14  C   UNL     1      48.841  32.452  13.092  1.00  0.00     0.191 C 
BRANCH  14  15
ATOM     15  O   UNL     1      48.938  33.852  13.195  1.00  0.00    -0.394 OA
ATOM     16  H   UNL     1      49.496  34.165  12.435  1.00  0.00     0.210 HD
ENDBRANCH  14  15
ENDBRANCH   9  14
BRANCH  10  17
ATOM     17  O   UNL     1      47.145  33.399  15.300  1.00  0.00    -0.387 OA
ATOM     18  H   UNL     1      47.257  34.383  15.299  1.00  0.00     0.211 HD
ENDBRANCH  10  17
BRANCH  12  19
ATOM     19  O   UNL     1      49.715  31.905  17.395  1.00  0.00    -0.387 OA
ATOM     20  H   UNL     1      49.702  31.144  18.030  1.00  0.00     0.211 HD
ENDBRANCH  12  19
BRANCH  13  21
ATOM     21  O   UNL     1      47.724  30.059  18.092  1.00  0.00    -0.385 OA
ATOM     22  H   UNL     1      47.805  30.710  18.838  1.00  0.00     0.211 HD
ENDBRANCH  13  21
ENDBRANCH   7   8
ENDBRANCH   1   7
BRANCH   2  23
ATOM     23  C   UNL     1      52.093  28.271  15.056  1.00  0.00     0.191 C 
BRANCH  23  24
ATOM     24  O   UNL     1      53.094  27.351  14.702  1.00  0.00    -0.394 OA
ATOM     25  H   UNL     1      53.867  27.884  14.381  1.00  0.00     0.210 HD
ENDBRANCH  23  24
ENDBRANCH   2  23
BRANCH   6  26
ATOM     26  O   UNL     1      47.261  27.716  16.057  1.00  0.00    -0.387 OA
ATOM     27  H   UNL     1      46.688  27.384  16.795  1.00  0.00     0.211 HD
ENDBRANCH   6  26
BRANCH   5  28
ATOM     28  O   UNL     1      48.044  26.369  18.480  1.00  0.00    -0.385 OA
ATOM     29  H   UNL     1      48.286  25.463  18.158  1.00  0.00     0.211 HD
ENDBRANCH   5  28
BRANCH   4  30
ATOM     30  O   UNL     1      50.666  25.589  17.893  1.00  0.00    -0.341 OA
BRANCH  30  31
ATOM     31  C   UNL     1      51.695  25.157  18.772  1.00  0.00     0.184 C 
ATOM     32  C   UNL     1      51.484  25.768  20.193  1.00  0.00     0.178 C 
ATOM     33  C   UNL     1      53.063  25.649  18.258  1.00  0.00     0.180 C 
ATOM     34  O   UNL     1      52.645  25.812  21.026  1.00  0.00    -0.342 OA
ATOM     35  C   UNL     1      54.204  25.220  19.219  1.00  0.00     0.201 C 
ATOM     36  C   UNL     1      53.653  24.890  20.634  1.00  0.00     0.279 C 
BRANCH  32  37
ATOM     37  C   UNL     1      50.307  25.146  20.970  1.00  0.00     0.191 C 
BRANCH  37  38
ATOM     38  O   UNL     1      49.288  26.075  21.243  1.00  0.00    -0.394 OA
ATOM     39  H   UNL     1      49.709  26.838  21.714  1.00  0.00     0.210 HD
ENDBRANCH  37  38
ENDBRANCH  32  37
BRANCH  33  40
ATOM     40  O   UNL     1      53.324  25.215  16.946  1.00  0.00    -0.387 OA
ATOM     41  H   UNL     1      54.252  24.862  16.923  1.00  0.00     0.211 HD
ENDBRANCH  33  40
BRANCH  35  42
ATOM     42  O   UNL     1      55.200  26.216  19.256  1.00  0.00    -0.385 OA
ATOM     43  H   UNL     1      55.723  26.088  20.087  1.00  0.00     0.211 HD
ENDBRANCH  35  42
BRANCH  36  44
ATOM     44  O   UNL     1      54.687  24.875  21.586  1.00  0.00    -0.366 OA
ATOM     45  H   UNL     1      54.308  25.201  22.448  1.00  0.00     0.213 HD
ENDBRANCH  36  44
ENDBRANCH  30  31
ENDBRANCH   4  30
TORSDOF 18
ENDMDL
MODEL 6
REMARK VINA RESULT:    -4.425      1.476      2.548
REMARK INTER + INTRA:          -9.115
REMARK INTER:                  -9.550
REMARK INTRA:                   0.434
REMARK UNBOUND:                -1.457
REMARK SMILES OC[C@@H]1O[C@@H](O[C@@H]2[C@H](O)[C@@H](O)[C@@H](O[C@H]3[C@H](O)[C@@H](O)[C@@H](O)O[C@@H]3CO)O[C@@H]2CO)[C@@H](O)[C@@H](O)[C@@H]1O
REMARK SMILES IDX 7 1 26 2 25 3 12 4 10 5 8 6 6 7 5 8 3 9 33 10 4 11 31 12
REMARK SMILES IDX 29 13 2 14 1 15 34 17 32 19 30 21 27 23 28 24 9 26 11 28
REMARK SMILES IDX 13 30 14 31 22 32 15 33 21 34 17 35 19 36 23 37 24 38 16 40
REMARK SMILES IDX 18 42 20 44
REMARK H PARENT 1 16 34 18 32 20 30 22 28 25 9 27 11 29 24 39 16 41 18 43
REMARK H PARENT 20 45
REMARK Flexibility Score: inf
ROOT
ATOM      1  C   UNL     1      39.928  42.320  26.100  1.00  0.00     0.184 C 
ATOM      2  C   UNL     1      40.693  41.038  25.712  1.00  0.00     0.178 C 
ATOM      3  O   UNL     1      39.862  39.894  25.888  1.00  0.00    -0.341 OA
ATOM      4  C   UNL     1      38.756  39.904  24.992  1.00  0.00     0.282 C 
ATOM      5  C   UNL     1      37.879  41.173  25.177  1.00  0.00     0.202 C 
ATOM      6  C   UNL     1      38.728  42.458  25.148  1.00  0.00     0.180 C 
ENDROOT
BRANCH   1   7
ATOM      7  O   UNL     1      39.467  42.217  27.441  1.00  0.00    -0.341 OA
BRANCH   7   8
ATOM      8  C   UNL     1      39.358  43.490  28.067  1.00  0.00     0.282 C 
ATOM      9  C   UNL     1      41.670  43.882  27.925  1.00  0.00     0.178 C 
ATOM     10  C   UNL     1      41.892  43.806  29.459  1.00  0.00     0.177 C 
ATOM     11  O   UNL     1      40.372  44.370  27.604  1.00  0.00    -0.341 OA
ATOM     12  C   UNL     1      40.800  42.929  30.108  1.00  0.00     0.179 C 
ATOM     13  C   UNL     1      39.405  43.356  29.606  1.00  0.00     0.202 C 
BRANCH   9  14
ATOM     14  C   UNL     1      42.730  44.756  27.238  1.00  0.00     0.191 C 
BRANCH  14  15
ATOM     15  O   UNL     1      43.242  44.111  26.097  1.00  0.00    -0.394 OA
ATOM     16  H   UNL     1      43.397  43.160  26.340  1.00  0.00     0.210 HD
ENDBRANCH  14  15
ENDBRANCH   9  14
BRANCH  10  17
ATOM     17  O   UNL     1      41.946  45.085  30.052  1.00  0.00    -0.387 OA
ATOM     18  H   UNL     1      41.506  45.730  29.443  1.00  0.00     0.211 HD
ENDBRANCH  10  17
BRANCH  12  19
ATOM     19  O   UNL     1      41.030  41.575  29.800  1.00  0.00    -0.387 OA
ATOM     20  H   UNL     1      41.681  41.547  29.052  1.00  0.00     0.211 HD
ENDBRANCH  12  19
BRANCH  13  21
ATOM     21  O   UNL     1      38.398  42.496  30.085  1.00  0.00    -0.385 OA
ATOM     22  H   UNL     1      38.823  41.655  30.395  1.00  0.00     0.211 HD
ENDBRANCH  13  21
ENDBRANCH   7   8
ENDBRANCH   1   7
BRANCH   2  23
ATOM     23  C   UNL     1      42.006  40.872  26.510  1.00  0.00     0.191 C 
BRANCH  23  24
ATOM     24  O   UNL     1      42.540  39.586  26.328  1.00  0.00    -0.394 OA
ATOM     25  H   UNL     1      41.782  38.951  26.408  1.00  0.00     0.210 HD
ENDBRANCH  23  24
ENDBRANCH   2  23
BRANCH   6  26
ATOM     26  O   UNL     1      37.947  43.560  25.532  1.00  0.00    -0.387 OA
ATOM     27  H   UNL     1      38.573  44.296  25.755  1.00  0.00     0.211 HD
ENDBRANCH   6  26
BRANCH   5  28
ATOM     28  O   UNL     1      36.887  41.243  24.188  1.00  0.00    -0.385 OA
ATOM     29  H   UNL     1      37.187  41.919  23.528  1.00  0.00     0.211 HD
ENDBRANCH   5  28
BRANCH   4  30
ATOM     30  O   UNL     1      39.203  39.774  23.643  1.00  0.00    -0.341 OA
BRANCH  30  31
ATOM     31  C   UNL     1      40.550  39.323  23.585  1.00  0.00     0.184 C 
ATOM     32  C   UNL     1      41.306  40.032  22.418  1.00  0.00     0.178 C 
ATOM     33  C   UNL     1      40.583  37.808  23.303  1.00  0.00     0.180 C 
ATOM     34  O   UNL     1      42.481  39.367  21.948  1.00  0.00    -0.342 OA
ATOM     35  C   UNL     1      42.045  37.296  23.200  1.00  0.00     0.201 C 
ATOM     36  C   UNL     1      43.029  38.460  22.894  1.00  0.00     0.279 C 
BRANCH  32  37
ATOM     37  C   UNL     1      41.620  41.517  22.691  1.00  0.00     0.191 C 
BRANCH  37  38
ATOM     38  O   UNL     1      42.948  41.854  22.378  1.00  0.00    -0.394 OA
ATOM     39  H   UNL     1      43.214  42.589  22.988  1.00  0.00     0.210 HD
ENDBRANCH  37  38
ENDBRANCH  32  37
BRANCH  33  40
ATOM     40  O   UNL     1      39.862  37.073  24.260  1.00  0.00    -0.387 OA
ATOM     41  H   UNL     1      39.874  37.588  25.108  1.00  0.00     0.211 HD
ENDBRANCH  33  40
BRANCH  35  42
ATOM     42  O   UNL     1      42.126  36.266  22.241  1.00  0.00    -0.385 OA
ATOM     43  H   UNL     1      41.816  35.429  22.669  1.00  0.00     0.211 HD
ENDBRANCH  35  42
BRANCH  36  44
ATOM     44  O   UNL     1      44.261  37.967  22.431  1.00  0.00    -0.366 OA
ATOM     45  H   UNL     1      44.972  38.592  22.743  1.00  0.00     0.213 HD
ENDBRANCH  36  44
ENDBRANCH  30  31
ENDBRANCH   4  30
TORSDOF 18
ENDMDL
MODEL 7
REMARK VINA RESULT:    -4.340      1.770      7.475
REMARK INTER + INTRA:          -8.969
REMARK INTER:                 -10.490
REMARK INTRA:                   1.521
REMARK UNBOUND:                -1.457
REMARK SMILES OC[C@@H]1O[C@@H](O[C@@H]2[C@H](O)[C@@H](O)[C@@H](O[C@H]3[C@H](O)[C@@H](O)[C@@H](O)O[C@@H]3CO)O[C@@H]2CO)[C@@H](O)[C@@H](O)[C@@H]1O
REMARK SMILES IDX 7 1 26 2 25 3 12 4 10 5 8 6 6 7 5 8 3 9 33 10 4 11 31 12
REMARK SMILES IDX 29 13 2 14 1 15 34 17 32 19 30 21 27 23 28 24 9 26 11 28
REMARK SMILES IDX 13 30 14 31 22 32 15 33 21 34 17 35 19 36 23 37 24 38 16 40
REMARK SMILES IDX 18 42 20 44
REMARK H PARENT 1 16 34 18 32 20 30 22 28 25 9 27 11 29 24 39 16 41 18 43
REMARK H PARENT 20 45
REMARK Flexibility Score: inf
ROOT
ATOM      1  C   UNL     1      39.359  40.983  21.994  1.00  0.00     0.184 C 
ATOM      2  C   UNL     1      38.325  41.870  22.717  1.00  0.00     0.178 C 
ATOM      3  O   UNL     1      38.382  41.650  24.124  1.00  0.00    -0.341 OA
ATOM      4  C   UNL     1      39.625  42.075  24.672  1.00  0.00     0.282 C 
ATOM      5  C   UNL     1      40.824  41.336  24.017  1.00  0.00     0.202 C 
ATOM      6  C   UNL     1      40.758  41.398  22.480  1.00  0.00     0.180 C 
ENDROOT
BRANCH   1   7
ATOM      7  O   UNL     1      39.126  39.617  22.314  1.00  0.00    -0.341 OA
BRANCH   7   8
ATOM      8  C   UNL     1      39.593  39.286  23.617  1.00  0.00     0.282 C 
ATOM      9  C   UNL     1      40.705  37.363  22.851  1.00  0.00     0.178 C 
ATOM     10  C   UNL     1      39.754  36.382  23.587  1.00  0.00     0.177 C 
ATOM     11  O   UNL     1      40.833  38.596  23.549  1.00  0.00    -0.341 OA
ATOM     12  C   UNL     1      38.374  37.041  23.796  1.00  0.00     0.179 C 
ATOM     13  C   UNL     1      38.542  38.456  24.388  1.00  0.00     0.202 C 
BRANCH   9  14
ATOM     14  C   UNL     1      42.096  36.751  22.631  1.00  0.00     0.191 C 
BRANCH  14  15
ATOM     15  O   UNL     1      42.920  37.637  21.912  1.00  0.00    -0.394 OA
ATOM     16  H   UNL     1      42.662  37.568  20.955  1.00  0.00     0.210 HD
ENDBRANCH  14  15
ENDBRANCH   9  14
BRANCH  10  17
ATOM     17  O   UNL     1      40.298  35.930  24.808  1.00  0.00    -0.387 OA
ATOM     18  H   UNL     1      40.906  36.629  25.156  1.00  0.00     0.211 HD
ENDBRANCH  10  17
BRANCH  12  19
ATOM     19  O   UNL     1      37.687  37.110  22.569  1.00  0.00    -0.387 OA
ATOM     20  H   UNL     1      37.285  38.014  22.504  1.00  0.00     0.211 HD
ENDBRANCH  12  19
BRANCH  13  21
ATOM     21  O   UNL     1      37.310  39.130  24.476  1.00  0.00    -0.385 OA
ATOM     22  H   UNL     1      36.912  38.947  25.367  1.00  0.00     0.211 HD
ENDBRANCH  13  21
ENDBRANCH   7   8
ENDBRANCH   1   7
BRANCH   2  23
ATOM     23  C   UNL     1      36.888  41.640  22.199  1.00  0.00     0.191 C 
BRANCH  23  24
ATOM     24  O   UNL     1      36.875  40.674  21.179  1.00  0.00    -0.394 OA
ATOM     25  H   UNL     1      37.593  40.926  20.542  1.00  0.00     0.210 HD
ENDBRANCH  23  24
ENDBRANCH   2  23
BRANCH   6  26
ATOM     26  O   UNL     1      41.723  40.546  21.920  1.00  0.00    -0.387 OA
ATOM     27  H   UNL     1      42.593  40.783  22.332  1.00  0.00     0.211 HD
ENDBRANCH   6  26
BRANCH   5  28
ATOM     28  O   UNL     1      42.043  41.873  24.457  1.00  0.00    -0.385 OA
ATOM     29  H   UNL     1      42.758  41.414  23.946  1.00  0.00     0.211 HD
ENDBRANCH   5  28
BRANCH   4  30
ATOM     30  O   UNL     1      39.765  43.491  24.561  1.00  0.00    -0.341 OA
BRANCH  30  31
ATOM     31  C   UNL     1      39.672  44.121  25.832  1.00  0.00     0.184 C 
ATOM     32  C   UNL     1      41.044  44.045  26.572  1.00  0.00     0.178 C 
ATOM     33  C   UNL     1      38.636  43.386  26.706  1.00  0.00     0.180 C 
ATOM     34  O   UNL     1      40.990  44.203  27.992  1.00  0.00    -0.342 OA
ATOM     35  C   UNL     1      38.540  44.033  28.113  1.00  0.00     0.201 C 
ATOM     36  C   UNL     1      39.814  44.862  28.439  1.00  0.00     0.279 C 
BRANCH  32  37
ATOM     37  C   UNL     1      42.122  44.978  25.983  1.00  0.00     0.191 C 
BRANCH  37  38
ATOM     38  O   UNL     1      42.701  44.461  24.811  1.00  0.00    -0.394 OA
ATOM     39  H   UNL     1      42.073  44.652  24.069  1.00  0.00     0.210 HD
ENDBRANCH  37  38
ENDBRANCH  32  37
BRANCH  33  40
ATOM     40  O   UNL     1      37.371  43.328  26.095  1.00  0.00    -0.387 OA
ATOM     41  H   UNL     1      37.138  44.245  25.795  1.00  0.00     0.211 HD
ENDBRANCH  33  40
BRANCH  35  42
ATOM     42  O   UNL     1      38.292  43.039  29.082  1.00  0.00    -0.385 OA
ATOM     43  H   UNL     1      38.309  43.475  29.972  1.00  0.00     0.211 HD
ENDBRANCH  35  42
BRANCH  36  44
ATOM     44  O   UNL     1      39.904  45.125  29.818  1.00  0.00    -0.366 OA
ATOM     45  H   UNL     1      38.986  45.335  30.145  1.00  0.00     0.213 HD
ENDBRANCH  36  44
ENDBRANCH  30  31
ENDBRANCH   4  30
TORSDOF 18
ENDMDL
MODEL 8
REMARK VINA RESULT:    -4.107     14.657     20.080
REMARK INTER + INTRA:          -8.566
REMARK INTER:                  -7.432
REMARK INTRA:                  -1.134
REMARK UNBOUND:                -1.457
REMARK SMILES OC[C@@H]1O[C@@H](O[C@@H]2[C@H](O)[C@@H](O)[C@@H](O[C@H]3[C@H](O)[C@@H](O)[C@@H](O)O[C@@H]3CO)O[C@@H]2CO)[C@@H](O)[C@@H](O)[C@@H]1O
REMARK SMILES IDX 7 1 26 2 25 3 12 4 10 5 8 6 6 7 5 8 3 9 33 10 4 11 31 12
REMARK SMILES IDX 29 13 2 14 1 15 34 17 32 19 30 21 27 23 28 24 9 26 11 28
REMARK SMILES IDX 13 30 14 31 22 32 15 33 21 34 17 35 19 36 23 37 24 38 16 40
REMARK SMILES IDX 18 42 20 44
REMARK H PARENT 1 16 34 18 32 20 30 22 28 25 9 27 11 29 24 39 16 41 18 43
REMARK H PARENT 20 45
REMARK Flexibility Score: inf
ROOT
ATOM      1  C   UNL     1      51.515  27.440  17.693  1.00  0.00     0.184 C 
ATOM      2  C   UNL     1      51.438  28.980  17.749  1.00  0.00     0.178 C 
ATOM      3  O   UNL     1      50.963  29.496  16.509  1.00  0.00    -0.341 OA
ATOM      4  C   UNL     1      49.616  29.106  16.259  1.00  0.00     0.282 C 
ATOM      5  C   UNL     1      49.463  27.561  16.230  1.00  0.00     0.202 C 
ATOM      6  C   UNL     1      50.089  26.905  17.475  1.00  0.00     0.180 C 
ENDROOT
BRANCH   1   7
ATOM      7  O   UNL     1      52.347  27.040  16.612  1.00  0.00    -0.341 OA
BRANCH   7   8
ATOM      8  C   UNL     1      52.964  25.780  16.851  1.00  0.00     0.282 C 
ATOM      9  C   UNL     1      55.114  26.724  16.937  1.00  0.00     0.178 C 
ATOM     10  C   UNL     1      55.589  26.041  15.627  1.00  0.00     0.177 C 
ATOM     11  O   UNL     1      54.147  25.934  17.621  1.00  0.00    -0.341 OA
ATOM     12  C   UNL     1      54.379  25.745  14.716  1.00  0.00     0.179 C 
ATOM     13  C   UNL     1      53.262  25.048  15.522  1.00  0.00     0.202 C 
BRANCH   9  14
ATOM     14  C   UNL     1      56.288  27.027  17.880  1.00  0.00     0.191 C 
BRANCH  14  15
ATOM     15  O   UNL     1      56.137  28.297  18.467  1.00  0.00    -0.394 OA
ATOM     16  H   UNL     1      55.458  28.789  17.935  1.00  0.00     0.210 HD
ENDBRANCH  14  15
ENDBRANCH   9  14
BRANCH  10  17
ATOM     17  O   UNL     1      56.343  24.875  15.877  1.00  0.00    -0.387 OA
ATOM     18  H   UNL     1      57.208  24.955  15.402  1.00  0.00     0.211 HD
ENDBRANCH  10  17
BRANCH  12  19
ATOM     19  O   UNL     1      53.896  26.944  14.159  1.00  0.00    -0.387 OA
ATOM     20  H   UNL     1      53.579  26.739  13.242  1.00  0.00     0.211 HD
ENDBRANCH  12  19
BRANCH  13  21
ATOM     21  O   UNL     1      52.098  24.876  14.750  1.00  0.00    -0.385 OA
ATOM     22  H   UNL     1      52.360  24.802  13.795  1.00  0.00     0.211 HD
ENDBRANCH  13  21
ENDBRANCH   7   8
ENDBRANCH   1   7
BRANCH   2  23
ATOM     23  C   UNL     1      52.795  29.623  18.110  1.00  0.00     0.191 C 
BRANCH  23  24
ATOM     24  O   UNL     1      53.410  28.930  19.166  1.00  0.00    -0.394 OA
ATOM     25  H   UNL     1      52.845  28.136  19.350  1.00  0.00     0.210 HD
ENDBRANCH  23  24
ENDBRANCH   2  23
BRANCH   6  26
ATOM     26  O   UNL     1      50.128  25.510  17.317  1.00  0.00    -0.387 OA
ATOM     27  H   UNL     1      51.076  25.262  17.167  1.00  0.00     0.211 HD
ENDBRANCH   6  26
BRANCH   5  28
ATOM     28  O   UNL     1      48.112  27.194  16.135  1.00  0.00    -0.385 OA
ATOM     29  H   UNL     1      47.850  27.311  15.187  1.00  0.00     0.211 HD
ENDBRANCH   5  28
BRANCH   4  30
ATOM     30  O   UNL     1      48.737  29.698  17.214  1.00  0.00    -0.341 OA
BRANCH  30  31
ATOM     31  C   UNL     1      48.142  30.884  16.704  1.00  0.00     0.184 C 
ATOM     32  C   UNL     1      48.528  31.079  15.204  1.00  0.00     0.178 C 
ATOM     33  C   UNL     1      48.671  32.109  17.478  1.00  0.00     0.180 C 
ATOM     34  O   UNL     1      48.407  32.412  14.702  1.00  0.00    -0.342 OA
ATOM     35  C   UNL     1      48.064  33.422  16.917  1.00  0.00     0.201 C 
ATOM     36  C   UNL     1      47.531  33.224  15.471  1.00  0.00     0.279 C 
BRANCH  32  37
ATOM     37  C   UNL     1      47.824  30.095  14.247  1.00  0.00     0.191 C 
BRANCH  37  38
ATOM     38  O   UNL     1      46.781  29.389  14.871  1.00  0.00    -0.394 OA
ATOM     39  H   UNL     1      45.934  29.697  14.458  1.00  0.00     0.210 HD
ENDBRANCH  37  38
ENDBRANCH  32  37
BRANCH  33  40
ATOM     40  O   UNL     1      48.443  32.002  18.861  1.00  0.00    -0.387 OA
ATOM     41  H   UNL     1      49.150  31.419  19.240  1.00  0.00     0.211 HD
ENDBRANCH  33  40
BRANCH  35  42
ATOM     42  O   UNL     1      49.014  34.461  16.995  1.00  0.00    -0.385 OA
ATOM     43  H   UNL     1      49.863  34.123  16.613  1.00  0.00     0.211 HD
ENDBRANCH  35  42
BRANCH  36  44
ATOM     44  O   UNL     1      47.337  34.461  14.832  1.00  0.00    -0.366 OA
ATOM     45  H   UNL     1      46.364  34.552  14.641  1.00  0.00     0.213 HD
ENDBRANCH  36  44
ENDBRANCH  30  31
ENDBRANCH   4  30
TORSDOF 18
ENDMDL
MODEL 9
REMARK VINA RESULT:    -3.431      1.893      7.335
REMARK INTER + INTRA:          -7.395
REMARK INTER:                  -6.718
REMARK INTRA:                  -0.678
REMARK UNBOUND:                -1.457
REMARK SMILES OC[C@@H]1O[C@@H](O[C@@H]2[C@H](O)[C@@H](O)[C@@H](O[C@H]3[C@H](O)[C@@H](O)[C@@H](O)O[C@@H]3CO)O[C@@H]2CO)[C@@H](O)[C@@H](O)[C@@H]1O
REMARK SMILES IDX 7 1 26 2 25 3 12 4 10 5 8 6 6 7 5 8 3 9 33 10 4 11 31 12
REMARK SMILES IDX 29 13 2 14 1 15 34 17 32 19 30 21 27 23 28 24 9 26 11 28
REMARK SMILES IDX 13 30 14 31 22 32 15 33 21 34 17 35 19 36 23 37 24 38 16 40
REMARK SMILES IDX 18 42 20 44
REMARK H PARENT 1 16 34 18 32 20 30 22 28 25 9 27 11 29 24 39 16 41 18 43
REMARK H PARENT 20 45
REMARK Flexibility Score: inf
ROOT
ATOM      1  C   UNL     1      39.076  40.058  24.951  1.00  0.00     0.184 C 
ATOM      2  C   UNL     1      40.509  40.489  25.325  1.00  0.00     0.178 C 
ATOM      3  O   UNL     1      40.519  41.845  25.764  1.00  0.00    -0.341 OA
ATOM      4  C   UNL     1      39.795  42.007  26.980  1.00  0.00     0.282 C 
ATOM      5  C   UNL     1      38.316  41.556  26.833  1.00  0.00     0.202 C 
ATOM      6  C   UNL     1      38.212  40.147  26.220  1.00  0.00     0.180 C 
ENDROOT
BRANCH   1   7
ATOM      7  O   UNL     1      38.557  40.929  23.954  1.00  0.00    -0.341 OA
BRANCH   7   8
ATOM      8  C   UNL     1      37.523  40.314  23.194  1.00  0.00     0.282 C 
ATOM      9  C   UNL     1      38.800  38.377  22.818  1.00  0.00     0.178 C 
ATOM     10  C   UNL     1      38.953  38.636  21.296  1.00  0.00     0.177 C 
ATOM     11  O   UNL     1      37.575  38.900  23.320  1.00  0.00    -0.341 OA
ATOM     12  C   UNL     1      38.840  40.148  21.003  1.00  0.00     0.179 C 
ATOM     13  C   UNL     1      37.601  40.737  21.709  1.00  0.00     0.202 C 
BRANCH   9  14
ATOM     14  C   UNL     1      38.894  36.881  23.154  1.00  0.00     0.191 C 
BRANCH  14  15
ATOM     15  O   UNL     1      37.698  36.221  22.820  1.00  0.00    -0.394 OA
ATOM     16  H   UNL     1      37.120  36.232  23.628  1.00  0.00     0.210 HD
ENDBRANCH  14  15
ENDBRANCH   9  14
BRANCH  10  17
ATOM     17  O   UNL     1      38.026  37.894  20.534  1.00  0.00    -0.387 OA
ATOM     18  H   UNL     1      38.400  36.989  20.384  1.00  0.00     0.211 HD
ENDBRANCH  10  17
BRANCH  12  19
ATOM     19  O   UNL     1      40.004  40.807  21.442  1.00  0.00    -0.387 OA
ATOM     20  H   UNL     1      40.699  40.115  21.589  1.00  0.00     0.211 HD
ENDBRANCH  12  19
BRANCH  13  21
ATOM     21  O   UNL     1      37.539  42.136  21.563  1.00  0.00    -0.385 OA
ATOM     22  H   UNL     1      36.999  42.345  20.757  1.00  0.00     0.211 HD
ENDBRANCH  13  21
ENDBRANCH   7   8
ENDBRANCH   1   7
BRANCH   2  23
ATOM     23  C   UNL     1      41.504  40.300  24.158  1.00  0.00     0.191 C 
BRANCH  23  24
ATOM     24  O   UNL     1      41.758  41.525  23.517  1.00  0.00    -0.394 OA
ATOM     25  H   UNL     1      42.735  41.558  23.349  1.00  0.00     0.210 HD
ENDBRANCH  23  24
ENDBRANCH   2  23
BRANCH   6  26
ATOM     26  O   UNL     1      36.875  39.858  25.900  1.00  0.00    -0.387 OA
ATOM     27  H   UNL     1      36.888  39.113  25.246  1.00  0.00     0.211 HD
ENDBRANCH   6  26
BRANCH   5  28
ATOM     28  O   UNL     1      37.661  41.579  28.073  1.00  0.00    -0.385 OA
ATOM     29  H   UNL     1      36.810  42.068  27.938  1.00  0.00     0.211 HD
ENDBRANCH   5  28
BRANCH   4  30
ATOM     30  O   UNL     1      40.445  41.318  28.047  1.00  0.00    -0.341 OA
BRANCH  30  31
ATOM     31  C   UNL     1      41.461  42.118  28.637  1.00  0.00     0.184 C 
ATOM     32  C   UNL     1      40.913  43.548  28.940  1.00  0.00     0.178 C 
ATOM     33  C   UNL     1      42.640  42.274  27.656  1.00  0.00     0.180 C 
ATOM     34  O   UNL     1      41.901  44.570  29.088  1.00  0.00    -0.342 OA
ATOM     35  C   UNL     1      43.749  43.174  28.263  1.00  0.00     0.201 C 
ATOM     36  C   UNL     1      43.189  44.064  29.408  1.00  0.00     0.279 C 
BRANCH  32  37
ATOM     37  C   UNL     1      39.927  43.599  30.125  1.00  0.00     0.191 C 
BRANCH  37  38
ATOM     38  O   UNL     1      38.636  43.997  29.737  1.00  0.00    -0.394 OA
ATOM     39  H   UNL     1      38.729  44.487  28.880  1.00  0.00     0.210 HD
ENDBRANCH  37  38
ENDBRANCH  32  37
BRANCH  33  40
ATOM     40  O   UNL     1      43.165  41.034  27.255  1.00  0.00    -0.387 OA
ATOM     41  H   UNL     1      43.816  41.202  26.524  1.00  0.00     0.211 HD
ENDBRANCH  33  40
BRANCH  35  42
ATOM     42  O   UNL     1      44.357  43.938  27.246  1.00  0.00    -0.385 OA
ATOM     43  H   UNL     1      44.309  44.890  27.515  1.00  0.00     0.211 HD
ENDBRANCH  35  42
BRANCH  36  44
ATOM     44  O   UNL     1      44.066  45.125  29.694  1.00  0.00    -0.366 OA
ATOM     45  H   UNL     1      44.534  44.907  30.546  1.00  0.00     0.213 HD
ENDBRANCH  36  44
ENDBRANCH  30  31
ENDBRANCH   4  30
TORSDOF 18
ENDMDL
