MODEL 1
REMARK VINA RESULT:    -3.989      0.000      0.000
REMARK INTER + INTRA:          -5.786
REMARK INTER:                  -5.388
REMARK INTRA:                  -0.398
REMARK UNBOUND:                -0.398
REMARK SMILES CCCCCCCC(=O)[O-]
REMARK SMILES IDX 5 1 6 2 7 3 8 4 9 5 10 6 4 7 3 8 2 9 1 10
REMARK H PARENT
REMARK Flexibility Score: inf
ROOT
ATOM      1  C   UNL     1      52.618  43.028  48.414  1.00  0.00     0.000 C 
ENDROOT
BRANCH   1   2
ATOM      2  C   UNL     1      53.230  42.407  49.681  1.00  0.00     0.006 C 
BRANCH   2   3
ATOM      3  C   UNL     1      52.570  42.913  50.968  1.00  0.00     0.053 C 
BRANCH   3   4
ATOM      4  C   UNL     1      52.226  41.766  51.865  1.00  0.00     0.041 C 
ATOM      5  O   UNL     1      52.512  41.811  53.091  1.00  0.00    -0.550 OA
ATOM      6  O   UNL     1      51.545  40.667  51.358  1.00  0.00    -0.550 OA
ENDBRANCH   3   4
ENDBRANCH   2   3
ENDBRANCH   1   2
BRANCH   1   7
ATOM      7  C   UNL     1      51.997  41.986  47.455  1.00  0.00     0.000 C 
BRANCH   7   8
ATOM      8  C   UNL     1      52.294  40.527  47.865  1.00  0.00    -0.000 C 
BRANCH   8   9
ATOM      9  C   UNL     1      53.222  39.791  46.884  1.00  0.00    -0.003 C 
ATOM     10  C   UNL     1      54.484  39.248  47.551  1.00  0.00     0.004 C 
ENDBRANCH   8   9
ENDBRANCH   7   8
ENDBRANCH   1   7
TORSDOF 6
ENDMDL
MODEL 2
REMARK VINA RESULT:    -3.896      2.275      4.460
REMARK INTER + INTRA:          -5.660
REMARK INTER:                  -5.297
REMARK INTRA:                  -0.364
REMARK UNBOUND:                -0.398
REMARK SMILES CCCCCCCC(=O)[O-]
REMARK SMILES IDX 5 1 6 2 7 3 8 4 9 5 10 6 4 7 3 8 2 9 1 10
REMARK H PARENT
REMARK Flexibility Score: inf
ROOT
ATOM      1  C   UNL     1      52.758  43.148  48.564  1.00  0.00     0.000 C 
ENDROOT
BRANCH   1   2
ATOM      2  C   UNL     1      52.115  42.123  47.615  1.00  0.00     0.006 C 
BRANCH   2   3
ATOM      3  C   UNL     1      52.123  40.700  48.184  1.00  0.00     0.053 C 
BRANCH   3   4
ATOM      4  C   UNL     1      53.257  39.913  47.607  1.00  0.00     0.041 C 
ATOM      5  O   UNL     1      53.228  39.550  46.401  1.00  0.00    -0.550 OA
ATOM      6  O   UNL     1      54.369  39.621  48.386  1.00  0.00    -0.550 OA
ENDBRANCH   3   4
ENDBRANCH   2   3
ENDBRANCH   1   2
BRANCH   1   7
ATOM      7  C   UNL     1      53.147  42.556  49.938  1.00  0.00     0.000 C 
BRANCH   7   8
ATOM      8  C   UNL     1      52.421  43.233  51.121  1.00  0.00    -0.000 C 
BRANCH   8   9
ATOM      9  C   UNL     1      52.180  42.290  52.312  1.00  0.00    -0.003 C 
ATOM     10  C   UNL     1      52.137  40.818  51.908  1.00  0.00     0.004 C 
ENDBRANCH   8   9
ENDBRANCH   7   8
ENDBRANCH   1   7
TORSDOF 6
ENDMDL
MODEL 3
REMARK VINA RESULT:    -3.871      2.027      3.739
REMARK INTER + INTRA:          -5.627
REMARK INTER:                  -5.107
REMARK INTRA:                  -0.520
REMARK UNBOUND:                -0.398
REMARK SMILES CCCCCCCC(=O)[O-]
REMARK SMILES IDX 5 1 6 2 7 3 8 4 9 5 10 6 4 7 3 8 2 9 1 10
REMARK H PARENT
REMARK Flexibility Score: inf
ROOT
ATOM      1  C   UNL     1      53.524  39.901  47.020  1.00  0.00     0.000 C 
ENDROOT
BRANCH   1   2
ATOM      2  C   UNL     1      54.486  38.987  47.799  1.00  0.00     0.006 C 
BRANCH   2   3
ATOM      3  C   UNL     1      54.932  39.594  49.134  1.00  0.00     0.053 C 
BRANCH   3   4
ATOM      4  C   UNL     1      54.540  38.704  50.270  1.00  0.00     0.041 C 
ATOM      5  O   UNL     1      55.329  37.809  50.675  1.00  0.00    -0.550 OA
ATOM      6  O   UNL     1      53.325  38.893  50.914  1.00  0.00    -0.550 OA
ENDBRANCH   3   4
ENDBRANCH   2   3
ENDBRANCH   1   2
BRANCH   1   7
ATOM      7  C   UNL     1      52.323  40.390  47.861  1.00  0.00     0.000 C 
BRANCH   7   8
ATOM      8  C   UNL     1      52.053  41.904  47.717  1.00  0.00    -0.000 C 
BRANCH   8   9
ATOM      9  C   UNL     1      52.866  42.767  48.697  1.00  0.00    -0.003 C 
ATOM     10  C   UNL     1      52.654  42.370  50.156  1.00  0.00     0.004 C 
ENDBRANCH   8   9
ENDBRANCH   7   8
ENDBRANCH   1   7
TORSDOF 6
ENDMDL
MODEL 4
REMARK VINA RESULT:    -3.828      2.019      3.559
REMARK INTER + INTRA:          -5.569
REMARK INTER:                  -5.234
REMARK INTRA:                  -0.335
REMARK UNBOUND:                -0.398
REMARK SMILES CCCCCCCC(=O)[O-]
REMARK SMILES IDX 5 1 6 2 7 3 8 4 9 5 10 6 4 7 3 8 2 9 1 10
REMARK H PARENT
REMARK Flexibility Score: inf
ROOT
ATOM      1  C   UNL     1      54.503  39.121  47.381  1.00  0.00     0.000 C 
ENDROOT
BRANCH   1   2
ATOM      2  C   UNL     1      55.024  39.591  48.749  1.00  0.00     0.006 C 
BRANCH   2   3
ATOM      3  C   UNL     1      54.861  38.530  49.844  1.00  0.00     0.053 C 
BRANCH   3   4
ATOM      4  C   UNL     1      54.272  39.139  51.077  1.00  0.00     0.041 C 
ATOM      5  O   UNL     1      53.022  39.209  51.215  1.00  0.00    -0.550 OA
ATOM      6  O   UNL     1      55.103  39.585  52.097  1.00  0.00    -0.550 OA
ENDBRANCH   3   4
ENDBRANCH   2   3
ENDBRANCH   1   2
BRANCH   1   7
ATOM      7  C   UNL     1      53.384  40.019  46.806  1.00  0.00     0.000 C 
BRANCH   7   8
ATOM      8  C   UNL     1      52.323  40.417  47.854  1.00  0.00    -0.000 C 
BRANCH   8   9
ATOM      9  C   UNL     1      52.329  41.917  48.193  1.00  0.00    -0.003 C 
ATOM     10  C   UNL     1      51.993  42.801  46.994  1.00  0.00     0.004 C 
ENDBRANCH   8   9
ENDBRANCH   7   8
ENDBRANCH   1   7
TORSDOF 6
ENDMDL
MODEL 5
REMARK VINA RESULT:    -3.824      2.916      3.949
REMARK INTER + INTRA:          -5.563
REMARK INTER:                  -5.083
REMARK INTRA:                  -0.480
REMARK UNBOUND:                -0.398
REMARK SMILES CCCCCCCC(=O)[O-]
REMARK SMILES IDX 5 1 6 2 7 3 8 4 9 5 10 6 4 7 3 8 2 9 1 10
REMARK H PARENT
REMARK Flexibility Score: inf
ROOT
ATOM      1  C   UNL     1      52.571  40.798  50.591  1.00  0.00     0.000 C 
ENDROOT
BRANCH   1   2
ATOM      2  C   UNL     1      53.600  39.989  51.397  1.00  0.00     0.006 C 
BRANCH   2   3
ATOM      3  C   UNL     1      53.720  38.537  50.921  1.00  0.00     0.053 C 
BRANCH   3   4
ATOM      4  C   UNL     1      54.975  38.348  50.128  1.00  0.00     0.041 C 
ATOM      5  O   UNL     1      54.978  38.561  48.887  1.00  0.00    -0.550 OA
ATOM      6  O   UNL     1      56.153  37.986  50.768  1.00  0.00    -0.550 OA
ENDBRANCH   3   4
ENDBRANCH   2   3
ENDBRANCH   1   2
BRANCH   1   7
ATOM      7  C   UNL     1      51.695  39.928  49.661  1.00  0.00     0.000 C 
BRANCH   7   8
ATOM      8  C   UNL     1      51.839  40.296  48.168  1.00  0.00    -0.000 C 
BRANCH   8   9
ATOM      9  C   UNL     1      52.759  41.503  47.920  1.00  0.00    -0.003 C 
ATOM     10  C   UNL     1      52.045  42.666  47.234  1.00  0.00     0.004 C 
ENDBRANCH   8   9
ENDBRANCH   7   8
ENDBRANCH   1   7
TORSDOF 6
ENDMDL
MODEL 6
REMARK VINA RESULT:    -3.814      1.310      1.438
REMARK INTER + INTRA:          -5.549
REMARK INTER:                  -4.956
REMARK INTRA:                  -0.593
REMARK UNBOUND:                -0.398
REMARK SMILES CCCCCCCC(=O)[O-]
REMARK SMILES IDX 5 1 6 2 7 3 8 4 9 5 10 6 4 7 3 8 2 9 1 10
REMARK H PARENT
REMARK Flexibility Score: inf
ROOT
ATOM      1  C   UNL     1      52.638  42.966  48.538  1.00  0.00     0.000 C 
ENDROOT
BRANCH   1   2
ATOM      2  C   UNL     1      53.433  42.290  49.667  1.00  0.00     0.006 C 
BRANCH   2   3
ATOM      3  C   UNL     1      52.534  41.736  50.778  1.00  0.00     0.053 C 
BRANCH   3   4
ATOM      4  C   UNL     1      52.449  40.245  50.688  1.00  0.00     0.041 C 
ATOM      5  O   UNL     1      53.212  39.524  51.384  1.00  0.00    -0.550 OA
ATOM      6  O   UNL     1      51.495  39.651  49.873  1.00  0.00    -0.550 OA
ENDBRANCH   3   4
ENDBRANCH   2   3
ENDBRANCH   1   2
BRANCH   1   7
ATOM      7  C   UNL     1      52.222  41.995  47.410  1.00  0.00     0.000 C 
BRANCH   7   8
ATOM      8  C   UNL     1      53.424  41.369  46.669  1.00  0.00    -0.000 C 
BRANCH   8   9
ATOM      9  C   UNL     1      53.433  39.832  46.704  1.00  0.00    -0.003 C 
ATOM     10  C   UNL     1      54.458  39.265  47.684  1.00  0.00     0.004 C 
ENDBRANCH   8   9
ENDBRANCH   7   8
ENDBRANCH   1   7
TORSDOF 6
ENDMDL
MODEL 7
REMARK VINA RESULT:    -3.808      1.857      3.171
REMARK INTER + INTRA:          -5.542
REMARK INTER:                  -5.049
REMARK INTRA:                  -0.493
REMARK UNBOUND:                -0.398
REMARK SMILES CCCCCCCC(=O)[O-]
REMARK SMILES IDX 5 1 6 2 7 3 8 4 9 5 10 6 4 7 3 8 2 9 1 10
REMARK H PARENT
REMARK Flexibility Score: inf
ROOT
ATOM      1  C   UNL     1      54.843  39.644  48.924  1.00  0.00     0.000 C 
ENDROOT
BRANCH   1   2
ATOM      2  C   UNL     1      54.904  38.551  50.003  1.00  0.00     0.006 C 
BRANCH   2   3
ATOM      3  C   UNL     1      53.634  38.488  50.858  1.00  0.00     0.053 C 
BRANCH   3   4
ATOM      4  C   UNL     1      53.482  39.742  51.661  1.00  0.00     0.041 C 
ATOM      5  O   UNL     1      54.370  40.075  52.490  1.00  0.00    -0.550 OA
ATOM      6  O   UNL     1      52.385  40.569  51.458  1.00  0.00    -0.550 OA
ENDBRANCH   3   4
ENDBRANCH   2   3
ENDBRANCH   1   2
BRANCH   1   7
ATOM      7  C   UNL     1      54.494  39.105  47.518  1.00  0.00     0.000 C 
BRANCH   7   8
ATOM      8  C   UNL     1      53.315  39.850  46.854  1.00  0.00    -0.000 C 
BRANCH   8   9
ATOM      9  C   UNL     1      52.292  40.399  47.862  1.00  0.00    -0.003 C 
ATOM     10  C   UNL     1      52.078  41.906  47.732  1.00  0.00     0.004 C 
ENDBRANCH   8   9
ENDBRANCH   7   8
ENDBRANCH   1   7
TORSDOF 6
ENDMDL
MODEL 8
REMARK VINA RESULT:    -3.773      1.986      3.305
REMARK INTER + INTRA:          -5.494
REMARK INTER:                  -5.031
REMARK INTRA:                  -0.464
REMARK UNBOUND:                -0.398
REMARK SMILES CCCCCCCC(=O)[O-]
REMARK SMILES IDX 5 1 6 2 7 3 8 4 9 5 10 6 4 7 3 8 2 9 1 10
REMARK H PARENT
REMARK Flexibility Score: inf
ROOT
ATOM      1  C   UNL     1      53.416  40.110  46.736  1.00  0.00     0.000 C 
ENDROOT
BRANCH   1   2
ATOM      2  C   UNL     1      52.367  40.539  47.777  1.00  0.00     0.006 C 
BRANCH   2   3
ATOM      3  C   UNL     1      52.181  42.059  47.841  1.00  0.00     0.053 C 
BRANCH   3   4
ATOM      4  C   UNL     1      52.689  42.593  49.143  1.00  0.00     0.041 C 
ATOM      5  O   UNL     1      53.086  43.785  49.227  1.00  0.00    -0.550 OA
ATOM      6  O   UNL     1      52.679  41.790  50.276  1.00  0.00    -0.550 OA
ENDBRANCH   3   4
ENDBRANCH   2   3
ENDBRANCH   1   2
BRANCH   1   7
ATOM      7  C   UNL     1      54.477  39.136  47.296  1.00  0.00     0.000 C 
BRANCH   7   8
ATOM      8  C   UNL     1      55.073  39.593  48.645  1.00  0.00    -0.000 C 
BRANCH   8   9
ATOM      9  C   UNL     1      55.132  38.474  49.699  1.00  0.00    -0.003 C 
ATOM     10  C   UNL     1      53.995  38.552  50.715  1.00  0.00     0.004 C 
ENDBRANCH   8   9
ENDBRANCH   7   8
ENDBRANCH   1   7
TORSDOF 6
ENDMDL
MODEL 9
REMARK VINA RESULT:    -3.706      3.028      4.182
REMARK INTER + INTRA:          -5.404
REMARK INTER:                  -4.878
REMARK INTRA:                  -0.526
REMARK UNBOUND:                -0.398
REMARK SMILES CCCCCCCC(=O)[O-]
REMARK SMILES IDX 5 1 6 2 7 3 8 4 9 5 10 6 4 7 3 8 2 9 1 10
REMARK H PARENT
REMARK Flexibility Score: inf
ROOT
ATOM      1  C   UNL     1      52.643  41.676  50.187  1.00  0.00     0.000 C 
ENDROOT
BRANCH   1   2
ATOM      2  C   UNL     1      52.588  42.077  48.703  1.00  0.00     0.006 C 
BRANCH   2   3
ATOM      3  C   UNL     1      52.230  40.904  47.783  1.00  0.00     0.053 C 
BRANCH   3   4
ATOM      4  C   UNL     1      53.427  40.473  46.996  1.00  0.00     0.041 C 
ATOM      5  O   UNL     1      53.771  39.261  46.979  1.00  0.00    -0.550 OA
ATOM      6  O   UNL     1      54.134  41.400  46.242  1.00  0.00    -0.550 OA
ENDBRANCH   3   4
ENDBRANCH   2   3
ENDBRANCH   1   2
BRANCH   1   7
ATOM      7  C   UNL     1      51.999  40.301  50.478  1.00  0.00     0.000 C 
BRANCH   7   8
ATOM      8  C   UNL     1      52.982  39.288  51.102  1.00  0.00    -0.000 C 
BRANCH   8   9
ATOM      9  C   UNL     1      54.427  39.446  50.599  1.00  0.00    -0.003 C 
ATOM     10  C   UNL     1      55.067  38.118  50.198  1.00  0.00     0.004 C 
ENDBRANCH   8   9
ENDBRANCH   7   8
ENDBRANCH   1   7
TORSDOF 6
ENDMDL
