MODEL 1
REMARK VINA RESULT:    -7.352      0.000      0.000
REMARK INTER + INTRA:         -11.610
REMARK INTER:                 -10.575
REMARK INTRA:                  -1.035
REMARK UNBOUND:                -1.035
REMARK SMILES O=c1c(O[C@@H]2O[C@@H](CO)[C@@H](O)[C@@H](O)[C@H]2O)c(-c2ccc(O)cc2)oc2cc(O)cc(O)c12
REMARK SMILES IDX 4 1 3 2 16 3 24 4 2 5 25 6 1 7 32 8 26 9 30 10 27 11 29 12
REMARK SMILES IDX 17 13 18 14 19 15 20 16 23 17 22 18 21 19 31 21 28 23 5 25
REMARK SMILES IDX 14 26 6 27 12 28 7 29 10 30 15 31 13 33 8 35 9 36 11 38
REMARK H PARENT 21 20 31 22 28 24 15 32 13 34 9 37 11 39
REMARK Flexibility Score: inf
ROOT
ATOM      1  O   UNL     1      14.673  14.903  10.463  1.00  0.00    -0.454 OA
ENDROOT
BRANCH   1   2
ATOM      2  C   UNL     1      15.128  14.139  11.558  1.00  0.00     0.214 A 
ATOM      3  C   UNL     1      16.482  14.261  11.933  1.00  0.00     0.180 A 
ATOM      4  O   UNL     1      16.947  13.602  12.988  1.00  0.00    -0.452 OA
ATOM      5  C   UNL     1      14.299  13.284  12.319  1.00  0.00     0.239 A 
ATOM      6  C   UNL     1      16.204  12.790  13.728  1.00  0.00     0.146 A 
ATOM      7  O   UNL     1      13.082  13.147  12.026  1.00  0.00    -0.285 OA
ATOM      8  C   UNL     1      14.839  12.588  13.422  1.00  0.00     0.111 A 
ATOM      9  C   UNL     1      16.790  12.136  14.815  1.00  0.00     0.094 A 
ATOM     10  C   UNL     1      14.078  11.709  14.232  1.00  0.00     0.134 A 
ATOM     11  C   UNL     1      16.033  11.271  15.612  1.00  0.00     0.123 A 
ATOM     12  C   UNL     1      14.685  11.060  15.318  1.00  0.00     0.093 A 
BRANCH   3  13
ATOM     13  C   UNL     1      17.421  15.135  11.195  1.00  0.00     0.021 A 
ATOM     14  C   UNL     1      17.881  16.319  11.795  1.00  0.00     0.016 A 
ATOM     15  C   UNL     1      18.776  17.153  11.120  1.00  0.00     0.047 A 
ATOM     16  C   UNL     1      19.234  16.806   9.841  1.00  0.00     0.115 A 
ATOM     17  C   UNL     1      17.903  14.782   9.923  1.00  0.00     0.016 A 
ATOM     18  C   UNL     1      18.797  15.618   9.248  1.00  0.00     0.047 A 
BRANCH  16  19
ATOM     19  O   UNL     1      20.124  17.630   9.157  1.00  0.00    -0.508 OA
ATOM     20  H   UNL     1      20.794  17.253   8.498  1.00  0.00     0.293 HD
ENDBRANCH  16  19
ENDBRANCH   3  13
BRANCH  10  21
ATOM     21  O   UNL     1      12.728  11.473  13.968  1.00  0.00    -0.507 OA
ATOM     22  H   UNL     1      11.996  11.822  14.576  1.00  0.00     0.293 HD
ENDBRANCH  10  21
BRANCH  11  23
ATOM     23  O   UNL     1      16.612  10.616  16.696  1.00  0.00    -0.508 OA
ATOM     24  H   UNL     1      17.558  10.256  16.654  1.00  0.00     0.293 HD
ENDBRANCH  11  23
ENDBRANCH   1   2
BRANCH   1  25
ATOM     25  C   UNL     1      14.566  16.328  10.375  1.00  0.00     0.339 C 
ATOM     26  C   UNL     1      14.293  16.743   8.909  1.00  0.00     0.214 C 
ATOM     27  O   UNL     1      13.568  16.836  11.251  1.00  0.00    -0.332 OA
ATOM     28  C   UNL     1      12.862  16.356   8.480  1.00  0.00     0.180 C 
ATOM     29  C   UNL     1      12.288  16.302  10.953  1.00  0.00     0.179 C 
ATOM     30  C   UNL     1      11.814  16.745   9.541  1.00  0.00     0.177 C 
BRANCH  26  31
ATOM     31  O   UNL     1      14.537  18.113   8.675  1.00  0.00    -0.384 OA
ATOM     32  H   UNL     1      13.936  18.657   9.245  1.00  0.00     0.211 HD
ENDBRANCH  26  31
BRANCH  28  33
ATOM     33  O   UNL     1      12.532  16.942   7.248  1.00  0.00    -0.387 OA
ATOM     34  H   UNL     1      11.566  16.767   7.096  1.00  0.00     0.211 HD
ENDBRANCH  28  33
BRANCH  29  35
ATOM     35  C   UNL     1      11.307  16.740  12.048  1.00  0.00     0.191 C 
BRANCH  35  36
ATOM     36  O   UNL     1       9.987  16.596  11.602  1.00  0.00    -0.394 OA
ATOM     37  H   UNL     1       9.962  15.749  11.085  1.00  0.00     0.210 HD
ENDBRANCH  35  36
ENDBRANCH  29  35
BRANCH  30  38
ATOM     38  O   UNL     1      11.504  18.118   9.477  1.00  0.00    -0.387 OA
ATOM     39  H   UNL     1      12.333  18.619   9.278  1.00  0.00     0.211 HD
ENDBRANCH  30  38
ENDBRANCH   1  25
TORSDOF 11
ENDMDL
MODEL 2
REMARK VINA RESULT:    -7.286      1.557      2.575
REMARK INTER + INTRA:         -11.516
REMARK INTER:                 -10.352
REMARK INTRA:                  -1.163
REMARK UNBOUND:                -1.035
REMARK SMILES O=c1c(O[C@@H]2O[C@@H](CO)[C@@H](O)[C@@H](O)[C@H]2O)c(-c2ccc(O)cc2)oc2cc(O)cc(O)c12
REMARK SMILES IDX 4 1 3 2 16 3 24 4 2 5 25 6 1 7 32 8 26 9 30 10 27 11 29 12
REMARK SMILES IDX 17 13 18 14 19 15 20 16 23 17 22 18 21 19 31 21 28 23 5 25
REMARK SMILES IDX 14 26 6 27 12 28 7 29 10 30 15 31 13 33 8 35 9 36 11 38
REMARK H PARENT 21 20 31 22 28 24 15 32 13 34 9 37 11 39
REMARK Flexibility Score: inf
ROOT
ATOM      1  O   UNL     1      13.841  14.099  10.752  1.00  0.00    -0.454 OA
ENDROOT
BRANCH   1   2
ATOM      2  C   UNL     1      14.751  13.845  11.799  1.00  0.00     0.214 A 
ATOM      3  C   UNL     1      16.009  14.480  11.751  1.00  0.00     0.180 A 
ATOM      4  O   UNL     1      16.883  14.315  12.738  1.00  0.00    -0.452 OA
ATOM      5  C   UNL     1      14.464  13.016  12.908  1.00  0.00     0.239 A 
ATOM      6  C   UNL     1      16.654  13.547  13.794  1.00  0.00     0.146 A 
ATOM      7  O   UNL     1      13.352  12.432  12.998  1.00  0.00    -0.285 OA
ATOM      8  C   UNL     1      15.429  12.853  13.926  1.00  0.00     0.111 A 
ATOM      9  C   UNL     1      17.641  13.432  14.776  1.00  0.00     0.094 A 
ATOM     10  C   UNL     1      15.222  12.037  15.066  1.00  0.00     0.134 A 
ATOM     11  C   UNL     1      17.430  12.626  15.900  1.00  0.00     0.123 A 
ATOM     12  C   UNL     1      16.227  11.933  16.040  1.00  0.00     0.093 A 
BRANCH   3  13
ATOM     13  C   UNL     1      16.394  15.368  10.630  1.00  0.00     0.021 A 
ATOM     14  C   UNL     1      16.622  16.732  10.874  1.00  0.00     0.016 A 
ATOM     15  C   UNL     1      16.996  17.584   9.831  1.00  0.00     0.047 A 
ATOM     16  C   UNL     1      17.159  17.079   8.534  1.00  0.00     0.115 A 
ATOM     17  C   UNL     1      16.583  14.864   9.331  1.00  0.00     0.016 A 
ATOM     18  C   UNL     1      16.955  15.718   8.289  1.00  0.00     0.047 A 
BRANCH  16  19
ATOM     19  O   UNL     1      17.529  17.919   7.486  1.00  0.00    -0.508 OA
ATOM     20  H   UNL     1      16.955  18.708   7.212  1.00  0.00     0.293 HD
ENDBRANCH  16  19
ENDBRANCH   3  13
BRANCH  10  21
ATOM     21  O   UNL     1      14.032  11.329  15.239  1.00  0.00    -0.507 OA
ATOM     22  H   UNL     1      13.261  11.415  14.588  1.00  0.00     0.293 HD
ENDBRANCH  10  21
BRANCH  11  23
ATOM     23  O   UNL     1      18.411  12.507  16.881  1.00  0.00    -0.508 OA
ATOM     24  H   UNL     1      18.507  11.664  17.436  1.00  0.00     0.293 HD
ENDBRANCH  11  23
ENDBRANCH   1   2
BRANCH   1  25
ATOM     25  C   UNL     1      12.509  14.613  10.858  1.00  0.00     0.339 C 
ATOM     26  C   UNL     1      12.432  15.636  12.017  1.00  0.00     0.214 C 
ATOM     27  O   UNL     1      12.067  15.185   9.633  1.00  0.00    -0.332 OA
ATOM     28  C   UNL     1      13.178  16.939  11.657  1.00  0.00     0.180 C 
ATOM     29  C   UNL     1      12.898  16.261   9.226  1.00  0.00     0.179 C 
ATOM     30  C   UNL     1      12.827  17.435  10.241  1.00  0.00     0.177 C 
BRANCH  26  31
ATOM     31  O   UNL     1      11.108  15.906  12.419  1.00  0.00    -0.384 OA
ATOM     32  H   UNL     1      10.492  15.261  11.987  1.00  0.00     0.211 HD
ENDBRANCH  26  31
BRANCH  28  33
ATOM     33  O   UNL     1      12.906  17.946  12.596  1.00  0.00    -0.387 OA
ATOM     34  H   UNL     1      13.511  17.789  13.368  1.00  0.00     0.211 HD
ENDBRANCH  28  33
BRANCH  29  35
ATOM     35  C   UNL     1      12.480  16.698   7.817  1.00  0.00     0.191 C 
BRANCH  35  36
ATOM     36  O   UNL     1      12.974  17.979   7.541  1.00  0.00    -0.394 OA
ATOM     37  H   UNL     1      12.674  18.557   8.289  1.00  0.00     0.210 HD
ENDBRANCH  35  36
ENDBRANCH  29  35
BRANCH  30  38
ATOM     38  O   UNL     1      11.582  18.095  10.222  1.00  0.00    -0.387 OA
ATOM     39  H   UNL     1      11.535  18.654   9.408  1.00  0.00     0.211 HD
ENDBRANCH  30  38
ENDBRANCH   1  25
TORSDOF 11
ENDMDL
MODEL 3
REMARK VINA RESULT:    -7.153      2.081      4.931
REMARK INTER + INTRA:         -11.325
REMARK INTER:                  -9.792
REMARK INTRA:                  -1.533
REMARK UNBOUND:                -1.035
REMARK SMILES O=c1c(O[C@@H]2O[C@@H](CO)[C@@H](O)[C@@H](O)[C@H]2O)c(-c2ccc(O)cc2)oc2cc(O)cc(O)c12
REMARK SMILES IDX 4 1 3 2 16 3 24 4 2 5 25 6 1 7 32 8 26 9 30 10 27 11 29 12
REMARK SMILES IDX 17 13 18 14 19 15 20 16 23 17 22 18 21 19 31 21 28 23 5 25
REMARK SMILES IDX 14 26 6 27 12 28 7 29 10 30 15 31 13 33 8 35 9 36 11 38
REMARK H PARENT 21 20 31 22 28 24 15 32 13 34 9 37 11 39
REMARK Flexibility Score: inf
ROOT
ATOM      1  O   UNL     1      17.203  15.169  11.691  1.00  0.00    -0.454 OA
ENDROOT
BRANCH   1   2
ATOM      2  C   UNL     1      16.907  14.634  12.962  1.00  0.00     0.214 A 
ATOM      3  C   UNL     1      15.642  14.912  13.519  1.00  0.00     0.180 A 
ATOM      4  O   UNL     1      15.296  14.391  14.691  1.00  0.00    -0.452 OA
ATOM      5  C   UNL     1      17.793  13.811  13.696  1.00  0.00     0.239 A 
ATOM      6  C   UNL     1      16.096  13.616  15.410  1.00  0.00     0.146 A 
ATOM      7  O   UNL     1      18.931  13.530  13.236  1.00  0.00    -0.285 OA
ATOM      8  C   UNL     1      17.391  13.293  14.946  1.00  0.00     0.111 A 
ATOM      9  C   UNL     1      15.641  13.121  16.635  1.00  0.00     0.094 A 
ATOM     10  C   UNL     1      18.220  12.466  15.744  1.00  0.00     0.134 A 
ATOM     11  C   UNL     1      16.463  12.305  17.418  1.00  0.00     0.123 A 
ATOM     12  C   UNL     1      17.746  11.982  16.973  1.00  0.00     0.093 A 
BRANCH   3  13
ATOM     13  C   UNL     1      14.651  15.761  12.821  1.00  0.00     0.021 A 
ATOM     14  C   UNL     1      13.755  15.175  11.912  1.00  0.00     0.016 A 
ATOM     15  C   UNL     1      12.805  15.958  11.251  1.00  0.00     0.047 A 
ATOM     16  C   UNL     1      12.729  17.334  11.500  1.00  0.00     0.115 A 
ATOM     17  C   UNL     1      14.553  17.139  13.085  1.00  0.00     0.016 A 
ATOM     18  C   UNL     1      13.603  17.920  12.421  1.00  0.00     0.047 A 
BRANCH  16  19
ATOM     19  O   UNL     1      11.788  18.125  10.846  1.00  0.00    -0.508 OA
ATOM     20  H   UNL     1      11.902  19.129  10.768  1.00  0.00     0.293 HD
ENDBRANCH  16  19
ENDBRANCH   3  13
BRANCH  10  21
ATOM     21  O   UNL     1      19.508  12.123  15.330  1.00  0.00    -0.507 OA
ATOM     22  H   UNL     1      19.814  11.159  15.282  1.00  0.00     0.293 HD
ENDBRANCH  10  21
BRANCH  11  23
ATOM     23  O   UNL     1      16.015  11.810  18.641  1.00  0.00    -0.508 OA
ATOM     24  H   UNL     1      15.651  12.425  19.360  1.00  0.00     0.293 HD
ENDBRANCH  11  23
ENDBRANCH   1   2
BRANCH   1  25
ATOM     25  C   UNL     1      17.760  16.452  11.390  1.00  0.00     0.339 C 
ATOM     26  C   UNL     1      19.061  16.279  10.568  1.00  0.00     0.214 C 
ATOM     27  O   UNL     1      16.827  17.285  10.712  1.00  0.00    -0.332 OA
ATOM     28  C   UNL     1      18.751  15.796   9.135  1.00  0.00     0.180 C 
ATOM     29  C   UNL     1      16.409  16.713   9.483  1.00  0.00     0.179 C 
ATOM     30  C   UNL     1      17.599  16.591   8.492  1.00  0.00     0.177 C 
BRANCH  26  31
ATOM     31  O   UNL     1      19.852  17.446  10.547  1.00  0.00    -0.384 OA
ATOM     32  H   UNL     1      19.701  17.963  11.379  1.00  0.00     0.211 HD
ENDBRANCH  26  31
BRANCH  28  33
ATOM     33  O   UNL     1      19.894  15.872   8.324  1.00  0.00    -0.387 OA
ATOM     34  H   UNL     1      19.735  16.605   7.672  1.00  0.00     0.211 HD
ENDBRANCH  28  33
BRANCH  29  35
ATOM     35  C   UNL     1      15.271  17.565   8.907  1.00  0.00     0.191 C 
BRANCH  35  36
ATOM     36  O   UNL     1      15.179  17.379   7.522  1.00  0.00    -0.394 OA
ATOM     37  H   UNL     1      15.914  16.758   7.279  1.00  0.00     0.210 HD
ENDBRANCH  35  36
ENDBRANCH  29  35
BRANCH  30  38
ATOM     38  O   UNL     1      18.041  17.842   8.017  1.00  0.00    -0.387 OA
ATOM     39  H   UNL     1      17.278  18.304   7.589  1.00  0.00     0.211 HD
ENDBRANCH  30  38
ENDBRANCH   1  25
TORSDOF 11
ENDMDL
MODEL 4
REMARK VINA RESULT:    -7.078      2.501      3.798
REMARK INTER + INTRA:         -11.217
REMARK INTER:                  -9.926
REMARK INTRA:                  -1.291
REMARK UNBOUND:                -1.035
REMARK SMILES O=c1c(O[C@@H]2O[C@@H](CO)[C@@H](O)[C@@H](O)[C@H]2O)c(-c2ccc(O)cc2)oc2cc(O)cc(O)c12
REMARK SMILES IDX 4 1 3 2 16 3 24 4 2 5 25 6 1 7 32 8 26 9 30 10 27 11 29 12
REMARK SMILES IDX 17 13 18 14 19 15 20 16 23 17 22 18 21 19 31 21 28 23 5 25
REMARK SMILES IDX 14 26 6 27 12 28 7 29 10 30 15 31 13 33 8 35 9 36 11 38
REMARK H PARENT 21 20 31 22 28 24 15 32 13 34 9 37 11 39
REMARK Flexibility Score: inf
ROOT
ATOM      1  O   UNL     1      14.708  15.400  11.353  1.00  0.00    -0.454 OA
ENDROOT
BRANCH   1   2
ATOM      2  C   UNL     1      15.400  14.786  12.417  1.00  0.00     0.214 A 
ATOM      3  C   UNL     1      16.121  13.606  12.145  1.00  0.00     0.180 A 
ATOM      4  O   UNL     1      16.831  13.017  13.100  1.00  0.00    -0.452 OA
ATOM      5  C   UNL     1      15.438  15.302  13.734  1.00  0.00     0.239 A 
ATOM      6  C   UNL     1      16.893  13.467  14.346  1.00  0.00     0.146 A 
ATOM      7  O   UNL     1      14.815  16.357  14.024  1.00  0.00    -0.285 OA
ATOM      8  C   UNL     1      16.190  14.634  14.724  1.00  0.00     0.111 A 
ATOM      9  C   UNL     1      17.663  12.772  15.282  1.00  0.00     0.094 A 
ATOM     10  C   UNL     1      16.276  15.083  16.066  1.00  0.00     0.134 A 
ATOM     11  C   UNL     1      17.745  13.220  16.604  1.00  0.00     0.123 A 
ATOM     12  C   UNL     1      17.053  14.369  16.991  1.00  0.00     0.093 A 
BRANCH   3  13
ATOM     13  C   UNL     1      16.140  12.996  10.796  1.00  0.00     0.021 A 
ATOM     14  C   UNL     1      17.026  13.492   9.825  1.00  0.00     0.016 A 
ATOM     15  C   UNL     1      17.066  12.923   8.549  1.00  0.00     0.047 A 
ATOM     16  C   UNL     1      16.232  11.843   8.232  1.00  0.00     0.115 A 
ATOM     17  C   UNL     1      15.323  11.897  10.479  1.00  0.00     0.016 A 
ATOM     18  C   UNL     1      15.364  11.331   9.201  1.00  0.00     0.047 A 
BRANCH  16  19
ATOM     19  O   UNL     1      16.261  11.270   6.963  1.00  0.00    -0.508 OA
ATOM     20  H   UNL     1      17.054  11.395   6.344  1.00  0.00     0.293 HD
ENDBRANCH  16  19
ENDBRANCH   3  13
BRANCH  10  21
ATOM     21  O   UNL     1      15.597  16.226  16.488  1.00  0.00    -0.507 OA
ATOM     22  H   UNL     1      14.608  16.354  16.314  1.00  0.00     0.293 HD
ENDBRANCH  10  21
BRANCH  11  23
ATOM     23  O   UNL     1      18.510  12.530  17.541  1.00  0.00    -0.508 OA
ATOM     24  H   UNL     1      19.181  11.824  17.261  1.00  0.00     0.293 HD
ENDBRANCH  11  23
ENDBRANCH   1   2
BRANCH   1  25
ATOM     25  C   UNL     1      13.402  15.084  10.861  1.00  0.00     0.339 C 
ATOM     26  C   UNL     1      12.328  15.657  11.819  1.00  0.00     0.214 C 
ATOM     27  O   UNL     1      13.211  15.552   9.532  1.00  0.00    -0.332 OA
ATOM     28  C   UNL     1      12.267  17.196  11.725  1.00  0.00     0.180 C 
ATOM     29  C   UNL     1      13.360  16.960   9.446  1.00  0.00     0.179 C 
ATOM     30  C   UNL     1      12.259  17.688  10.265  1.00  0.00     0.177 C 
BRANCH  26  31
ATOM     31  O   UNL     1      11.054  15.087  11.614  1.00  0.00    -0.384 OA
ATOM     32  H   UNL     1      11.110  14.104  11.722  1.00  0.00     0.211 HD
ENDBRANCH  26  31
BRANCH  28  33
ATOM     33  O   UNL     1      11.142  17.694  12.402  1.00  0.00    -0.387 OA
ATOM     34  H   UNL     1      11.109  18.670  12.222  1.00  0.00     0.211 HD
ENDBRANCH  28  33
BRANCH  29  35
ATOM     35  C   UNL     1      13.334  17.366   7.967  1.00  0.00     0.191 C 
BRANCH  35  36
ATOM     36  O   UNL     1      12.317  16.677   7.293  1.00  0.00    -0.394 OA
ATOM     37  H   UNL     1      11.575  16.576   7.944  1.00  0.00     0.210 HD
ENDBRANCH  35  36
ENDBRANCH  29  35
BRANCH  30  38
ATOM     38  O   UNL     1      10.980  17.562   9.688  1.00  0.00    -0.387 OA
ATOM     39  H   UNL     1      11.081  17.511   8.706  1.00  0.00     0.211 HD
ENDBRANCH  30  38
ENDBRANCH   1  25
TORSDOF 11
ENDMDL
MODEL 5
REMARK VINA RESULT:    -7.063      1.599      4.706
REMARK INTER + INTRA:         -11.195
REMARK INTER:                  -9.824
REMARK INTRA:                  -1.371
REMARK UNBOUND:                -1.035
REMARK SMILES O=c1c(O[C@@H]2O[C@@H](CO)[C@@H](O)[C@@H](O)[C@H]2O)c(-c2ccc(O)cc2)oc2cc(O)cc(O)c12
REMARK SMILES IDX 4 1 3 2 16 3 24 4 2 5 25 6 1 7 32 8 26 9 30 10 27 11 29 12
REMARK SMILES IDX 17 13 18 14 19 15 20 16 23 17 22 18 21 19 31 21 28 23 5 25
REMARK SMILES IDX 14 26 6 27 12 28 7 29 10 30 15 31 13 33 8 35 9 36 11 38
REMARK H PARENT 21 20 31 22 28 24 15 32 13 34 9 37 11 39
REMARK Flexibility Score: inf
ROOT
ATOM      1  O   UNL     1      15.717  14.444  10.515  1.00  0.00    -0.454 OA
ENDROOT
BRANCH   1   2
ATOM      2  C   UNL     1      15.191  13.641  11.548  1.00  0.00     0.214 A 
ATOM      3  C   UNL     1      13.833  13.806  11.890  1.00  0.00     0.180 A 
ATOM      4  O   UNL     1      13.277  13.038  12.820  1.00  0.00    -0.452 OA
ATOM      5  C   UNL     1      15.938  12.658  12.238  1.00  0.00     0.239 A 
ATOM      6  C   UNL     1      13.941  12.107  13.490  1.00  0.00     0.146 A 
ATOM      7  O   UNL     1      17.152  12.469  11.963  1.00  0.00    -0.285 OA
ATOM      8  C   UNL     1      15.312  11.876  13.233  1.00  0.00     0.111 A 
ATOM      9  C   UNL     1      13.267  11.355  14.457  1.00  0.00     0.094 A 
ATOM     10  C   UNL     1      15.990  10.876  13.973  1.00  0.00     0.134 A 
ATOM     11  C   UNL     1      13.942  10.369  15.183  1.00  0.00     0.123 A 
ATOM     12  C   UNL     1      15.296  10.133  14.940  1.00  0.00     0.093 A 
BRANCH   3  13
ATOM     13  C   UNL     1      12.975  14.808  11.218  1.00  0.00     0.021 A 
ATOM     14  C   UNL     1      12.716  16.034  11.853  1.00  0.00     0.016 A 
ATOM     15  C   UNL     1      11.917  16.997  11.231  1.00  0.00     0.047 A 
ATOM     16  C   UNL     1      11.378  16.752   9.961  1.00  0.00     0.115 A 
ATOM     17  C   UNL     1      12.452  14.579   9.934  1.00  0.00     0.016 A 
ATOM     18  C   UNL     1      11.651  15.543   9.315  1.00  0.00     0.047 A 
BRANCH  16  19
ATOM     19  O   UNL     1      10.578  17.704   9.333  1.00  0.00    -0.508 OA
ATOM     20  H   UNL     1       9.794  18.134   9.809  1.00  0.00     0.293 HD
ENDBRANCH  16  19
ENDBRANCH   3  13
BRANCH  10  21
ATOM     21  O   UNL     1      17.344  10.614  13.758  1.00  0.00    -0.507 OA
ATOM     22  H   UNL     1      17.678  10.207  12.893  1.00  0.00     0.293 HD
ENDBRANCH  10  21
BRANCH  11  23
ATOM     23  O   UNL     1      13.275   9.617  16.147  1.00  0.00    -0.508 OA
ATOM     24  H   UNL     1      12.626  10.045  16.797  1.00  0.00     0.293 HD
ENDBRANCH  11  23
ENDBRANCH   1   2
BRANCH   1  25
ATOM     25  C   UNL     1      16.169  15.799  10.605  1.00  0.00     0.339 C 
ATOM     26  C   UNL     1      17.699  15.857  10.370  1.00  0.00     0.214 C 
ATOM     27  O   UNL     1      15.474  16.649   9.701  1.00  0.00    -0.332 OA
ATOM     28  C   UNL     1      18.042  15.574   8.892  1.00  0.00     0.180 C 
ATOM     29  C   UNL     1      15.651  16.238   8.355  1.00  0.00     0.179 C 
ATOM     30  C   UNL     1      17.139  16.364   7.925  1.00  0.00     0.177 C 
BRANCH  26  31
ATOM     31  O   UNL     1      18.271  17.073  10.798  1.00  0.00    -0.384 OA
ATOM     32  H   UNL     1      19.244  17.065  10.610  1.00  0.00     0.211 HD
ENDBRANCH  26  31
BRANCH  28  33
ATOM     33  O   UNL     1      19.391  15.864   8.628  1.00  0.00    -0.387 OA
ATOM     34  H   UNL     1      19.550  16.794   8.939  1.00  0.00     0.211 HD
ENDBRANCH  28  33
BRANCH  29  35
ATOM     35  C   UNL     1      14.726  17.075   7.462  1.00  0.00     0.191 C 
BRANCH  35  36
ATOM     36  O   UNL     1      14.125  18.096   8.209  1.00  0.00    -0.394 OA
ATOM     37  H   UNL     1      13.771  17.664   9.030  1.00  0.00     0.210 HD
ENDBRANCH  35  36
ENDBRANCH  29  35
BRANCH  30  38
ATOM     38  O   UNL     1      17.560  17.704   7.808  1.00  0.00    -0.387 OA
ATOM     39  H   UNL     1      17.798  17.878   6.864  1.00  0.00     0.211 HD
ENDBRANCH  30  38
ENDBRANCH   1  25
TORSDOF 11
ENDMDL
MODEL 6
REMARK VINA RESULT:    -6.952      2.294      4.296
REMARK INTER + INTRA:         -11.035
REMARK INTER:                 -10.286
REMARK INTRA:                  -0.749
REMARK UNBOUND:                -1.035
REMARK SMILES O=c1c(O[C@@H]2O[C@@H](CO)[C@@H](O)[C@@H](O)[C@H]2O)c(-c2ccc(O)cc2)oc2cc(O)cc(O)c12
REMARK SMILES IDX 4 1 3 2 16 3 24 4 2 5 25 6 1 7 32 8 26 9 30 10 27 11 29 12
REMARK SMILES IDX 17 13 18 14 19 15 20 16 23 17 22 18 21 19 31 21 28 23 5 25
REMARK SMILES IDX 14 26 6 27 12 28 7 29 10 30 15 31 13 33 8 35 9 36 11 38
REMARK H PARENT 21 20 31 22 28 24 15 32 13 34 9 37 11 39
REMARK Flexibility Score: inf
ROOT
ATOM      1  O   UNL     1      14.488  14.583  10.400  1.00  0.00    -0.454 OA
ENDROOT
BRANCH   1   2
ATOM      2  C   UNL     1      14.448  13.734  11.526  1.00  0.00     0.214 A 
ATOM      3  C   UNL     1      13.737  12.521  11.416  1.00  0.00     0.180 A 
ATOM      4  O   UNL     1      13.712  11.664  12.430  1.00  0.00    -0.452 OA
ATOM      5  C   UNL     1      15.104  14.014  12.747  1.00  0.00     0.239 A 
ATOM      6  C   UNL     1      14.313  11.888  13.591  1.00  0.00     0.146 A 
ATOM      7  O   UNL     1      15.756  15.082  12.891  1.00  0.00    -0.285 OA
ATOM      8  C   UNL     1      15.036  13.084  13.806  1.00  0.00     0.111 A 
ATOM      9  C   UNL     1      14.222  10.926  14.600  1.00  0.00     0.094 A 
ATOM     10  C   UNL     1      15.661  13.291  15.061  1.00  0.00     0.134 A 
ATOM     11  C   UNL     1      14.841  11.136  15.836  1.00  0.00     0.123 A 
ATOM     12  C   UNL     1      15.555  12.313  16.062  1.00  0.00     0.093 A 
BRANCH   3  13
ATOM     13  C   UNL     1      13.023  12.144  10.175  1.00  0.00     0.021 A 
ATOM     14  C   UNL     1      13.450  11.023   9.444  1.00  0.00     0.016 A 
ATOM     15  C   UNL     1      12.782  10.645   8.276  1.00  0.00     0.047 A 
ATOM     16  C   UNL     1      11.671  11.375   7.832  1.00  0.00     0.115 A 
ATOM     17  C   UNL     1      11.893  12.857   9.737  1.00  0.00     0.016 A 
ATOM     18  C   UNL     1      11.228  12.478   8.567  1.00  0.00     0.047 A 
BRANCH  16  19
ATOM     19  O   UNL     1      11.000  11.009   6.668  1.00  0.00    -0.508 OA
ATOM     20  H   UNL     1      11.397  10.344   6.014  1.00  0.00     0.293 HD
ENDBRANCH  16  19
ENDBRANCH   3  13
BRANCH  10  21
ATOM     21  O   UNL     1      16.382  14.456  15.322  1.00  0.00    -0.507 OA
ATOM     22  H   UNL     1      16.187  15.325  14.839  1.00  0.00     0.293 HD
ENDBRANCH  10  21
BRANCH  11  23
ATOM     23  O   UNL     1      14.753  10.180  16.845  1.00  0.00    -0.508 OA
ATOM     24  H   UNL     1      14.701   9.190  16.635  1.00  0.00     0.293 HD
ENDBRANCH  11  23
ENDBRANCH   1   2
BRANCH   1  25
ATOM     25  C   UNL     1      14.504  16.014  10.384  1.00  0.00     0.339 C 
ATOM     26  C   UNL     1      14.305  16.524   8.935  1.00  0.00     0.214 C 
ATOM     27  O   UNL     1      13.531  16.562  11.263  1.00  0.00    -0.332 OA
ATOM     28  C   UNL     1      12.858  16.282   8.457  1.00  0.00     0.180 C 
ATOM     29  C   UNL     1      12.218  16.155  10.911  1.00  0.00     0.179 C 
ATOM     30  C   UNL     1      11.820  16.707   9.514  1.00  0.00     0.177 C 
BRANCH  26  31
ATOM     31  O   UNL     1      14.670  17.877   8.778  1.00  0.00    -0.384 OA
ATOM     32  H   UNL     1      15.651  17.969   8.886  1.00  0.00     0.211 HD
ENDBRANCH  26  31
BRANCH  28  33
ATOM     33  O   UNL     1      12.611  16.956   7.250  1.00  0.00    -0.387 OA
ATOM     34  H   UNL     1      13.465  17.388   6.984  1.00  0.00     0.211 HD
ENDBRANCH  28  33
BRANCH  29  35
ATOM     35  C   UNL     1      11.250  16.622  12.006  1.00  0.00     0.191 C 
BRANCH  35  36
ATOM     36  O   UNL     1       9.933  16.600  11.529  1.00  0.00    -0.394 OA
ATOM     37  H   UNL     1       9.403  17.157  12.157  1.00  0.00     0.210 HD
ENDBRANCH  35  36
ENDBRANCH  29  35
BRANCH  30  38
ATOM     38  O   UNL     1      11.629  18.103   9.515  1.00  0.00    -0.387 OA
ATOM     39  H   UNL     1      12.462  18.534   9.827  1.00  0.00     0.211 HD
ENDBRANCH  30  38
ENDBRANCH   1  25
TORSDOF 11
ENDMDL
MODEL 7
REMARK VINA RESULT:    -6.847      2.601      8.663
REMARK INTER + INTRA:         -10.884
REMARK INTER:                  -9.490
REMARK INTRA:                  -1.395
REMARK UNBOUND:                -1.035
REMARK SMILES O=c1c(O[C@@H]2O[C@@H](CO)[C@@H](O)[C@@H](O)[C@H]2O)c(-c2ccc(O)cc2)oc2cc(O)cc(O)c12
REMARK SMILES IDX 4 1 3 2 16 3 24 4 2 5 25 6 1 7 32 8 26 9 30 10 27 11 29 12
REMARK SMILES IDX 17 13 18 14 19 15 20 16 23 17 22 18 21 19 31 21 28 23 5 25
REMARK SMILES IDX 14 26 6 27 12 28 7 29 10 30 15 31 13 33 8 35 9 36 11 38
REMARK H PARENT 21 20 31 22 28 24 15 32 13 34 9 37 11 39
REMARK Flexibility Score: inf
ROOT
ATOM      1  O   UNL     1      15.782  12.519  15.439  1.00  0.00    -0.454 OA
ENDROOT
BRANCH   1   2
ATOM      2  C   UNL     1      15.250  13.084  14.262  1.00  0.00     0.214 A 
ATOM      3  C   UNL     1      14.245  12.369  13.578  1.00  0.00     0.180 A 
ATOM      4  O   UNL     1      13.676  12.882  12.493  1.00  0.00    -0.452 OA
ATOM      5  C   UNL     1      15.643  14.341  13.745  1.00  0.00     0.239 A 
ATOM      6  C   UNL     1      14.015  14.054  11.976  1.00  0.00     0.146 A 
ATOM      7  O   UNL     1      16.532  15.019  14.323  1.00  0.00    -0.285 OA
ATOM      8  C   UNL     1      15.025  14.840  12.578  1.00  0.00     0.111 A 
ATOM      9  C   UNL     1      13.361  14.504  10.826  1.00  0.00     0.094 A 
ATOM     10  C   UNL     1      15.364  16.086  11.994  1.00  0.00     0.134 A 
ATOM     11  C   UNL     1      13.700  15.735  10.255  1.00  0.00     0.123 A 
ATOM     12  C   UNL     1      14.697  16.518  10.837  1.00  0.00     0.093 A 
BRANCH   3  13
ATOM     13  C   UNL     1      13.770  11.048  14.049  1.00  0.00     0.021 A 
ATOM     14  C   UNL     1      12.626  10.973  14.861  1.00  0.00     0.016 A 
ATOM     15  C   UNL     1      12.155   9.735  15.307  1.00  0.00     0.047 A 
ATOM     16  C   UNL     1      12.814   8.556  14.935  1.00  0.00     0.115 A 
ATOM     17  C   UNL     1      14.411   9.859  13.660  1.00  0.00     0.016 A 
ATOM     18  C   UNL     1      13.940   8.622  14.109  1.00  0.00     0.047 A 
BRANCH  16  19
ATOM     19  O   UNL     1      12.356   7.317  15.375  1.00  0.00    -0.508 OA
ATOM     20  H   UNL     1      11.473   6.935  15.056  1.00  0.00     0.293 HD
ENDBRANCH  16  19
ENDBRANCH   3  13
BRANCH  10  21
ATOM     21  O   UNL     1      16.357  16.895  12.549  1.00  0.00    -0.507 OA
ATOM     22  H   UNL     1      17.165  16.503  13.016  1.00  0.00     0.293 HD
ENDBRANCH  10  21
BRANCH  11  23
ATOM     23  O   UNL     1      13.052  16.187   9.108  1.00  0.00    -0.508 OA
ATOM     24  H   UNL     1      12.044  16.292   9.075  1.00  0.00     0.293 HD
ENDBRANCH  11  23
ENDBRANCH   1   2
BRANCH   1  25
ATOM     25  C   UNL     1      15.319  12.698  16.781  1.00  0.00     0.339 C 
ATOM     26  C   UNL     1      15.616  11.426  17.612  1.00  0.00     0.214 C 
ATOM     27  O   UNL     1      15.887  13.854  17.384  1.00  0.00    -0.332 OA
ATOM     28  C   UNL     1      17.129  11.282  17.884  1.00  0.00     0.180 C 
ATOM     29  C   UNL     1      17.303  13.775  17.438  1.00  0.00     0.179 C 
ATOM     30  C   UNL     1      17.762  12.606  18.352  1.00  0.00     0.177 C 
BRANCH  26  31
ATOM     31  O   UNL     1      14.880  11.375  18.814  1.00  0.00    -0.384 OA
ATOM     32  H   UNL     1      14.020  11.852  18.696  1.00  0.00     0.211 HD
ENDBRANCH  26  31
BRANCH  28  33
ATOM     33  O   UNL     1      17.373  10.275  18.832  1.00  0.00    -0.387 OA
ATOM     34  H   UNL     1      17.480  10.729  19.709  1.00  0.00     0.211 HD
ENDBRANCH  28  33
BRANCH  29  35
ATOM     35  C   UNL     1      17.851  15.125  17.918  1.00  0.00     0.191 C 
BRANCH  35  36
ATOM     36  O   UNL     1      18.960  14.929  18.750  1.00  0.00    -0.394 OA
ATOM     37  H   UNL     1      19.449  14.149  18.378  1.00  0.00     0.210 HD
ENDBRANCH  35  36
ENDBRANCH  29  35
BRANCH  30  38
ATOM     38  O   UNL     1      17.500  12.847  19.715  1.00  0.00    -0.387 OA
ATOM     39  H   UNL     1      16.919  12.123  20.057  1.00  0.00     0.211 HD
ENDBRANCH  30  38
ENDBRANCH   1  25
TORSDOF 11
ENDMDL
MODEL 8
REMARK VINA RESULT:    -6.789      2.794      7.587
REMARK INTER + INTRA:         -10.801
REMARK INTER:                  -9.493
REMARK INTRA:                  -1.309
REMARK UNBOUND:                -1.035
REMARK SMILES O=c1c(O[C@@H]2O[C@@H](CO)[C@@H](O)[C@@H](O)[C@H]2O)c(-c2ccc(O)cc2)oc2cc(O)cc(O)c12
REMARK SMILES IDX 4 1 3 2 16 3 24 4 2 5 25 6 1 7 32 8 26 9 30 10 27 11 29 12
REMARK SMILES IDX 17 13 18 14 19 15 20 16 23 17 22 18 21 19 31 21 28 23 5 25
REMARK SMILES IDX 14 26 6 27 12 28 7 29 10 30 15 31 13 33 8 35 9 36 11 38
REMARK H PARENT 21 20 31 22 28 24 15 32 13 34 9 37 11 39
REMARK Flexibility Score: inf
ROOT
ATOM      1  O   UNL     1      14.905  12.017  14.333  1.00  0.00    -0.454 OA
ENDROOT
BRANCH   1   2
ATOM      2  C   UNL     1      14.684  13.119  13.482  1.00  0.00     0.214 A 
ATOM      3  C   UNL     1      15.275  14.352  13.828  1.00  0.00     0.180 A 
ATOM      4  O   UNL     1      15.140  15.408  13.034  1.00  0.00    -0.452 OA
ATOM      5  C   UNL     1      13.932  13.053  12.286  1.00  0.00     0.239 A 
ATOM      6  C   UNL     1      14.443  15.388  11.906  1.00  0.00     0.146 A 
ATOM      7  O   UNL     1      13.391  11.973  11.931  1.00  0.00    -0.285 OA
ATOM      8  C   UNL     1      13.798  14.204  11.480  1.00  0.00     0.111 A 
ATOM      9  C   UNL     1      14.354  16.555  11.142  1.00  0.00     0.094 A 
ATOM     10  C   UNL     1      13.058  14.223  10.272  1.00  0.00     0.134 A 
ATOM     11  C   UNL     1      13.623  16.566   9.950  1.00  0.00     0.123 A 
ATOM     12  C   UNL     1      12.979  15.405   9.520  1.00  0.00     0.093 A 
BRANCH   3  13
ATOM     13  C   UNL     1      16.081  14.513  15.059  1.00  0.00     0.021 A 
ATOM     14  C   UNL     1      15.647  15.398  16.060  1.00  0.00     0.016 A 
ATOM     15  C   UNL     1      16.388  15.557  17.234  1.00  0.00     0.047 A 
ATOM     16  C   UNL     1      17.566  14.822  17.428  1.00  0.00     0.115 A 
ATOM     17  C   UNL     1      17.250  13.761  15.271  1.00  0.00     0.016 A 
ATOM     18  C   UNL     1      17.991  13.923  16.445  1.00  0.00     0.047 A 
BRANCH  16  19
ATOM     19  O   UNL     1      18.315  14.973  18.592  1.00  0.00    -0.508 OA
ATOM     20  H   UNL     1      18.895  14.224  18.950  1.00  0.00     0.293 HD
ENDBRANCH  16  19
ENDBRANCH   3  13
BRANCH  10  21
ATOM     21  O   UNL     1      12.401  13.081   9.812  1.00  0.00    -0.507 OA
ATOM     22  H   UNL     1      12.495  12.187  10.279  1.00  0.00     0.293 HD
ENDBRANCH  10  21
BRANCH  11  23
ATOM     23  O   UNL     1      13.531  17.727   9.186  1.00  0.00    -0.508 OA
ATOM     24  H   UNL     1      13.575  18.646   9.610  1.00  0.00     0.293 HD
ENDBRANCH  11  23
ENDBRANCH   1   2
BRANCH   1  25
ATOM     25  C   UNL     1      13.968  11.392  15.216  1.00  0.00     0.339 C 
ATOM     26  C   UNL     1      13.811   9.898  14.842  1.00  0.00     0.214 C 
ATOM     27  O   UNL     1      14.344  11.548  16.579  1.00  0.00    -0.332 OA
ATOM     28  C   UNL     1      15.079   9.098  15.212  1.00  0.00     0.180 C 
ATOM     29  C   UNL     1      15.613  10.971  16.841  1.00  0.00     0.179 C 
ATOM     30  C   UNL     1      15.581   9.432  16.630  1.00  0.00     0.177 C 
BRANCH  26  31
ATOM     31  O   UNL     1      12.661   9.311  15.408  1.00  0.00    -0.384 OA
ATOM     32  H   UNL     1      12.714   8.326  15.320  1.00  0.00     0.211 HD
ENDBRANCH  26  31
BRANCH  28  33
ATOM     33  O   UNL     1      14.849   7.717  15.101  1.00  0.00    -0.387 OA
ATOM     34  H   UNL     1      14.090   7.504  15.706  1.00  0.00     0.211 HD
ENDBRANCH  28  33
BRANCH  29  35
ATOM     35  C   UNL     1      16.035  11.343  18.269  1.00  0.00     0.191 C 
BRANCH  35  36
ATOM     36  O   UNL     1      14.922  11.338  19.119  1.00  0.00    -0.394 OA
ATOM     37  H   UNL     1      14.231  11.894  18.672  1.00  0.00     0.210 HD
ENDBRANCH  35  36
ENDBRANCH  29  35
BRANCH  30  38
ATOM     38  O   UNL     1      14.824   8.764  17.613  1.00  0.00    -0.387 OA
ATOM     39  H   UNL     1      14.469   9.435  18.248  1.00  0.00     0.211 HD
ENDBRANCH  30  38
ENDBRANCH   1  25
TORSDOF 11
ENDMDL
MODEL 9
REMARK VINA RESULT:    -6.723      1.716      5.295
REMARK INTER + INTRA:         -10.705
REMARK INTER:                  -9.258
REMARK INTRA:                  -1.447
REMARK UNBOUND:                -1.035
REMARK SMILES O=c1c(O[C@@H]2O[C@@H](CO)[C@@H](O)[C@@H](O)[C@H]2O)c(-c2ccc(O)cc2)oc2cc(O)cc(O)c12
REMARK SMILES IDX 4 1 3 2 16 3 24 4 2 5 25 6 1 7 32 8 26 9 30 10 27 11 29 12
REMARK SMILES IDX 17 13 18 14 19 15 20 16 23 17 22 18 21 19 31 21 28 23 5 25
REMARK SMILES IDX 14 26 6 27 12 28 7 29 10 30 15 31 13 33 8 35 9 36 11 38
REMARK H PARENT 21 20 31 22 28 24 15 32 13 34 9 37 11 39
REMARK Flexibility Score: inf
ROOT
ATOM      1  O   UNL     1      15.669  14.821  11.231  1.00  0.00    -0.454 OA
ENDROOT
BRANCH   1   2
ATOM      2  C   UNL     1      15.041  13.867  12.057  1.00  0.00     0.214 A 
ATOM      3  C   UNL     1      13.634  13.890  12.144  1.00  0.00     0.180 A 
ATOM      4  O   UNL     1      12.991  12.981  12.868  1.00  0.00    -0.452 OA
ATOM      5  C   UNL     1      15.737  12.869  12.779  1.00  0.00     0.239 A 
ATOM      6  C   UNL     1      13.605  12.030  13.559  1.00  0.00     0.146 A 
ATOM      7  O   UNL     1      16.994  12.804  12.728  1.00  0.00    -0.285 OA
ATOM      8  C   UNL     1      15.015  11.934  13.551  1.00  0.00     0.111 A 
ATOM      9  C   UNL     1      12.838  11.124  14.297  1.00  0.00     0.094 A 
ATOM     10  C   UNL     1      15.637  10.907  14.306  1.00  0.00     0.134 A 
ATOM     11  C   UNL     1      13.458  10.113  15.038  1.00  0.00     0.123 A 
ATOM     12  C   UNL     1      14.850  10.009  15.042  1.00  0.00     0.093 A 
BRANCH   3  13
ATOM     13  C   UNL     1      12.823  14.896  11.422  1.00  0.00     0.021 A 
ATOM     14  C   UNL     1      12.283  14.577  10.165  1.00  0.00     0.016 A 
ATOM     15  C   UNL     1      11.506  15.509   9.471  1.00  0.00     0.047 A 
ATOM     16  C   UNL     1      11.250  16.768  10.032  1.00  0.00     0.115 A 
ATOM     17  C   UNL     1      12.541  16.152  11.988  1.00  0.00     0.016 A 
ATOM     18  C   UNL     1      11.766  17.083  11.292  1.00  0.00     0.047 A 
BRANCH  16  19
ATOM     19  O   UNL     1      10.480  17.706   9.349  1.00  0.00    -0.508 OA
ATOM     20  H   UNL     1       9.744  18.226   9.813  1.00  0.00     0.293 HD
ENDBRANCH  16  19
ENDBRANCH   3  13
BRANCH  10  21
ATOM     21  O   UNL     1      17.026  10.774  14.332  1.00  0.00    -0.507 OA
ATOM     22  H   UNL     1      17.526  10.255  13.621  1.00  0.00     0.293 HD
ENDBRANCH  10  21
BRANCH  11  23
ATOM     23  O   UNL     1      12.698   9.208  15.776  1.00  0.00    -0.508 OA
ATOM     24  H   UNL     1      13.094   8.341  16.120  1.00  0.00     0.293 HD
ENDBRANCH  11  23
ENDBRANCH   1   2
BRANCH   1  25
ATOM     25  C   UNL     1      15.987  14.699   9.841  1.00  0.00     0.339 C 
ATOM     26  C   UNL     1      15.947  16.094   9.170  1.00  0.00     0.214 C 
ATOM     27  O   UNL     1      17.245  14.066   9.641  1.00  0.00    -0.332 OA
ATOM     28  C   UNL     1      17.138  16.963   9.627  1.00  0.00     0.180 C 
ATOM     29  C   UNL     1      18.301  14.794  10.249  1.00  0.00     0.179 C 
ATOM     30  C   UNL     1      18.470  16.189   9.587  1.00  0.00     0.177 C 
BRANCH  26  31
ATOM     31  O   UNL     1      15.884  16.022   7.763  1.00  0.00    -0.384 OA
ATOM     32  H   UNL     1      16.378  16.786   7.370  1.00  0.00     0.211 HD
ENDBRANCH  26  31
BRANCH  28  33
ATOM     33  O   UNL     1      17.239  18.125   8.844  1.00  0.00    -0.387 OA
ATOM     34  H   UNL     1      17.319  18.889   9.474  1.00  0.00     0.211 HD
ENDBRANCH  28  33
BRANCH  29  35
ATOM     35  C   UNL     1      19.585  13.960  10.160  1.00  0.00     0.191 C 
BRANCH  35  36
ATOM     36  O   UNL     1      19.384  12.698  10.734  1.00  0.00    -0.394 OA
ATOM     37  H   UNL     1      18.669  12.815  11.413  1.00  0.00     0.210 HD
ENDBRANCH  35  36
ENDBRANCH  29  35
BRANCH  30  38
ATOM     38  O   UNL     1      18.978  16.110   8.275  1.00  0.00    -0.387 OA
ATOM     39  H   UNL     1      19.371  16.986   8.036  1.00  0.00     0.211 HD
ENDBRANCH  30  38
ENDBRANCH   1  25
TORSDOF 11
ENDMDL
