MODEL 1
REMARK VINA RESULT:    -1.794      0.000      0.000
REMARK INTER + INTRA:          -1.898
REMARK INTER:                  -1.898
REMARK INTRA:                   0.000
REMARK UNBOUND:                 0.000
REMARK SMILES Cc1cc(O)c(C)c(C)c1O
REMARK SMILES IDX 1 1 2 2 3 3 4 4 6 5 8 6 10 7 9 8 7 9 11 10 5 12
REMARK H PARENT 11 11 5 13
REMARK Flexibility Score: inf
ROOT
ATOM      1  C   UNL     1      18.355  99.465   8.597  1.00  0.00     0.048 C 
ATOM      2  C   UNL     1      17.708  98.108   8.675  1.00  0.00    -0.005 A 
ATOM      3  C   UNL     1      16.466  97.978   9.307  1.00  0.00     0.053 A 
ATOM      4  C   UNL     1      15.828  96.737   9.387  1.00  0.00     0.119 A 
ATOM      5  C   UNL     1      16.427  95.594   8.823  1.00  0.00    -0.003 A 
ATOM      6  C   UNL     1      17.710  95.702   8.226  1.00  0.00    -0.002 A 
ATOM      7  C   UNL     1      18.333  96.967   8.127  1.00  0.00     0.121 A 
ATOM      8  C   UNL     1      18.391  94.485   7.642  1.00  0.00     0.049 C 
ATOM      9  C   UNL     1      15.722  94.261   8.910  1.00  0.00     0.049 C 
ENDROOT
BRANCH   7  10
ATOM     10  O   UNL     1      19.569  97.066   7.480  1.00  0.00    -0.507 OA
ATOM     11  H   UNL     1      19.931  96.357   6.856  1.00  0.00     0.293 HD
ENDBRANCH   7  10
BRANCH   4  12
ATOM     12  O   UNL     1      14.591  96.642  10.028  1.00  0.00    -0.508 OA
ATOM     13  H   UNL     1      13.800  96.182   9.593  1.00  0.00     0.293 HD
ENDBRANCH   4  12
TORSDOF 2
ENDMDL
MODEL 2
REMARK VINA RESULT:    -1.507      1.371      3.329
REMARK INTER + INTRA:          -1.595
REMARK INTER:                  -1.595
REMARK INTRA:                   0.000
REMARK UNBOUND:                 0.000
REMARK SMILES Cc1cc(O)c(C)c(C)c1O
REMARK SMILES IDX 1 1 2 2 3 3 4 4 6 5 8 6 10 7 9 8 7 9 11 10 5 12
REMARK H PARENT 11 11 5 13
REMARK Flexibility Score: inf
ROOT
ATOM      1  C   UNL     1      14.524  96.536  10.114  1.00  0.00     0.048 C 
ATOM      2  C   UNL     1      15.845  96.613   9.397  1.00  0.00    -0.005 A 
ATOM      3  C   UNL     1      16.469  97.857   9.244  1.00  0.00     0.053 A 
ATOM      4  C   UNL     1      17.703  97.967   8.598  1.00  0.00     0.119 A 
ATOM      5  C   UNL     1      18.343  96.819   8.091  1.00  0.00    -0.003 A 
ATOM      6  C   UNL     1      17.698  95.559   8.193  1.00  0.00    -0.002 A 
ATOM      7  C   UNL     1      16.463  95.456   8.874  1.00  0.00     0.121 A 
ATOM      8  C   UNL     1      18.347  94.315   7.630  1.00  0.00     0.049 C 
ATOM      9  C   UNL     1      19.680  96.952   7.402  1.00  0.00     0.049 C 
ENDROOT
BRANCH   7  10
ATOM     10  O   UNL     1      15.870  94.198   9.019  1.00  0.00    -0.507 OA
ATOM     11  H   UNL     1      15.441  93.691   8.255  1.00  0.00     0.293 HD
ENDBRANCH   7  10
BRANCH   4  12
ATOM     12  O   UNL     1      18.296  99.223   8.459  1.00  0.00    -0.508 OA
ATOM     13  H   UNL     1      18.089  99.983   9.096  1.00  0.00     0.293 HD
ENDBRANCH   4  12
TORSDOF 2
ENDMDL
MODEL 3
REMARK VINA RESULT:    -1.085      1.435      3.822
REMARK INTER + INTRA:          -1.149
REMARK INTER:                  -1.149
REMARK INTRA:                   0.000
REMARK UNBOUND:                 0.000
REMARK SMILES Cc1cc(O)c(C)c(C)c1O
REMARK SMILES IDX 1 1 2 2 3 3 4 4 6 5 8 6 10 7 9 8 7 9 11 10 5 12
REMARK H PARENT 11 11 5 13
REMARK Flexibility Score: inf
ROOT
ATOM      1  C   UNL     1      18.540  93.977   7.816  1.00  0.00     0.048 C 
ATOM      2  C   UNL     1      17.802  95.207   8.272  1.00  0.00    -0.005 A 
ATOM      3  C   UNL     1      18.407  96.461   8.127  1.00  0.00     0.053 A 
ATOM      4  C   UNL     1      17.748  97.626   8.525  1.00  0.00     0.119 A 
ATOM      5  C   UNL     1      16.454  97.556   9.077  1.00  0.00    -0.003 A 
ATOM      6  C   UNL     1      15.850  96.288   9.278  1.00  0.00    -0.002 A 
ATOM      7  C   UNL     1      16.515  95.117   8.846  1.00  0.00     0.121 A 
ATOM      8  C   UNL     1      14.475  96.180   9.898  1.00  0.00     0.049 C 
ATOM      9  C   UNL     1      15.750  98.825   9.496  1.00  0.00     0.049 C 
ENDROOT
BRANCH   7  10
ATOM     10  O   UNL     1      15.880  93.880   8.995  1.00  0.00    -0.507 OA
ATOM     11  H   UNL     1      14.899  93.780   9.222  1.00  0.00     0.293 HD
ENDBRANCH   7  10
BRANCH   4  12
ATOM     12  O   UNL     1      18.382  98.861   8.369  1.00  0.00    -0.508 OA
ATOM     13  H   UNL     1      19.248  98.954   7.852  1.00  0.00     0.293 HD
ENDBRANCH   4  12
TORSDOF 2
ENDMDL
MODEL 4
REMARK VINA RESULT:    -1.066      0.654      3.002
REMARK INTER + INTRA:          -1.128
REMARK INTER:                  -1.128
REMARK INTRA:                   0.000
REMARK UNBOUND:                 0.000
REMARK SMILES Cc1cc(O)c(C)c(C)c1O
REMARK SMILES IDX 1 1 2 2 3 3 4 4 6 5 8 6 10 7 9 8 7 9 11 10 5 12
REMARK H PARENT 11 11 5 13
REMARK Flexibility Score: inf
ROOT
ATOM      1  C   UNL     1      18.204  94.071   7.954  1.00  0.00     0.048 C 
ATOM      2  C   UNL     1      17.485  95.318   8.393  1.00  0.00    -0.005 A 
ATOM      3  C   UNL     1      16.217  95.208   8.976  1.00  0.00     0.053 A 
ATOM      4  C   UNL     1      15.526  96.341   9.410  1.00  0.00     0.119 A 
ATOM      5  C   UNL     1      16.100  97.620   9.270  1.00  0.00    -0.003 A 
ATOM      6  C   UNL     1      17.361  97.751   8.633  1.00  0.00    -0.002 A 
ATOM      7  C   UNL     1      18.064  96.595   8.223  1.00  0.00     0.121 A 
ATOM      8  C   UNL     1      17.987  99.114   8.440  1.00  0.00     0.049 C 
ATOM      9  C   UNL     1      15.343  98.836   9.750  1.00  0.00     0.049 C 
ENDROOT
BRANCH   7  10
ATOM     10  O   UNL     1      19.333  96.738   7.653  1.00  0.00    -0.507 OA
ATOM     11  H   UNL     1      19.652  96.197   6.859  1.00  0.00     0.293 HD
ENDBRANCH   7  10
BRANCH   4  12
ATOM     12  O   UNL     1      14.261  96.195   9.985  1.00  0.00    -0.508 OA
ATOM     13  H   UNL     1      14.108  95.604  10.793  1.00  0.00     0.293 HD
ENDBRANCH   4  12
TORSDOF 2
ENDMDL
MODEL 5
REMARK VINA RESULT:    -1.063      1.349      2.976
REMARK INTER + INTRA:          -1.125
REMARK INTER:                  -1.125
REMARK INTRA:                   0.000
REMARK UNBOUND:                 0.000
REMARK SMILES Cc1cc(O)c(C)c(C)c1O
REMARK SMILES IDX 1 1 2 2 3 3 4 4 6 5 8 6 10 7 9 8 7 9 11 10 5 12
REMARK H PARENT 11 11 5 13
REMARK Flexibility Score: inf
ROOT
ATOM      1  C   UNL     1      18.373  98.985   8.487  1.00  0.00     0.048 C 
ATOM      2  C   UNL     1      17.687  97.649   8.593  1.00  0.00    -0.005 A 
ATOM      3  C   UNL     1      18.345  96.504   8.130  1.00  0.00     0.053 A 
ATOM      4  C   UNL     1      17.747  95.245   8.225  1.00  0.00     0.119 A 
ATOM      5  C   UNL     1      16.467  95.109   8.796  1.00  0.00    -0.003 A 
ATOM      6  C   UNL     1      15.767  96.267   9.222  1.00  0.00    -0.002 A 
ATOM      7  C   UNL     1      16.393  97.533   9.146  1.00  0.00     0.121 A 
ATOM      8  C   UNL     1      14.378  96.155   9.809  1.00  0.00     0.049 C 
ATOM      9  C   UNL     1      15.836  93.740   8.899  1.00  0.00     0.049 C 
ENDROOT
BRANCH   7  10
ATOM     10  O   UNL     1      15.714  98.657   9.627  1.00  0.00    -0.507 OA
ATOM     11  H   UNL     1      14.871  98.604  10.184  1.00  0.00     0.293 HD
ENDBRANCH   7  10
BRANCH   4  12
ATOM     12  O   UNL     1      18.430  94.123   7.750  1.00  0.00    -0.508 OA
ATOM     13  H   UNL     1      17.941  93.284   7.462  1.00  0.00     0.293 HD
ENDBRANCH   4  12
TORSDOF 2
ENDMDL
MODEL 6
REMARK VINA RESULT:    -0.543      1.251      3.220
REMARK INTER + INTRA:          -0.574
REMARK INTER:                  -0.574
REMARK INTRA:                   0.000
REMARK UNBOUND:                 0.000
REMARK SMILES Cc1cc(O)c(C)c(C)c1O
REMARK SMILES IDX 1 1 2 2 3 3 4 4 6 5 8 6 10 7 9 8 7 9 11 10 5 12
REMARK H PARENT 11 11 5 13
REMARK Flexibility Score: inf
ROOT
ATOM      1  C   UNL     1      15.905  93.641   8.904  1.00  0.00     0.048 C 
ATOM      2  C   UNL     1      16.442  95.043   8.810  1.00  0.00    -0.005 A 
ATOM      3  C   UNL     1      15.687  96.101   9.331  1.00  0.00     0.053 A 
ATOM      4  C   UNL     1      16.159  97.415   9.276  1.00  0.00     0.119 A 
ATOM      5  C   UNL     1      17.413  97.695   8.697  1.00  0.00    -0.003 A 
ATOM      6  C   UNL     1      18.165  96.639   8.119  1.00  0.00    -0.002 A 
ATOM      7  C   UNL     1      17.690  95.310   8.206  1.00  0.00     0.121 A 
ATOM      8  C   UNL     1      19.498  96.915   7.463  1.00  0.00     0.049 C 
ATOM      9  C   UNL     1      17.914  99.119   8.651  1.00  0.00     0.049 C 
ENDROOT
BRANCH   7  10
ATOM     10  O   UNL     1      18.472  94.274   7.686  1.00  0.00    -0.507 OA
ATOM     11  H   UNL     1      19.066  94.377   6.873  1.00  0.00     0.293 HD
ENDBRANCH   7  10
BRANCH   4  12
ATOM     12  O   UNL     1      15.379  98.447   9.801  1.00  0.00    -0.508 OA
ATOM     13  H   UNL     1      15.014  98.412  10.745  1.00  0.00     0.293 HD
ENDBRANCH   4  12
TORSDOF 2
ENDMDL
MODEL 7
REMARK VINA RESULT:    -0.117      1.596      2.853
REMARK INTER + INTRA:          -0.124
REMARK INTER:                  -0.124
REMARK INTRA:                   0.000
REMARK UNBOUND:                 0.000
REMARK SMILES Cc1cc(O)c(C)c(C)c1O
REMARK SMILES IDX 1 1 2 2 3 3 4 4 6 5 8 6 10 7 9 8 7 9 11 10 5 12
REMARK H PARENT 11 11 5 13
REMARK Flexibility Score: inf
ROOT
ATOM      1  C   UNL     1      19.587  97.040   7.465  1.00  0.00     0.048 C 
ATOM      2  C   UNL     1      18.254  96.765   8.107  1.00  0.00    -0.005 A 
ATOM      3  C   UNL     1      17.796  95.445   8.194  1.00  0.00     0.053 A 
ATOM      4  C   UNL     1      16.571  95.149   8.796  1.00  0.00     0.119 A 
ATOM      5  C   UNL     1      15.775  96.181   9.332  1.00  0.00    -0.003 A 
ATOM      6  C   UNL     1      16.203  97.528   9.203  1.00  0.00    -0.002 A 
ATOM      7  C   UNL     1      17.457  97.813   8.617  1.00  0.00     0.121 A 
ATOM      8  C   UNL     1      15.354  98.658   9.739  1.00  0.00     0.049 C 
ATOM      9  C   UNL     1      14.456  95.845   9.986  1.00  0.00     0.049 C 
ENDROOT
BRANCH   7  10
ATOM     10  O   UNL     1      17.892  99.141   8.553  1.00  0.00    -0.507 OA
ATOM     11  H   UNL     1      18.249  99.650   9.352  1.00  0.00     0.293 HD
ENDBRANCH   7  10
BRANCH   4  12
ATOM     12  O   UNL     1      16.142  93.821   8.864  1.00  0.00    -0.508 OA
ATOM     13  H   UNL     1      15.369  93.482   8.304  1.00  0.00     0.293 HD
ENDBRANCH   4  12
TORSDOF 2
ENDMDL
MODEL 8
REMARK VINA RESULT:    -0.112      1.385      2.014
REMARK INTER + INTRA:          -0.119
REMARK INTER:                  -0.119
REMARK INTRA:                   0.000
REMARK UNBOUND:                 0.000
REMARK SMILES Cc1cc(O)c(C)c(C)c1O
REMARK SMILES IDX 1 1 2 2 3 3 4 4 6 5 8 6 10 7 9 8 7 9 11 10 5 12
REMARK H PARENT 11 11 5 13
REMARK Flexibility Score: inf
ROOT
ATOM      1  C   UNL     1      19.193  97.380   7.798  1.00  0.00     0.048 C 
ATOM      2  C   UNL     1      17.866  96.986   8.388  1.00  0.00    -0.005 A 
ATOM      3  C   UNL     1      17.041  97.974   8.938  1.00  0.00     0.053 A 
ATOM      4  C   UNL     1      15.796  97.648   9.481  1.00  0.00     0.119 A 
ATOM      5  C   UNL     1      15.347  96.313   9.478  1.00  0.00    -0.003 A 
ATOM      6  C   UNL     1      16.194  95.294   8.970  1.00  0.00    -0.002 A 
ATOM      7  C   UNL     1      17.441  95.639   8.398  1.00  0.00     0.121 A 
ATOM      8  C   UNL     1      15.752  93.849   8.984  1.00  0.00     0.049 C 
ATOM      9  C   UNL     1      13.995  95.978  10.062  1.00  0.00     0.049 C 
ENDROOT
BRANCH   7  10
ATOM     10  O   UNL     1      18.237  94.630   7.847  1.00  0.00    -0.507 OA
ATOM     11  H   UNL     1      18.124  93.648   8.064  1.00  0.00     0.293 HD
ENDBRANCH   7  10
BRANCH   4  12
ATOM     12  O   UNL     1      14.999  98.658  10.026  1.00  0.00    -0.508 OA
ATOM     13  H   UNL     1      14.042  98.488  10.309  1.00  0.00     0.293 HD
ENDBRANCH   4  12
TORSDOF 2
ENDMDL
