MODEL 1
REMARK VINA RESULT:    -5.814      0.000      0.000
REMARK INTER + INTRA:          -5.814
REMARK INTER:                  -5.814
REMARK INTRA:                   0.000
REMARK UNBOUND:                 0.000
REMARK SMILES C=C1CCC[C@@]2(C)CC(=O)C(=C(C)C)C[C@H]12
REMARK SMILES IDX 13 1 12 2 11 3 15 4 16 5 2 6 1 7 3 8 4 9 5 10 6 11 8 12 9 13
REMARK SMILES IDX 10 14 7 15 14 16
REMARK H PARENT
REMARK Flexibility Score: inf
ROOT
ATOM      1  C   UNL     1       1.758  15.882  15.915  1.00  0.00     0.039 C 
ATOM      2  C   UNL     1       2.279  14.754  15.053  1.00  0.00    -0.070 C 
ATOM      3  C   UNL     1       2.370  13.479  15.534  1.00  0.00    -0.006 C 
ATOM      4  C   UNL     1       1.929  13.136  16.950  1.00  0.00     0.047 C 
ATOM      5  C   UNL     1       1.402  11.686  17.081  1.00  0.00     0.025 C 
ATOM      6  C   UNL     1       0.983  11.272  18.493  1.00  0.00    -0.073 C 
ATOM      7  C   UNL     1       1.061  12.077  19.569  1.00  0.00     0.008 C 
ATOM      8  C   UNL     1       0.409   9.882  18.637  1.00  0.00     0.031 C 
ATOM      9  C   UNL     1       1.363   8.846  18.036  1.00  0.00     0.005 C 
ATOM     10  C   UNL     1       1.768   9.213  16.598  1.00  0.00     0.008 C 
ATOM     11  C   UNL     1       2.393  10.637  16.485  1.00  0.00    -0.018 C 
ATOM     12  C   UNL     1       2.602  10.953  14.983  1.00  0.00     0.088 C 
ATOM     13  C   UNL     1       3.013  12.380  14.756  1.00  0.00     0.159 C 
ATOM     14  O   UNL     1       3.916  12.618  13.911  1.00  0.00    -0.295 OA
ATOM     15  C   UNL     1       3.766  10.661  17.211  1.00  0.00     0.012 C 
ATOM     16  C   UNL     1       2.654  15.099  13.631  1.00  0.00     0.039 C 
ENDROOT
TORSDOF 0
ENDMDL
MODEL 2
REMARK VINA RESULT:    -5.703      5.223      7.130
REMARK INTER + INTRA:          -5.703
REMARK INTER:                  -5.703
REMARK INTRA:                   0.000
REMARK UNBOUND:                 0.000
REMARK SMILES C=C1CCC[C@@]2(C)CC(=O)C(=C(C)C)C[C@H]12
REMARK SMILES IDX 13 1 12 2 11 3 15 4 16 5 2 6 1 7 3 8 4 9 5 10 6 11 8 12 9 13
REMARK SMILES IDX 10 14 7 15 14 16
REMARK H PARENT
REMARK Flexibility Score: inf
ROOT
ATOM      1  C   UNL     1       2.148  15.526  18.527  1.00  0.00     0.039 C 
ATOM      2  C   UNL     1       1.914  16.114  19.901  1.00  0.00    -0.070 C 
ATOM      3  C   UNL     1       2.297  15.450  21.031  1.00  0.00    -0.006 C 
ATOM      4  C   UNL     1       2.997  14.101  20.954  1.00  0.00     0.047 C 
ATOM      5  C   UNL     1       3.974  13.863  22.132  1.00  0.00     0.025 C 
ATOM      6  C   UNL     1       4.677  12.505  22.129  1.00  0.00    -0.073 C 
ATOM      7  C   UNL     1       4.480  11.555  21.195  1.00  0.00     0.008 C 
ATOM      8  C   UNL     1       5.680  12.271  23.235  1.00  0.00     0.031 C 
ATOM      9  C   UNL     1       5.041  12.541  24.600  1.00  0.00     0.005 C 
ATOM     10  C   UNL     1       4.364  13.921  24.647  1.00  0.00     0.008 C 
ATOM     11  C   UNL     1       3.306  14.120  23.519  1.00  0.00    -0.018 C 
ATOM     12  C   UNL     1       2.821  15.591  23.569  1.00  0.00     0.088 C 
ATOM     13  C   UNL     1       1.949  15.939  22.397  1.00  0.00     0.159 C 
ATOM     14  O   UNL     1       0.918  16.635  22.600  1.00  0.00    -0.295 OA
ATOM     15  C   UNL     1       2.100  13.172  23.765  1.00  0.00     0.012 C 
ATOM     16  C   UNL     1       1.273  17.481  19.957  1.00  0.00     0.039 C 
ENDROOT
TORSDOF 0
ENDMDL
MODEL 3
REMARK VINA RESULT:    -5.691      4.174      6.169
REMARK INTER + INTRA:          -5.691
REMARK INTER:                  -5.691
REMARK INTRA:                   0.000
REMARK UNBOUND:                 0.000
REMARK SMILES C=C1CCC[C@@]2(C)CC(=O)C(=C(C)C)C[C@H]12
REMARK SMILES IDX 13 1 12 2 11 3 15 4 16 5 2 6 1 7 3 8 4 9 5 10 6 11 8 12 9 13
REMARK SMILES IDX 10 14 7 15 14 16
REMARK H PARENT
REMARK Flexibility Score: inf
ROOT
ATOM      1  C   UNL     1       2.207  14.516  16.529  1.00  0.00     0.039 C 
ATOM      2  C   UNL     1       1.625  15.672  17.311  1.00  0.00    -0.070 C 
ATOM      3  C   UNL     1       1.611  15.668  18.677  1.00  0.00    -0.006 C 
ATOM      4  C   UNL     1       2.201  14.509  19.468  1.00  0.00     0.047 C 
ATOM      5  C   UNL     1       2.770  14.947  20.840  1.00  0.00     0.025 C 
ATOM      6  C   UNL     1       3.340  13.817  21.698  1.00  0.00    -0.073 C 
ATOM      7  C   UNL     1       3.355  12.522  21.327  1.00  0.00     0.008 C 
ATOM      8  C   UNL     1       3.956  14.225  23.016  1.00  0.00     0.031 C 
ATOM      9  C   UNL     1       2.967  15.067  23.827  1.00  0.00     0.005 C 
ATOM     10  C   UNL     1       2.410  16.240  23.003  1.00  0.00     0.008 C 
ATOM     11  C   UNL     1       1.746  15.786  21.668  1.00  0.00    -0.018 C 
ATOM     12  C   UNL     1       1.377  17.054  20.858  1.00  0.00     0.088 C 
ATOM     13  C   UNL     1       0.915  16.724  19.468  1.00  0.00     0.159 C 
ATOM     14  O   UNL     1      -0.075  17.347  19.000  1.00  0.00    -0.295 OA
ATOM     15  C   UNL     1       0.454  14.980  21.977  1.00  0.00     0.012 C 
ATOM     16  C   UNL     1       1.099  16.841  16.511  1.00  0.00     0.039 C 
ENDROOT
TORSDOF 0
ENDMDL
MODEL 4
REMARK VINA RESULT:    -5.648      2.714      4.159
REMARK INTER + INTRA:          -5.648
REMARK INTER:                  -5.648
REMARK INTRA:                   0.000
REMARK UNBOUND:                 0.000
REMARK SMILES C=C1CCC[C@@]2(C)CC(=O)C(=C(C)C)C[C@H]12
REMARK SMILES IDX 13 1 12 2 11 3 15 4 16 5 2 6 1 7 3 8 4 9 5 10 6 11 8 12 9 13
REMARK SMILES IDX 10 14 7 15 14 16
REMARK H PARENT
REMARK Flexibility Score: inf
ROOT
ATOM      1  C   UNL     1       2.123  16.459  18.620  1.00  0.00     0.039 C 
ATOM      2  C   UNL     1       2.332  15.311  19.582  1.00  0.00    -0.070 C 
ATOM      3  C   UNL     1       2.087  14.020  19.209  1.00  0.00    -0.006 C 
ATOM      4  C   UNL     1       1.616  13.683  17.801  1.00  0.00     0.047 C 
ATOM      5  C   UNL     1       2.088  12.286  17.329  1.00  0.00     0.025 C 
ATOM      6  C   UNL     1       1.609  11.874  15.935  1.00  0.00    -0.073 C 
ATOM      7  C   UNL     1       0.825  12.638  15.152  1.00  0.00     0.008 C 
ATOM      8  C   UNL     1       2.106  10.541  15.426  1.00  0.00     0.031 C 
ATOM      9  C   UNL     1       1.806   9.437  16.443  1.00  0.00     0.005 C 
ATOM     10  C   UNL     1       2.316   9.804  17.847  1.00  0.00     0.008 C 
ATOM     11  C   UNL     1       1.758  11.165  18.364  1.00  0.00    -0.018 C 
ATOM     12  C   UNL     1       2.467  11.500  19.699  1.00  0.00     0.088 C 
ATOM     13  C   UNL     1       2.146  12.887  20.177  1.00  0.00     0.159 C 
ATOM     14  O   UNL     1       1.916  13.063  21.404  1.00  0.00    -0.295 OA
ATOM     15  C   UNL     1       0.229  11.039  18.611  1.00  0.00     0.012 C 
ATOM     16  C   UNL     1       2.859  15.658  20.955  1.00  0.00     0.039 C 
ENDROOT
TORSDOF 0
ENDMDL
MODEL 5
REMARK VINA RESULT:    -5.613      2.733      5.789
REMARK INTER + INTRA:          -5.613
REMARK INTER:                  -5.613
REMARK INTRA:                   0.000
REMARK UNBOUND:                 0.000
REMARK SMILES C=C1CCC[C@@]2(C)CC(=O)C(=C(C)C)C[C@H]12
REMARK SMILES IDX 13 1 12 2 11 3 15 4 16 5 2 6 1 7 3 8 4 9 5 10 6 11 8 12 9 13
REMARK SMILES IDX 10 14 7 15 14 16
REMARK H PARENT
REMARK Flexibility Score: inf
ROOT
ATOM      1  C   UNL     1       0.299   7.765  21.038  1.00  0.00     0.039 C 
ATOM      2  C   UNL     1      -0.195   9.181  20.840  1.00  0.00    -0.070 C 
ATOM      3  C   UNL     1       0.301   9.972  19.843  1.00  0.00    -0.006 C 
ATOM      4  C   UNL     1       1.354   9.452  18.875  1.00  0.00     0.047 C 
ATOM      5  C   UNL     1       1.256  10.105  17.474  1.00  0.00     0.025 C 
ATOM      6  C   UNL     1       2.316   9.651  16.470  1.00  0.00    -0.073 C 
ATOM      7  C   UNL     1       3.287   8.760  16.748  1.00  0.00     0.008 C 
ATOM      8  C   UNL     1       2.206  10.226  15.077  1.00  0.00     0.031 C 
ATOM      9  C   UNL     1       2.143  11.755  15.136  1.00  0.00     0.005 C 
ATOM     10  C   UNL     1       1.054  12.242  16.106  1.00  0.00     0.008 C 
ATOM     11  C   UNL     1       1.214  11.663  17.545  1.00  0.00    -0.018 C 
ATOM     12  C   UNL     1      -0.023  12.088  18.376  1.00  0.00     0.088 C 
ATOM     13  C   UNL     1      -0.062  11.413  19.717  1.00  0.00     0.159 C 
ATOM     14  O   UNL     1      -0.393  12.096  20.723  1.00  0.00    -0.295 OA
ATOM     15  C   UNL     1       2.497  12.246  18.199  1.00  0.00     0.012 C 
ATOM     16  C   UNL     1      -1.284   9.660  21.772  1.00  0.00     0.039 C 
ENDROOT
TORSDOF 0
ENDMDL
MODEL 6
REMARK VINA RESULT:    -5.603      6.410      8.868
REMARK INTER + INTRA:          -5.603
REMARK INTER:                  -5.603
REMARK INTRA:                   0.000
REMARK UNBOUND:                 0.000
REMARK SMILES C=C1CCC[C@@]2(C)CC(=O)C(=C(C)C)C[C@H]12
REMARK SMILES IDX 13 1 12 2 11 3 15 4 16 5 2 6 1 7 3 8 4 9 5 10 6 11 8 12 9 13
REMARK SMILES IDX 10 14 7 15 14 16
REMARK H PARENT
REMARK Flexibility Score: inf
ROOT
ATOM      1  C   UNL     1       0.918  10.689  25.632  1.00  0.00     0.039 C 
ATOM      2  C   UNL     1       2.214  11.465  25.692  1.00  0.00    -0.070 C 
ATOM      3  C   UNL     1       2.513  12.420  24.762  1.00  0.00    -0.006 C 
ATOM      4  C   UNL     1       1.542  12.757  23.639  1.00  0.00     0.047 C 
ATOM      5  C   UNL     1       1.642  14.234  23.183  1.00  0.00     0.025 C 
ATOM      6  C   UNL     1       0.718  14.621  22.027  1.00  0.00    -0.073 C 
ATOM      7  C   UNL     1      -0.127  13.767  21.419  1.00  0.00     0.008 C 
ATOM      8  C   UNL     1       0.752  16.070  21.602  1.00  0.00     0.031 C 
ATOM      9  C   UNL     1       2.190  16.504  21.306  1.00  0.00     0.005 C 
ATOM     10  C   UNL     1       3.137  16.168  22.471  1.00  0.00     0.008 C 
ATOM     11  C   UNL     1       3.110  14.659  22.863  1.00  0.00    -0.018 C 
ATOM     12  C   UNL     1       3.967  14.478  24.141  1.00  0.00     0.088 C 
ATOM     13  C   UNL     1       3.842  13.096  24.715  1.00  0.00     0.159 C 
ATOM     14  O   UNL     1       4.882  12.524  25.137  1.00  0.00    -0.295 OA
ATOM     15  C   UNL     1       3.719  13.812  21.712  1.00  0.00     0.012 C 
ATOM     16  C   UNL     1       3.139  11.161  26.848  1.00  0.00     0.039 C 
ENDROOT
TORSDOF 0
ENDMDL
MODEL 7
REMARK VINA RESULT:    -5.565      3.693      5.852
REMARK INTER + INTRA:          -5.565
REMARK INTER:                  -5.565
REMARK INTRA:                   0.000
REMARK UNBOUND:                 0.000
REMARK SMILES C=C1CCC[C@@]2(C)CC(=O)C(=C(C)C)C[C@H]12
REMARK SMILES IDX 13 1 12 2 11 3 15 4 16 5 2 6 1 7 3 8 4 9 5 10 6 11 8 12 9 13
REMARK SMILES IDX 10 14 7 15 14 16
REMARK H PARENT
REMARK Flexibility Score: inf
ROOT
ATOM      1  C   UNL     1       4.035  11.273  18.027  1.00  0.00     0.039 C 
ATOM      2  C   UNL     1       3.400  12.618  17.754  1.00  0.00    -0.070 C 
ATOM      3  C   UNL     1       2.950  13.410  18.771  1.00  0.00    -0.006 C 
ATOM      4  C   UNL     1       3.089  12.980  20.225  1.00  0.00     0.047 C 
ATOM      5  C   UNL     1       3.244  14.179  21.193  1.00  0.00     0.025 C 
ATOM      6  C   UNL     1       3.347  13.810  22.674  1.00  0.00    -0.073 C 
ATOM      7  C   UNL     1       3.299  12.548  23.141  1.00  0.00     0.008 C 
ATOM      8  C   UNL     1       3.560  14.957  23.634  1.00  0.00     0.031 C 
ATOM      9  C   UNL     1       2.491  16.033  23.423  1.00  0.00     0.005 C 
ATOM     10  C   UNL     1       2.395  16.458  21.948  1.00  0.00     0.008 C 
ATOM     11  C   UNL     1       2.137  15.260  20.984  1.00  0.00    -0.018 C 
ATOM     12  C   UNL     1       2.227  15.785  19.529  1.00  0.00     0.088 C 
ATOM     13  C   UNL     1       2.192  14.671  18.522  1.00  0.00     0.159 C 
ATOM     14  O   UNL     1       1.500  14.824  17.480  1.00  0.00    -0.295 OA
ATOM     15  C   UNL     1       0.715  14.687  21.236  1.00  0.00     0.012 C 
ATOM     16  C   UNL     1       3.326  13.056  16.309  1.00  0.00     0.039 C 
ENDROOT
TORSDOF 0
ENDMDL
MODEL 8
REMARK VINA RESULT:    -5.533      2.121      3.564
REMARK INTER + INTRA:          -5.533
REMARK INTER:                  -5.533
REMARK INTRA:                   0.000
REMARK UNBOUND:                 0.000
REMARK SMILES C=C1CCC[C@@]2(C)CC(=O)C(=C(C)C)C[C@H]12
REMARK SMILES IDX 13 1 12 2 11 3 15 4 16 5 2 6 1 7 3 8 4 9 5 10 6 11 8 12 9 13
REMARK SMILES IDX 10 14 7 15 14 16
REMARK H PARENT
REMARK Flexibility Score: inf
ROOT
ATOM      1  C   UNL     1       0.985  12.816  15.552  1.00  0.00     0.039 C 
ATOM      2  C   UNL     1       1.665  11.505  15.874  1.00  0.00    -0.070 C 
ATOM      3  C   UNL     1       1.476  10.884  17.075  1.00  0.00    -0.006 C 
ATOM      4  C   UNL     1       0.553  11.476  18.132  1.00  0.00     0.047 C 
ATOM      5  C   UNL     1      -0.113  10.396  19.020  1.00  0.00     0.025 C 
ATOM      6  C   UNL     1      -1.020  10.935  20.128  1.00  0.00    -0.073 C 
ATOM      7  C   UNL     1      -1.240  12.244  20.352  1.00  0.00     0.008 C 
ATOM      8  C   UNL     1      -1.729   9.901  20.971  1.00  0.00     0.031 C 
ATOM      9  C   UNL     1      -0.723   8.898  21.543  1.00  0.00     0.005 C 
ATOM     10  C   UNL     1       0.175   8.305  20.444  1.00  0.00     0.008 C 
ATOM     11  C   UNL     1       0.925   9.393  19.615  1.00  0.00    -0.018 C 
ATOM     12  C   UNL     1       1.657   8.688  18.446  1.00  0.00     0.088 C 
ATOM     13  C   UNL     1       2.244   9.668  17.473  1.00  0.00     0.159 C 
ATOM     14  O   UNL     1       3.398   9.446  17.017  1.00  0.00    -0.295 OA
ATOM     15  C   UNL     1       1.968  10.108  20.519  1.00  0.00     0.012 C 
ATOM     16  C   UNL     1       2.529  10.900  14.791  1.00  0.00     0.039 C 
ENDROOT
TORSDOF 0
ENDMDL
MODEL 9
REMARK VINA RESULT:    -5.466      2.058      5.431
REMARK INTER + INTRA:          -5.466
REMARK INTER:                  -5.466
REMARK INTRA:                   0.000
REMARK UNBOUND:                 0.000
REMARK SMILES C=C1CCC[C@@]2(C)CC(=O)C(=C(C)C)C[C@H]12
REMARK SMILES IDX 13 1 12 2 11 3 15 4 16 5 2 6 1 7 3 8 4 9 5 10 6 11 8 12 9 13
REMARK SMILES IDX 10 14 7 15 14 16
REMARK H PARENT
REMARK Flexibility Score: inf
ROOT
ATOM      1  C   UNL     1       2.996   8.510  16.744  1.00  0.00     0.039 C 
ATOM      2  C   UNL     1       1.964   9.339  17.474  1.00  0.00    -0.070 C 
ATOM      3  C   UNL     1       1.702  10.628  17.106  1.00  0.00    -0.006 C 
ATOM      4  C   UNL     1       2.423  11.276  15.932  1.00  0.00     0.047 C 
ATOM      5  C   UNL     1       1.560  12.341  15.212  1.00  0.00     0.025 C 
ATOM      6  C   UNL     1       2.249  13.055  14.047  1.00  0.00    -0.073 C 
ATOM      7  C   UNL     1       3.513  12.811  13.654  1.00  0.00     0.008 C 
ATOM      8  C   UNL     1       1.409  14.056  13.289  1.00  0.00     0.031 C 
ATOM      9  C   UNL     1       0.793  15.074  14.253  1.00  0.00     0.005 C 
ATOM     10  C   UNL     1       0.055  14.384  15.412  1.00  0.00     0.008 C 
ATOM     11  C   UNL     1       0.956  13.385  16.201  1.00  0.00    -0.018 C 
ATOM     12  C   UNL     1       0.065  12.638  17.225  1.00  0.00     0.088 C 
ATOM     13  C   UNL     1       0.796  11.512  17.897  1.00  0.00     0.159 C 
ATOM     14  O   UNL     1       0.637  11.346  19.136  1.00  0.00    -0.295 OA
ATOM     15  C   UNL     1       2.061  14.171  16.960  1.00  0.00     0.012 C 
ATOM     16  C   UNL     1       1.214   8.662  18.597  1.00  0.00     0.039 C 
ENDROOT
TORSDOF 0
ENDMDL
