MODEL 1
REMARK VINA RESULT:    -2.753      0.000      0.000
REMARK INTER + INTRA:          -8.253
REMARK INTER:                  -5.328
REMARK INTRA:                  -2.925
REMARK UNBOUND:                -2.925
REMARK SMILES CCCCCCCCCCCCCCCCCC(=O)[O-]
REMARK SMILES IDX 10 1 11 2 12 3 13 4 14 5 15 6 16 7 17 8 18 9 19 10 20 11
REMARK SMILES IDX 9 12 8 13 7 14 6 15 5 16 4 17 3 18 2 19 1 20
REMARK H PARENT
REMARK Flexibility Score: inf
ROOT
ATOM      1  C   UNL     1      22.228  29.060  50.675  1.00  0.00     0.000 C 
ENDROOT
BRANCH   1   2
ATOM      2  C   UNL     1      22.892  28.176  49.603  1.00  0.00     0.000 C 
BRANCH   2   3
ATOM      3  C   UNL     1      23.649  28.996  48.547  1.00  0.00     0.000 C 
BRANCH   3   4
ATOM      4  C   UNL     1      23.178  28.698  47.113  1.00  0.00     0.000 C 
BRANCH   4   5
ATOM      5  C   UNL     1      22.964  29.973  46.278  1.00  0.00     0.000 C 
BRANCH   5   6
ATOM      6  C   UNL     1      23.708  31.208  46.829  1.00  0.00     0.000 C 
BRANCH   6   7
ATOM      7  C   UNL     1      24.874  31.634  45.923  1.00  0.00     0.006 C 
BRANCH   7   8
ATOM      8  C   UNL     1      24.968  30.734  44.688  1.00  0.00     0.053 C 
BRANCH   8   9
ATOM      9  C   UNL     1      26.074  31.191  43.790  1.00  0.00     0.041 C 
ATOM     10  O   UNL     1      26.732  30.354  43.117  1.00  0.00    -0.550 OA
ATOM     11  O   UNL     1      26.417  32.536  43.740  1.00  0.00    -0.550 OA
ENDBRANCH   8   9
ENDBRANCH   7   8
ENDBRANCH   6   7
ENDBRANCH   5   6
ENDBRANCH   4   5
ENDBRANCH   3   4
ENDBRANCH   2   3
ENDBRANCH   1   2
BRANCH   1  12
ATOM     12  C   UNL     1      22.087  30.524  50.226  1.00  0.00     0.000 C 
BRANCH  12  13
ATOM     13  C   UNL     1      20.936  31.252  50.942  1.00  0.00    -0.000 C 
BRANCH  13  14
ATOM     14  C   UNL     1      20.350  32.401  50.104  1.00  0.00    -0.000 C 
BRANCH  14  15
ATOM     15  C   UNL     1      20.978  32.488  48.703  1.00  0.00    -0.000 C 
BRANCH  15  16
ATOM     16  C   UNL     1      19.956  32.276  47.571  1.00  0.00    -0.000 C 
BRANCH  16  17
ATOM     17  C   UNL     1      18.986  31.098  47.773  1.00  0.00    -0.000 C 
BRANCH  17  18
ATOM     18  C   UNL     1      19.588  29.746  47.353  1.00  0.00    -0.000 C 
BRANCH  18  19
ATOM     19  C   UNL     1      19.367  28.650  48.408  1.00  0.00    -0.003 C 
ATOM     20  C   UNL     1      18.383  29.069  49.501  1.00  0.00     0.004 C 
ENDBRANCH  18  19
ENDBRANCH  17  18
ENDBRANCH  16  17
ENDBRANCH  15  16
ENDBRANCH  14  15
ENDBRANCH  13  14
ENDBRANCH  12  13
ENDBRANCH   1  12
TORSDOF 16
ENDMDL
MODEL 2
REMARK VINA RESULT:    -2.696      3.130      5.586
REMARK INTER + INTRA:          -8.142
REMARK INTER:                  -5.015
REMARK INTRA:                  -3.127
REMARK UNBOUND:                -2.925
REMARK SMILES CCCCCCCCCCCCCCCCCC(=O)[O-]
REMARK SMILES IDX 10 1 11 2 12 3 13 4 14 5 15 6 16 7 17 8 18 9 19 10 20 11
REMARK SMILES IDX 9 12 8 13 7 14 6 15 5 16 4 17 3 18 2 19 1 20
REMARK H PARENT
REMARK Flexibility Score: inf
ROOT
ATOM      1  C   UNL     1      20.933  31.865  47.488  1.00  0.00     0.000 C 
ENDROOT
BRANCH   1   2
ATOM      2  C   UNL     1      20.557  30.945  48.666  1.00  0.00     0.000 C 
BRANCH   2   3
ATOM      3  C   UNL     1      21.449  31.169  49.898  1.00  0.00     0.000 C 
BRANCH   3   4
ATOM      4  C   UNL     1      22.012  29.857  50.470  1.00  0.00     0.000 C 
BRANCH   4   5
ATOM      5  C   UNL     1      21.056  28.666  50.283  1.00  0.00     0.000 C 
BRANCH   5   6
ATOM      6  C   UNL     1      21.775  27.306  50.160  1.00  0.00     0.000 C 
BRANCH   6   7
ATOM      7  C   UNL     1      23.238  27.380  50.623  1.00  0.00     0.006 C 
BRANCH   7   8
ATOM      8  C   UNL     1      23.818  25.979  50.839  1.00  0.00     0.053 C 
BRANCH   8   9
ATOM      9  C   UNL     1      25.124  25.837  50.122  1.00  0.00     0.041 C 
ATOM     10  O   UNL     1      25.159  25.835  48.863  1.00  0.00    -0.550 OA
ATOM     11  O   UNL     1      26.296  25.651  50.844  1.00  0.00    -0.550 OA
ENDBRANCH   8   9
ENDBRANCH   7   8
ENDBRANCH   6   7
ENDBRANCH   5   6
ENDBRANCH   4   5
ENDBRANCH   3   4
ENDBRANCH   2   3
ENDBRANCH   1   2
BRANCH   1  12
ATOM     12  C   UNL     1      22.438  32.174  47.440  1.00  0.00     0.000 C 
BRANCH  12  13
ATOM     13  C   UNL     1      23.057  31.876  46.062  1.00  0.00    -0.000 C 
BRANCH  13  14
ATOM     14  C   UNL     1      24.091  30.739  46.112  1.00  0.00    -0.000 C 
BRANCH  14  15
ATOM     15  C   UNL     1      24.020  29.934  47.420  1.00  0.00    -0.000 C 
BRANCH  15  16
ATOM     16  C   UNL     1      23.517  28.493  47.212  1.00  0.00    -0.000 C 
BRANCH  16  17
ATOM     17  C   UNL     1      22.545  28.300  46.034  1.00  0.00    -0.000 C 
BRANCH  17  18
ATOM     18  C   UNL     1      21.081  28.157  46.482  1.00  0.00    -0.000 C 
BRANCH  18  19
ATOM     19  C   UNL     1      20.086  28.483  45.356  1.00  0.00    -0.003 C 
ATOM     20  C   UNL     1      20.531  29.668  44.497  1.00  0.00     0.004 C 
ENDBRANCH  18  19
ENDBRANCH  17  18
ENDBRANCH  16  17
ENDBRANCH  15  16
ENDBRANCH  14  15
ENDBRANCH  13  14
ENDBRANCH  12  13
ENDBRANCH   1  12
TORSDOF 16
ENDMDL
MODEL 3
REMARK VINA RESULT:    -2.658      2.196      4.184
REMARK INTER + INTRA:          -8.070
REMARK INTER:                  -5.397
REMARK INTRA:                  -2.674
REMARK UNBOUND:                -2.925
REMARK SMILES CCCCCCCCCCCCCCCCCC(=O)[O-]
REMARK SMILES IDX 10 1 11 2 12 3 13 4 14 5 15 6 16 7 17 8 18 9 19 10 20 11
REMARK SMILES IDX 9 12 8 13 7 14 6 15 5 16 4 17 3 18 2 19 1 20
REMARK H PARENT
REMARK Flexibility Score: inf
ROOT
ATOM      1  C   UNL     1      23.998  29.587  47.610  1.00  0.00     0.000 C 
ENDROOT
BRANCH   1   2
ATOM      2  C   UNL     1      22.875  30.632  47.476  1.00  0.00     0.000 C 
BRANCH   2   3
ATOM      3  C   UNL     1      23.299  31.852  46.641  1.00  0.00     0.000 C 
BRANCH   3   4
ATOM      4  C   UNL     1      24.783  31.810  46.241  1.00  0.00     0.000 C 
BRANCH   4   5
ATOM      5  C   UNL     1      24.998  31.984  44.727  1.00  0.00     0.000 C 
BRANCH   5   6
ATOM      6  C   UNL     1      25.411  30.684  44.004  1.00  0.00     0.000 C 
BRANCH   6   7
ATOM      7  C   UNL     1      24.252  30.075  43.198  1.00  0.00     0.006 C 
BRANCH   7   8
ATOM      8  C   UNL     1      23.538  28.984  44.001  1.00  0.00     0.053 C 
BRANCH   8   9
ATOM      9  C   UNL     1      22.073  29.275  44.089  1.00  0.00     0.041 C 
ATOM     10  O   UNL     1      21.643  30.438  43.868  1.00  0.00    -0.550 OA
ATOM     11  O   UNL     1      21.188  28.275  44.472  1.00  0.00    -0.550 OA
ENDBRANCH   8   9
ENDBRANCH   7   8
ENDBRANCH   6   7
ENDBRANCH   5   6
ENDBRANCH   4   5
ENDBRANCH   3   4
ENDBRANCH   2   3
ENDBRANCH   1   2
BRANCH   1  12
ATOM     12  C   UNL     1      23.459  28.148  47.675  1.00  0.00     0.000 C 
BRANCH  12  13
ATOM     13  C   UNL     1      21.943  28.099  47.937  1.00  0.00    -0.000 C 
BRANCH  13  14
ATOM     14  C   UNL     1      21.595  27.412  49.268  1.00  0.00    -0.000 C 
BRANCH  14  15
ATOM     15  C   UNL     1      22.456  27.919  50.436  1.00  0.00    -0.000 C 
BRANCH  15  16
ATOM     16  C   UNL     1      22.087  29.346  50.880  1.00  0.00    -0.000 C 
BRANCH  16  17
ATOM     17  C   UNL     1      20.580  29.622  51.020  1.00  0.00    -0.000 C 
BRANCH  17  18
ATOM     18  C   UNL     1      20.053  30.624  49.978  1.00  0.00    -0.000 C 
BRANCH  18  19
ATOM     19  C   UNL     1      20.222  32.084  50.427  1.00  0.00    -0.003 C 
ATOM     20  C   UNL     1      20.746  32.990  49.312  1.00  0.00     0.004 C 
ENDBRANCH  18  19
ENDBRANCH  17  18
ENDBRANCH  16  17
ENDBRANCH  15  16
ENDBRANCH  14  15
ENDBRANCH  13  14
ENDBRANCH  12  13
ENDBRANCH   1  12
TORSDOF 16
ENDMDL
MODEL 4
REMARK VINA RESULT:    -2.606      3.053      6.381
REMARK INTER + INTRA:          -7.968
REMARK INTER:                  -5.171
REMARK INTRA:                  -2.797
REMARK UNBOUND:                -2.925
REMARK SMILES CCCCCCCCCCCCCCCCCC(=O)[O-]
REMARK SMILES IDX 10 1 11 2 12 3 13 4 14 5 15 6 16 7 17 8 18 9 19 10 20 11
REMARK SMILES IDX 9 12 8 13 7 14 6 15 5 16 4 17 3 18 2 19 1 20
REMARK H PARENT
REMARK Flexibility Score: inf
ROOT
ATOM      1  C   UNL     1      20.937  28.167  46.614  1.00  0.00     0.000 C 
ENDROOT
BRANCH   1   2
ATOM      2  C   UNL     1      20.519  29.530  46.029  1.00  0.00     0.000 C 
BRANCH   2   3
ATOM      3  C   UNL     1      19.747  30.395  47.039  1.00  0.00     0.000 C 
BRANCH   3   4
ATOM      4  C   UNL     1      20.673  31.264  47.907  1.00  0.00     0.000 C 
BRANCH   4   5
ATOM      5  C   UNL     1      20.596  30.909  49.402  1.00  0.00     0.000 C 
BRANCH   5   6
ATOM      6  C   UNL     1      21.962  30.554  50.028  1.00  0.00     0.000 C 
BRANCH   6   7
ATOM      7  C   UNL     1      21.872  29.340  50.966  1.00  0.00     0.006 C 
BRANCH   7   8
ATOM      8  C   UNL     1      21.362  28.105  50.219  1.00  0.00     0.053 C 
BRANCH   8   9
ATOM      9  C   UNL     1      22.449  27.082  50.098  1.00  0.00     0.041 C 
ATOM     10  O   UNL     1      23.601  27.423  49.722  1.00  0.00    -0.550 OA
ATOM     11  O   UNL     1      22.173  25.744  50.346  1.00  0.00    -0.550 OA
ENDBRANCH   8   9
ENDBRANCH   7   8
ENDBRANCH   6   7
ENDBRANCH   5   6
ENDBRANCH   4   5
ENDBRANCH   3   4
ENDBRANCH   2   3
ENDBRANCH   1   2
BRANCH   1  12
ATOM     12  C   UNL     1      22.440  27.890  46.445  1.00  0.00     0.000 C 
BRANCH  12  13
ATOM     13  C   UNL     1      23.210  29.117  45.924  1.00  0.00    -0.000 C 
BRANCH  13  14
ATOM     14  C   UNL     1      23.968  29.857  47.040  1.00  0.00    -0.000 C 
BRANCH  14  15
ATOM     15  C   UNL     1      24.222  31.335  46.699  1.00  0.00    -0.000 C 
BRANCH  15  16
ATOM     16  C   UNL     1      23.481  31.795  45.430  1.00  0.00    -0.000 C 
BRANCH  16  17
ATOM     17  C   UNL     1      24.383  32.159  44.238  1.00  0.00    -0.000 C 
BRANCH  17  18
ATOM     18  C   UNL     1      25.849  31.739  44.444  1.00  0.00    -0.000 C 
BRANCH  18  19
ATOM     19  C   UNL     1      26.329  30.735  43.383  1.00  0.00    -0.003 C 
ATOM     20  C   UNL     1      25.193  29.882  42.818  1.00  0.00     0.004 C 
ENDBRANCH  18  19
ENDBRANCH  17  18
ENDBRANCH  16  17
ENDBRANCH  15  16
ENDBRANCH  14  15
ENDBRANCH  13  14
ENDBRANCH  12  13
ENDBRANCH   1  12
TORSDOF 16
ENDMDL
MODEL 5
REMARK VINA RESULT:    -2.576      3.211      6.054
REMARK INTER + INTRA:          -7.910
REMARK INTER:                  -5.840
REMARK INTRA:                  -2.070
REMARK UNBOUND:                -2.925
REMARK SMILES CCCCCCCCCCCCCCCCCC(=O)[O-]
REMARK SMILES IDX 10 1 11 2 12 3 13 4 14 5 15 6 16 7 17 8 18 9 19 10 20 11
REMARK SMILES IDX 9 12 8 13 7 14 6 15 5 16 4 17 3 18 2 19 1 20
REMARK H PARENT
REMARK Flexibility Score: inf
ROOT
ATOM      1  C   UNL     1      23.538  27.137  49.086  1.00  0.00     0.000 C 
ENDROOT
BRANCH   1   2
ATOM      2  C   UNL     1      22.705  27.335  50.367  1.00  0.00     0.000 C 
BRANCH   2   3
ATOM      3  C   UNL     1      21.380  28.067  50.104  1.00  0.00     0.000 C 
BRANCH   3   4
ATOM      4  C   UNL     1      21.146  29.239  51.071  1.00  0.00     0.000 C 
BRANCH   4   5
ATOM      5  C   UNL     1      22.000  30.474  50.730  1.00  0.00     0.000 C 
BRANCH   5   6
ATOM      6  C   UNL     1      21.224  31.806  50.806  1.00  0.00     0.000 C 
BRANCH   6   7
ATOM      7  C   UNL     1      20.849  32.338  49.414  1.00  0.00     0.006 C 
BRANCH   7   8
ATOM      8  C   UNL     1      19.608  33.232  49.484  1.00  0.00     0.053 C 
BRANCH   8   9
ATOM      9  C   UNL     1      19.934  34.617  49.020  1.00  0.00     0.041 C 
ATOM     10  O   UNL     1      19.084  35.288  48.377  1.00  0.00    -0.550 OA
ATOM     11  O   UNL     1      21.198  35.146  49.249  1.00  0.00    -0.550 OA
ENDBRANCH   8   9
ENDBRANCH   7   8
ENDBRANCH   6   7
ENDBRANCH   5   6
ENDBRANCH   4   5
ENDBRANCH   3   4
ENDBRANCH   2   3
ENDBRANCH   1   2
BRANCH   1  12
ATOM     12  C   UNL     1      22.663  27.047  47.824  1.00  0.00     0.000 C 
BRANCH  12  13
ATOM     13  C   UNL     1      23.126  28.010  46.717  1.00  0.00    -0.000 C 
BRANCH  13  14
ATOM     14  C   UNL     1      22.520  29.416  46.863  1.00  0.00    -0.000 C 
BRANCH  14  15
ATOM     15  C   UNL     1      23.549  30.454  47.342  1.00  0.00    -0.000 C 
BRANCH  15  16
ATOM     16  C   UNL     1      23.343  31.841  46.704  1.00  0.00    -0.000 C 
BRANCH  16  17
ATOM     17  C   UNL     1      23.934  32.010  45.294  1.00  0.00    -0.000 C 
BRANCH  17  18
ATOM     18  C   UNL     1      25.384  31.508  45.186  1.00  0.00    -0.000 C 
BRANCH  18  19
ATOM     19  C   UNL     1      25.663  30.795  43.853  1.00  0.00    -0.003 C 
ATOM     20  C   UNL     1      24.596  29.759  43.500  1.00  0.00     0.004 C 
ENDBRANCH  18  19
ENDBRANCH  17  18
ENDBRANCH  16  17
ENDBRANCH  15  16
ENDBRANCH  14  15
ENDBRANCH  13  14
ENDBRANCH  12  13
ENDBRANCH   1  12
TORSDOF 16
ENDMDL
MODEL 6
REMARK VINA RESULT:    -2.568      3.468      5.762
REMARK INTER + INTRA:          -7.895
REMARK INTER:                  -5.014
REMARK INTRA:                  -2.881
REMARK UNBOUND:                -2.925
REMARK SMILES CCCCCCCCCCCCCCCCCC(=O)[O-]
REMARK SMILES IDX 10 1 11 2 12 3 13 4 14 5 15 6 16 7 17 8 18 9 19 10 20 11
REMARK SMILES IDX 9 12 8 13 7 14 6 15 5 16 4 17 3 18 2 19 1 20
REMARK H PARENT
REMARK Flexibility Score: inf
ROOT
ATOM      1  C   UNL     1      20.895  28.404  46.343  1.00  0.00     0.000 C 
ENDROOT
BRANCH   1   2
ATOM      2  C   UNL     1      22.290  27.806  46.609  1.00  0.00     0.000 C 
BRANCH   2   3
ATOM      3  C   UNL     1      23.427  28.718  46.123  1.00  0.00     0.000 C 
BRANCH   3   4
ATOM      4  C   UNL     1      23.843  29.761  47.174  1.00  0.00     0.000 C 
BRANCH   4   5
ATOM      5  C   UNL     1      23.792  31.202  46.637  1.00  0.00     0.000 C 
BRANCH   5   6
ATOM      6  C   UNL     1      22.648  32.048  47.238  1.00  0.00     0.000 C 
BRANCH   6   7
ATOM      7  C   UNL     1      21.984  31.357  48.439  1.00  0.00     0.006 C 
BRANCH   7   8
ATOM      8  C   UNL     1      20.522  31.787  48.580  1.00  0.00     0.053 C 
BRANCH   8   9
ATOM      9  C   UNL     1      20.195  32.063  50.015  1.00  0.00     0.041 C 
ATOM     10  O   UNL     1      21.109  32.086  50.880  1.00  0.00    -0.550 OA
ATOM     11  O   UNL     1      18.873  32.240  50.404  1.00  0.00    -0.550 OA
ENDBRANCH   8   9
ENDBRANCH   7   8
ENDBRANCH   6   7
ENDBRANCH   5   6
ENDBRANCH   4   5
ENDBRANCH   3   4
ENDBRANCH   2   3
ENDBRANCH   1   2
BRANCH   1  12
ATOM     12  C   UNL     1      19.971  28.311  47.568  1.00  0.00     0.000 C 
BRANCH  12  13
ATOM     13  C   UNL     1      20.594  27.496  48.715  1.00  0.00    -0.000 C 
BRANCH  13  14
ATOM     14  C   UNL     1      20.355  28.136  50.093  1.00  0.00    -0.000 C 
BRANCH  14  15
ATOM     15  C   UNL     1      21.661  28.588  50.768  1.00  0.00    -0.000 C 
BRANCH  15  16
ATOM     16  C   UNL     1      22.917  27.992  50.105  1.00  0.00    -0.000 C 
BRANCH  16  17
ATOM     17  C   UNL     1      23.390  26.647  50.683  1.00  0.00    -0.000 C 
BRANCH  17  18
ATOM     18  C   UNL     1      23.561  25.558  49.610  1.00  0.00    -0.000 C 
BRANCH  18  19
ATOM     19  C   UNL     1      24.794  25.794  48.723  1.00  0.00    -0.003 C 
ATOM     20  C   UNL     1      26.089  25.914  49.528  1.00  0.00     0.004 C 
ENDBRANCH  18  19
ENDBRANCH  17  18
ENDBRANCH  16  17
ENDBRANCH  15  16
ENDBRANCH  14  15
ENDBRANCH  13  14
ENDBRANCH  12  13
ENDBRANCH   1  12
TORSDOF 16
ENDMDL
MODEL 7
REMARK VINA RESULT:    -2.564      1.376      3.558
REMARK INTER + INTRA:          -7.887
REMARK INTER:                  -4.937
REMARK INTRA:                  -2.950
REMARK UNBOUND:                -2.925
REMARK SMILES CCCCCCCCCCCCCCCCCC(=O)[O-]
REMARK SMILES IDX 10 1 11 2 12 3 13 4 14 5 15 6 16 7 17 8 18 9 19 10 20 11
REMARK SMILES IDX 9 12 8 13 7 14 6 15 5 16 4 17 3 18 2 19 1 20
REMARK H PARENT
REMARK Flexibility Score: inf
ROOT
ATOM      1  C   UNL     1      21.002  28.579  50.568  1.00  0.00     0.000 C 
ENDROOT
BRANCH   1   2
ATOM      2  C   UNL     1      20.252  29.910  50.770  1.00  0.00     0.000 C 
BRANCH   2   3
ATOM      3  C   UNL     1      20.989  31.104  50.144  1.00  0.00     0.000 C 
BRANCH   3   4
ATOM      4  C   UNL     1      20.194  31.761  49.003  1.00  0.00     0.000 C 
BRANCH   4   5
ATOM      5  C   UNL     1      21.099  32.433  47.955  1.00  0.00     0.000 C 
BRANCH   5   6
ATOM      6  C   UNL     1      22.477  31.754  47.798  1.00  0.00     0.000 C 
BRANCH   6   7
ATOM      7  C   UNL     1      23.009  31.849  46.360  1.00  0.00     0.006 C 
BRANCH   7   8
ATOM      8  C   UNL     1      24.535  31.721  46.329  1.00  0.00     0.053 C 
BRANCH   8   9
ATOM      9  C   UNL     1      25.002  31.364  44.953  1.00  0.00     0.041 C 
ATOM     10  O   UNL     1      24.357  30.534  44.260  1.00  0.00    -0.550 OA
ATOM     11  O   UNL     1      26.181  31.906  44.457  1.00  0.00    -0.550 OA
ENDBRANCH   8   9
ENDBRANCH   7   8
ENDBRANCH   6   7
ENDBRANCH   5   6
ENDBRANCH   4   5
ENDBRANCH   3   4
ENDBRANCH   2   3
ENDBRANCH   1   2
BRANCH   1  12
ATOM     12  C   UNL     1      22.528  28.765  50.524  1.00  0.00     0.000 C 
BRANCH  12  13
ATOM     13  C   UNL     1      23.281  27.427  50.407  1.00  0.00    -0.000 C 
BRANCH  13  14
ATOM     14  C   UNL     1      23.720  27.121  48.965  1.00  0.00    -0.000 C 
BRANCH  14  15
ATOM     15  C   UNL     1      23.788  28.383  48.088  1.00  0.00    -0.000 C 
BRANCH  15  16
ATOM     16  C   UNL     1      23.234  28.159  46.669  1.00  0.00    -0.000 C 
BRANCH  16  17
ATOM     17  C   UNL     1      21.797  27.614  46.603  1.00  0.00    -0.000 C 
BRANCH  17  18
ATOM     18  C   UNL     1      20.744  28.641  47.055  1.00  0.00    -0.000 C 
BRANCH  18  19
ATOM     19  C   UNL     1      19.682  28.909  45.977  1.00  0.00    -0.003 C 
ATOM     20  C   UNL     1      20.000  30.137  45.123  1.00  0.00     0.004 C 
ENDBRANCH  18  19
ENDBRANCH  17  18
ENDBRANCH  16  17
ENDBRANCH  15  16
ENDBRANCH  14  15
ENDBRANCH  13  14
ENDBRANCH  12  13
ENDBRANCH   1  12
TORSDOF 16
ENDMDL
MODEL 8
REMARK VINA RESULT:    -2.552      1.759      3.691
REMARK INTER + INTRA:          -7.864
REMARK INTER:                  -5.110
REMARK INTRA:                  -2.754
REMARK UNBOUND:                -2.925
REMARK SMILES CCCCCCCCCCCCCCCCCC(=O)[O-]
REMARK SMILES IDX 10 1 11 2 12 3 13 4 14 5 15 6 16 7 17 8 18 9 19 10 20 11
REMARK SMILES IDX 9 12 8 13 7 14 6 15 5 16 4 17 3 18 2 19 1 20
REMARK H PARENT
REMARK Flexibility Score: inf
ROOT
ATOM      1  C   UNL     1      23.388  27.310  46.879  1.00  0.00     0.000 C 
ENDROOT
BRANCH   1   2
ATOM      2  C   UNL     1      22.029  28.025  47.011  1.00  0.00     0.000 C 
BRANCH   2   3
ATOM      3  C   UNL     1      22.161  29.556  46.975  1.00  0.00     0.000 C 
BRANCH   3   4
ATOM      4  C   UNL     1      23.495  30.051  47.557  1.00  0.00     0.000 C 
BRANCH   4   5
ATOM      5  C   UNL     1      24.188  31.092  46.660  1.00  0.00     0.000 C 
BRANCH   5   6
ATOM      6  C   UNL     1      23.218  31.860  45.737  1.00  0.00     0.000 C 
BRANCH   6   7
ATOM      7  C   UNL     1      23.817  32.108  44.344  1.00  0.00     0.006 C 
BRANCH   7   8
ATOM      8  C   UNL     1      23.191  31.176  43.303  1.00  0.00     0.053 C 
BRANCH   8   9
ATOM      9  C   UNL     1      24.025  29.944  43.136  1.00  0.00     0.041 C 
ATOM     10  O   UNL     1      23.758  28.904  43.794  1.00  0.00    -0.550 OA
ATOM     11  O   UNL     1      25.130  29.962  42.295  1.00  0.00    -0.550 OA
ENDBRANCH   8   9
ENDBRANCH   7   8
ENDBRANCH   6   7
ENDBRANCH   5   6
ENDBRANCH   4   5
ENDBRANCH   3   4
ENDBRANCH   2   3
ENDBRANCH   1   2
BRANCH   1  12
ATOM     12  C   UNL     1      23.712  26.433  48.100  1.00  0.00     0.000 C 
BRANCH  12  13
ATOM     13  C   UNL     1      22.675  26.586  49.227  1.00  0.00    -0.000 C 
BRANCH  13  14
ATOM     14  C   UNL     1      23.256  27.272  50.476  1.00  0.00    -0.000 C 
BRANCH  14  15
ATOM     15  C   UNL     1      22.598  28.632  50.760  1.00  0.00    -0.000 C 
BRANCH  15  16
ATOM     16  C   UNL     1      21.074  28.621  50.539  1.00  0.00    -0.000 C 
BRANCH  16  17
ATOM     17  C   UNL     1      20.438  29.997  50.274  1.00  0.00    -0.000 C 
BRANCH  17  18
ATOM     18  C   UNL     1      21.416  31.163  50.496  1.00  0.00    -0.000 C 
BRANCH  18  19
ATOM     19  C   UNL     1      20.840  32.511  50.032  1.00  0.00    -0.003 C 
ATOM     20  C   UNL     1      20.967  32.722  48.523  1.00  0.00     0.004 C 
ENDBRANCH  18  19
ENDBRANCH  17  18
ENDBRANCH  16  17
ENDBRANCH  15  16
ENDBRANCH  14  15
ENDBRANCH  13  14
ENDBRANCH  12  13
ENDBRANCH   1  12
TORSDOF 16
ENDMDL
MODEL 9
REMARK VINA RESULT:    -2.538      1.807      3.615
REMARK INTER + INTRA:          -7.838
REMARK INTER:                  -5.370
REMARK INTRA:                  -2.467
REMARK UNBOUND:                -2.925
REMARK SMILES CCCCCCCCCCCCCCCCCC(=O)[O-]
REMARK SMILES IDX 10 1 11 2 12 3 13 4 14 5 15 6 16 7 17 8 18 9 19 10 20 11
REMARK SMILES IDX 9 12 8 13 7 14 6 15 5 16 4 17 3 18 2 19 1 20
REMARK H PARENT
REMARK Flexibility Score: inf
ROOT
ATOM      1  C   UNL     1      22.536  31.772  46.667  1.00  0.00     0.000 C 
ENDROOT
BRANCH   1   2
ATOM      2  C   UNL     1      23.923  31.173  46.967  1.00  0.00     0.000 C 
BRANCH   2   3
ATOM      3  C   UNL     1      23.868  29.660  47.234  1.00  0.00     0.000 C 
BRANCH   3   4
ATOM      4  C   UNL     1      22.649  28.986  46.583  1.00  0.00     0.000 C 
BRANCH   4   5
ATOM      5  C   UNL     1      23.012  27.693  45.833  1.00  0.00     0.000 C 
BRANCH   5   6
ATOM      6  C   UNL     1      23.202  27.888  44.313  1.00  0.00     0.000 C 
BRANCH   6   7
ATOM      7  C   UNL     1      22.769  29.288  43.850  1.00  0.00     0.006 C 
BRANCH   7   8
ATOM      8  C   UNL     1      23.961  30.080  43.307  1.00  0.00     0.053 C 
BRANCH   8   9
ATOM      9  C   UNL     1      23.630  31.538  43.233  1.00  0.00     0.041 C 
ATOM     10  O   UNL     1      24.508  32.402  43.492  1.00  0.00    -0.550 OA
ATOM     11  O   UNL     1      22.335  31.942  42.933  1.00  0.00    -0.550 OA
ENDBRANCH   8   9
ENDBRANCH   7   8
ENDBRANCH   6   7
ENDBRANCH   5   6
ENDBRANCH   4   5
ENDBRANCH   3   4
ENDBRANCH   2   3
ENDBRANCH   1   2
BRANCH   1  12
ATOM     12  C   UNL     1      21.921  32.474  47.890  1.00  0.00     0.000 C 
BRANCH  12  13
ATOM     13  C   UNL     1      21.039  31.531  48.727  1.00  0.00    -0.000 C 
BRANCH  13  14
ATOM     14  C   UNL     1      20.998  31.923  50.214  1.00  0.00    -0.000 C 
BRANCH  14  15
ATOM     15  C   UNL     1      21.615  30.848  51.124  1.00  0.00    -0.000 C 
BRANCH  15  16
ATOM     16  C   UNL     1      22.108  29.614  50.348  1.00  0.00    -0.000 C 
BRANCH  16  17
ATOM     17  C   UNL     1      21.151  28.409  50.352  1.00  0.00    -0.000 C 
BRANCH  17  18
ATOM     18  C   UNL     1      21.862  27.076  50.062  1.00  0.00    -0.000 C 
BRANCH  18  19
ATOM     19  C   UNL     1      23.371  27.140  50.346  1.00  0.00    -0.003 C 
ATOM     20  C   UNL     1      24.212  26.543  49.218  1.00  0.00     0.004 C 
ENDBRANCH  18  19
ENDBRANCH  17  18
ENDBRANCH  16  17
ENDBRANCH  15  16
ENDBRANCH  14  15
ENDBRANCH  13  14
ENDBRANCH  12  13
ENDBRANCH   1  12
TORSDOF 16
ENDMDL
