MODEL 1
REMARK VINA RESULT:    -4.772      0.000      0.000
REMARK INTER + INTRA:         -10.088
REMARK INTER:                  -8.678
REMARK INTRA:                  -1.410
REMARK UNBOUND:                -1.410
REMARK SMILES CCCCCCCCCCCCCCCC(=O)[O-]
REMARK SMILES IDX 9 1 10 2 11 3 12 4 13 5 14 6 15 7 16 8 17 9 18 10 8 11 7 12
REMARK SMILES IDX 6 13 5 14 4 15 3 16 2 17 1 18
REMARK H PARENT
REMARK Flexibility Score: inf
ROOT
ATOM      1  C   UNL     1      19.688 119.525 295.179  1.00  0.00     0.000 C 
ENDROOT
BRANCH   1   2
ATOM      2  C   UNL     1      20.567 118.402 294.592  1.00  0.00     0.000 C 
BRANCH   2   3
ATOM      3  C   UNL     1      22.082 118.568 294.824  1.00  0.00     0.000 C 
BRANCH   3   4
ATOM      4  C   UNL     1      22.746 117.428 295.623  1.00  0.00     0.000 C 
BRANCH   4   5
ATOM      5  C   UNL     1      21.918 116.888 296.804  1.00  0.00     0.000 C 
BRANCH   5   6
ATOM      6  C   UNL     1      21.724 117.871 297.975  1.00  0.00     0.006 C 
BRANCH   6   7
ATOM      7  C   UNL     1      22.969 118.036 298.866  1.00  0.00     0.053 C 
BRANCH   7   8
ATOM      8  C   UNL     1      22.637 118.595 300.216  1.00  0.00     0.041 C 
ATOM      9  O   UNL     1      23.527 119.162 300.904  1.00  0.00    -0.550 OA
ATOM     10  O   UNL     1      21.337 118.521 300.702  1.00  0.00    -0.550 OA
ENDBRANCH   7   8
ENDBRANCH   6   7
ENDBRANCH   5   6
ENDBRANCH   4   5
ENDBRANCH   3   4
ENDBRANCH   2   3
ENDBRANCH   1   2
BRANCH   1  11
ATOM     11  C   UNL     1      18.331 119.068 295.744  1.00  0.00     0.000 C 
BRANCH  11  12
ATOM     12  C   UNL     1      18.298 117.568 296.082  1.00  0.00    -0.000 C 
BRANCH  12  13
ATOM     13  C   UNL     1      17.167 116.821 295.356  1.00  0.00    -0.000 C 
BRANCH  13  14
ATOM     14  C   UNL     1      16.979 117.255 293.886  1.00  0.00    -0.000 C 
BRANCH  14  15
ATOM     15  C   UNL     1      17.271 116.109 292.901  1.00  0.00    -0.000 C 
BRANCH  15  16
ATOM     16  C   UNL     1      18.283 116.519 291.810  1.00  0.00    -0.000 C 
BRANCH  16  17
ATOM     17  C   UNL     1      18.469 115.460 290.711  1.00  0.00    -0.003 C 
ATOM     18  C   UNL     1      17.186 114.696 290.393  1.00  0.00     0.004 C 
ENDBRANCH  16  17
ENDBRANCH  15  16
ENDBRANCH  14  15
ENDBRANCH  13  14
ENDBRANCH  12  13
ENDBRANCH  11  12
ENDBRANCH   1  11
TORSDOF 14
ENDMDL
MODEL 2
REMARK VINA RESULT:    -4.658      4.037      5.000
REMARK INTER + INTRA:          -9.880
REMARK INTER:                  -8.929
REMARK INTRA:                  -0.951
REMARK UNBOUND:                -1.410
REMARK SMILES CCCCCCCCCCCCCCCC(=O)[O-]
REMARK SMILES IDX 9 1 10 2 11 3 12 4 13 5 14 6 15 7 16 8 17 9 18 10 8 11 7 12
REMARK SMILES IDX 6 13 5 14 4 15 3 16 2 17 1 18
REMARK H PARENT
REMARK Flexibility Score: inf
ROOT
ATOM      1  C   UNL     1      20.267 117.108 296.905  1.00  0.00     0.000 C 
ENDROOT
BRANCH   1   2
ATOM      2  C   UNL     1      21.472 118.062 296.782  1.00  0.00     0.000 C 
BRANCH   2   3
ATOM      3  C   UNL     1      22.782 117.405 296.306  1.00  0.00     0.000 C 
BRANCH   3   4
ATOM      4  C   UNL     1      23.130 117.646 294.824  1.00  0.00     0.000 C 
BRANCH   4   5
ATOM      5  C   UNL     1      23.899 118.949 294.535  1.00  0.00     0.000 C 
BRANCH   5   6
ATOM      6  C   UNL     1      24.449 119.084 293.102  1.00  0.00     0.006 C 
BRANCH   6   7
ATOM      7  C   UNL     1      25.175 117.827 292.589  1.00  0.00     0.053 C 
BRANCH   7   8
ATOM      8  C   UNL     1      25.153 117.721 291.095  1.00  0.00     0.041 C 
ATOM      9  O   UNL     1      25.137 116.592 290.538  1.00  0.00    -0.550 OA
ATOM     10  O   UNL     1      25.115 118.872 290.315  1.00  0.00    -0.550 OA
ENDBRANCH   7   8
ENDBRANCH   6   7
ENDBRANCH   5   6
ENDBRANCH   4   5
ENDBRANCH   3   4
ENDBRANCH   2   3
ENDBRANCH   1   2
BRANCH   1  11
ATOM     11  C   UNL     1      18.919 117.691 296.441  1.00  0.00     0.000 C 
BRANCH  11  12
ATOM     12  C   UNL     1      19.060 118.646 295.245  1.00  0.00    -0.000 C 
BRANCH  12  13
ATOM     13  C   UNL     1      18.034 118.362 294.134  1.00  0.00    -0.000 C 
BRANCH  13  14
ATOM     14  C   UNL     1      17.149 117.126 294.407  1.00  0.00    -0.000 C 
BRANCH  14  15
ATOM     15  C   UNL     1      17.223 116.097 293.265  1.00  0.00    -0.000 C 
BRANCH  15  16
ATOM     16  C   UNL     1      17.933 116.660 292.016  1.00  0.00    -0.000 C 
BRANCH  16  17
ATOM     17  C   UNL     1      18.247 115.595 290.951  1.00  0.00    -0.003 C 
ATOM     18  C   UNL     1      17.159 114.532 290.830  1.00  0.00     0.004 C 
ENDBRANCH  16  17
ENDBRANCH  15  16
ENDBRANCH  14  15
ENDBRANCH  13  14
ENDBRANCH  12  13
ENDBRANCH  11  12
ENDBRANCH   1  11
TORSDOF 14
ENDMDL
MODEL 3
REMARK VINA RESULT:    -4.654      5.020      6.230
REMARK INTER + INTRA:          -9.873
REMARK INTER:                  -9.031
REMARK INTRA:                  -0.843
REMARK UNBOUND:                -1.410
REMARK SMILES CCCCCCCCCCCCCCCC(=O)[O-]
REMARK SMILES IDX 9 1 10 2 11 3 12 4 13 5 14 6 15 7 16 8 17 9 18 10 8 11 7 12
REMARK SMILES IDX 6 13 5 14 4 15 3 16 2 17 1 18
REMARK H PARENT
REMARK Flexibility Score: inf
ROOT
ATOM      1  C   UNL     1      22.490 117.695 295.762  1.00  0.00     0.000 C 
ENDROOT
BRANCH   1   2
ATOM      2  C   UNL     1      23.635 117.539 294.741  1.00  0.00     0.000 C 
BRANCH   2   3
ATOM      3  C   UNL     1      24.128 118.852 294.103  1.00  0.00     0.000 C 
BRANCH   3   4
ATOM      4  C   UNL     1      24.433 118.768 292.594  1.00  0.00     0.000 C 
BRANCH   4   5
ATOM      5  C   UNL     1      25.439 117.675 292.190  1.00  0.00     0.000 C 
BRANCH   5   6
ATOM      6  C   UNL     1      25.340 117.199 290.727  1.00  0.00     0.006 C 
BRANCH   6   7
ATOM      7  C   UNL     1      23.915 117.257 290.146  1.00  0.00     0.053 C 
BRANCH   7   8
ATOM      8  C   UNL     1      23.838 118.083 288.898  1.00  0.00     0.041 C 
ATOM      9  O   UNL     1      22.989 117.811 288.009  1.00  0.00    -0.550 OA
ATOM     10  O   UNL     1      24.681 119.175 288.731  1.00  0.00    -0.550 OA
ENDBRANCH   7   8
ENDBRANCH   6   7
ENDBRANCH   5   6
ENDBRANCH   4   5
ENDBRANCH   3   4
ENDBRANCH   2   3
ENDBRANCH   1   2
BRANCH   1  11
ATOM     11  C   UNL     1      21.497 118.834 295.465  1.00  0.00     0.000 C 
BRANCH  11  12
ATOM     12  C   UNL     1      20.030 118.410 295.645  1.00  0.00    -0.000 C 
BRANCH  12  13
ATOM     13  C   UNL     1      19.350 118.043 294.315  1.00  0.00    -0.000 C 
BRANCH  13  14
ATOM     14  C   UNL     1      17.808 118.016 294.392  1.00  0.00    -0.000 C 
BRANCH  14  15
ATOM     15  C   UNL     1      17.212 116.804 293.652  1.00  0.00    -0.000 C 
BRANCH  15  16
ATOM     16  C   UNL     1      17.482 116.855 292.134  1.00  0.00    -0.000 C 
BRANCH  16  17
ATOM     17  C   UNL     1      17.661 115.469 291.491  1.00  0.00    -0.003 C 
ATOM     18  C   UNL     1      17.696 115.517 289.966  1.00  0.00     0.004 C 
ENDBRANCH  16  17
ENDBRANCH  15  16
ENDBRANCH  14  15
ENDBRANCH  13  14
ENDBRANCH  12  13
ENDBRANCH  11  12
ENDBRANCH   1  11
TORSDOF 14
ENDMDL
MODEL 4
REMARK VINA RESULT:    -4.610      1.831      2.769
REMARK INTER + INTRA:          -9.793
REMARK INTER:                  -8.179
REMARK INTRA:                  -1.613
REMARK UNBOUND:                -1.410
REMARK SMILES CCCCCCCCCCCCCCCC(=O)[O-]
REMARK SMILES IDX 9 1 10 2 11 3 12 4 13 5 14 6 15 7 16 8 17 9 18 10 8 11 7 12
REMARK SMILES IDX 6 13 5 14 4 15 3 16 2 17 1 18
REMARK H PARENT
REMARK Flexibility Score: inf
ROOT
ATOM      1  C   UNL     1      17.583 121.232 295.024  1.00  0.00     0.000 C 
ENDROOT
BRANCH   1   2
ATOM      2  C   UNL     1      18.796 122.114 294.670  1.00  0.00     0.000 C 
BRANCH   2   3
ATOM      3  C   UNL     1      20.029 121.353 294.146  1.00  0.00     0.000 C 
BRANCH   3   4
ATOM      4  C   UNL     1      20.738 120.467 295.190  1.00  0.00     0.000 C 
BRANCH   4   5
ATOM      5  C   UNL     1      20.818 118.970 294.833  1.00  0.00     0.000 C 
BRANCH   5   6
ATOM      6  C   UNL     1      21.330 118.052 295.961  1.00  0.00     0.006 C 
BRANCH   6   7
ATOM      7  C   UNL     1      20.245 117.641 296.973  1.00  0.00     0.053 C 
BRANCH   7   8
ATOM      8  C   UNL     1      20.358 118.385 298.268  1.00  0.00     0.041 C 
ATOM      9  O   UNL     1      19.801 119.506 298.407  1.00  0.00    -0.550 OA
ATOM     10  O   UNL     1      21.050 117.826 299.336  1.00  0.00    -0.550 OA
ENDBRANCH   7   8
ENDBRANCH   6   7
ENDBRANCH   5   6
ENDBRANCH   4   5
ENDBRANCH   3   4
ENDBRANCH   2   3
ENDBRANCH   1   2
BRANCH   1  11
ATOM     11  C   UNL     1      16.609 120.957 293.863  1.00  0.00     0.000 C 
BRANCH  11  12
ATOM     12  C   UNL     1      16.421 119.457 293.582  1.00  0.00    -0.000 C 
BRANCH  12  13
ATOM     13  C   UNL     1      16.682 118.584 294.821  1.00  0.00    -0.000 C 
BRANCH  13  14
ATOM     14  C   UNL     1      17.527 117.324 294.526  1.00  0.00    -0.000 C 
BRANCH  14  15
ATOM     15  C   UNL     1      17.993 117.269 293.060  1.00  0.00    -0.000 C 
BRANCH  15  16
ATOM     16  C   UNL     1      17.342 116.105 292.283  1.00  0.00    -0.000 C 
BRANCH  16  17
ATOM     17  C   UNL     1      18.065 115.757 290.972  1.00  0.00    -0.003 C 
ATOM     18  C   UNL     1      17.364 114.660 290.175  1.00  0.00     0.004 C 
ENDBRANCH  16  17
ENDBRANCH  15  16
ENDBRANCH  14  15
ENDBRANCH  13  14
ENDBRANCH  12  13
ENDBRANCH  11  12
ENDBRANCH   1  11
TORSDOF 14
ENDMDL
MODEL 5
REMARK VINA RESULT:    -4.550      2.456      3.263
REMARK INTER + INTRA:          -9.683
REMARK INTER:                  -8.073
REMARK INTRA:                  -1.610
REMARK UNBOUND:                -1.410
REMARK SMILES CCCCCCCCCCCCCCCC(=O)[O-]
REMARK SMILES IDX 9 1 10 2 11 3 12 4 13 5 14 6 15 7 16 8 17 9 18 10 8 11 7 12
REMARK SMILES IDX 6 13 5 14 4 15 3 16 2 17 1 18
REMARK H PARENT
REMARK Flexibility Score: inf
ROOT
ATOM      1  C   UNL     1      19.887 120.399 296.739  1.00  0.00     0.000 C 
ENDROOT
BRANCH   1   2
ATOM      2  C   UNL     1      20.488 119.760 298.007  1.00  0.00     0.000 C 
BRANCH   2   3
ATOM      3  C   UNL     1      21.972 119.358 297.898  1.00  0.00     0.000 C 
BRANCH   3   4
ATOM      4  C   UNL     1      22.234 117.839 297.865  1.00  0.00     0.000 C 
BRANCH   4   5
ATOM      5  C   UNL     1      21.915 117.148 296.526  1.00  0.00     0.000 C 
BRANCH   5   6
ATOM      6  C   UNL     1      22.222 117.982 295.267  1.00  0.00     0.006 C 
BRANCH   6   7
ATOM      7  C   UNL     1      23.586 117.668 294.626  1.00  0.00     0.053 C 
BRANCH   7   8
ATOM      8  C   UNL     1      24.562 118.796 294.774  1.00  0.00     0.041 C 
ATOM      9  O   UNL     1      24.969 119.138 295.915  1.00  0.00    -0.550 OA
ATOM     10  O   UNL     1      25.049 119.449 293.647  1.00  0.00    -0.550 OA
ENDBRANCH   7   8
ENDBRANCH   6   7
ENDBRANCH   5   6
ENDBRANCH   4   5
ENDBRANCH   3   4
ENDBRANCH   2   3
ENDBRANCH   1   2
BRANCH   1  11
ATOM     11  C   UNL     1      18.618 119.716 296.199  1.00  0.00     0.000 C 
BRANCH  11  12
ATOM     12  C   UNL     1      18.412 118.301 296.765  1.00  0.00    -0.000 C 
BRANCH  12  13
ATOM     13  C   UNL     1      17.957 117.294 295.697  1.00  0.00    -0.000 C 
BRANCH  13  14
ATOM     14  C   UNL     1      18.459 117.627 294.274  1.00  0.00    -0.000 C 
BRANCH  14  15
ATOM     15  C   UNL     1      17.483 117.143 293.187  1.00  0.00    -0.000 C 
BRANCH  15  16
ATOM     16  C   UNL     1      18.213 116.490 291.994  1.00  0.00    -0.000 C 
BRANCH  16  17
ATOM     17  C   UNL     1      17.266 115.963 290.903  1.00  0.00    -0.003 C 
ATOM     18  C   UNL     1      17.235 114.439 290.823  1.00  0.00     0.004 C 
ENDBRANCH  16  17
ENDBRANCH  15  16
ENDBRANCH  14  15
ENDBRANCH  13  14
ENDBRANCH  12  13
ENDBRANCH  11  12
ENDBRANCH   1  11
TORSDOF 14
ENDMDL
MODEL 6
REMARK VINA RESULT:    -4.509      1.758      2.404
REMARK INTER + INTRA:          -9.609
REMARK INTER:                  -8.809
REMARK INTRA:                  -0.799
REMARK UNBOUND:                -1.410
REMARK SMILES CCCCCCCCCCCCCCCC(=O)[O-]
REMARK SMILES IDX 9 1 10 2 11 3 12 4 13 5 14 6 15 7 16 8 17 9 18 10 8 11 7 12
REMARK SMILES IDX 6 13 5 14 4 15 3 16 2 17 1 18
REMARK H PARENT
REMARK Flexibility Score: inf
ROOT
ATOM      1  C   UNL     1      20.070 117.563 296.123  1.00  0.00     0.000 C 
ENDROOT
BRANCH   1   2
ATOM      2  C   UNL     1      21.008 116.825 297.100  1.00  0.00     0.000 C 
BRANCH   2   3
ATOM      3  C   UNL     1      22.484 117.262 297.046  1.00  0.00     0.000 C 
BRANCH   3   4
ATOM      4  C   UNL     1      22.798 118.587 297.768  1.00  0.00     0.000 C 
BRANCH   4   5
ATOM      5  C   UNL     1      22.376 118.642 299.248  1.00  0.00     0.000 C 
BRANCH   5   6
ATOM      6  C   UNL     1      23.120 119.685 300.106  1.00  0.00     0.006 C 
BRANCH   6   7
ATOM      7  C   UNL     1      24.473 120.125 299.519  1.00  0.00     0.053 C 
BRANCH   7   8
ATOM      8  C   UNL     1      25.615 119.296 300.025  1.00  0.00     0.041 C 
ATOM      9  O   UNL     1      25.943 119.342 301.240  1.00  0.00    -0.550 OA
ATOM     10  O   UNL     1      26.295 118.444 299.162  1.00  0.00    -0.550 OA
ENDBRANCH   7   8
ENDBRANCH   6   7
ENDBRANCH   5   6
ENDBRANCH   4   5
ENDBRANCH   3   4
ENDBRANCH   2   3
ENDBRANCH   1   2
BRANCH   1  11
ATOM     11  C   UNL     1      18.614 117.715 296.599  1.00  0.00     0.000 C 
BRANCH  11  12
ATOM     12  C   UNL     1      17.642 116.782 295.858  1.00  0.00    -0.000 C 
BRANCH  12  13
ATOM     13  C   UNL     1      16.470 117.539 295.210  1.00  0.00    -0.000 C 
BRANCH  13  14
ATOM     14  C   UNL     1      16.767 118.038 293.779  1.00  0.00    -0.000 C 
BRANCH  14  15
ATOM     15  C   UNL     1      17.860 117.201 293.089  1.00  0.00    -0.000 C 
BRANCH  15  16
ATOM     16  C   UNL     1      17.278 115.985 292.337  1.00  0.00    -0.000 C 
BRANCH  16  17
ATOM     17  C   UNL     1      18.094 115.576 291.099  1.00  0.00    -0.003 C 
ATOM     18  C   UNL     1      17.303 114.712 290.121  1.00  0.00     0.004 C 
ENDBRANCH  16  17
ENDBRANCH  15  16
ENDBRANCH  14  15
ENDBRANCH  13  14
ENDBRANCH  12  13
ENDBRANCH  11  12
ENDBRANCH   1  11
TORSDOF 14
ENDMDL
MODEL 7
REMARK VINA RESULT:    -4.496      2.367      3.546
REMARK INTER + INTRA:          -9.585
REMARK INTER:                  -7.777
REMARK INTRA:                  -1.808
REMARK UNBOUND:                -1.410
REMARK SMILES CCCCCCCCCCCCCCCC(=O)[O-]
REMARK SMILES IDX 9 1 10 2 11 3 12 4 13 5 14 6 15 7 16 8 17 9 18 10 8 11 7 12
REMARK SMILES IDX 6 13 5 14 4 15 3 16 2 17 1 18
REMARK H PARENT
REMARK Flexibility Score: inf
ROOT
ATOM      1  C   UNL     1      20.968 117.493 297.762  1.00  0.00     0.000 C 
ENDROOT
BRANCH   1   2
ATOM      2  C   UNL     1      22.037 118.111 296.839  1.00  0.00     0.000 C 
BRANCH   2   3
ATOM      3  C   UNL     1      21.669 118.145 295.343  1.00  0.00     0.000 C 
BRANCH   3   4
ATOM      4  C   UNL     1      21.564 119.557 294.731  1.00  0.00     0.000 C 
BRANCH   4   5
ATOM      5  C   UNL     1      20.129 120.062 294.492  1.00  0.00     0.000 C 
BRANCH   5   6
ATOM      6  C   UNL     1      19.689 121.239 295.384  1.00  0.00     0.006 C 
BRANCH   6   7
ATOM      7  C   UNL     1      19.625 120.897 296.884  1.00  0.00     0.053 C 
BRANCH   7   8
ATOM      8  C   UNL     1      18.284 121.198 297.483  1.00  0.00     0.041 C 
ATOM      9  O   UNL     1      17.257 120.597 297.074  1.00  0.00    -0.550 OA
ATOM     10  O   UNL     1      18.174 122.118 298.519  1.00  0.00    -0.550 OA
ENDBRANCH   7   8
ENDBRANCH   6   7
ENDBRANCH   5   6
ENDBRANCH   4   5
ENDBRANCH   3   4
ENDBRANCH   2   3
ENDBRANCH   1   2
BRANCH   1  11
ATOM     11  C   UNL     1      19.935 116.592 297.060  1.00  0.00     0.000 C 
BRANCH  11  12
ATOM     12  C   UNL     1      18.588 117.295 296.825  1.00  0.00    -0.000 C 
BRANCH  12  13
ATOM     13  C   UNL     1      17.846 116.759 295.590  1.00  0.00    -0.000 C 
BRANCH  13  14
ATOM     14  C   UNL     1      17.251 117.867 294.693  1.00  0.00    -0.000 C 
BRANCH  14  15
ATOM     15  C   UNL     1      17.653 117.696 293.217  1.00  0.00    -0.000 C 
BRANCH  15  16
ATOM     16  C   UNL     1      17.353 116.277 292.690  1.00  0.00    -0.000 C 
BRANCH  16  17
ATOM     17  C   UNL     1      18.119 115.920 291.405  1.00  0.00    -0.003 C 
ATOM     18  C   UNL     1      17.480 114.773 290.627  1.00  0.00     0.004 C 
ENDBRANCH  16  17
ENDBRANCH  15  16
ENDBRANCH  14  15
ENDBRANCH  13  14
ENDBRANCH  12  13
ENDBRANCH  11  12
ENDBRANCH   1  11
TORSDOF 14
ENDMDL
MODEL 8
REMARK VINA RESULT:    -4.491      1.887      2.903
REMARK INTER + INTRA:          -9.576
REMARK INTER:                  -7.789
REMARK INTRA:                  -1.787
REMARK UNBOUND:                -1.410
REMARK SMILES CCCCCCCCCCCCCCCC(=O)[O-]
REMARK SMILES IDX 9 1 10 2 11 3 12 4 13 5 14 6 15 7 16 8 17 9 18 10 8 11 7 12
REMARK SMILES IDX 6 13 5 14 4 15 3 16 2 17 1 18
REMARK H PARENT
REMARK Flexibility Score: inf
ROOT
ATOM      1  C   UNL     1      17.042 120.722 294.691  1.00  0.00     0.000 C 
ENDROOT
BRANCH   1   2
ATOM      2  C   UNL     1      18.229 120.678 295.675  1.00  0.00     0.000 C 
BRANCH   2   3
ATOM      3  C   UNL     1      17.859 120.335 297.131  1.00  0.00     0.000 C 
BRANCH   3   4
ATOM      4  C   UNL     1      18.685 119.195 297.761  1.00  0.00     0.000 C 
BRANCH   4   5
ATOM      5  C   UNL     1      19.814 118.637 296.874  1.00  0.00     0.000 C 
BRANCH   5   6
ATOM      6  C   UNL     1      20.179 117.161 297.126  1.00  0.00     0.006 C 
BRANCH   6   7
ATOM      7  C   UNL     1      21.661 116.831 296.871  1.00  0.00     0.053 C 
BRANCH   7   8
ATOM      8  C   UNL     1      22.586 117.820 297.511  1.00  0.00     0.041 C 
ATOM      9  O   UNL     1      22.620 117.940 298.764  1.00  0.00    -0.550 OA
ATOM     10  O   UNL     1      23.439 118.587 296.726  1.00  0.00    -0.550 OA
ENDBRANCH   7   8
ENDBRANCH   6   7
ENDBRANCH   5   6
ENDBRANCH   4   5
ENDBRANCH   3   4
ENDBRANCH   2   3
ENDBRANCH   1   2
BRANCH   1  11
ATOM     11  C   UNL     1      15.738 120.086 295.206  1.00  0.00     0.000 C 
BRANCH  11  12
ATOM     12  C   UNL     1      15.490 118.682 294.632  1.00  0.00    -0.000 C 
BRANCH  12  13
ATOM     13  C   UNL     1      16.034 117.565 295.538  1.00  0.00    -0.000 C 
BRANCH  13  14
ATOM     14  C   UNL     1      17.261 116.831 294.952  1.00  0.00    -0.000 C 
BRANCH  14  15
ATOM     15  C   UNL     1      17.556 117.262 293.504  1.00  0.00    -0.000 C 
BRANCH  15  16
ATOM     16  C   UNL     1      17.300 116.125 292.492  1.00  0.00    -0.000 C 
BRANCH  16  17
ATOM     17  C   UNL     1      18.279 116.121 291.306  1.00  0.00    -0.003 C 
ATOM     18  C   UNL     1      17.954 115.052 290.266  1.00  0.00     0.004 C 
ENDBRANCH  16  17
ENDBRANCH  15  16
ENDBRANCH  14  15
ENDBRANCH  13  14
ENDBRANCH  12  13
ENDBRANCH  11  12
ENDBRANCH   1  11
TORSDOF 14
ENDMDL
MODEL 9
REMARK VINA RESULT:    -4.463      1.588      2.181
REMARK INTER + INTRA:          -9.525
REMARK INTER:                  -8.768
REMARK INTRA:                  -0.757
REMARK UNBOUND:                -1.410
REMARK SMILES CCCCCCCCCCCCCCCC(=O)[O-]
REMARK SMILES IDX 9 1 10 2 11 3 12 4 13 5 14 6 15 7 16 8 17 9 18 10 8 11 7 12
REMARK SMILES IDX 6 13 5 14 4 15 3 16 2 17 1 18
REMARK H PARENT
REMARK Flexibility Score: inf
ROOT
ATOM      1  C   UNL     1      19.829 118.516 296.616  1.00  0.00     0.000 C 
ENDROOT
BRANCH   1   2
ATOM      2  C   UNL     1      20.548 117.344 297.314  1.00  0.00     0.000 C 
BRANCH   2   3
ATOM      3  C   UNL     1      22.025 117.152 296.916  1.00  0.00     0.000 C 
BRANCH   3   4
ATOM      4  C   UNL     1      23.047 117.741 297.909  1.00  0.00     0.000 C 
BRANCH   4   5
ATOM      5  C   UNL     1      22.438 118.480 299.115  1.00  0.00     0.000 C 
BRANCH   5   6
ATOM      6  C   UNL     1      23.459 119.102 300.088  1.00  0.00     0.006 C 
BRANCH   6   7
ATOM      7  C   UNL     1      22.861 119.505 301.449  1.00  0.00     0.053 C 
BRANCH   7   8
ATOM      8  C   UNL     1      22.813 120.991 301.635  1.00  0.00     0.041 C 
ATOM      9  O   UNL     1      22.838 121.487 302.792  1.00  0.00    -0.550 OA
ATOM     10  O   UNL     1      22.774 121.832 300.529  1.00  0.00    -0.550 OA
ENDBRANCH   7   8
ENDBRANCH   6   7
ENDBRANCH   5   6
ENDBRANCH   4   5
ENDBRANCH   3   4
ENDBRANCH   2   3
ENDBRANCH   1   2
BRANCH   1  11
ATOM     11  C   UNL     1      18.295 118.400 296.551  1.00  0.00     0.000 C 
BRANCH  11  12
ATOM     12  C   UNL     1      17.817 116.972 296.240  1.00  0.00    -0.000 C 
BRANCH  12  13
ATOM     13  C   UNL     1      16.850 116.917 295.046  1.00  0.00    -0.000 C 
BRANCH  13  14
ATOM     14  C   UNL     1      17.244 117.854 293.882  1.00  0.00    -0.000 C 
BRANCH  14  15
ATOM     15  C   UNL     1      18.115 117.139 292.833  1.00  0.00    -0.000 C 
BRANCH  15  16
ATOM     16  C   UNL     1      17.349 116.015 292.105  1.00  0.00    -0.000 C 
BRANCH  16  17
ATOM     17  C   UNL     1      17.880 115.720 290.692  1.00  0.00    -0.003 C 
ATOM     18  C   UNL     1      17.294 114.446 290.087  1.00  0.00     0.004 C 
ENDBRANCH  16  17
ENDBRANCH  15  16
ENDBRANCH  14  15
ENDBRANCH  13  14
ENDBRANCH  12  13
ENDBRANCH  11  12
ENDBRANCH   1  11
TORSDOF 14
ENDMDL
