MODEL 1
REMARK VINA RESULT:    -5.704      0.000      0.000
REMARK INTER + INTRA:          -7.516
REMARK INTER:                  -7.372
REMARK INTRA:                  -0.144
REMARK UNBOUND:                -0.144
REMARK SMILES CCCCCCC(=O)[O-]
REMARK SMILES IDX 5 1 6 2 7 3 8 4 9 5 4 6 3 7 2 8 1 9
REMARK H PARENT
REMARK Flexibility Score: inf
ROOT
ATOM      1  C   UNL     1      -8.539  -4.760 -19.002  1.00  0.00     0.006 C 
ENDROOT
BRANCH   1   2
ATOM      2  C   UNL     1      -7.204  -4.264 -19.573  1.00  0.00     0.053 C 
BRANCH   2   3
ATOM      3  C   UNL     1      -7.390  -3.081 -20.473  1.00  0.00     0.041 C 
ATOM      4  O   UNL     1      -7.339  -3.220 -21.723  1.00  0.00    -0.550 OA
ATOM      5  O   UNL     1      -7.652  -1.830 -19.929  1.00  0.00    -0.550 OA
ENDBRANCH   2   3
ENDBRANCH   1   2
BRANCH   1   6
ATOM      6  C   UNL     1      -9.057  -6.009 -19.732  1.00  0.00     0.000 C 
BRANCH   6   7
ATOM      7  C   UNL     1      -7.981  -7.104 -19.777  1.00  0.00    -0.000 C 
BRANCH   7   8
ATOM      8  C   UNL     1      -8.557  -8.508 -19.538  1.00  0.00    -0.003 C 
ATOM      9  C   UNL     1      -7.970  -9.557 -20.482  1.00  0.00     0.004 C 
ENDBRANCH   7   8
ENDBRANCH   6   7
ENDBRANCH   1   6
TORSDOF 5
ENDMDL
MODEL 2
REMARK VINA RESULT:    -5.642      1.074      1.256
REMARK INTER + INTRA:          -7.436
REMARK INTER:                  -7.294
REMARK INTRA:                  -0.142
REMARK UNBOUND:                -0.144
REMARK SMILES CCCCCCC(=O)[O-]
REMARK SMILES IDX 5 1 6 2 7 3 8 4 9 5 4 6 3 7 2 8 1 9
REMARK H PARENT
REMARK Flexibility Score: inf
ROOT
ATOM      1  C   UNL     1      -8.085  -4.194 -19.476  1.00  0.00     0.006 C 
ENDROOT
BRANCH   1   2
ATOM      2  C   UNL     1      -7.076  -4.289 -20.628  1.00  0.00     0.053 C 
BRANCH   2   3
ATOM      3  C   UNL     1      -6.634  -2.935 -21.092  1.00  0.00     0.041 C 
ATOM      4  O   UNL     1      -7.471  -2.003 -21.219  1.00  0.00    -0.550 OA
ATOM      5  O   UNL     1      -5.291  -2.695 -21.353  1.00  0.00    -0.550 OA
ENDBRANCH   2   3
ENDBRANCH   1   2
BRANCH   1   6
ATOM      6  C   UNL     1      -8.685  -5.561 -19.113  1.00  0.00     0.000 C 
BRANCH   6   7
ATOM      7  C   UNL     1      -7.915  -6.698 -19.799  1.00  0.00    -0.000 C 
BRANCH   7   8
ATOM      8  C   UNL     1      -8.477  -8.085 -19.452  1.00  0.00    -0.003 C 
ATOM      9  C   UNL     1      -8.043  -9.164 -20.444  1.00  0.00     0.004 C 
ENDBRANCH   7   8
ENDBRANCH   6   7
ENDBRANCH   1   6
TORSDOF 5
ENDMDL
MODEL 3
REMARK VINA RESULT:    -5.616      0.783      1.249
REMARK INTER + INTRA:          -7.402
REMARK INTER:                  -7.101
REMARK INTRA:                  -0.302
REMARK UNBOUND:                -0.144
REMARK SMILES CCCCCCC(=O)[O-]
REMARK SMILES IDX 5 1 6 2 7 3 8 4 9 5 4 6 3 7 2 8 1 9
REMARK H PARENT
REMARK Flexibility Score: inf
ROOT
ATOM      1  C   UNL     1      -7.331  -4.700 -18.781  1.00  0.00     0.006 C 
ENDROOT
BRANCH   1   2
ATOM      2  C   UNL     1      -6.783  -3.313 -19.145  1.00  0.00     0.053 C 
BRANCH   2   3
ATOM      3  C   UNL     1      -6.915  -3.032 -20.610  1.00  0.00     0.041 C 
ATOM      4  O   UNL     1      -6.493  -3.863 -21.456  1.00  0.00    -0.550 OA
ATOM      5  O   UNL     1      -7.533  -1.865 -21.041  1.00  0.00    -0.550 OA
ENDBRANCH   2   3
ENDBRANCH   1   2
BRANCH   1   6
ATOM      6  C   UNL     1      -8.844  -4.810 -19.021  1.00  0.00     0.000 C 
BRANCH   6   7
ATOM      7  C   UNL     1      -9.191  -6.123 -19.739  1.00  0.00    -0.000 C 
BRANCH   7   8
ATOM      8  C   UNL     1      -8.007  -7.101 -19.785  1.00  0.00    -0.003 C 
ATOM      9  C   UNL     1      -8.444  -8.564 -19.705  1.00  0.00     0.004 C 
ENDBRANCH   7   8
ENDBRANCH   6   7
ENDBRANCH   1   6
TORSDOF 5
ENDMDL
MODEL 4
REMARK VINA RESULT:    -5.466      1.545      2.010
REMARK INTER + INTRA:          -7.209
REMARK INTER:                  -7.020
REMARK INTRA:                  -0.189
REMARK UNBOUND:                -0.144
REMARK SMILES CCCCCCC(=O)[O-]
REMARK SMILES IDX 5 1 6 2 7 3 8 4 9 5 4 6 3 7 2 8 1 9
REMARK H PARENT
REMARK Flexibility Score: inf
ROOT
ATOM      1  C   UNL     1      -7.723  -3.268 -19.580  1.00  0.00     0.006 C 
ENDROOT
BRANCH   1   2
ATOM      2  C   UNL     1      -6.910  -3.153 -20.876  1.00  0.00     0.053 C 
BRANCH   2   3
ATOM      3  C   UNL     1      -5.581  -2.503 -20.641  1.00  0.00     0.041 C 
ATOM      4  O   UNL     1      -4.674  -2.582 -21.510  1.00  0.00    -0.550 OA
ATOM      5  O   UNL     1      -5.357  -1.781 -19.476  1.00  0.00    -0.550 OA
ENDBRANCH   2   3
ENDBRANCH   1   2
BRANCH   1   6
ATOM      6  C   UNL     1      -7.495  -4.609 -18.866  1.00  0.00     0.000 C 
BRANCH   6   7
ATOM      7  C   UNL     1      -7.472  -5.769 -19.871  1.00  0.00    -0.000 C 
BRANCH   7   8
ATOM      8  C   UNL     1      -8.723  -6.655 -19.778  1.00  0.00    -0.003 C 
ATOM      9  C   UNL     1      -8.390  -8.146 -19.722  1.00  0.00     0.004 C 
ENDBRANCH   7   8
ENDBRANCH   6   7
ENDBRANCH   1   6
TORSDOF 5
ENDMDL
MODEL 5
REMARK VINA RESULT:    -5.330      2.626      5.250
REMARK INTER + INTRA:          -7.033
REMARK INTER:                  -6.851
REMARK INTRA:                  -0.182
REMARK UNBOUND:                -0.144
REMARK SMILES CCCCCCC(=O)[O-]
REMARK SMILES IDX 5 1 6 2 7 3 8 4 9 5 4 6 3 7 2 8 1 9
REMARK H PARENT
REMARK Flexibility Score: inf
ROOT
ATOM      1  C   UNL     1      -7.109  -4.374 -19.924  1.00  0.00     0.006 C 
ENDROOT
BRANCH   1   2
ATOM      2  C   UNL     1      -7.004  -5.895 -20.092  1.00  0.00     0.053 C 
BRANCH   2   3
ATOM      3  C   UNL     1      -8.260  -6.589 -19.663  1.00  0.00     0.041 C 
ATOM      4  O   UNL     1      -9.356  -5.970 -19.653  1.00  0.00    -0.550 OA
ATOM      5  O   UNL     1      -8.224  -7.931 -19.305  1.00  0.00    -0.550 OA
ENDBRANCH   2   3
ENDBRANCH   1   2
BRANCH   1   6
ATOM      6  C   UNL     1      -7.185  -3.642 -21.273  1.00  0.00     0.000 C 
BRANCH   6   7
ATOM      7  C   UNL     1      -7.213  -2.121 -21.070  1.00  0.00    -0.000 C 
BRANCH   7   8
ATOM      8  C   UNL     1      -7.486  -1.724 -19.611  1.00  0.00    -0.003 C 
ATOM      9  C   UNL     1      -7.493  -0.210 -19.401  1.00  0.00     0.004 C 
ENDBRANCH   7   8
ENDBRANCH   6   7
ENDBRANCH   1   6
TORSDOF 5
ENDMDL
MODEL 6
REMARK VINA RESULT:    -5.204      3.405      5.229
REMARK INTER + INTRA:          -6.870
REMARK INTER:                  -6.712
REMARK INTRA:                  -0.158
REMARK UNBOUND:                -0.144
REMARK SMILES CCCCCCC(=O)[O-]
REMARK SMILES IDX 5 1 6 2 7 3 8 4 9 5 4 6 3 7 2 8 1 9
REMARK H PARENT
REMARK Flexibility Score: inf
ROOT
ATOM      1  C   UNL     1      -8.283  -6.504 -18.985  1.00  0.00     0.006 C 
ENDROOT
BRANCH   1   2
ATOM      2  C   UNL     1      -8.320  -7.353 -20.262  1.00  0.00     0.053 C 
BRANCH   2   3
ATOM      3  C   UNL     1      -8.276  -8.818 -19.957  1.00  0.00     0.041 C 
ATOM      4  O   UNL     1      -8.674  -9.246 -18.842  1.00  0.00    -0.550 OA
ATOM      5  O   UNL     1      -7.826  -9.715 -20.918  1.00  0.00    -0.550 OA
ENDBRANCH   2   3
ENDBRANCH   1   2
BRANCH   1   6
ATOM      6  C   UNL     1      -8.654  -5.037 -19.249  1.00  0.00     0.000 C 
BRANCH   6   7
ATOM      7  C   UNL     1      -7.448  -4.116 -19.018  1.00  0.00    -0.000 C 
BRANCH   7   8
ATOM      8  C   UNL     1      -7.523  -2.826 -19.849  1.00  0.00    -0.003 C 
ATOM      9  C   UNL     1      -7.201  -3.053 -21.326  1.00  0.00     0.004 C 
ENDBRANCH   7   8
ENDBRANCH   6   7
ENDBRANCH   1   6
TORSDOF 5
ENDMDL
MODEL 7
REMARK VINA RESULT:    -5.068      2.335      3.599
REMARK INTER + INTRA:          -6.694
REMARK INTER:                  -6.380
REMARK INTRA:                  -0.314
REMARK UNBOUND:                -0.144
REMARK SMILES CCCCCCC(=O)[O-]
REMARK SMILES IDX 5 1 6 2 7 3 8 4 9 5 4 6 3 7 2 8 1 9
REMARK H PARENT
REMARK Flexibility Score: inf
ROOT
ATOM      1  C   UNL     1      -5.826  -3.241 -21.350  1.00  0.00     0.006 C 
ENDROOT
BRANCH   1   2
ATOM      2  C   UNL     1      -4.626  -2.338 -21.031  1.00  0.00     0.053 C 
BRANCH   2   3
ATOM      3  C   UNL     1      -4.544  -2.022 -19.569  1.00  0.00     0.041 C 
ATOM      4  O   UNL     1      -4.249  -2.922 -18.740  1.00  0.00    -0.550 OA
ATOM      5  O   UNL     1      -4.761  -0.723 -19.127  1.00  0.00    -0.550 OA
ENDBRANCH   2   3
ENDBRANCH   1   2
BRANCH   1   6
ATOM      6  C   UNL     1      -7.124  -2.734 -20.704  1.00  0.00     0.000 C 
BRANCH   6   7
ATOM      7  C   UNL     1      -7.791  -3.840 -19.873  1.00  0.00    -0.000 C 
BRANCH   7   8
ATOM      8  C   UNL     1      -7.072  -5.191 -20.004  1.00  0.00    -0.003 C 
ATOM      9  C   UNL     1      -7.999  -6.381 -19.754  1.00  0.00     0.004 C 
ENDBRANCH   7   8
ENDBRANCH   6   7
ENDBRANCH   1   6
TORSDOF 5
ENDMDL
MODEL 8
REMARK VINA RESULT:    -5.027      2.741      5.055
REMARK INTER + INTRA:          -6.640
REMARK INTER:                  -6.415
REMARK INTRA:                  -0.225
REMARK UNBOUND:                -0.144
REMARK SMILES CCCCCCC(=O)[O-]
REMARK SMILES IDX 5 1 6 2 7 3 8 4 9 5 4 6 3 7 2 8 1 9
REMARK H PARENT
REMARK Flexibility Score: inf
ROOT
ATOM      1  C   UNL     1      -7.438  -3.807 -20.382  1.00  0.00     0.006 C 
ENDROOT
BRANCH   1   2
ATOM      2  C   UNL     1      -7.015  -5.250 -20.077  1.00  0.00     0.053 C 
BRANCH   2   3
ATOM      3  C   UNL     1      -8.178  -6.089 -19.643  1.00  0.00     0.041 C 
ATOM      4  O   UNL     1      -9.258  -5.545 -19.294  1.00  0.00    -0.550 OA
ATOM      5  O   UNL     1      -8.077  -7.475 -19.655  1.00  0.00    -0.550 OA
ENDBRANCH   2   3
ENDBRANCH   1   2
BRANCH   1   6
ATOM      6  C   UNL     1      -6.685  -3.221 -21.585  1.00  0.00     0.000 C 
BRANCH   6   7
ATOM      7  C   UNL     1      -5.264  -2.796 -21.189  1.00  0.00    -0.000 C 
BRANCH   7   8
ATOM      8  C   UNL     1      -5.226  -2.034 -19.855  1.00  0.00    -0.003 C 
ATOM      9  C   UNL     1      -4.000  -2.382 -19.009  1.00  0.00     0.004 C 
ENDBRANCH   7   8
ENDBRANCH   6   7
ENDBRANCH   1   6
TORSDOF 5
ENDMDL
MODEL 9
REMARK VINA RESULT:    -4.899      3.268      5.989
REMARK INTER + INTRA:          -6.476
REMARK INTER:                  -6.311
REMARK INTRA:                  -0.165
REMARK UNBOUND:                -0.144
REMARK SMILES CCCCCCC(=O)[O-]
REMARK SMILES IDX 5 1 6 2 7 3 8 4 9 5 4 6 3 7 2 8 1 9
REMARK H PARENT
REMARK Flexibility Score: inf
ROOT
ATOM      1  C   UNL     1      -7.081  -1.391 -19.790  1.00  0.00     0.006 C 
ENDROOT
BRANCH   1   2
ATOM      2  C   UNL     1      -7.594  -2.818 -19.556  1.00  0.00     0.053 C 
BRANCH   2   3
ATOM      3  C   UNL     1      -7.186  -3.743 -20.662  1.00  0.00     0.041 C 
ATOM      4  O   UNL     1      -6.924  -4.949 -20.416  1.00  0.00    -0.550 OA
ATOM      5  O   UNL     1      -7.128  -3.278 -21.970  1.00  0.00    -0.550 OA
ENDBRANCH   2   3
ENDBRANCH   1   2
BRANCH   1   6
ATOM      6  C   UNL     1      -5.949  -1.013 -18.824  1.00  0.00     0.000 C 
BRANCH   6   7
ATOM      7  C   UNL     1      -4.581  -1.401 -19.403  1.00  0.00    -0.000 C 
BRANCH   7   8
ATOM      8  C   UNL     1      -3.411  -0.872 -18.559  1.00  0.00    -0.003 C 
ATOM      9  C   UNL     1      -3.416   0.651 -18.429  1.00  0.00     0.004 C 
ENDBRANCH   7   8
ENDBRANCH   6   7
ENDBRANCH   1   6
TORSDOF 5
ENDMDL
