MODEL 1
REMARK VINA RESULT:    -3.800      0.000      0.000
REMARK INTER + INTRA:          -5.478
REMARK INTER:                  -5.133
REMARK INTRA:                  -0.345
REMARK UNBOUND:                -0.345
REMARK SMILES CCCCCCCC(=O)[O-]
REMARK SMILES IDX 5 1 6 2 7 3 8 4 9 5 10 6 4 7 3 8 2 9 1 10
REMARK H PARENT
REMARK Flexibility Score: inf
ROOT
ATOM      1  C   UNL     1      -7.605  -8.224  -0.341  1.00  0.00     0.000 C 
ENDROOT
BRANCH   1   2
ATOM      2  C   UNL     1      -9.053  -8.610   0.008  1.00  0.00     0.006 C 
BRANCH   2   3
ATOM      3  C   UNL     1      -9.602  -7.795   1.185  1.00  0.00     0.053 C 
BRANCH   3   4
ATOM      4  C   UNL     1     -10.477  -6.669   0.725  1.00  0.00     0.041 C 
ATOM      5  O   UNL     1     -11.337  -6.863  -0.174  1.00  0.00    -0.550 OA
ATOM      6  O   UNL     1     -10.323  -5.399   1.268  1.00  0.00    -0.550 OA
ENDBRANCH   3   4
ENDBRANCH   2   3
ENDBRANCH   1   2
BRANCH   1   7
ATOM      7  C   UNL     1      -6.574  -9.197   0.255  1.00  0.00     0.000 C 
BRANCH   7   8
ATOM      8  C   UNL     1      -6.717 -10.624  -0.302  1.00  0.00    -0.000 C 
BRANCH   8   9
ATOM      9  C   UNL     1      -6.349 -11.698   0.734  1.00  0.00    -0.003 C 
ATOM     10  C   UNL     1      -6.752 -11.308   2.156  1.00  0.00     0.004 C 
ENDBRANCH   8   9
ENDBRANCH   7   8
ENDBRANCH   1   7
TORSDOF 6
ENDMDL
MODEL 2
REMARK VINA RESULT:    -3.768      3.809      5.834
REMARK INTER + INTRA:          -5.435
REMARK INTER:                  -5.296
REMARK INTRA:                  -0.140
REMARK UNBOUND:                -0.345
REMARK SMILES CCCCCCCC(=O)[O-]
REMARK SMILES IDX 5 1 6 2 7 3 8 4 9 5 10 6 4 7 3 8 2 9 1 10
REMARK H PARENT
REMARK Flexibility Score: inf
ROOT
ATOM      1  C   UNL     1      -7.362  -9.844   0.442  1.00  0.00     0.000 C 
ENDROOT
BRANCH   1   2
ATOM      2  C   UNL     1      -6.433 -10.644  -0.489  1.00  0.00     0.006 C 
BRANCH   2   3
ATOM      3  C   UNL     1      -5.412 -11.480   0.291  1.00  0.00     0.053 C 
BRANCH   3   4
ATOM      4  C   UNL     1      -6.036 -12.698   0.901  1.00  0.00     0.041 C 
ATOM      5  O   UNL     1      -6.340 -13.682   0.177  1.00  0.00    -0.550 OA
ATOM      6  O   UNL     1      -6.310 -12.735   2.262  1.00  0.00    -0.550 OA
ENDBRANCH   3   4
ENDBRANCH   2   3
ENDBRANCH   1   2
BRANCH   1   7
ATOM      7  C   UNL     1      -8.001  -8.633  -0.258  1.00  0.00     0.000 C 
BRANCH   7   8
ATOM      8  C   UNL     1      -9.504  -8.501   0.043  1.00  0.00    -0.000 C 
BRANCH   8   9
ATOM      9  C   UNL     1      -9.884  -7.092   0.526  1.00  0.00    -0.003 C 
ATOM     10  C   UNL     1     -11.268  -6.658   0.043  1.00  0.00     0.004 C 
ENDBRANCH   8   9
ENDBRANCH   7   8
ENDBRANCH   1   7
TORSDOF 6
ENDMDL
MODEL 3
REMARK VINA RESULT:    -3.761      1.228      1.728
REMARK INTER + INTRA:          -5.425
REMARK INTER:                  -5.264
REMARK INTRA:                  -0.161
REMARK UNBOUND:                -0.345
REMARK SMILES CCCCCCCC(=O)[O-]
REMARK SMILES IDX 5 1 6 2 7 3 8 4 9 5 10 6 4 7 3 8 2 9 1 10
REMARK H PARENT
REMARK Flexibility Score: inf
ROOT
ATOM      1  C   UNL     1      -7.203  -9.847   0.412  1.00  0.00     0.000 C 
ENDROOT
BRANCH   1   2
ATOM      2  C   UNL     1      -7.933  -8.674  -0.264  1.00  0.00     0.006 C 
BRANCH   2   3
ATOM      3  C   UNL     1      -9.439  -8.681   0.030  1.00  0.00     0.053 C 
BRANCH   3   4
ATOM      4  C   UNL     1      -9.959  -7.306   0.318  1.00  0.00     0.041 C 
ATOM      5  O   UNL     1     -11.108  -6.970  -0.072  1.00  0.00    -0.550 OA
ATOM      6  O   UNL     1      -9.164  -6.386   0.990  1.00  0.00    -0.550 OA
ENDBRANCH   3   4
ENDBRANCH   2   3
ENDBRANCH   1   2
BRANCH   1   7
ATOM      7  C   UNL     1      -6.371 -10.676  -0.580  1.00  0.00     0.000 C 
BRANCH   7   8
ATOM      8  C   UNL     1      -5.199 -11.408   0.098  1.00  0.00    -0.000 C 
BRANCH   8   9
ATOM      9  C   UNL     1      -5.107 -12.884  -0.322  1.00  0.00    -0.003 C 
ATOM     10  C   UNL     1      -6.198 -13.746   0.312  1.00  0.00     0.004 C 
ENDBRANCH   8   9
ENDBRANCH   7   8
ENDBRANCH   1   7
TORSDOF 6
ENDMDL
MODEL 4
REMARK VINA RESULT:    -3.702     18.102     18.757
REMARK INTER + INTRA:          -5.346
REMARK INTER:                  -4.984
REMARK INTRA:                  -0.362
REMARK UNBOUND:                -0.345
REMARK SMILES CCCCCCCC(=O)[O-]
REMARK SMILES IDX 5 1 6 2 7 3 8 4 9 5 10 6 4 7 3 8 2 9 1 10
REMARK H PARENT
REMARK Flexibility Score: inf
ROOT
ATOM      1  C   UNL     1     -20.314  -5.699 -12.740  1.00  0.00     0.000 C 
ENDROOT
BRANCH   1   2
ATOM      2  C   UNL     1     -19.780  -4.314 -13.147  1.00  0.00     0.006 C 
BRANCH   2   3
ATOM      3  C   UNL     1     -20.910  -3.305 -13.387  1.00  0.00     0.053 C 
BRANCH   3   4
ATOM      4  C   UNL     1     -21.536  -2.852 -12.103  1.00  0.00     0.041 C 
ATOM      5  O   UNL     1     -22.658  -3.304 -11.753  1.00  0.00    -0.550 OA
ATOM      6  O   UNL     1     -20.895  -1.910 -11.309  1.00  0.00    -0.550 OA
ENDBRANCH   3   4
ENDBRANCH   2   3
ENDBRANCH   1   2
BRANCH   1   7
ATOM      7  C   UNL     1     -21.399  -6.219 -13.697  1.00  0.00     0.000 C 
BRANCH   7   8
ATOM      8  C   UNL     1     -20.898  -7.369 -14.588  1.00  0.00    -0.000 C 
BRANCH   8   9
ATOM      9  C   UNL     1     -19.768  -8.175 -13.927  1.00  0.00    -0.003 C 
ATOM     10  C   UNL     1     -20.264  -9.475 -13.293  1.00  0.00     0.004 C 
ENDBRANCH   8   9
ENDBRANCH   7   8
ENDBRANCH   1   7
TORSDOF 6
ENDMDL
MODEL 5
REMARK VINA RESULT:    -3.596     18.314     19.136
REMARK INTER + INTRA:          -5.203
REMARK INTER:                  -4.727
REMARK INTRA:                  -0.476
REMARK UNBOUND:                -0.345
REMARK SMILES CCCCCCCC(=O)[O-]
REMARK SMILES IDX 5 1 6 2 7 3 8 4 9 5 10 6 4 7 3 8 2 9 1 10
REMARK H PARENT
REMARK Flexibility Score: inf
ROOT
ATOM      1  C   UNL     1     -19.449  -5.866 -15.061  1.00  0.00     0.000 C 
ENDROOT
BRANCH   1   2
ATOM      2  C   UNL     1     -19.643  -4.448 -14.494  1.00  0.00     0.006 C 
BRANCH   2   3
ATOM      3  C   UNL     1     -19.889  -4.459 -12.980  1.00  0.00     0.053 C 
BRANCH   3   4
ATOM      4  C   UNL     1     -21.285  -4.039 -12.638  1.00  0.00     0.041 C 
ATOM      5  O   UNL     1     -22.263  -4.750 -12.989  1.00  0.00    -0.550 OA
ATOM      6  O   UNL     1     -21.509  -2.848 -11.958  1.00  0.00    -0.550 OA
ENDBRANCH   3   4
ENDBRANCH   2   3
ENDBRANCH   1   2
BRANCH   1   7
ATOM      7  C   UNL     1     -20.738  -6.438 -15.674  1.00  0.00     0.000 C 
BRANCH   7   8
ATOM      8  C   UNL     1     -21.326  -7.592 -14.844  1.00  0.00    -0.000 C 
BRANCH   8   9
ATOM      9  C   UNL     1     -20.458  -7.939 -13.623  1.00  0.00    -0.003 C 
ATOM     10  C   UNL     1     -20.265  -9.444 -13.446  1.00  0.00     0.004 C 
ENDBRANCH   8   9
ENDBRANCH   7   8
ENDBRANCH   1   7
TORSDOF 6
ENDMDL
MODEL 6
REMARK VINA RESULT:    -3.584     18.565     19.368
REMARK INTER + INTRA:          -5.187
REMARK INTER:                  -4.804
REMARK INTRA:                  -0.383
REMARK UNBOUND:                -0.345
REMARK SMILES CCCCCCCC(=O)[O-]
REMARK SMILES IDX 5 1 6 2 7 3 8 4 9 5 10 6 4 7 3 8 2 9 1 10
REMARK H PARENT
REMARK Flexibility Score: inf
ROOT
ATOM      1  C   UNL     1     -20.515  -5.718 -12.811  1.00  0.00     0.000 C 
ENDROOT
BRANCH   1   2
ATOM      2  C   UNL     1     -19.884  -4.333 -13.037  1.00  0.00     0.006 C 
BRANCH   2   3
ATOM      3  C   UNL     1     -19.448  -4.126 -14.494  1.00  0.00     0.053 C 
BRANCH   3   4
ATOM      4  C   UNL     1     -19.992  -2.852 -15.063  1.00  0.00     0.041 C 
ATOM      5  O   UNL     1     -20.655  -2.066 -14.337  1.00  0.00    -0.550 OA
ATOM      6  O   UNL     1     -19.793  -2.546 -16.404  1.00  0.00    -0.550 OA
ENDBRANCH   3   4
ENDBRANCH   2   3
ENDBRANCH   1   2
BRANCH   1   7
ATOM      7  C   UNL     1     -21.457  -6.132 -13.954  1.00  0.00     0.000 C 
BRANCH   7   8
ATOM      8  C   UNL     1     -21.036  -7.456 -14.617  1.00  0.00    -0.000 C 
BRANCH   8   9
ATOM      9  C   UNL     1     -19.873  -8.138 -13.879  1.00  0.00    -0.003 C 
ATOM     10  C   UNL     1     -20.269  -9.481 -13.267  1.00  0.00     0.004 C 
ENDBRANCH   8   9
ENDBRANCH   7   8
ENDBRANCH   1   7
TORSDOF 6
ENDMDL
MODEL 7
REMARK VINA RESULT:    -3.533      3.320      5.274
REMARK INTER + INTRA:          -5.117
REMARK INTER:                  -4.791
REMARK INTRA:                  -0.327
REMARK UNBOUND:                -0.345
REMARK SMILES CCCCCCCC(=O)[O-]
REMARK SMILES IDX 5 1 6 2 7 3 8 4 9 5 10 6 4 7 3 8 2 9 1 10
REMARK H PARENT
REMARK Flexibility Score: inf
ROOT
ATOM      1  C   UNL     1      -7.209  -7.146   0.045  1.00  0.00     0.000 C 
ENDROOT
BRANCH   1   2
ATOM      2  C   UNL     1      -6.508  -8.449   0.466  1.00  0.00     0.006 C 
BRANCH   2   3
ATOM      3  C   UNL     1      -6.811  -9.606  -0.494  1.00  0.00     0.053 C 
BRANCH   3   4
ATOM      4  C   UNL     1      -6.352 -10.922   0.054  1.00  0.00     0.041 C 
ATOM      5  O   UNL     1      -6.785 -11.331   1.164  1.00  0.00    -0.550 OA
ATOM      6  O   UNL     1      -5.424 -11.684  -0.645  1.00  0.00    -0.550 OA
ENDBRANCH   3   4
ENDBRANCH   2   3
ENDBRANCH   1   2
BRANCH   1   7
ATOM      7  C   UNL     1      -8.128  -6.588   1.144  1.00  0.00     0.000 C 
BRANCH   7   8
ATOM      8  C   UNL     1      -9.350  -7.487   1.405  1.00  0.00    -0.000 C 
BRANCH   8   9
ATOM      9  C   UNL     1     -10.277  -7.585   0.183  1.00  0.00    -0.003 C 
ATOM     10  C   UNL     1     -11.257  -6.416   0.090  1.00  0.00     0.004 C 
ENDBRANCH   8   9
ENDBRANCH   7   8
ENDBRANCH   1   7
TORSDOF 6
ENDMDL
MODEL 8
REMARK VINA RESULT:    -3.475     18.878     19.928
REMARK INTER + INTRA:          -5.039
REMARK INTER:                  -4.587
REMARK INTRA:                  -0.453
REMARK UNBOUND:                -0.345
REMARK SMILES CCCCCCCC(=O)[O-]
REMARK SMILES IDX 5 1 6 2 7 3 8 4 9 5 10 6 4 7 3 8 2 9 1 10
REMARK H PARENT
REMARK Flexibility Score: inf
ROOT
ATOM      1  C   UNL     1     -21.101  -4.344 -12.995  1.00  0.00     0.000 C 
ENDROOT
BRANCH   1   2
ATOM      2  C   UNL     1     -22.550  -4.845 -12.860  1.00  0.00     0.006 C 
BRANCH   2   3
ATOM      3  C   UNL     1     -23.406  -4.475 -14.078  1.00  0.00     0.053 C 
BRANCH   3   4
ATOM      4  C   UNL     1     -22.872  -5.077 -15.341  1.00  0.00     0.041 C 
ATOM      5  O   UNL     1     -22.460  -4.335 -16.270  1.00  0.00    -0.550 OA
ATOM      6  O   UNL     1     -22.856  -6.457 -15.503  1.00  0.00    -0.550 OA
ENDBRANCH   3   4
ENDBRANCH   2   3
ENDBRANCH   1   2
BRANCH   1   7
ATOM      7  C   UNL     1     -20.070  -5.477 -12.862  1.00  0.00     0.000 C 
BRANCH   7   8
ATOM      8  C   UNL     1     -20.728  -6.862 -12.726  1.00  0.00    -0.000 C 
BRANCH   8   9
ATOM      9  C   UNL     1     -20.162  -7.881 -13.729  1.00  0.00    -0.003 C 
ATOM     10  C   UNL     1     -20.361  -9.327 -13.275  1.00  0.00     0.004 C 
ENDBRANCH   8   9
ENDBRANCH   7   8
ENDBRANCH   1   7
TORSDOF 6
ENDMDL
MODEL 9
REMARK VINA RESULT:    -3.443      2.591      3.309
REMARK INTER + INTRA:          -4.996
REMARK INTER:                  -4.557
REMARK INTRA:                  -0.439
REMARK UNBOUND:                -0.345
REMARK SMILES CCCCCCCC(=O)[O-]
REMARK SMILES IDX 5 1 6 2 7 3 8 4 9 5 10 6 4 7 3 8 2 9 1 10
REMARK H PARENT
REMARK Flexibility Score: inf
ROOT
ATOM      1  C   UNL     1     -10.546  -7.308   0.113  1.00  0.00     0.000 C 
ENDROOT
BRANCH   1   2
ATOM      2  C   UNL     1     -10.712  -5.883   0.670  1.00  0.00     0.006 C 
BRANCH   2   3
ATOM      3  C   UNL     1     -10.266  -5.779   2.135  1.00  0.00     0.053 C 
BRANCH   3   4
ATOM      4  C   UNL     1      -9.348  -4.617   2.358  1.00  0.00     0.041 C 
ATOM      5  O   UNL     1      -8.122  -4.719   2.091  1.00  0.00    -0.550 OA
ATOM      6  O   UNL     1      -9.840  -3.431   2.889  1.00  0.00    -0.550 OA
ENDBRANCH   3   4
ENDBRANCH   2   3
ENDBRANCH   1   2
BRANCH   1   7
ATOM      7  C   UNL     1      -9.409  -8.083   0.798  1.00  0.00     0.000 C 
BRANCH   7   8
ATOM      8  C   UNL     1      -8.374  -8.623  -0.204  1.00  0.00    -0.000 C 
BRANCH   8   9
ATOM      9  C   UNL     1      -7.112  -7.748  -0.274  1.00  0.00    -0.003 C 
ATOM     10  C   UNL     1      -6.452  -7.556   1.091  1.00  0.00     0.004 C 
ENDBRANCH   8   9
ENDBRANCH   7   8
ENDBRANCH   1   7
TORSDOF 6
ENDMDL
