MODEL 1
REMARK VINA RESULT:    -2.964      0.000      0.000
REMARK INTER + INTRA:          -3.058
REMARK INTER:                  -3.224
REMARK INTRA:                   0.166
REMARK UNBOUND:                 0.166
REMARK SMILES C[C@H]1[C@H]2C3=CC[C@@H]4[C@]5(C)CC[C@@H](O)C(C)(C)[C@H]5CC[C@]4(C)[C@@]3(C)CC[C@@]2(C(=O)[O-])CC[C@@H]1C
REMARK SMILES IDX 26 1 30 2 25 3 3 4 31 5 24 6 4 7 2 8 32 9 22 10 5 11 1 12
REMARK SMILES IDX 33 13 23 14 20 15 6 16 7 17 19 18 21 19 8 20 18 21 17 22
REMARK SMILES IDX 10 23 9 24 14 25 11 26 12 27 15 28 16 29 27 30 28 31 29 32
REMARK SMILES IDX 13 33
REMARK H PARENT 13 34
REMARK Flexibility Score: inf
ROOT
ATOM      1  C   UNL     1      25.133  22.541  24.595  1.00  0.00     0.017 C 
ATOM      2  C   UNL     1      24.322  22.831  25.884  1.00  0.00     0.014 C 
ATOM      3  C   UNL     1      24.412  21.387  23.812  1.00  0.00     0.014 C 
ATOM      4  C   UNL     1      26.599  22.107  24.976  1.00  0.00     0.030 C 
ATOM      5  C   UNL     1      24.990  23.896  26.758  1.00  0.00     0.004 C 
ATOM      6  C   UNL     1      25.393  20.570  22.945  1.00  0.00     0.013 C 
ATOM      7  C   UNL     1      26.647  20.572  25.104  1.00  0.00    -0.063 C 
ATOM      8  C   UNL     1      27.283  22.987  26.086  1.00  0.00    -0.003 C 
ATOM      9  C   UNL     1      26.361  23.422  27.267  1.00  0.00    -0.011 C 
ATOM     10  C   UNL     1      26.517  19.787  23.777  1.00  0.00    -0.006 C 
ATOM     11  C   UNL     1      26.284  20.031  26.275  1.00  0.00    -0.027 C 
ATOM     12  C   UNL     1      28.603  22.362  26.572  1.00  0.00     0.008 C 
ATOM     13  C   UNL     1      27.001  24.547  28.100  1.00  0.00     0.008 C 
ATOM     14  C   UNL     1      27.865  19.974  23.002  1.00  0.00     0.017 C 
ATOM     15  C   UNL     1      26.228  18.185  23.963  1.00  0.00    -0.020 C 
ATOM     16  C   UNL     1      25.897  18.617  26.479  1.00  0.00     0.032 C 
ATOM     17  C   UNL     1      25.314  17.898  25.229  1.00  0.00     0.006 C 
ATOM     18  C   UNL     1      27.550  17.363  24.172  1.00  0.00     0.008 C 
ATOM     19  C   UNL     1      25.584  17.663  22.634  1.00  0.00     0.012 C 
ATOM     20  C   UNL     1      25.044  16.339  25.547  1.00  0.00    -0.025 C 
ATOM     21  C   UNL     1      27.351  15.853  24.446  1.00  0.00     0.005 C 
ATOM     22  C   UNL     1      26.422  15.571  25.649  1.00  0.00     0.003 C 
ATOM     23  C   UNL     1      24.320  16.156  26.929  1.00  0.00     0.010 C 
ATOM     24  C   UNL     1      24.085  15.763  24.455  1.00  0.00     0.012 C 
ATOM     25  C   UNL     1      26.332  14.048  26.092  1.00  0.00    -0.006 C 
ATOM     26  C   UNL     1      24.158  14.690  27.372  1.00  0.00     0.033 C 
ATOM     27  C   UNL     1      25.517  13.963  27.428  1.00  0.00     0.120 C 
ATOM     28  C   UNL     1      27.760  13.509  26.392  1.00  0.00     0.014 C 
ATOM     29  C   UNL     1      25.725  13.117  25.008  1.00  0.00     0.014 C 
ENDROOT
BRANCH   1  30
ATOM     30  C   UNL     1      25.132  23.788  23.710  1.00  0.00     0.048 C 
ATOM     31  O   UNL     1      24.333  23.866  22.736  1.00  0.00    -0.550 OA
ATOM     32  O   UNL     1      26.012  24.841  23.931  1.00  0.00    -0.550 OA
ENDBRANCH   1  30
BRANCH  27  33
ATOM     33  O   UNL     1      25.355  12.634  27.863  1.00  0.00    -0.393 OA
ATOM     34  H   UNL     1      26.252  12.218  27.945  1.00  0.00     0.210 HD
ENDBRANCH  27  33
TORSDOF 2
ENDMDL
MODEL 2
REMARK VINA RESULT:    -2.898      2.022      7.752
REMARK INTER + INTRA:          -2.986
REMARK INTER:                  -2.821
REMARK INTRA:                  -0.165
REMARK UNBOUND:                 0.166
REMARK SMILES C[C@H]1[C@H]2C3=CC[C@@H]4[C@]5(C)CC[C@@H](O)C(C)(C)[C@H]5CC[C@]4(C)[C@@]3(C)CC[C@@]2(C(=O)[O-])CC[C@@H]1C
REMARK SMILES IDX 26 1 30 2 25 3 3 4 31 5 24 6 4 7 2 8 32 9 22 10 5 11 1 12
REMARK SMILES IDX 33 13 23 14 20 15 6 16 7 17 19 18 21 19 8 20 18 21 17 22
REMARK SMILES IDX 10 23 9 24 14 25 11 26 12 27 15 28 16 29 27 30 28 31 29 32
REMARK SMILES IDX 13 33
REMARK H PARENT 13 34
REMARK Flexibility Score: inf
ROOT
ATOM      1  C   UNL     1      27.579  15.524  23.784  1.00  0.00     0.017 C 
ATOM      2  C   UNL     1      28.910  15.456  24.576  1.00  0.00     0.014 C 
ATOM      3  C   UNL     1      27.585  16.838  22.925  1.00  0.00     0.014 C 
ATOM      4  C   UNL     1      26.364  15.537  24.788  1.00  0.00     0.030 C 
ATOM      5  C   UNL     1      28.966  14.242  25.506  1.00  0.00     0.004 C 
ATOM      6  C   UNL     1      26.160  17.362  22.650  1.00  0.00     0.013 C 
ATOM      7  C   UNL     1      26.004  16.999  25.116  1.00  0.00    -0.063 C 
ATOM      8  C   UNL     1      26.464  14.494  25.962  1.00  0.00    -0.003 C 
ATOM      9  C   UNL     1      27.881  14.319  26.591  1.00  0.00    -0.011 C 
ATOM     10  C   UNL     1      25.353  17.801  23.964  1.00  0.00    -0.006 C 
ATOM     11  C   UNL     1      26.693  17.609  26.090  1.00  0.00    -0.027 C 
ATOM     12  C   UNL     1      25.375  14.731  27.024  1.00  0.00     0.008 C 
ATOM     13  C   UNL     1      27.958  13.054  27.466  1.00  0.00     0.008 C 
ATOM     14  C   UNL     1      23.893  17.259  23.799  1.00  0.00     0.017 C 
ATOM     15  C   UNL     1      25.295  19.419  24.213  1.00  0.00    -0.020 C 
ATOM     16  C   UNL     1      26.774  19.074  26.291  1.00  0.00     0.032 C 
ATOM     17  C   UNL     1      26.565  19.935  25.014  1.00  0.00     0.006 C 
ATOM     18  C   UNL     1      24.037  19.847  25.051  1.00  0.00     0.008 C 
ATOM     19  C   UNL     1      25.153  20.109  22.813  1.00  0.00     0.012 C 
ATOM     20  C   UNL     1      26.558  21.505  25.384  1.00  0.00    -0.025 C 
ATOM     21  C   UNL     1      23.960  21.351  25.405  1.00  0.00     0.005 C 
ATOM     22  C   UNL     1      25.218  21.867  26.142  1.00  0.00     0.003 C 
ATOM     23  C   UNL     1      27.739  21.868  26.354  1.00  0.00     0.010 C 
ATOM     24  C   UNL     1      26.779  22.331  24.075  1.00  0.00     0.012 C 
ATOM     25  C   UNL     1      25.116  23.352  26.695  1.00  0.00    -0.006 C 
ATOM     26  C   UNL     1      27.714  23.319  26.871  1.00  0.00     0.033 C 
ATOM     27  C   UNL     1      26.381  23.646  27.574  1.00  0.00     0.120 C 
ATOM     28  C   UNL     1      23.875  23.477  27.623  1.00  0.00     0.014 C 
ATOM     29  C   UNL     1      24.949  24.422  25.584  1.00  0.00     0.014 C 
ENDROOT
BRANCH   1  30
ATOM     30  C   UNL     1      27.501  14.333  22.829  1.00  0.00     0.048 C 
ATOM     31  O   UNL     1      26.458  13.624  22.793  1.00  0.00    -0.550 OA
ATOM     32  O   UNL     1      28.567  13.985  22.008  1.00  0.00    -0.550 OA
ENDBRANCH   1  30
BRANCH  27  33
ATOM     33  O   UNL     1      26.385  24.965  28.066  1.00  0.00    -0.393 OA
ATOM     34  H   UNL     1      25.955  25.553  27.393  1.00  0.00     0.210 HD
ENDBRANCH  27  33
TORSDOF 2
ENDMDL
MODEL 3
REMARK VINA RESULT:    -2.882      2.372      7.812
REMARK INTER + INTRA:          -2.970
REMARK INTER:                  -2.795
REMARK INTRA:                  -0.174
REMARK UNBOUND:                 0.166
REMARK SMILES C[C@H]1[C@H]2C3=CC[C@@H]4[C@]5(C)CC[C@@H](O)C(C)(C)[C@H]5CC[C@]4(C)[C@@]3(C)CC[C@@]2(C(=O)[O-])CC[C@@H]1C
REMARK SMILES IDX 26 1 30 2 25 3 3 4 31 5 24 6 4 7 2 8 32 9 22 10 5 11 1 12
REMARK SMILES IDX 33 13 23 14 20 15 6 16 7 17 19 18 21 19 8 20 18 21 17 22
REMARK SMILES IDX 10 23 9 24 14 25 11 26 12 27 15 28 16 29 27 30 28 31 29 32
REMARK SMILES IDX 13 33
REMARK H PARENT 13 34
REMARK Flexibility Score: inf
ROOT
ATOM      1  C   UNL     1      27.108  16.091  22.489  1.00  0.00     0.017 C 
ATOM      2  C   UNL     1      28.087  15.639  23.602  1.00  0.00     0.014 C 
ATOM      3  C   UNL     1      27.622  17.455  21.906  1.00  0.00     0.014 C 
ATOM      4  C   UNL     1      25.663  16.268  23.093  1.00  0.00     0.030 C 
ATOM      5  C   UNL     1      27.627  14.350  24.287  1.00  0.00     0.004 C 
ATOM      6  C   UNL     1      26.476  18.313  21.332  1.00  0.00     0.013 C 
ATOM      7  C   UNL     1      25.491  17.729  23.552  1.00  0.00    -0.063 C 
ATOM      8  C   UNL     1      25.198  15.109  24.049  1.00  0.00    -0.003 C 
ATOM      9  C   UNL     1      26.289  14.551  25.016  1.00  0.00    -0.011 C 
ATOM     10  C   UNL     1      25.391  18.777  22.417  1.00  0.00    -0.006 C 
ATOM     11  C   UNL     1      25.938  18.059  24.770  1.00  0.00    -0.027 C 
ATOM     12  C   UNL     1      23.893  15.468  24.783  1.00  0.00     0.008 C 
ATOM     13  C   UNL     1      25.857  13.215  25.646  1.00  0.00     0.008 C 
ATOM     14  C   UNL     1      23.983  18.599  21.753  1.00  0.00     0.017 C 
ATOM     15  C   UNL     1      25.552  20.331  22.914  1.00  0.00    -0.020 C 
ATOM     16  C   UNL     1      26.216  19.437  25.234  1.00  0.00     0.032 C 
ATOM     17  C   UNL     1      26.579  20.456  24.118  1.00  0.00     0.006 C 
ATOM     18  C   UNL     1      24.195  20.937  23.420  1.00  0.00     0.008 C 
ATOM     19  C   UNL     1      25.985  21.182  21.672  1.00  0.00     0.012 C 
ATOM     20  C   UNL     1      26.741  21.938  24.736  1.00  0.00    -0.025 C 
ATOM     21  C   UNL     1      24.286  22.372  23.991  1.00  0.00     0.005 C 
ATOM     22  C   UNL     1      25.321  22.508  25.132  1.00  0.00     0.003 C 
ATOM     23  C   UNL     1      27.603  21.919  26.048  1.00  0.00     0.010 C 
ATOM     24  C   UNL     1      27.508  22.831  23.706  1.00  0.00     0.012 C 
ATOM     25  C   UNL     1      25.322  23.909  25.880  1.00  0.00    -0.006 C 
ATOM     26  C   UNL     1      27.682  23.273  26.778  1.00  0.00     0.033 C 
ATOM     27  C   UNL     1      26.278  23.814  27.118  1.00  0.00     0.120 C 
ATOM     28  C   UNL     1      23.897  24.209  26.424  1.00  0.00     0.014 C 
ATOM     29  C   UNL     1      25.710  25.104  24.968  1.00  0.00     0.014 C 
ENDROOT
BRANCH   1  30
ATOM     30  C   UNL     1      27.118  15.058  21.361  1.00  0.00     0.048 C 
ATOM     31  O   UNL     1      26.031  14.686  20.840  1.00  0.00    -0.550 OA
ATOM     32  O   UNL     1      28.301  14.489  20.904  1.00  0.00    -0.550 OA
ENDBRANCH   1  30
BRANCH  27  33
ATOM     33  O   UNL     1      26.368  25.036  27.811  1.00  0.00    -0.393 OA
ATOM     34  H   UNL     1      27.070  24.954  28.505  1.00  0.00     0.210 HD
ENDBRANCH  27  33
TORSDOF 2
ENDMDL
MODEL 4
REMARK VINA RESULT:    -2.858      3.790      7.717
REMARK INTER + INTRA:          -2.943
REMARK INTER:                  -2.763
REMARK INTRA:                  -0.180
REMARK UNBOUND:                 0.166
REMARK SMILES C[C@H]1[C@H]2C3=CC[C@@H]4[C@]5(C)CC[C@@H](O)C(C)(C)[C@H]5CC[C@]4(C)[C@@]3(C)CC[C@@]2(C(=O)[O-])CC[C@@H]1C
REMARK SMILES IDX 26 1 30 2 25 3 3 4 31 5 24 6 4 7 2 8 32 9 22 10 5 11 1 12
REMARK SMILES IDX 33 13 23 14 20 15 6 16 7 17 19 18 21 19 8 20 18 21 17 22
REMARK SMILES IDX 10 23 9 24 14 25 11 26 12 27 15 28 16 29 27 30 28 31 29 32
REMARK SMILES IDX 13 33
REMARK H PARENT 13 34
REMARK Flexibility Score: inf
ROOT
ATOM      1  C   UNL     1      27.678  19.247  19.473  1.00  0.00     0.017 C 
ATOM      2  C   UNL     1      29.155  19.717  19.504  1.00  0.00     0.014 C 
ATOM      3  C   UNL     1      26.758  20.519  19.481  1.00  0.00     0.014 C 
ATOM      4  C   UNL     1      27.379  18.351  20.734  1.00  0.00     0.030 C 
ATOM      5  C   UNL     1      30.133  18.541  19.575  1.00  0.00     0.004 C 
ATOM      6  C   UNL     1      25.379  20.237  20.113  1.00  0.00     0.013 C 
ATOM      7  C   UNL     1      26.853  19.250  21.870  1.00  0.00    -0.063 C 
ATOM      8  C   UNL     1      28.480  17.276  21.059  1.00  0.00    -0.003 C 
ATOM      9  C   UNL     1      29.957  17.746  20.879  1.00  0.00    -0.011 C 
ATOM     10  C   UNL     1      25.432  19.827  21.661  1.00  0.00    -0.006 C 
ATOM     11  C   UNL     1      27.753  19.871  22.643  1.00  0.00    -0.027 C 
ATOM     12  C   UNL     1      28.239  16.613  22.428  1.00  0.00     0.008 C 
ATOM     13  C   UNL     1      30.933  16.556  20.873  1.00  0.00     0.008 C 
ATOM     14  C   UNL     1      24.425  18.642  21.850  1.00  0.00     0.017 C 
ATOM     15  C   UNL     1      25.033  21.034  22.695  1.00  0.00    -0.020 C 
ATOM     16  C   UNL     1      27.475  21.042  23.506  1.00  0.00     0.032 C 
ATOM     17  C   UNL     1      26.288  21.937  23.054  1.00  0.00     0.006 C 
ATOM     18  C   UNL     1      24.473  20.489  24.058  1.00  0.00     0.008 C 
ATOM     19  C   UNL     1      23.875  21.858  22.035  1.00  0.00     0.012 C 
ATOM     20  C   UNL     1      26.014  23.103  24.135  1.00  0.00    -0.025 C 
ATOM     21  C   UNL     1      24.158  21.568  25.121  1.00  0.00     0.005 C 
ATOM     22  C   UNL     1      25.366  22.481  25.436  1.00  0.00     0.003 C 
ATOM     23  C   UNL     1      27.352  23.794  24.581  1.00  0.00     0.010 C 
ATOM     24  C   UNL     1      25.135  24.211  23.467  1.00  0.00     0.012 C 
ATOM     25  C   UNL     1      25.158  23.482  26.651  1.00  0.00    -0.006 C 
ATOM     26  C   UNL     1      27.189  24.818  25.720  1.00  0.00     0.033 C 
ATOM     27  C   UNL     1      26.524  24.185  26.959  1.00  0.00     0.120 C 
ATOM     28  C   UNL     1      24.759  22.680  27.922  1.00  0.00     0.014 C 
ATOM     29  C   UNL     1      24.035  24.527  26.414  1.00  0.00     0.014 C 
ENDROOT
BRANCH   1  30
ATOM     30  C   UNL     1      27.421  18.484  18.173  1.00  0.00     0.048 C 
ATOM     31  O   UNL     1      27.867  18.935  17.082  1.00  0.00    -0.550 OA
ATOM     32  O   UNL     1      26.680  17.308  18.150  1.00  0.00    -0.550 OA
ENDBRANCH   1  30
BRANCH  27  33
ATOM     33  O   UNL     1      26.410  25.125  28.001  1.00  0.00    -0.393 OA
ATOM     34  H   UNL     1      25.609  24.901  28.540  1.00  0.00     0.210 HD
ENDBRANCH  27  33
TORSDOF 2
ENDMDL
MODEL 5
REMARK VINA RESULT:    -2.855      1.849      7.972
REMARK INTER + INTRA:          -2.939
REMARK INTER:                  -2.764
REMARK INTRA:                  -0.175
REMARK UNBOUND:                 0.166
REMARK SMILES C[C@H]1[C@H]2C3=CC[C@@H]4[C@]5(C)CC[C@@H](O)C(C)(C)[C@H]5CC[C@]4(C)[C@@]3(C)CC[C@@]2(C(=O)[O-])CC[C@@H]1C
REMARK SMILES IDX 26 1 30 2 25 3 3 4 31 5 24 6 4 7 2 8 32 9 22 10 5 11 1 12
REMARK SMILES IDX 33 13 23 14 20 15 6 16 7 17 19 18 21 19 8 20 18 21 17 22
REMARK SMILES IDX 10 23 9 24 14 25 11 26 12 27 15 28 16 29 27 30 28 31 29 32
REMARK SMILES IDX 13 33
REMARK H PARENT 13 34
REMARK Flexibility Score: inf
ROOT
ATOM      1  C   UNL     1      27.627  15.340  26.424  1.00  0.00     0.017 C 
ATOM      2  C   UNL     1      26.571  14.978  27.499  1.00  0.00     0.014 C 
ATOM      3  C   UNL     1      28.490  16.534  26.966  1.00  0.00     0.014 C 
ATOM      4  C   UNL     1      26.903  15.755  25.087  1.00  0.00     0.030 C 
ATOM      5  C   UNL     1      25.626  13.869  27.029  1.00  0.00     0.004 C 
ATOM      6  C   UNL     1      29.070  17.398  25.827  1.00  0.00     0.013 C 
ATOM      7  C   UNL     1      26.687  17.281  25.091  1.00  0.00    -0.063 C 
ATOM      8  C   UNL     1      25.716  14.818  24.658  1.00  0.00    -0.003 C 
ATOM      9  C   UNL     1      24.797  14.317  25.816  1.00  0.00    -0.011 C 
ATOM     10  C   UNL     1      27.966  18.137  24.931  1.00  0.00    -0.006 C 
ATOM     11  C   UNL     1      25.601  17.757  25.716  1.00  0.00    -0.027 C 
ATOM     12  C   UNL     1      24.912  15.419  23.490  1.00  0.00     0.008 C 
ATOM     13  C   UNL     1      23.902  13.150  25.363  1.00  0.00     0.008 C 
ATOM     14  C   UNL     1      28.426  17.996  23.440  1.00  0.00     0.017 C 
ATOM     15  C   UNL     1      27.766  19.727  25.277  1.00  0.00    -0.020 C 
ATOM     16  C   UNL     1      25.416  19.157  26.159  1.00  0.00     0.032 C 
ATOM     17  C   UNL     1      26.724  19.942  26.456  1.00  0.00     0.006 C 
ATOM     18  C   UNL     1      27.221  20.539  24.048  1.00  0.00     0.008 C 
ATOM     19  C   UNL     1      29.177  20.319  25.613  1.00  0.00     0.012 C 
ATOM     20  C   UNL     1      26.394  21.480  26.814  1.00  0.00    -0.025 C 
ATOM     21  C   UNL     1      26.920  22.031  24.325  1.00  0.00     0.005 C 
ATOM     22  C   UNL     1      25.944  22.245  25.505  1.00  0.00     0.003 C 
ATOM     23  C   UNL     1      25.204  21.587  27.832  1.00  0.00     0.010 C 
ATOM     24  C   UNL     1      27.642  22.114  27.510  1.00  0.00     0.012 C 
ATOM     25  C   UNL     1      25.453  23.741  25.713  1.00  0.00    -0.006 C 
ATOM     26  C   UNL     1      24.732  23.026  28.111  1.00  0.00     0.033 C 
ATOM     27  C   UNL     1      24.333  23.752  26.810  1.00  0.00     0.120 C 
ATOM     28  C   UNL     1      24.811  24.266  24.398  1.00  0.00     0.014 C 
ATOM     29  C   UNL     1      26.595  24.729  26.075  1.00  0.00     0.014 C 
ENDROOT
BRANCH   1  30
ATOM     30  C   UNL     1      28.554  14.143  26.208  1.00  0.00     0.048 C 
ATOM     31  O   UNL     1      29.144  13.620  27.193  1.00  0.00    -0.550 OA
ATOM     32  O   UNL     1      28.791  13.623  24.941  1.00  0.00    -0.550 OA
ENDBRANCH   1  30
BRANCH  27  33
ATOM     33  O   UNL     1      23.876  25.055  27.084  1.00  0.00    -0.393 OA
ATOM     34  H   UNL     1      23.173  25.002  27.782  1.00  0.00     0.210 HD
ENDBRANCH  27  33
TORSDOF 2
ENDMDL
MODEL 6
REMARK VINA RESULT:    -2.797      2.997      7.584
REMARK INTER + INTRA:          -2.877
REMARK INTER:                  -2.710
REMARK INTRA:                  -0.167
REMARK UNBOUND:                 0.166
REMARK SMILES C[C@H]1[C@H]2C3=CC[C@@H]4[C@]5(C)CC[C@@H](O)C(C)(C)[C@H]5CC[C@]4(C)[C@@]3(C)CC[C@@]2(C(=O)[O-])CC[C@@H]1C
REMARK SMILES IDX 26 1 30 2 25 3 3 4 31 5 24 6 4 7 2 8 32 9 22 10 5 11 1 12
REMARK SMILES IDX 33 13 23 14 20 15 6 16 7 17 19 18 21 19 8 20 18 21 17 22
REMARK SMILES IDX 10 23 9 24 14 25 11 26 12 27 15 28 16 29 27 30 28 31 29 32
REMARK SMILES IDX 13 33
REMARK H PARENT 13 34
REMARK Flexibility Score: inf
ROOT
ATOM      1  C   UNL     1      28.174  17.990  20.841  1.00  0.00     0.017 C 
ATOM      2  C   UNL     1      29.661  18.288  21.165  1.00  0.00     0.014 C 
ATOM      3  C   UNL     1      27.466  19.347  20.492  1.00  0.00     0.014 C 
ATOM      4  C   UNL     1      27.483  17.321  22.088  1.00  0.00     0.030 C 
ATOM      5  C   UNL     1      30.421  17.031  21.594  1.00  0.00     0.004 C 
ATOM      6  C   UNL     1      25.957  19.315  20.809  1.00  0.00     0.013 C 
ATOM      7  C   UNL     1      26.855  18.424  22.962  1.00  0.00    -0.063 C 
ATOM      8  C   UNL     1      28.321  16.184  22.781  1.00  0.00    -0.003 C 
ATOM      9  C   UNL     1      29.854  16.453  22.900  1.00  0.00    -0.011 C 
ATOM     10  C   UNL     1      25.612  19.124  22.363  1.00  0.00    -0.006 C 
ATOM     11  C   UNL     1      27.644  19.042  23.851  1.00  0.00    -0.027 C 
ATOM     12  C   UNL     1      27.695  15.753  24.120  1.00  0.00     0.008 C 
ATOM     13  C   UNL     1      30.627  15.170  23.257  1.00  0.00     0.008 C 
ATOM     14  C   UNL     1      24.429  18.099  22.441  1.00  0.00     0.017 C 
ATOM     15  C   UNL     1      25.173  20.502  23.133  1.00  0.00    -0.020 C 
ATOM     16  C   UNL     1      27.355  20.347  24.489  1.00  0.00     0.032 C 
ATOM     17  C   UNL     1      26.436  21.298  23.673  1.00  0.00     0.006 C 
ATOM     18  C   UNL     1      24.258  20.222  24.378  1.00  0.00     0.008 C 
ATOM     19  C   UNL     1      24.317  21.351  22.133  1.00  0.00     0.012 C 
ATOM     20  C   UNL     1      26.102  22.629  24.523  1.00  0.00    -0.025 C 
ATOM     21  C   UNL     1      23.876  21.469  25.211  1.00  0.00     0.005 C 
ATOM     22  C   UNL     1      25.104  22.274  25.697  1.00  0.00     0.003 C 
ATOM     23  C   UNL     1      27.395  23.219  25.191  1.00  0.00     0.010 C 
ATOM     24  C   UNL     1      25.557  23.724  23.549  1.00  0.00     0.012 C 
ATOM     25  C   UNL     1      24.781  23.453  26.710  1.00  0.00    -0.006 C 
ATOM     26  C   UNL     1      27.136  24.405  26.139  1.00  0.00     0.033 C 
ATOM     27  C   UNL     1      26.134  24.033  27.250  1.00  0.00     0.120 C 
ATOM     28  C   UNL     1      24.004  22.890  27.934  1.00  0.00     0.014 C 
ATOM     29  C   UNL     1      23.898  24.575  26.102  1.00  0.00     0.014 C 
ENDROOT
BRANCH   1  30
ATOM     30  C   UNL     1      28.101  17.086  19.610  1.00  0.00     0.048 C 
ATOM     31  O   UNL     1      27.379  16.051  19.632  1.00  0.00    -0.550 OA
ATOM     32  O   UNL     1      28.835  17.356  18.461  1.00  0.00    -0.550 OA
ENDBRANCH   1  30
BRANCH  27  33
ATOM     33  O   UNL     1      25.931  25.117  28.125  1.00  0.00    -0.393 OA
ATOM     34  H   UNL     1      25.114  25.602  27.840  1.00  0.00     0.210 HD
ENDBRANCH  27  33
TORSDOF 2
ENDMDL
MODEL 7
REMARK VINA RESULT:    -2.715      2.555      7.775
REMARK INTER + INTRA:          -2.787
REMARK INTER:                  -2.653
REMARK INTRA:                  -0.134
REMARK UNBOUND:                 0.166
REMARK SMILES C[C@H]1[C@H]2C3=CC[C@@H]4[C@]5(C)CC[C@@H](O)C(C)(C)[C@H]5CC[C@]4(C)[C@@]3(C)CC[C@@]2(C(=O)[O-])CC[C@@H]1C
REMARK SMILES IDX 26 1 30 2 25 3 3 4 31 5 24 6 4 7 2 8 32 9 22 10 5 11 1 12
REMARK SMILES IDX 33 13 23 14 20 15 6 16 7 17 19 18 21 19 8 20 18 21 17 22
REMARK SMILES IDX 10 23 9 24 14 25 11 26 12 27 15 28 16 29 27 30 28 31 29 32
REMARK SMILES IDX 13 33
REMARK H PARENT 13 34
REMARK Flexibility Score: inf
ROOT
ATOM      1  C   UNL     1      25.059  14.855  22.175  1.00  0.00     0.017 C 
ATOM      2  C   UNL     1      24.614  15.575  20.875  1.00  0.00     0.014 C 
ATOM      3  C   UNL     1      24.140  15.348  23.348  1.00  0.00     0.014 C 
ATOM      4  C   UNL     1      26.565  15.199  22.482  1.00  0.00     0.030 C 
ATOM      5  C   UNL     1      25.504  15.215  19.683  1.00  0.00     0.004 C 
ATOM      6  C   UNL     1      24.849  15.269  24.716  1.00  0.00     0.013 C 
ATOM      7  C   UNL     1      26.617  16.438  23.397  1.00  0.00    -0.063 C 
ATOM      8  C   UNL     1      27.529  15.126  21.241  1.00  0.00    -0.003 C 
ATOM      9  C   UNL     1      26.950  15.685  19.903  1.00  0.00    -0.011 C 
ATOM     10  C   UNL     1      26.135  16.216  24.850  1.00  0.00    -0.006 C 
ATOM     11  C   UNL     1      26.559  17.645  22.818  1.00  0.00    -0.027 C 
ATOM     12  C   UNL     1      28.918  15.704  21.566  1.00  0.00     0.008 C 
ATOM     13  C   UNL     1      27.804  15.257  18.696  1.00  0.00     0.008 C 
ATOM     14  C   UNL     1      27.241  15.376  25.575  1.00  0.00     0.017 C 
ATOM     15  C   UNL     1      25.875  17.595  25.696  1.00  0.00    -0.020 C 
ATOM     16  C   UNL     1      26.212  18.908  23.508  1.00  0.00     0.032 C 
ATOM     17  C   UNL     1      25.314  18.754  24.768  1.00  0.00     0.006 C 
ATOM     18  C   UNL     1      27.191  18.148  26.352  1.00  0.00     0.008 C 
ATOM     19  C   UNL     1      24.900  17.251  26.874  1.00  0.00     0.012 C 
ATOM     20  C   UNL     1      25.107  20.181  25.493  1.00  0.00    -0.025 C 
ATOM     21  C   UNL     1      27.042  19.498  27.092  1.00  0.00     0.005 C 
ATOM     22  C   UNL     1      26.450  20.616  26.204  1.00  0.00     0.003 C 
ATOM     23  C   UNL     1      24.760  21.305  24.452  1.00  0.00     0.010 C 
ATOM     24  C   UNL     1      23.889  20.077  26.467  1.00  0.00     0.012 C 
ATOM     25  C   UNL     1      26.451  22.066  26.852  1.00  0.00    -0.006 C 
ATOM     26  C   UNL     1      24.692  22.724  25.048  1.00  0.00     0.033 C 
ATOM     27  C   UNL     1      26.006  23.101  25.762  1.00  0.00     0.120 C 
ATOM     28  C   UNL     1      27.897  22.444  27.279  1.00  0.00     0.014 C 
ATOM     29  C   UNL     1      25.568  22.182  28.123  1.00  0.00     0.014 C 
ENDROOT
BRANCH   1  30
ATOM     30  C   UNL     1      24.852  13.349  22.011  1.00  0.00     0.048 C 
ATOM     31  O   UNL     1      23.875  12.919  21.337  1.00  0.00    -0.550 OA
ATOM     32  O   UNL     1      25.701  12.426  22.610  1.00  0.00    -0.550 OA
ENDBRANCH   1  30
BRANCH  27  33
ATOM     33  O   UNL     1      25.938  24.410  26.275  1.00  0.00    -0.393 OA
ATOM     34  H   UNL     1      25.476  24.382  27.151  1.00  0.00     0.210 HD
ENDBRANCH  27  33
TORSDOF 2
ENDMDL
MODEL 8
REMARK VINA RESULT:    -2.682      2.196      7.885
REMARK INTER + INTRA:          -2.752
REMARK INTER:                  -2.585
REMARK INTRA:                  -0.167
REMARK UNBOUND:                 0.166
REMARK SMILES C[C@H]1[C@H]2C3=CC[C@@H]4[C@]5(C)CC[C@@H](O)C(C)(C)[C@H]5CC[C@]4(C)[C@@]3(C)CC[C@@]2(C(=O)[O-])CC[C@@H]1C
REMARK SMILES IDX 26 1 30 2 25 3 3 4 31 5 24 6 4 7 2 8 32 9 22 10 5 11 1 12
REMARK SMILES IDX 33 13 23 14 20 15 6 16 7 17 19 18 21 19 8 20 18 21 17 22
REMARK SMILES IDX 10 23 9 24 14 25 11 26 12 27 15 28 16 29 27 30 28 31 29 32
REMARK SMILES IDX 13 33
REMARK H PARENT 13 34
REMARK Flexibility Score: inf
ROOT
ATOM      1  C   UNL     1      26.241  15.316  23.445  1.00  0.00     0.017 C 
ATOM      2  C   UNL     1      24.706  15.099  23.464  1.00  0.00     0.014 C 
ATOM      3  C   UNL     1      26.675  15.880  24.844  1.00  0.00     0.014 C 
ATOM      4  C   UNL     1      26.619  16.337  22.306  1.00  0.00     0.030 C 
ATOM      5  C   UNL     1      24.174  14.620  22.112  1.00  0.00     0.004 C 
ATOM      6  C   UNL     1      27.953  16.740  24.755  1.00  0.00     0.013 C 
ATOM      7  C   UNL     1      26.633  17.760  22.897  1.00  0.00    -0.063 C 
ATOM      8  C   UNL     1      25.898  16.090  20.929  1.00  0.00    -0.003 C 
ATOM      9  C   UNL     1      24.397  15.675  21.017  1.00  0.00    -0.011 C 
ATOM     10  C   UNL     1      27.797  18.067  23.870  1.00  0.00    -0.006 C 
ATOM     11  C   UNL     1      25.469  18.418  22.970  1.00  0.00    -0.027 C 
ATOM     12  C   UNL     1      26.128  17.257  19.952  1.00  0.00     0.008 C 
ATOM     13  C   UNL     1      23.883  15.121  19.676  1.00  0.00     0.008 C 
ATOM     14  C   UNL     1      29.097  18.188  23.004  1.00  0.00     0.017 C 
ATOM     15  C   UNL     1      27.608  19.443  24.740  1.00  0.00    -0.020 C 
ATOM     16  C   UNL     1      25.205  19.595  23.830  1.00  0.00     0.032 C 
ATOM     17  C   UNL     1      26.085  19.698  25.107  1.00  0.00     0.006 C 
ATOM     18  C   UNL     1      28.096  20.713  23.956  1.00  0.00     0.008 C 
ATOM     19  C   UNL     1      28.516  19.326  26.012  1.00  0.00     0.012 C 
ATOM     20  C   UNL     1      25.785  21.076  25.891  1.00  0.00    -0.025 C 
ATOM     21  C   UNL     1      27.866  22.062  24.678  1.00  0.00     0.005 C 
ATOM     22  C   UNL     1      26.391  22.291  25.081  1.00  0.00     0.003 C 
ATOM     23  C   UNL     1      24.242  21.339  26.015  1.00  0.00     0.010 C 
ATOM     24  C   UNL     1      26.341  20.957  27.348  1.00  0.00     0.012 C 
ATOM     25  C   UNL     1      26.063  23.736  25.654  1.00  0.00    -0.006 C 
ATOM     26  C   UNL     1      23.876  22.707  26.622  1.00  0.00     0.033 C 
ATOM     27  C   UNL     1      24.510  23.866  25.826  1.00  0.00     0.120 C 
ATOM     28  C   UNL     1      26.501  24.816  24.625  1.00  0.00     0.014 C 
ATOM     29  C   UNL     1      26.800  24.063  26.981  1.00  0.00     0.014 C 
ENDROOT
BRANCH   1  30
ATOM     30  C   UNL     1      26.935  13.969  23.240  1.00  0.00     0.048 C 
ATOM     31  O   UNL     1      27.837  13.854  22.365  1.00  0.00    -0.550 OA
ATOM     32  O   UNL     1      26.583  12.846  23.980  1.00  0.00    -0.550 OA
ENDBRANCH   1  30
BRANCH  27  33
ATOM     33  O   UNL     1      24.143  25.109  26.375  1.00  0.00    -0.393 OA
ATOM     34  H   UNL     1      23.831  25.697  25.640  1.00  0.00     0.210 HD
ENDBRANCH  27  33
TORSDOF 2
ENDMDL
MODEL 9
REMARK VINA RESULT:    -2.631      1.841      7.882
REMARK INTER + INTRA:          -2.696
REMARK INTER:                  -2.553
REMARK INTRA:                  -0.143
REMARK UNBOUND:                 0.166
REMARK SMILES C[C@H]1[C@H]2C3=CC[C@@H]4[C@]5(C)CC[C@@H](O)C(C)(C)[C@H]5CC[C@]4(C)[C@@]3(C)CC[C@@]2(C(=O)[O-])CC[C@@H]1C
REMARK SMILES IDX 26 1 30 2 25 3 3 4 31 5 24 6 4 7 2 8 32 9 22 10 5 11 1 12
REMARK SMILES IDX 33 13 23 14 20 15 6 16 7 17 19 18 21 19 8 20 18 21 17 22
REMARK SMILES IDX 10 23 9 24 14 25 11 26 12 27 15 28 16 29 27 30 28 31 29 32
REMARK SMILES IDX 13 33
REMARK H PARENT 13 34
REMARK Flexibility Score: inf
ROOT
ATOM      1  C   UNL     1      25.191  14.817  24.540  1.00  0.00     0.017 C 
ATOM      2  C   UNL     1      23.880  15.031  23.742  1.00  0.00     0.014 C 
ATOM      3  C   UNL     1      24.996  15.421  25.976  1.00  0.00     0.014 C 
ATOM      4  C   UNL     1      26.384  15.536  23.805  1.00  0.00     0.030 C 
ATOM      5  C   UNL     1      23.998  14.540  22.297  1.00  0.00     0.004 C 
ATOM      6  C   UNL     1      26.330  15.880  26.601  1.00  0.00     0.013 C 
ATOM      7  C   UNL     1      26.523  16.967  24.361  1.00  0.00    -0.063 C 
ATOM      8  C   UNL     1      26.433  15.315  22.248  1.00  0.00    -0.003 C 
ATOM      9  C   UNL     1      25.054  15.341  21.519  1.00  0.00    -0.011 C 
ATOM     10  C   UNL     1      27.056  17.070  25.811  1.00  0.00    -0.006 C 
ATOM     11  C   UNL     1      25.746  17.921  23.832  1.00  0.00    -0.027 C 
ATOM     12  C   UNL     1      27.469  16.236  21.577  1.00  0.00     0.008 C 
ATOM     13  C   UNL     1      25.159  14.775  20.091  1.00  0.00     0.008 C 
ATOM     14  C   UNL     1      28.581  16.717  25.763  1.00  0.00     0.017 C 
ATOM     15  C   UNL     1      26.873  18.548  26.495  1.00  0.00    -0.020 C 
ATOM     16  C   UNL     1      25.449  19.228  24.462  1.00  0.00     0.032 C 
ATOM     17  C   UNL     1      25.536  19.255  26.014  1.00  0.00     0.006 C 
ATOM     18  C   UNL     1      28.049  19.523  26.128  1.00  0.00     0.008 C 
ATOM     19  C   UNL     1      26.920  18.358  28.050  1.00  0.00     0.012 C 
ATOM     20  C   UNL     1      25.309  20.754  26.567  1.00  0.00    -0.025 C 
ATOM     21  C   UNL     1      27.901  20.967  26.665  1.00  0.00     0.005 C 
ATOM     22  C   UNL     1      26.576  21.640  26.238  1.00  0.00     0.003 C 
ATOM     23  C   UNL     1      24.082  21.441  25.869  1.00  0.00     0.010 C 
ATOM     24  C   UNL     1      24.977  20.682  28.093  1.00  0.00     0.012 C 
ATOM     25  C   UNL     1      26.455  23.182  26.600  1.00  0.00    -0.006 C 
ATOM     26  C   UNL     1      23.889  22.925  26.236  1.00  0.00     0.033 C 
ATOM     27  C   UNL     1      25.155  23.751  25.932  1.00  0.00     0.120 C 
ATOM     28  C   UNL     1      27.658  23.956  25.991  1.00  0.00     0.014 C 
ATOM     29  C   UNL     1      26.469  23.468  28.125  1.00  0.00     0.014 C 
ENDROOT
BRANCH   1  30
ATOM     30  C   UNL     1      25.449  13.317  24.688  1.00  0.00     0.048 C 
ATOM     31  O   UNL     1      24.619  12.594  25.304  1.00  0.00    -0.550 OA
ATOM     32  O   UNL     1      26.598  12.721  24.181  1.00  0.00    -0.550 OA
ENDBRANCH   1  30
BRANCH  27  33
ATOM     33  O   UNL     1      24.953  25.109  26.245  1.00  0.00    -0.393 OA
ATOM     34  H   UNL     1      25.564  25.355  26.987  1.00  0.00     0.210 HD
ENDBRANCH  27  33
TORSDOF 2
ENDMDL
