MODEL 1
REMARK VINA RESULT:    -5.259      0.000      0.000
REMARK INTER + INTRA:          -5.412
REMARK INTER:                  -5.412
REMARK INTRA:                   0.000
REMARK UNBOUND:                 0.000
REMARK SMILES Cc1cccc(O)c1C
REMARK SMILES IDX 1 1 2 2 8 3 6 4 5 5 4 6 3 7 9 8 7 9
REMARK H PARENT 7 10
REMARK Flexibility Score: inf
ROOT
ATOM      1  C   UNL     1     -15.197  43.993  23.842  1.00  0.00     0.045 C 
ATOM      2  C   UNL     1     -14.069  44.045  22.842  1.00  0.00    -0.045 A 
ATOM      3  C   UNL     1     -12.989  44.962  22.968  1.00  0.00    -0.006 A 
ATOM      4  C   UNL     1     -11.963  44.954  21.990  1.00  0.00     0.118 A 
ATOM      5  C   UNL     1     -12.019  44.055  20.922  1.00  0.00     0.046 A 
ATOM      6  C   UNL     1     -13.079  43.160  20.805  1.00  0.00     0.004 A 
ATOM      7  C   UNL     1     -14.097  43.153  21.756  1.00  0.00     0.004 A 
ATOM      8  C   UNL     1     -12.907  45.943  24.115  1.00  0.00     0.048 C 
ENDROOT
BRANCH   4   9
ATOM      9  O   UNL     1     -10.871  45.826  22.049  1.00  0.00    -0.508 OA
ATOM     10  H   UNL     1     -10.101  45.713  22.695  1.00  0.00     0.293 HD
ENDBRANCH   4   9
TORSDOF 1
ENDMDL
MODEL 2
REMARK VINA RESULT:    -5.155      0.989      2.678
REMARK INTER + INTRA:          -5.305
REMARK INTER:                  -5.305
REMARK INTRA:                   0.000
REMARK UNBOUND:                 0.000
REMARK SMILES Cc1cccc(O)c1C
REMARK SMILES IDX 1 1 2 2 8 3 6 4 5 5 4 6 3 7 9 8 7 9
REMARK H PARENT 7 10
REMARK Flexibility Score: inf
ROOT
ATOM      1  C   UNL     1     -13.525  42.977  20.247  1.00  0.00     0.045 C 
ATOM      2  C   UNL     1     -13.566  43.746  21.544  1.00  0.00    -0.045 A 
ATOM      3  C   UNL     1     -12.535  44.652  21.918  1.00  0.00    -0.006 A 
ATOM      4  C   UNL     1     -12.640  45.341  23.153  1.00  0.00     0.118 A 
ATOM      5  C   UNL     1     -13.743  45.127  23.983  1.00  0.00     0.046 A 
ATOM      6  C   UNL     1     -14.748  44.239  23.611  1.00  0.00     0.004 A 
ATOM      7  C   UNL     1     -14.662  43.553  22.402  1.00  0.00     0.004 A 
ATOM      8  C   UNL     1     -11.333  44.900  21.035  1.00  0.00     0.048 C 
ENDROOT
BRANCH   4   9
ATOM      9  O   UNL     1     -11.666  46.246  23.586  1.00  0.00    -0.508 OA
ATOM     10  H   UNL     1     -11.310  46.999  23.012  1.00  0.00     0.293 HD
ENDBRANCH   4   9
TORSDOF 1
ENDMDL
MODEL 3
REMARK VINA RESULT:    -5.027      0.773      2.634
REMARK INTER + INTRA:          -5.174
REMARK INTER:                  -5.174
REMARK INTRA:                   0.000
REMARK UNBOUND:                 0.000
REMARK SMILES Cc1cccc(O)c1C
REMARK SMILES IDX 1 1 2 2 8 3 6 4 5 5 4 6 3 7 9 8 7 9
REMARK H PARENT 7 10
REMARK Flexibility Score: inf
ROOT
ATOM      1  C   UNL     1     -15.089  42.895  22.013  1.00  0.00     0.045 C 
ATOM      2  C   UNL     1     -14.231  43.937  22.684  1.00  0.00    -0.045 A 
ATOM      3  C   UNL     1     -12.989  44.363  22.134  1.00  0.00    -0.006 A 
ATOM      4  C   UNL     1     -12.235  45.348  22.820  1.00  0.00     0.118 A 
ATOM      5  C   UNL     1     -12.711  45.887  24.018  1.00  0.00     0.046 A 
ATOM      6  C   UNL     1     -13.926  45.465  24.551  1.00  0.00     0.004 A 
ATOM      7  C   UNL     1     -14.681  44.498  23.892  1.00  0.00     0.004 A 
ATOM      8  C   UNL     1     -12.455  43.794  20.839  1.00  0.00     0.048 C 
ENDROOT
BRANCH   4   9
ATOM      9  O   UNL     1     -11.008  45.814  22.340  1.00  0.00    -0.508 OA
ATOM     10  H   UNL     1     -10.922  46.536  21.636  1.00  0.00     0.293 HD
ENDBRANCH   4   9
TORSDOF 1
ENDMDL
MODEL 4
REMARK VINA RESULT:    -4.785      2.150      3.085
REMARK INTER + INTRA:          -4.925
REMARK INTER:                  -4.925
REMARK INTRA:                   0.000
REMARK UNBOUND:                 0.000
REMARK SMILES Cc1cccc(O)c1C
REMARK SMILES IDX 1 1 2 2 8 3 6 4 5 5 4 6 3 7 9 8 7 9
REMARK H PARENT 7 10
REMARK Flexibility Score: inf
ROOT
ATOM      1  C   UNL     1     -15.676  43.197  23.231  1.00  0.00     0.045 C 
ATOM      2  C   UNL     1     -14.623  44.223  23.567  1.00  0.00    -0.045 A 
ATOM      3  C   UNL     1     -14.676  44.998  24.759  1.00  0.00    -0.006 A 
ATOM      4  C   UNL     1     -13.651  45.945  25.009  1.00  0.00     0.118 A 
ATOM      5  C   UNL     1     -12.608  46.107  24.094  1.00  0.00     0.046 A 
ATOM      6  C   UNL     1     -12.563  45.345  22.930  1.00  0.00     0.004 A 
ATOM      7  C   UNL     1     -13.561  44.411  22.666  1.00  0.00     0.004 A 
ATOM      8  C   UNL     1     -15.794  44.839  25.764  1.00  0.00     0.048 C 
ENDROOT
BRANCH   4   9
ATOM      9  O   UNL     1     -13.638  46.741  26.158  1.00  0.00    -0.508 OA
ATOM     10  H   UNL     1     -12.886  47.379  26.385  1.00  0.00     0.293 HD
ENDBRANCH   4   9
TORSDOF 1
ENDMDL
MODEL 5
REMARK VINA RESULT:    -4.774      2.021      3.870
REMARK INTER + INTRA:          -4.914
REMARK INTER:                  -4.914
REMARK INTRA:                   0.000
REMARK UNBOUND:                 0.000
REMARK SMILES Cc1cccc(O)c1C
REMARK SMILES IDX 1 1 2 2 8 3 6 4 5 5 4 6 3 7 9 8 7 9
REMARK H PARENT 7 10
REMARK Flexibility Score: inf
ROOT
ATOM      1  C   UNL     1     -11.253  44.987  21.156  1.00  0.00     0.045 C 
ATOM      2  C   UNL     1     -12.446  44.817  22.063  1.00  0.00    -0.045 A 
ATOM      3  C   UNL     1     -13.479  43.879  21.785  1.00  0.00    -0.006 A 
ATOM      4  C   UNL     1     -14.571  43.773  22.683  1.00  0.00     0.118 A 
ATOM      5  C   UNL     1     -14.623  44.582  23.821  1.00  0.00     0.046 A 
ATOM      6  C   UNL     1     -13.609  45.498  24.087  1.00  0.00     0.004 A 
ATOM      7  C   UNL     1     -12.528  45.616  23.216  1.00  0.00     0.004 A 
ATOM      8  C   UNL     1     -13.443  42.994  20.560  1.00  0.00     0.048 C 
ENDROOT
BRANCH   4   9
ATOM      9  O   UNL     1     -15.622  42.875  22.475  1.00  0.00    -0.508 OA
ATOM     10  H   UNL     1     -15.490  41.879  22.363  1.00  0.00     0.293 HD
ENDBRANCH   4   9
TORSDOF 1
ENDMDL
MODEL 6
REMARK VINA RESULT:    -4.768      1.574      2.800
REMARK INTER + INTRA:          -4.908
REMARK INTER:                  -4.908
REMARK INTRA:                   0.000
REMARK UNBOUND:                 0.000
REMARK SMILES Cc1cccc(O)c1C
REMARK SMILES IDX 1 1 2 2 8 3 6 4 5 5 4 6 3 7 9 8 7 9
REMARK H PARENT 7 10
REMARK Flexibility Score: inf
ROOT
ATOM      1  C   UNL     1     -12.805  46.073  24.022  1.00  0.00     0.045 C 
ATOM      2  C   UNL     1     -13.458  44.958  23.244  1.00  0.00    -0.045 A 
ATOM      3  C   UNL     1     -12.925  44.480  22.015  1.00  0.00    -0.006 A 
ATOM      4  C   UNL     1     -13.592  43.429  21.338  1.00  0.00     0.118 A 
ATOM      5  C   UNL     1     -14.756  42.875  21.878  1.00  0.00     0.046 A 
ATOM      6  C   UNL     1     -15.272  43.347  23.082  1.00  0.00     0.004 A 
ATOM      7  C   UNL     1     -14.631  44.380  23.761  1.00  0.00     0.004 A 
ATOM      8  C   UNL     1     -11.667  45.064  21.412  1.00  0.00     0.048 C 
ENDROOT
BRANCH   4   9
ATOM      9  O   UNL     1     -13.126  42.909  20.127  1.00  0.00    -0.508 OA
ATOM     10  H   UNL     1     -13.201  43.398  19.245  1.00  0.00     0.293 HD
ENDBRANCH   4   9
TORSDOF 1
ENDMDL
MODEL 7
REMARK VINA RESULT:    -4.732      1.912      2.981
REMARK INTER + INTRA:          -4.870
REMARK INTER:                  -4.870
REMARK INTRA:                   0.000
REMARK UNBOUND:                 0.000
REMARK SMILES Cc1cccc(O)c1C
REMARK SMILES IDX 1 1 2 2 8 3 6 4 5 5 4 6 3 7 9 8 7 9
REMARK H PARENT 7 10
REMARK Flexibility Score: inf
ROOT
ATOM      1  C   UNL     1     -11.564  45.120  21.454  1.00  0.00     0.045 C 
ATOM      2  C   UNL     1     -12.818  44.500  22.018  1.00  0.00    -0.045 A 
ATOM      3  C   UNL     1     -13.375  44.916  23.259  1.00  0.00    -0.006 A 
ATOM      4  C   UNL     1     -14.556  44.288  23.728  1.00  0.00     0.118 A 
ATOM      5  C   UNL     1     -15.158  43.277  22.974  1.00  0.00     0.046 A 
ATOM      6  C   UNL     1     -14.608  42.875  21.761  1.00  0.00     0.004 A 
ATOM      7  C   UNL     1     -13.448  43.480  21.284  1.00  0.00     0.004 A 
ATOM      8  C   UNL     1     -12.741  46.008  24.090  1.00  0.00     0.048 C 
ENDROOT
BRANCH   4   9
ATOM      9  O   UNL     1     -15.159  44.645  24.938  1.00  0.00    -0.508 OA
ATOM     10  H   UNL     1     -14.638  44.891  25.769  1.00  0.00     0.293 HD
ENDBRANCH   4   9
TORSDOF 1
ENDMDL
MODEL 8
REMARK VINA RESULT:    -4.688      1.768      2.776
REMARK INTER + INTRA:          -4.825
REMARK INTER:                  -4.825
REMARK INTRA:                   0.000
REMARK UNBOUND:                 0.000
REMARK SMILES Cc1cccc(O)c1C
REMARK SMILES IDX 1 1 2 2 8 3 6 4 5 5 4 6 3 7 9 8 7 9
REMARK H PARENT 7 10
REMARK Flexibility Score: inf
ROOT
ATOM      1  C   UNL     1     -12.780  46.005  24.402  1.00  0.00     0.045 C 
ATOM      2  C   UNL     1     -12.795  45.258  23.093  1.00  0.00    -0.045 A 
ATOM      3  C   UNL     1     -13.870  44.402  22.723  1.00  0.00    -0.006 A 
ATOM      4  C   UNL     1     -13.818  43.731  21.476  1.00  0.00     0.118 A 
ATOM      5  C   UNL     1     -12.723  43.916  20.627  1.00  0.00     0.046 A 
ATOM      6  C   UNL     1     -11.675  44.755  20.994  1.00  0.00     0.004 A 
ATOM      7  C   UNL     1     -11.709  45.422  22.216  1.00  0.00     0.004 A 
ATOM      8  C   UNL     1     -15.064  44.188  23.626  1.00  0.00     0.048 C 
ENDROOT
BRANCH   4   9
ATOM      9  O   UNL     1     -14.836  42.875  21.047  1.00  0.00    -0.508 OA
ATOM     10  H   UNL     1     -15.821  43.086  21.146  1.00  0.00     0.293 HD
ENDBRANCH   4   9
TORSDOF 1
ENDMDL
MODEL 9
REMARK VINA RESULT:    -4.662     19.830     20.805
REMARK INTER + INTRA:          -4.798
REMARK INTER:                  -4.798
REMARK INTRA:                   0.000
REMARK UNBOUND:                 0.000
REMARK SMILES Cc1cccc(O)c1C
REMARK SMILES IDX 1 1 2 2 8 3 6 4 5 5 4 6 3 7 9 8 7 9
REMARK H PARENT 7 10
REMARK Flexibility Score: inf
ROOT
ATOM      1  C   UNL     1     -24.154  61.991  30.714  1.00  0.00     0.045 C 
ATOM      2  C   UNL     1     -22.920  61.882  29.854  1.00  0.00    -0.045 A 
ATOM      3  C   UNL     1     -21.610  62.016  30.392  1.00  0.00    -0.006 A 
ATOM      4  C   UNL     1     -20.495  61.902  29.524  1.00  0.00     0.118 A 
ATOM      5  C   UNL     1     -20.690  61.660  28.161  1.00  0.00     0.046 A 
ATOM      6  C   UNL     1     -21.975  61.530  27.642  1.00  0.00     0.004 A 
ATOM      7  C   UNL     1     -23.082  61.640  28.479  1.00  0.00     0.004 A 
ATOM      8  C   UNL     1     -21.376  62.277  31.863  1.00  0.00     0.048 C 
ENDROOT
BRANCH   4   9
ATOM      9  O   UNL     1     -19.180  62.022  29.981  1.00  0.00    -0.508 OA
ATOM     10  H   UNL     1     -18.520  62.695  29.612  1.00  0.00     0.293 HD
ENDBRANCH   4   9
TORSDOF 1
ENDMDL
