MODEL 1
REMARK VINA RESULT:    -6.232      0.000      0.000
REMARK INTER + INTRA:          -5.871
REMARK INTER:                  -9.329
REMARK INTRA:                   3.459
REMARK UNBOUND:                 3.459
REMARK SMILES C=C(CC[C@H](C(=O)[O-])[C@H]1[C@@H](O)C[C@]2(C)C3=C(CC[C@]12C)[C@]1(C)CC[C@@H](OC(C)=O)C(C)(C)[C@@H]1CC3)C(C)C
REMARK SMILES IDX 4 1 5 2 6 3 7 4 8 5 9 6 10 7 19 8 12 9 13 10 18 11 20 12
REMARK SMILES IDX 14 13 15 14 17 15 16 16 35 17 21 18 34 19 33 20 23 21 22 22
REMARK SMILES IDX 30 23 24 24 25 25 31 26 32 27 11 28 26 30 27 31 29 32 28 33
REMARK SMILES IDX 3 34 2 35 1 36 36 37 37 38 38 39
REMARK H PARENT 11 29
REMARK Flexibility Score: inf
ROOT
ATOM      1  C   UNL     1      12.330  33.334  27.677  1.00  0.00     0.014 C 
ENDROOT
BRANCH   1   2
ATOM      2  C   UNL     1      12.536  34.869  27.715  1.00  0.00     0.042 C 
BRANCH   2   3
ATOM      3  C   UNL     1      12.228  35.321  29.125  1.00  0.00     0.045 C 
ATOM      4  O   UNL     1      11.479  34.624  29.868  1.00  0.00    -0.550 OA
ATOM      5  O   UNL     1      12.745  36.514  29.604  1.00  0.00    -0.550 OA
ENDBRANCH   2   3
BRANCH   2   6
ATOM      6  C   UNL     1      11.645  35.657  26.672  1.00  0.00     0.033 C 
ATOM      7  C   UNL     1      10.336  34.895  26.281  1.00  0.00     0.119 C 
ATOM      8  C   UNL     1      11.155  37.125  27.015  1.00  0.00    -0.017 C 
ATOM      9  C   UNL     1       9.193  35.903  26.319  1.00  0.00     0.043 C 
ATOM     10  C   UNL     1       9.837  37.288  26.173  1.00  0.00    -0.003 C 
ATOM     11  C   UNL     1      12.121  38.267  26.611  1.00  0.00     0.012 C 
ATOM     12  C   UNL     1      10.887  37.254  28.543  1.00  0.00     0.013 C 
ATOM     13  C   UNL     1       8.885  38.392  26.719  1.00  0.00     0.017 C 
ATOM     14  C   UNL     1      10.107  37.587  24.668  1.00  0.00    -0.064 C 
ATOM     15  C   UNL     1      12.480  38.267  25.135  1.00  0.00     0.032 C 
ATOM     16  C   UNL     1      11.281  38.118  24.204  1.00  0.00    -0.064 C 
ATOM     17  C   UNL     1       8.969  37.411  23.672  1.00  0.00     0.032 C 
ATOM     18  C   UNL     1      11.493  38.354  22.672  1.00  0.00    -0.008 C 
ATOM     19  C   UNL     1       8.875  38.641  22.790  1.00  0.00     0.009 C 
ATOM     20  C   UNL     1      10.149  38.792  21.921  1.00  0.00     0.009 C 
ATOM     21  C   UNL     1      12.639  39.392  22.436  1.00  0.00     0.015 C 
ATOM     22  C   UNL     1      11.985  37.002  22.086  1.00  0.00     0.016 C 
ATOM     23  C   UNL     1      10.206  40.193  21.207  1.00  0.00     0.005 C 
ATOM     24  C   UNL     1      12.793  39.884  20.995  1.00  0.00     0.047 C 
ATOM     25  C   UNL     1      11.475  40.246  20.289  1.00  0.00     0.182 C 
ATOM     26  C   UNL     1      10.211  41.376  22.237  1.00  0.00     0.015 C 
ATOM     27  C   UNL     1       8.963  40.387  20.293  1.00  0.00     0.015 C 
BRANCH   7  28
ATOM     28  O   UNL     1      10.023  33.833  27.148  1.00  0.00    -0.393 OA
ATOM     29  H   UNL     1       9.391  34.190  27.832  1.00  0.00     0.210 HD
ENDBRANCH   7  28
BRANCH  25  30
ATOM     30  O   UNL     1      11.302  39.384  19.159  1.00  0.00    -0.462 OA
BRANCH  30  31
ATOM     31  C   UNL     1      11.238  39.843  17.833  1.00  0.00     0.302 C 
ATOM     32  O   UNL     1      11.135  39.031  16.875  1.00  0.00    -0.253 OA
ATOM     33  C   UNL     1      11.288  41.307  17.558  1.00  0.00     0.139 C 
ENDBRANCH  30  31
ENDBRANCH  25  30
ENDBRANCH   2   6
ENDBRANCH   1   2
BRANCH   1  34
ATOM     34  C   UNL     1      13.623  32.529  27.401  1.00  0.00     0.031 C 
BRANCH  34  35
ATOM     35  C   UNL     1      13.483  31.047  27.712  1.00  0.00    -0.075 C 
ATOM     36  C   UNL     1      12.406  30.369  27.252  1.00  0.00     0.008 C 
BRANCH  35  37
ATOM     37  C   UNL     1      14.525  30.356  28.594  1.00  0.00     0.008 C 
ATOM     38  C   UNL     1      15.965  30.793  28.266  1.00  0.00     0.012 C 
ATOM     39  C   UNL     1      14.213  30.583  30.082  1.00  0.00     0.012 C 
ENDBRANCH  35  37
ENDBRANCH  34  35
ENDBRANCH   1  34
TORSDOF 9
ENDMDL
MODEL 2
REMARK VINA RESULT:    -3.917      7.706     11.852
REMARK INTER + INTRA:          -2.404
REMARK INTER:                  -1.267
REMARK INTRA:                  -1.138
REMARK UNBOUND:                 3.459
REMARK SMILES C=C(CC[C@H](C(=O)[O-])[C@H]1[C@@H](O)C[C@]2(C)C3=C(CC[C@]12C)[C@]1(C)CC[C@@H](OC(C)=O)C(C)(C)[C@@H]1CC3)C(C)C
REMARK SMILES IDX 4 1 5 2 6 3 7 4 8 5 9 6 10 7 19 8 12 9 13 10 18 11 20 12
REMARK SMILES IDX 14 13 15 14 17 15 16 16 35 17 21 18 34 19 33 20 23 21 22 22
REMARK SMILES IDX 30 23 24 24 25 25 31 26 32 27 11 28 26 30 27 31 29 32 28 33
REMARK SMILES IDX 3 34 2 35 1 36 36 37 37 38 38 39
REMARK H PARENT 11 29
REMARK Flexibility Score: inf
ROOT
ATOM      1  C   UNL     1      20.662  44.894  21.919  1.00  0.00     0.014 C 
ENDROOT
BRANCH   1   2
ATOM      2  C   UNL     1      19.865  45.401  23.146  1.00  0.00     0.042 C 
BRANCH   2   3
ATOM      3  C   UNL     1      20.275  44.546  24.325  1.00  0.00     0.045 C 
ATOM      4  O   UNL     1      20.498  43.311  24.169  1.00  0.00    -0.550 OA
ATOM      5  O   UNL     1      20.388  45.105  25.587  1.00  0.00    -0.550 OA
ENDBRANCH   2   3
BRANCH   2   6
ATOM      6  C   UNL     1      18.296  45.357  22.949  1.00  0.00     0.033 C 
ATOM      7  C   UNL     1      17.510  46.045  24.113  1.00  0.00     0.119 C 
ATOM      8  C   UNL     1      17.657  45.966  21.632  1.00  0.00    -0.017 C 
ATOM      9  C   UNL     1      16.435  46.922  23.482  1.00  0.00     0.043 C 
ATOM     10  C   UNL     1      16.201  46.366  22.072  1.00  0.00    -0.003 C 
ATOM     11  C   UNL     1      17.541  44.996  20.431  1.00  0.00     0.012 C 
ATOM     12  C   UNL     1      18.480  47.202  21.162  1.00  0.00     0.013 C 
ATOM     13  C   UNL     1      15.552  47.448  21.159  1.00  0.00     0.017 C 
ATOM     14  C   UNL     1      15.228  45.150  22.140  1.00  0.00    -0.064 C 
ATOM     15  C   UNL     1      16.760  43.731  20.743  1.00  0.00     0.032 C 
ATOM     16  C   UNL     1      15.438  43.979  21.462  1.00  0.00    -0.064 C 
ATOM     17  C   UNL     1      13.910  45.308  22.886  1.00  0.00     0.032 C 
ATOM     18  C   UNL     1      14.436  42.787  21.612  1.00  0.00    -0.008 C 
ATOM     19  C   UNL     1      12.776  44.794  22.022  1.00  0.00     0.009 C 
ATOM     20  C   UNL     1      12.919  43.270  21.779  1.00  0.00     0.009 C 
ATOM     21  C   UNL     1      14.587  41.797  20.411  1.00  0.00     0.015 C 
ATOM     22  C   UNL     1      14.866  42.013  22.888  1.00  0.00     0.016 C 
ATOM     23  C   UNL     1      11.926  42.760  20.670  1.00  0.00     0.005 C 
ATOM     24  C   UNL     1      13.512  40.711  20.315  1.00  0.00     0.047 C 
ATOM     25  C   UNL     1      12.071  41.206  20.533  1.00  0.00     0.182 C 
ATOM     26  C   UNL     1      12.173  43.468  19.292  1.00  0.00     0.015 C 
ATOM     27  C   UNL     1      10.456  43.055  21.080  1.00  0.00     0.015 C 
BRANCH   7  28
ATOM     28  O   UNL     1      18.316  46.852  24.937  1.00  0.00    -0.393 OA
ATOM     29  H   UNL     1      19.003  47.274  24.351  1.00  0.00     0.210 HD
ENDBRANCH   7  28
BRANCH  25  30
ATOM     30  O   UNL     1      11.527  40.556  21.688  1.00  0.00    -0.462 OA
BRANCH  30  31
ATOM     31  C   UNL     1      10.594  39.509  21.624  1.00  0.00     0.302 C 
ATOM     32  O   UNL     1      10.203  39.063  20.512  1.00  0.00    -0.253 OA
ATOM     33  C   UNL     1      10.064  38.916  22.883  1.00  0.00     0.139 C 
ENDBRANCH  30  31
ENDBRANCH  25  30
ENDBRANCH   2   6
ENDBRANCH   1   2
BRANCH   1  34
ATOM     34  C   UNL     1      22.078  45.506  21.787  1.00  0.00     0.031 C 
BRANCH  34  35
ATOM     35  C   UNL     1      22.511  45.707  20.344  1.00  0.00    -0.075 C 
ATOM     36  C   UNL     1      22.500  44.654  19.494  1.00  0.00     0.008 C 
BRANCH  35  37
ATOM     37  C   UNL     1      23.015  47.078  19.887  1.00  0.00     0.008 C 
ATOM     38  C   UNL     1      23.623  47.046  18.473  1.00  0.00     0.012 C 
ATOM     39  C   UNL     1      21.893  48.124  19.974  1.00  0.00     0.012 C 
ENDBRANCH  35  37
ENDBRANCH  34  35
ENDBRANCH   1  34
TORSDOF 9
ENDMDL
