MODEL 1
REMARK VINA RESULT:    -4.986      0.000      0.000
REMARK INTER + INTRA:         -12.446
REMARK INTER:                 -10.816
REMARK INTRA:                  -1.630
REMARK UNBOUND:                -1.630
REMARK SMILES CCCCCCCCCCCCCCCCCCCCCC(=O)[O-]
REMARK SMILES IDX 12 1 11 2 10 3 9 4 8 5 7 6 6 7 5 8 4 9 3 10 2 11 1 12 13 13
REMARK SMILES IDX 14 14 15 15 16 16 17 17 18 18 19 19 20 20 21 21 22 22 23 23
REMARK SMILES IDX 24 24
REMARK H PARENT
REMARK Flexibility Score: inf
ROOT
ATOM      1  C   UNL     1      -5.865  -6.615  28.085  1.00  0.00     0.000 C 
ENDROOT
BRANCH   1   2
ATOM      2  C   UNL     1      -5.920  -7.358  29.434  1.00  0.00     0.000 C 
BRANCH   2   3
ATOM      3  C   UNL     1      -6.209  -8.866  29.339  1.00  0.00     0.000 C 
BRANCH   3   4
ATOM      4  C   UNL     1      -5.181  -9.783  30.032  1.00  0.00    -0.000 C 
BRANCH   4   5
ATOM      5  C   UNL     1      -4.508 -10.802  29.088  1.00  0.00    -0.000 C 
BRANCH   5   6
ATOM      6  C   UNL     1      -4.895 -10.594  27.611  1.00  0.00    -0.000 C 
BRANCH   6   7
ATOM      7  C   UNL     1      -4.561 -11.811  26.733  1.00  0.00    -0.000 C 
BRANCH   7   8
ATOM      8  C   UNL     1      -4.266 -11.425  25.273  1.00  0.00    -0.000 C 
BRANCH   8   9
ATOM      9  C   UNL     1      -3.081 -12.213  24.690  1.00  0.00    -0.000 C 
BRANCH   9  10
ATOM     10  C   UNL     1      -2.149 -12.763  25.780  1.00  0.00    -0.000 C 
BRANCH  10  11
ATOM     11  C   UNL     1      -0.791 -12.052  25.751  1.00  0.00    -0.003 C 
ATOM     12  C   UNL     1      -0.442 -11.473  27.119  1.00  0.00     0.004 C 
ENDBRANCH  10  11
ENDBRANCH   9  10
ENDBRANCH   8   9
ENDBRANCH   7   8
ENDBRANCH   6   7
ENDBRANCH   5   6
ENDBRANCH   4   5
ENDBRANCH   3   4
ENDBRANCH   2   3
ENDBRANCH   1   2
BRANCH   1  13
ATOM     13  C   UNL     1      -5.734  -5.094  28.243  1.00  0.00     0.000 C 
BRANCH  13  14
ATOM     14  C   UNL     1      -4.564  -4.738  29.173  1.00  0.00     0.000 C 
BRANCH  14  15
ATOM     15  C   UNL     1      -4.309  -3.222  29.256  1.00  0.00     0.000 C 
BRANCH  15  16
ATOM     16  C   UNL     1      -5.147  -2.365  28.287  1.00  0.00     0.000 C 
BRANCH  16  17
ATOM     17  C   UNL     1      -4.732  -0.885  28.194  1.00  0.00     0.000 C 
BRANCH  17  18
ATOM     18  C   UNL     1      -3.598  -0.521  29.165  1.00  0.00     0.000 C 
BRANCH  18  19
ATOM     19  C   UNL     1      -2.396   0.125  28.457  1.00  0.00     0.000 C 
BRANCH  19  20
ATOM     20  C   UNL     1      -2.024  -0.562  27.123  1.00  0.00     0.006 C 
BRANCH  20  21
ATOM     21  C   UNL     1      -0.579  -1.086  27.099  1.00  0.00     0.053 C 
BRANCH  21  22
ATOM     22  C   UNL     1      -0.322  -2.039  28.226  1.00  0.00     0.041 C 
ATOM     23  O   UNL     1      -0.985  -3.105  28.321  1.00  0.00    -0.550 OA
ATOM     24  O   UNL     1       0.629  -1.732  29.191  1.00  0.00    -0.550 OA
ENDBRANCH  21  22
ENDBRANCH  20  21
ENDBRANCH  19  20
ENDBRANCH  18  19
ENDBRANCH  17  18
ENDBRANCH  16  17
ENDBRANCH  15  16
ENDBRANCH  14  15
ENDBRANCH  13  14
ENDBRANCH   1  13
TORSDOF 20
ENDMDL
MODEL 2
REMARK VINA RESULT:    -4.976      3.124      9.455
REMARK INTER + INTRA:         -12.425
REMARK INTER:                 -10.789
REMARK INTRA:                  -1.636
REMARK UNBOUND:                -1.630
REMARK SMILES CCCCCCCCCCCCCCCCCCCCCC(=O)[O-]
REMARK SMILES IDX 12 1 11 2 10 3 9 4 8 5 7 6 6 7 5 8 4 9 3 10 2 11 1 12 13 13
REMARK SMILES IDX 14 14 15 15 16 16 17 17 18 18 19 19 20 20 21 21 22 22 23 23
REMARK SMILES IDX 24 24
REMARK H PARENT
REMARK Flexibility Score: inf
ROOT
ATOM      1  C   UNL     1      -5.840  -6.567  28.226  1.00  0.00     0.000 C 
ENDROOT
BRANCH   1   2
ATOM      2  C   UNL     1      -5.286  -5.132  28.319  1.00  0.00     0.000 C 
BRANCH   2   3
ATOM      3  C   UNL     1      -5.431  -4.462  29.697  1.00  0.00     0.000 C 
BRANCH   3   4
ATOM      4  C   UNL     1      -5.143  -2.948  29.731  1.00  0.00    -0.000 C 
BRANCH   4   5
ATOM      5  C   UNL     1      -5.492  -2.210  28.421  1.00  0.00    -0.000 C 
BRANCH   5   6
ATOM      6  C   UNL     1      -4.363  -1.277  27.943  1.00  0.00    -0.000 C 
BRANCH   6   7
ATOM      7  C   UNL     1      -4.031  -0.177  28.963  1.00  0.00    -0.000 C 
BRANCH   7   8
ATOM      8  C   UNL     1      -2.524   0.127  29.038  1.00  0.00    -0.000 C 
BRANCH   8   9
ATOM      9  C   UNL     1      -1.716  -0.671  28.001  1.00  0.00    -0.000 C 
BRANCH   9  10
ATOM     10  C   UNL     1      -0.542  -1.434  28.633  1.00  0.00    -0.000 C 
BRANCH  10  11
ATOM     11  C   UNL     1      -0.534  -2.900  28.184  1.00  0.00    -0.003 C 
ATOM     12  C   UNL     1      -1.604  -3.707  28.913  1.00  0.00     0.004 C 
ENDBRANCH  10  11
ENDBRANCH   9  10
ENDBRANCH   8   9
ENDBRANCH   7   8
ENDBRANCH   6   7
ENDBRANCH   5   6
ENDBRANCH   4   5
ENDBRANCH   3   4
ENDBRANCH   2   3
ENDBRANCH   1   2
BRANCH   1  13
ATOM     13  C   UNL     1      -5.780  -7.319  29.562  1.00  0.00     0.000 C 
BRANCH  13  14
ATOM     14  C   UNL     1      -6.254  -8.771  29.397  1.00  0.00     0.000 C 
BRANCH  14  15
ATOM     15  C   UNL     1      -5.286  -9.790  30.024  1.00  0.00     0.000 C 
BRANCH  15  16
ATOM     16  C   UNL     1      -4.610 -10.749  29.022  1.00  0.00     0.000 C 
BRANCH  16  17
ATOM     17  C   UNL     1      -5.026 -10.562  27.552  1.00  0.00     0.000 C 
BRANCH  17  18
ATOM     18  C   UNL     1      -4.695 -11.782  26.678  1.00  0.00     0.000 C 
BRANCH  18  19
ATOM     19  C   UNL     1      -4.267 -11.393  25.254  1.00  0.00     0.000 C 
BRANCH  19  20
ATOM     20  C   UNL     1      -3.393 -12.462  24.558  1.00  0.00     0.006 C 
BRANCH  20  21
ATOM     21  C   UNL     1      -1.926 -12.428  25.014  1.00  0.00     0.053 C 
BRANCH  21  22
ATOM     22  C   UNL     1      -0.991 -12.324  23.848  1.00  0.00     0.041 C 
ATOM     23  O   UNL     1      -0.837 -13.299  23.067  1.00  0.00    -0.550 OA
ATOM     24  O   UNL     1      -0.264 -11.157  23.643  1.00  0.00    -0.550 OA
ENDBRANCH  21  22
ENDBRANCH  20  21
ENDBRANCH  19  20
ENDBRANCH  18  19
ENDBRANCH  17  18
ENDBRANCH  16  17
ENDBRANCH  15  16
ENDBRANCH  14  15
ENDBRANCH  13  14
ENDBRANCH   1  13
TORSDOF 20
ENDMDL
MODEL 3
REMARK VINA RESULT:    -4.904      3.011      9.199
REMARK INTER + INTRA:         -12.268
REMARK INTER:                 -10.648
REMARK INTRA:                  -1.620
REMARK UNBOUND:                -1.630
REMARK SMILES CCCCCCCCCCCCCCCCCCCCCC(=O)[O-]
REMARK SMILES IDX 12 1 11 2 10 3 9 4 8 5 7 6 6 7 5 8 4 9 3 10 2 11 1 12 13 13
REMARK SMILES IDX 14 14 15 15 16 16 17 17 18 18 19 19 20 20 21 21 22 22 23 23
REMARK SMILES IDX 24 24
REMARK H PARENT
REMARK Flexibility Score: inf
ROOT
ATOM      1  C   UNL     1      -5.120  -5.238  28.272  1.00  0.00     0.000 C 
ENDROOT
BRANCH   1   2
ATOM      2  C   UNL     1      -5.852  -3.882  28.248  1.00  0.00     0.000 C 
BRANCH   2   3
ATOM      3  C   UNL     1      -5.396  -2.873  29.318  1.00  0.00     0.000 C 
BRANCH   3   4
ATOM      4  C   UNL     1      -5.370  -1.399  28.868  1.00  0.00    -0.000 C 
BRANCH   4   5
ATOM      5  C   UNL     1      -4.065  -0.979  28.158  1.00  0.00    -0.000 C 
BRANCH   5   6
ATOM      6  C   UNL     1      -3.215  -0.007  28.999  1.00  0.00    -0.000 C 
BRANCH   6   7
ATOM      7  C   UNL     1      -1.903   0.388  28.303  1.00  0.00    -0.000 C 
BRANCH   7   8
ATOM      8  C   UNL     1      -1.610  -0.470  27.060  1.00  0.00    -0.000 C 
BRANCH   8   9
ATOM      9  C   UNL     1      -0.336  -1.316  27.222  1.00  0.00    -0.000 C 
BRANCH   9  10
ATOM     10  C   UNL     1      -0.179  -1.873  28.645  1.00  0.00    -0.000 C 
BRANCH  10  11
ATOM     11  C   UNL     1      -0.341  -3.397  28.659  1.00  0.00    -0.003 C 
ATOM     12  C   UNL     1      -1.774  -3.797  28.996  1.00  0.00     0.004 C 
ENDBRANCH  10  11
ENDBRANCH   9  10
ENDBRANCH   8   9
ENDBRANCH   7   8
ENDBRANCH   6   7
ENDBRANCH   5   6
ENDBRANCH   4   5
ENDBRANCH   3   4
ENDBRANCH   2   3
ENDBRANCH   1   2
BRANCH   1  13
ATOM     13  C   UNL     1      -5.682  -6.204  29.322  1.00  0.00     0.000 C 
BRANCH  13  14
ATOM     14  C   UNL     1      -6.082  -7.541  28.681  1.00  0.00     0.000 C 
BRANCH  14  15
ATOM     15  C   UNL     1      -6.101  -8.705  29.688  1.00  0.00     0.000 C 
BRANCH  15  16
ATOM     16  C   UNL     1      -5.289  -9.947  29.266  1.00  0.00     0.000 C 
BRANCH  16  17
ATOM     17  C   UNL     1      -5.262 -10.229  27.753  1.00  0.00     0.000 C 
BRANCH  17  18
ATOM     18  C   UNL     1      -4.285 -11.353  27.373  1.00  0.00     0.000 C 
BRANCH  18  19
ATOM     19  C   UNL     1      -3.112 -11.478  28.358  1.00  0.00     0.000 C 
BRANCH  19  20
ATOM     20  C   UNL     1      -1.958 -12.365  27.835  1.00  0.00     0.006 C 
BRANCH  20  21
ATOM     21  C   UNL     1      -0.652 -11.585  27.616  1.00  0.00     0.053 C 
BRANCH  21  22
ATOM     22  C   UNL     1      -0.163 -11.717  26.207  1.00  0.00     0.041 C 
ATOM     23  O   UNL     1      -0.953 -12.060  25.289  1.00  0.00    -0.550 OA
ATOM     24  O   UNL     1       1.177 -11.493  25.913  1.00  0.00    -0.550 OA
ENDBRANCH  21  22
ENDBRANCH  20  21
ENDBRANCH  19  20
ENDBRANCH  18  19
ENDBRANCH  17  18
ENDBRANCH  16  17
ENDBRANCH  15  16
ENDBRANCH  14  15
ENDBRANCH  13  14
ENDBRANCH   1  13
TORSDOF 20
ENDMDL
MODEL 4
REMARK VINA RESULT:    -4.867      3.418      9.658
REMARK INTER + INTRA:         -12.187
REMARK INTER:                 -10.765
REMARK INTRA:                  -1.422
REMARK UNBOUND:                -1.630
REMARK SMILES CCCCCCCCCCCCCCCCCCCCCC(=O)[O-]
REMARK SMILES IDX 12 1 11 2 10 3 9 4 8 5 7 6 6 7 5 8 4 9 3 10 2 11 1 12 13 13
REMARK SMILES IDX 14 14 15 15 16 16 17 17 18 18 19 19 20 20 21 21 22 22 23 23
REMARK SMILES IDX 24 24
REMARK H PARENT
REMARK Flexibility Score: inf
ROOT
ATOM      1  C   UNL     1      -5.631  -2.691  28.583  1.00  0.00     0.000 C 
ENDROOT
BRANCH   1   2
ATOM      2  C   UNL     1      -4.849  -1.405  28.255  1.00  0.00     0.000 C 
BRANCH   2   3
ATOM      3  C   UNL     1      -5.346  -0.137  28.972  1.00  0.00     0.000 C 
BRANCH   3   4
ATOM      4  C   UNL     1      -4.241   0.793  29.513  1.00  0.00    -0.000 C 
BRANCH   4   5
ATOM      5  C   UNL     1      -2.809   0.253  29.316  1.00  0.00    -0.000 C 
BRANCH   5   6
ATOM      6  C   UNL     1      -1.818   1.341  28.859  1.00  0.00    -0.000 C 
BRANCH   6   7
ATOM      7  C   UNL     1      -0.692   0.783  27.974  1.00  0.00    -0.000 C 
BRANCH   7   8
ATOM      8  C   UNL     1      -1.196  -0.256  26.957  1.00  0.00    -0.000 C 
BRANCH   8   9
ATOM      9  C   UNL     1      -0.376  -1.556  26.996  1.00  0.00    -0.000 C 
BRANCH   9  10
ATOM     10  C   UNL     1      -0.675  -2.401  28.243  1.00  0.00    -0.000 C 
BRANCH  10  11
ATOM     11  C   UNL     1       0.589  -2.605  29.085  1.00  0.00    -0.003 C 
ATOM     12  C   UNL     1       1.848  -2.363  28.258  1.00  0.00     0.004 C 
ENDBRANCH  10  11
ENDBRANCH   9  10
ENDBRANCH   8   9
ENDBRANCH   7   8
ENDBRANCH   6   7
ENDBRANCH   5   6
ENDBRANCH   4   5
ENDBRANCH   3   4
ENDBRANCH   2   3
ENDBRANCH   1   2
BRANCH   1  13
ATOM     13  C   UNL     1      -4.721  -3.908  28.798  1.00  0.00     0.000 C 
BRANCH  13  14
ATOM     14  C   UNL     1      -5.362  -5.182  28.229  1.00  0.00     0.000 C 
BRANCH  14  15
ATOM     15  C   UNL     1      -5.716  -6.210  29.318  1.00  0.00     0.000 C 
BRANCH  15  16
ATOM     16  C   UNL     1      -6.073  -7.617  28.796  1.00  0.00     0.000 C 
BRANCH  16  17
ATOM     17  C   UNL     1      -6.131  -8.719  29.870  1.00  0.00     0.000 C 
BRANCH  17  18
ATOM     18  C   UNL     1      -5.334  -9.974  29.481  1.00  0.00     0.000 C 
BRANCH  18  19
ATOM     19  C   UNL     1      -5.229 -10.162  27.959  1.00  0.00     0.000 C 
BRANCH  19  20
ATOM     20  C   UNL     1      -4.231 -11.266  27.541  1.00  0.00     0.006 C 
BRANCH  20  21
ATOM     21  C   UNL     1      -4.425 -11.735  26.090  1.00  0.00     0.053 C 
BRANCH  21  22
ATOM     22  C   UNL     1      -3.362 -12.708  25.681  1.00  0.00     0.041 C 
ATOM     23  O   UNL     1      -2.417 -12.984  26.465  1.00  0.00    -0.550 OA
ATOM     24  O   UNL     1      -3.399 -13.286  24.417  1.00  0.00    -0.550 OA
ENDBRANCH  21  22
ENDBRANCH  20  21
ENDBRANCH  19  20
ENDBRANCH  18  19
ENDBRANCH  17  18
ENDBRANCH  16  17
ENDBRANCH  15  16
ENDBRANCH  14  15
ENDBRANCH  13  14
ENDBRANCH   1  13
TORSDOF 20
ENDMDL
MODEL 5
REMARK VINA RESULT:    -4.863      3.057     10.039
REMARK INTER + INTRA:         -12.178
REMARK INTER:                 -10.462
REMARK INTRA:                  -1.716
REMARK UNBOUND:                -1.630
REMARK SMILES CCCCCCCCCCCCCCCCCCCCCC(=O)[O-]
REMARK SMILES IDX 12 1 11 2 10 3 9 4 8 5 7 6 6 7 5 8 4 9 3 10 2 11 1 12 13 13
REMARK SMILES IDX 14 14 15 15 16 16 17 17 18 18 19 19 20 20 21 21 22 22 23 23
REMARK SMILES IDX 24 24
REMARK H PARENT
REMARK Flexibility Score: inf
ROOT
ATOM      1  C   UNL     1      -5.752  -4.204  29.547  1.00  0.00     0.000 C 
ENDROOT
BRANCH   1   2
ATOM      2  C   UNL     1      -5.025  -2.862  29.763  1.00  0.00     0.000 C 
BRANCH   2   3
ATOM      3  C   UNL     1      -4.179  -2.377  28.572  1.00  0.00     0.000 C 
BRANCH   3   4
ATOM      4  C   UNL     1      -4.493  -0.951  28.075  1.00  0.00    -0.000 C 
BRANCH   4   5
ATOM      5  C   UNL     1      -5.413  -0.144  29.016  1.00  0.00    -0.000 C 
BRANCH   5   6
ATOM      6  C   UNL     1      -4.693   1.047  29.676  1.00  0.00    -0.000 C 
BRANCH   6   7
ATOM      7  C   UNL     1      -3.169   0.856  29.744  1.00  0.00    -0.000 C 
BRANCH   7   8
ATOM      8  C   UNL     1      -2.394   2.095  29.265  1.00  0.00    -0.000 C 
BRANCH   8   9
ATOM      9  C   UNL     1      -1.236   1.730  28.321  1.00  0.00    -0.000 C 
BRANCH   9  10
ATOM     10  C   UNL     1      -0.911   0.229  28.345  1.00  0.00    -0.000 C 
BRANCH  10  11
ATOM     11  C   UNL     1      -1.097  -0.395  26.958  1.00  0.00    -0.003 C 
ATOM     12  C   UNL     1      -0.119  -1.545  26.734  1.00  0.00     0.004 C 
ENDBRANCH  10  11
ENDBRANCH   9  10
ENDBRANCH   8   9
ENDBRANCH   7   8
ENDBRANCH   6   7
ENDBRANCH   5   6
ENDBRANCH   4   5
ENDBRANCH   3   4
ENDBRANCH   2   3
ENDBRANCH   1   2
BRANCH   1  13
ATOM     13  C   UNL     1      -5.150  -5.034  28.405  1.00  0.00     0.000 C 
BRANCH  13  14
ATOM     14  C   UNL     1      -5.893  -6.368  28.245  1.00  0.00     0.000 C 
BRANCH  14  15
ATOM     15  C   UNL     1      -5.764  -7.275  29.481  1.00  0.00     0.000 C 
BRANCH  15  16
ATOM     16  C   UNL     1      -6.284  -8.715  29.292  1.00  0.00     0.000 C 
BRANCH  16  17
ATOM     17  C   UNL     1      -5.462  -9.807  30.000  1.00  0.00     0.000 C 
BRANCH  17  18
ATOM     18  C   UNL     1      -4.595 -10.626  29.030  1.00  0.00     0.000 C 
BRANCH  18  19
ATOM     19  C   UNL     1      -5.037 -10.474  27.566  1.00  0.00     0.000 C 
BRANCH  19  20
ATOM     20  C   UNL     1      -4.649 -11.677  26.677  1.00  0.00     0.006 C 
BRANCH  20  21
ATOM     21  C   UNL     1      -3.854 -12.752  27.433  1.00  0.00     0.053 C 
BRANCH  21  22
ATOM     22  C   UNL     1      -2.409 -12.748  27.037  1.00  0.00     0.041 C 
ATOM     23  O   UNL     1      -1.700 -11.726  27.230  1.00  0.00    -0.550 OA
ATOM     24  O   UNL     1      -1.854 -13.864  26.423  1.00  0.00    -0.550 OA
ENDBRANCH  21  22
ENDBRANCH  20  21
ENDBRANCH  19  20
ENDBRANCH  18  19
ENDBRANCH  17  18
ENDBRANCH  16  17
ENDBRANCH  15  16
ENDBRANCH  14  15
ENDBRANCH  13  14
ENDBRANCH   1  13
TORSDOF 20
ENDMDL
MODEL 6
REMARK VINA RESULT:    -4.848      0.972      1.715
REMARK INTER + INTRA:         -12.145
REMARK INTER:                 -10.864
REMARK INTRA:                  -1.282
REMARK UNBOUND:                -1.630
REMARK SMILES CCCCCCCCCCCCCCCCCCCCCC(=O)[O-]
REMARK SMILES IDX 12 1 11 2 10 3 9 4 8 5 7 6 6 7 5 8 4 9 3 10 2 11 1 12 13 13
REMARK SMILES IDX 14 14 15 15 16 16 17 17 18 18 19 19 20 20 21 21 22 22 23 23
REMARK SMILES IDX 24 24
REMARK H PARENT
REMARK Flexibility Score: inf
ROOT
ATOM      1  C   UNL     1      -5.799  -7.008  29.239  1.00  0.00     0.000 C 
ENDROOT
BRANCH   1   2
ATOM      2  C   UNL     1      -6.202  -8.485  29.061  1.00  0.00     0.000 C 
BRANCH   2   3
ATOM      3  C   UNL     1      -5.443  -9.482  29.955  1.00  0.00     0.000 C 
BRANCH   3   4
ATOM      4  C   UNL     1      -4.706 -10.612  29.208  1.00  0.00    -0.000 C 
BRANCH   4   5
ATOM      5  C   UNL     1      -4.986 -10.653  27.691  1.00  0.00    -0.000 C 
BRANCH   5   6
ATOM      6  C   UNL     1      -4.024 -11.587  26.932  1.00  0.00    -0.000 C 
BRANCH   6   7
ATOM      7  C   UNL     1      -4.342 -11.673  25.431  1.00  0.00    -0.000 C 
BRANCH   7   8
ATOM      8  C   UNL     1      -3.146 -12.170  24.599  1.00  0.00    -0.000 C 
BRANCH   8   9
ATOM      9  C   UNL     1      -2.039 -12.779  25.475  1.00  0.00    -0.000 C 
BRANCH   9  10
ATOM     10  C   UNL     1      -0.659 -12.171  25.183  1.00  0.00    -0.000 C 
BRANCH  10  11
ATOM     11  C   UNL     1      -0.569 -11.685  23.732  1.00  0.00    -0.003 C 
ATOM     12  C   UNL     1       0.363 -12.570  22.910  1.00  0.00     0.004 C 
ENDBRANCH  10  11
ENDBRANCH   9  10
ENDBRANCH   8   9
ENDBRANCH   7   8
ENDBRANCH   6   7
ENDBRANCH   5   6
ENDBRANCH   4   5
ENDBRANCH   3   4
ENDBRANCH   2   3
ENDBRANCH   1   2
BRANCH   1  13
ATOM     13  C   UNL     1      -5.756  -6.235  27.913  1.00  0.00     0.000 C 
BRANCH  13  14
ATOM     14  C   UNL     1      -5.906  -4.725  28.153  1.00  0.00     0.000 C 
BRANCH  14  15
ATOM     15  C   UNL     1      -5.579  -4.315  29.600  1.00  0.00     0.000 C 
BRANCH  15  16
ATOM     16  C   UNL     1      -4.956  -2.912  29.756  1.00  0.00     0.000 C 
BRANCH  16  17
ATOM     17  C   UNL     1      -5.215  -1.947  28.585  1.00  0.00     0.000 C 
BRANCH  17  18
ATOM     18  C   UNL     1      -4.903  -0.484  28.937  1.00  0.00     0.000 C 
BRANCH  18  19
ATOM     19  C   UNL     1      -3.394  -0.195  28.989  1.00  0.00     0.000 C 
BRANCH  19  20
ATOM     20  C   UNL     1      -2.613  -0.782  27.790  1.00  0.00     0.006 C 
BRANCH  20  21
ATOM     21  C   UNL     1      -1.100  -0.870  28.044  1.00  0.00     0.053 C 
BRANCH  21  22
ATOM     22  C   UNL     1      -0.709  -2.216  28.574  1.00  0.00     0.041 C 
ATOM     23  O   UNL     1       0.462  -2.421  28.986  1.00  0.00    -0.550 OA
ATOM     24  O   UNL     1      -1.633  -3.254  28.584  1.00  0.00    -0.550 OA
ENDBRANCH  21  22
ENDBRANCH  20  21
ENDBRANCH  19  20
ENDBRANCH  18  19
ENDBRANCH  17  18
ENDBRANCH  16  17
ENDBRANCH  15  16
ENDBRANCH  14  15
ENDBRANCH  13  14
ENDBRANCH   1  13
TORSDOF 20
ENDMDL
MODEL 7
REMARK VINA RESULT:    -4.774      1.111      2.608
REMARK INTER + INTRA:         -11.987
REMARK INTER:                 -10.513
REMARK INTRA:                  -1.474
REMARK UNBOUND:                -1.630
REMARK SMILES CCCCCCCCCCCCCCCCCCCCCC(=O)[O-]
REMARK SMILES IDX 12 1 11 2 10 3 9 4 8 5 7 6 6 7 5 8 4 9 3 10 2 11 1 12 13 13
REMARK SMILES IDX 14 14 15 15 16 16 17 17 18 18 19 19 20 20 21 21 22 22 23 23
REMARK SMILES IDX 24 24
REMARK H PARENT
REMARK Flexibility Score: inf
ROOT
ATOM      1  C   UNL     1      -6.168  -8.715  29.707  1.00  0.00     0.000 C 
ENDROOT
BRANCH   1   2
ATOM      2  C   UNL     1      -5.278  -9.930  29.378  1.00  0.00     0.000 C 
BRANCH   2   3
ATOM      3  C   UNL     1      -5.110 -10.230  27.877  1.00  0.00     0.000 C 
BRANCH   3   4
ATOM      4  C   UNL     1      -4.202 -11.429  27.540  1.00  0.00    -0.000 C 
BRANCH   4   5
ATOM      5  C   UNL     1      -3.151 -11.749  28.625  1.00  0.00    -0.000 C 
BRANCH   5   6
ATOM      6  C   UNL     1      -1.963 -12.567  28.082  1.00  0.00    -0.000 C 
BRANCH   6   7
ATOM      7  C   UNL     1      -0.729 -11.698  27.791  1.00  0.00    -0.000 C 
BRANCH   7   8
ATOM      8  C   UNL     1      -0.341 -11.698  26.302  1.00  0.00    -0.000 C 
BRANCH   8   9
ATOM      9  C   UNL     1      -1.156 -12.716  25.487  1.00  0.00    -0.000 C 
BRANCH   9  10
ATOM     10  C   UNL     1      -1.690 -12.124  24.174  1.00  0.00    -0.000 C 
BRANCH  10  11
ATOM     11  C   UNL     1      -3.053 -12.726  23.814  1.00  0.00    -0.003 C 
ATOM     12  C   UNL     1      -3.470 -13.791  24.824  1.00  0.00     0.004 C 
ENDBRANCH  10  11
ENDBRANCH   9  10
ENDBRANCH   8   9
ENDBRANCH   7   8
ENDBRANCH   6   7
ENDBRANCH   5   6
ENDBRANCH   4   5
ENDBRANCH   3   4
ENDBRANCH   2   3
ENDBRANCH   1   2
BRANCH   1  13
ATOM     13  C   UNL     1      -6.088  -7.609  28.646  1.00  0.00     0.000 C 
BRANCH  13  14
ATOM     14  C   UNL     1      -5.665  -6.274  29.275  1.00  0.00     0.000 C 
BRANCH  14  15
ATOM     15  C   UNL     1      -5.237  -5.230  28.229  1.00  0.00     0.000 C 
BRANCH  15  16
ATOM     16  C   UNL     1      -5.863  -3.831  28.408  1.00  0.00     0.000 C 
BRANCH  16  17
ATOM     17  C   UNL     1      -4.998  -2.820  29.183  1.00  0.00     0.000 C 
BRANCH  17  18
ATOM     18  C   UNL     1      -5.242  -1.367  28.746  1.00  0.00     0.000 C 
BRANCH  18  19
ATOM     19  C   UNL     1      -4.185  -0.861  27.751  1.00  0.00     0.000 C 
BRANCH  19  20
ATOM     20  C   UNL     1      -2.766  -0.764  28.356  1.00  0.00     0.006 C 
BRANCH  20  21
ATOM     21  C   UNL     1      -1.684  -0.466  27.306  1.00  0.00     0.053 C 
BRANCH  21  22
ATOM     22  C   UNL     1      -0.498  -1.367  27.467  1.00  0.00     0.041 C 
ATOM     23  O   UNL     1       0.633  -1.011  27.047  1.00  0.00    -0.550 OA
ATOM     24  O   UNL     1      -0.651  -2.618  28.055  1.00  0.00    -0.550 OA
ENDBRANCH  21  22
ENDBRANCH  20  21
ENDBRANCH  19  20
ENDBRANCH  18  19
ENDBRANCH  17  18
ENDBRANCH  16  17
ENDBRANCH  15  16
ENDBRANCH  14  15
ENDBRANCH  13  14
ENDBRANCH   1  13
TORSDOF 20
ENDMDL
MODEL 8
REMARK VINA RESULT:    -4.740      3.613     10.067
REMARK INTER + INTRA:         -11.913
REMARK INTER:                 -10.720
REMARK INTRA:                  -1.193
REMARK UNBOUND:                -1.630
REMARK SMILES CCCCCCCCCCCCCCCCCCCCCC(=O)[O-]
REMARK SMILES IDX 12 1 11 2 10 3 9 4 8 5 7 6 6 7 5 8 4 9 3 10 2 11 1 12 13 13
REMARK SMILES IDX 14 14 15 15 16 16 17 17 18 18 19 19 20 20 21 21 22 22 23 23
REMARK SMILES IDX 24 24
REMARK H PARENT
REMARK Flexibility Score: inf
ROOT
ATOM      1  C   UNL     1      -5.552  -9.569  28.571  1.00  0.00     0.000 C 
ENDROOT
BRANCH   1   2
ATOM      2  C   UNL     1      -6.204  -8.699  29.662  1.00  0.00     0.000 C 
BRANCH   2   3
ATOM      3  C   UNL     1      -5.814  -7.210  29.632  1.00  0.00     0.000 C 
BRANCH   3   4
ATOM      4  C   UNL     1      -5.875  -6.538  28.246  1.00  0.00    -0.000 C 
BRANCH   4   5
ATOM      5  C   UNL     1      -5.464  -5.050  28.248  1.00  0.00    -0.000 C 
BRANCH   5   6
ATOM      6  C   UNL     1      -5.544  -4.411  29.648  1.00  0.00    -0.000 C 
BRANCH   6   7
ATOM      7  C   UNL     1      -5.124  -2.933  29.650  1.00  0.00    -0.000 C 
BRANCH   7   8
ATOM      8  C   UNL     1      -5.321  -2.258  28.281  1.00  0.00    -0.000 C 
BRANCH   8   9
ATOM      9  C   UNL     1      -4.653  -0.875  28.211  1.00  0.00    -0.000 C 
BRANCH   9  10
ATOM     10  C   UNL     1      -3.175  -0.915  28.624  1.00  0.00    -0.000 C 
BRANCH  10  11
ATOM     11  C   UNL     1      -2.266  -0.538  27.449  1.00  0.00    -0.003 C 
ATOM     12  C   UNL     1      -1.358   0.635  27.808  1.00  0.00     0.004 C 
ENDBRANCH  10  11
ENDBRANCH   9  10
ENDBRANCH   8   9
ENDBRANCH   7   8
ENDBRANCH   6   7
ENDBRANCH   5   6
ENDBRANCH   4   5
ENDBRANCH   3   4
ENDBRANCH   2   3
ENDBRANCH   1   2
BRANCH   1  13
ATOM     13  C   UNL     1      -4.627 -10.653  29.142  1.00  0.00     0.000 C 
BRANCH  13  14
ATOM     14  C   UNL     1      -3.854 -11.362  28.020  1.00  0.00     0.000 C 
BRANCH  14  15
ATOM     15  C   UNL     1      -4.579 -11.299  26.663  1.00  0.00     0.000 C 
BRANCH  15  16
ATOM     16  C   UNL     1      -4.801 -12.663  25.978  1.00  0.00     0.000 C 
BRANCH  16  17
ATOM     17  C   UNL     1      -3.737 -13.732  26.287  1.00  0.00     0.000 C 
BRANCH  17  18
ATOM     18  C   UNL     1      -2.772 -13.970  25.114  1.00  0.00     0.000 C 
BRANCH  18  19
ATOM     19  C   UNL     1      -2.857 -12.870  24.043  1.00  0.00     0.000 C 
BRANCH  19  20
ATOM     20  C   UNL     1      -1.579 -12.006  23.944  1.00  0.00     0.006 C 
BRANCH  20  21
ATOM     21  C   UNL     1      -0.347 -12.804  23.490  1.00  0.00     0.053 C 
BRANCH  21  22
ATOM     22  C   UNL     1      -0.031 -12.553  22.047  1.00  0.00     0.041 C 
ATOM     23  O   UNL     1      -0.276 -13.432  21.180  1.00  0.00    -0.550 OA
ATOM     24  O   UNL     1       0.565 -11.357  21.665  1.00  0.00    -0.550 OA
ENDBRANCH  21  22
ENDBRANCH  20  21
ENDBRANCH  19  20
ENDBRANCH  18  19
ENDBRANCH  17  18
ENDBRANCH  16  17
ENDBRANCH  15  16
ENDBRANCH  14  15
ENDBRANCH  13  14
ENDBRANCH   1  13
TORSDOF 20
ENDMDL
MODEL 9
REMARK VINA RESULT:    -4.720      1.744      2.283
REMARK INTER + INTRA:         -11.870
REMARK INTER:                 -10.738
REMARK INTRA:                  -1.131
REMARK UNBOUND:                -1.630
REMARK SMILES CCCCCCCCCCCCCCCCCCCCCC(=O)[O-]
REMARK SMILES IDX 12 1 11 2 10 3 9 4 8 5 7 6 6 7 5 8 4 9 3 10 2 11 1 12 13 13
REMARK SMILES IDX 14 14 15 15 16 16 17 17 18 18 19 19 20 20 21 21 22 22 23 23
REMARK SMILES IDX 24 24
REMARK H PARENT
REMARK Flexibility Score: inf
ROOT
ATOM      1  C   UNL     1      -6.110  -6.637  28.243  1.00  0.00     0.000 C 
ENDROOT
BRANCH   1   2
ATOM      2  C   UNL     1      -5.737  -7.316  29.575  1.00  0.00     0.000 C 
BRANCH   2   3
ATOM      3  C   UNL     1      -6.307  -8.733  29.769  1.00  0.00     0.000 C 
BRANCH   3   4
ATOM      4  C   UNL     1      -5.357  -9.886  29.388  1.00  0.00    -0.000 C 
BRANCH   4   5
ATOM      5  C   UNL     1      -5.196 -10.096  27.868  1.00  0.00    -0.000 C 
BRANCH   5   6
ATOM      6  C   UNL     1      -4.375 -11.354  27.522  1.00  0.00    -0.000 C 
BRANCH   6   7
ATOM      7  C   UNL     1      -4.725 -11.929  26.141  1.00  0.00    -0.000 C 
BRANCH   7   8
ATOM      8  C   UNL     1      -4.461 -13.442  26.044  1.00  0.00    -0.000 C 
BRANCH   8   9
ATOM      9  C   UNL     1      -3.068 -13.756  25.472  1.00  0.00    -0.000 C 
BRANCH   9  10
ATOM     10  C   UNL     1      -2.440 -12.548  24.762  1.00  0.00    -0.000 C 
BRANCH  10  11
ATOM     11  C   UNL     1      -2.034 -12.904  23.327  1.00  0.00    -0.003 C 
ATOM     12  C   UNL     1      -3.233 -13.391  22.519  1.00  0.00     0.004 C 
ENDBRANCH  10  11
ENDBRANCH   9  10
ENDBRANCH   8   9
ENDBRANCH   7   8
ENDBRANCH   6   7
ENDBRANCH   5   6
ENDBRANCH   4   5
ENDBRANCH   3   4
ENDBRANCH   2   3
ENDBRANCH   1   2
BRANCH   1  13
ATOM     13  C   UNL     1      -5.448  -5.263  28.066  1.00  0.00     0.000 C 
BRANCH  13  14
ATOM     14  C   UNL     1      -5.022  -4.680  29.421  1.00  0.00     0.000 C 
BRANCH  14  15
ATOM     15  C   UNL     1      -5.359  -3.185  29.560  1.00  0.00     0.000 C 
BRANCH  15  16
ATOM     16  C   UNL     1      -5.234  -2.364  28.260  1.00  0.00     0.000 C 
BRANCH  16  17
ATOM     17  C   UNL     1      -5.000  -0.855  28.457  1.00  0.00     0.000 C 
BRANCH  17  18
ATOM     18  C   UNL     1      -3.602  -0.534  29.008  1.00  0.00     0.000 C 
BRANCH  18  19
ATOM     19  C   UNL     1      -2.485  -1.281  28.261  1.00  0.00     0.000 C 
BRANCH  19  20
ATOM     20  C   UNL     1      -1.808  -0.436  27.158  1.00  0.00     0.006 C 
BRANCH  20  21
ATOM     21  C   UNL     1      -0.422   0.088  27.567  1.00  0.00     0.053 C 
BRANCH  21  22
ATOM     22  C   UNL     1      -0.453   1.559  27.848  1.00  0.00     0.041 C 
ATOM     23  O   UNL     1      -0.123   1.996  28.982  1.00  0.00    -0.550 OA
ATOM     24  O   UNL     1      -0.877   2.446  26.866  1.00  0.00    -0.550 OA
ENDBRANCH  21  22
ENDBRANCH  20  21
ENDBRANCH  19  20
ENDBRANCH  18  19
ENDBRANCH  17  18
ENDBRANCH  16  17
ENDBRANCH  15  16
ENDBRANCH  14  15
ENDBRANCH  13  14
ENDBRANCH   1  13
TORSDOF 20
ENDMDL
