MODEL 1
REMARK VINA RESULT:    -3.843      0.000      0.000
REMARK INTER + INTRA:          -5.917
REMARK INTER:                  -5.416
REMARK INTRA:                  -0.502
REMARK UNBOUND:                -0.502
REMARK SMILES CCCCCCCCC(=O)[O-]
REMARK SMILES IDX 6 1 7 2 8 3 9 4 10 5 11 6 5 7 4 8 3 9 2 10 1 11
REMARK H PARENT
REMARK Flexibility Score: inf
ROOT
ATOM      1  C   UNL     1     -43.652  26.882  25.416  1.00  0.00     0.000 C 
ENDROOT
BRANCH   1   2
ATOM      2  C   UNL     1     -44.820  26.823  24.416  1.00  0.00     0.006 C 
BRANCH   2   3
ATOM      3  C   UNL     1     -44.566  25.813  23.289  1.00  0.00     0.053 C 
BRANCH   3   4
ATOM      4  C   UNL     1     -44.576  26.470  21.942  1.00  0.00     0.041 C 
ATOM      5  O   UNL     1     -45.121  27.594  21.788  1.00  0.00    -0.550 OA
ATOM      6  O   UNL     1     -44.007  25.824  20.851  1.00  0.00    -0.550 OA
ENDBRANCH   3   4
ENDBRANCH   2   3
ENDBRANCH   1   2
BRANCH   1   7
ATOM      7  C   UNL     1     -43.617  28.200  26.206  1.00  0.00     0.000 C 
BRANCH   7   8
ATOM      8  C   UNL     1     -44.861  29.072  25.960  1.00  0.00    -0.000 C 
BRANCH   8   9
ATOM      9  C   UNL     1     -44.575  30.571  26.134  1.00  0.00    -0.000 C 
BRANCH   9  10
ATOM     10  C   UNL     1     -43.883  31.186  24.909  1.00  0.00    -0.003 C 
ATOM     11  C   UNL     1     -44.432  30.594  23.613  1.00  0.00     0.004 C 
ENDBRANCH   9  10
ENDBRANCH   8   9
ENDBRANCH   7   8
ENDBRANCH   1   7
TORSDOF 7
ENDMDL
MODEL 2
REMARK VINA RESULT:    -3.768     13.838     15.230
REMARK INTER + INTRA:          -5.812
REMARK INTER:                  -5.528
REMARK INTRA:                  -0.284
REMARK UNBOUND:                -0.502
REMARK SMILES CCCCCCCCC(=O)[O-]
REMARK SMILES IDX 6 1 7 2 8 3 9 4 10 5 11 6 5 7 4 8 3 9 2 10 1 11
REMARK H PARENT
REMARK Flexibility Score: inf
ROOT
ATOM      1  C   UNL     1     -31.517  24.314  29.516  1.00  0.00     0.000 C 
ENDROOT
BRANCH   1   2
ATOM      2  C   UNL     1     -32.019  25.163  30.697  1.00  0.00     0.006 C 
BRANCH   2   3
ATOM      3  C   UNL     1     -33.527  25.429  30.618  1.00  0.00     0.053 C 
BRANCH   3   4
ATOM      4  C   UNL     1     -34.239  24.969  31.854  1.00  0.00     0.041 C 
ATOM      5  O   UNL     1     -33.719  25.139  32.987  1.00  0.00    -0.550 OA
ATOM      6  O   UNL     1     -35.466  24.325  31.749  1.00  0.00    -0.550 OA
ENDBRANCH   3   4
ENDBRANCH   2   3
ENDBRANCH   1   2
BRANCH   1   7
ATOM      7  C   UNL     1     -31.920  22.837  29.638  1.00  0.00     0.000 C 
BRANCH   7   8
ATOM      8  C   UNL     1     -31.141  21.928  28.670  1.00  0.00    -0.000 C 
BRANCH   8   9
ATOM      9  C   UNL     1     -29.809  22.547  28.223  1.00  0.00    -0.000 C 
BRANCH   9  10
ATOM     10  C   UNL     1     -29.410  22.126  26.801  1.00  0.00    -0.003 C 
ATOM     11  C   UNL     1     -28.189  22.904  26.319  1.00  0.00     0.004 C 
ENDBRANCH   9  10
ENDBRANCH   8   9
ENDBRANCH   7   8
ENDBRANCH   1   7
TORSDOF 7
ENDMDL
MODEL 3
REMARK VINA RESULT:    -3.720     13.536     14.979
REMARK INTER + INTRA:          -5.743
REMARK INTER:                  -5.373
REMARK INTRA:                  -0.370
REMARK UNBOUND:                -0.502
REMARK SMILES CCCCCCCCC(=O)[O-]
REMARK SMILES IDX 6 1 7 2 8 3 9 4 10 5 11 6 5 7 4 8 3 9 2 10 1 11
REMARK H PARENT
REMARK Flexibility Score: inf
ROOT
ATOM      1  C   UNL     1     -31.976  25.169  30.729  1.00  0.00     0.000 C 
ENDROOT
BRANCH   1   2
ATOM      2  C   UNL     1     -33.501  25.370  30.752  1.00  0.00     0.006 C 
BRANCH   2   3
ATOM      3  C   UNL     1     -34.087  25.188  32.158  1.00  0.00     0.053 C 
BRANCH   3   4
ATOM      4  C   UNL     1     -34.579  23.790  32.380  1.00  0.00     0.041 C 
ATOM      5  O   UNL     1     -33.762  22.851  32.561  1.00  0.00    -0.550 OA
ATOM      6  O   UNL     1     -35.943  23.521  32.356  1.00  0.00    -0.550 OA
ENDBRANCH   3   4
ENDBRANCH   2   3
ENDBRANCH   1   2
BRANCH   1   7
ATOM      7  C   UNL     1     -31.504  24.373  29.502  1.00  0.00     0.000 C 
BRANCH   7   8
ATOM      8  C   UNL     1     -31.741  22.859  29.651  1.00  0.00    -0.000 C 
BRANCH   8   9
ATOM      9  C   UNL     1     -31.114  22.049  28.507  1.00  0.00    -0.000 C 
BRANCH   9  10
ATOM     10  C   UNL     1     -29.609  22.313  28.352  1.00  0.00    -0.003 C 
ATOM     11  C   UNL     1     -29.252  22.622  26.901  1.00  0.00     0.004 C 
ENDBRANCH   9  10
ENDBRANCH   8   9
ENDBRANCH   7   8
ENDBRANCH   1   7
TORSDOF 7
ENDMDL
MODEL 4
REMARK VINA RESULT:    -3.553     14.150     15.527
REMARK INTER + INTRA:          -5.509
REMARK INTER:                  -5.235
REMARK INTRA:                  -0.274
REMARK UNBOUND:                -0.502
REMARK SMILES CCCCCCCCC(=O)[O-]
REMARK SMILES IDX 6 1 7 2 8 3 9 4 10 5 11 6 5 7 4 8 3 9 2 10 1 11
REMARK H PARENT
REMARK Flexibility Score: inf
ROOT
ATOM      1  C   UNL     1     -31.813  22.894  29.989  1.00  0.00     0.000 C 
ENDROOT
BRANCH   1   2
ATOM      2  C   UNL     1     -31.642  24.386  29.656  1.00  0.00     0.006 C 
BRANCH   2   3
ATOM      3  C   UNL     1     -32.006  25.288  30.843  1.00  0.00     0.053 C 
BRANCH   3   4
ATOM      4  C   UNL     1     -33.477  25.263  31.130  1.00  0.00     0.041 C 
ATOM      5  O   UNL     1     -33.898  24.868  32.249  1.00  0.00    -0.550 OA
ATOM      6  O   UNL     1     -34.383  25.650  30.150  1.00  0.00    -0.550 OA
ENDBRANCH   3   4
ENDBRANCH   2   3
ENDBRANCH   1   2
BRANCH   1   7
ATOM      7  C   UNL     1     -31.050  21.981  29.016  1.00  0.00     0.000 C 
BRANCH   7   8
ATOM      8  C   UNL     1     -30.062  22.757  28.127  1.00  0.00    -0.000 C 
BRANCH   8   9
ATOM      9  C   UNL     1     -29.436  21.877  27.034  1.00  0.00    -0.000 C 
BRANCH   9  10
ATOM     10  C   UNL     1     -28.416  22.640  26.175  1.00  0.00    -0.003 C 
ATOM     11  C   UNL     1     -28.313  22.034  24.778  1.00  0.00     0.004 C 
ENDBRANCH   9  10
ENDBRANCH   8   9
ENDBRANCH   7   8
ENDBRANCH   1   7
TORSDOF 7
ENDMDL
MODEL 5
REMARK VINA RESULT:    -3.544     13.595     14.794
REMARK INTER + INTRA:          -5.495
REMARK INTER:                  -5.124
REMARK INTRA:                  -0.372
REMARK UNBOUND:                -0.502
REMARK SMILES CCCCCCCCC(=O)[O-]
REMARK SMILES IDX 6 1 7 2 8 3 9 4 10 5 11 6 5 7 4 8 3 9 2 10 1 11
REMARK H PARENT
REMARK Flexibility Score: inf
ROOT
ATOM      1  C   UNL     1     -31.307  24.294  29.569  1.00  0.00     0.000 C 
ENDROOT
BRANCH   1   2
ATOM      2  C   UNL     1     -31.483  22.772  29.714  1.00  0.00     0.006 C 
BRANCH   2   3
ATOM      3  C   UNL     1     -31.093  22.021  28.435  1.00  0.00     0.053 C 
BRANCH   3   4
ATOM      4  C   UNL     1     -29.687  22.326  28.017  1.00  0.00     0.041 C 
ATOM      5  O   UNL     1     -29.446  22.741  26.853  1.00  0.00    -0.550 OA
ATOM      6  O   UNL     1     -28.638  22.124  28.906  1.00  0.00    -0.550 OA
ENDBRANCH   3   4
ENDBRANCH   2   3
ENDBRANCH   1   2
BRANCH   1   7
ATOM      7  C   UNL     1     -32.023  25.079  30.679  1.00  0.00     0.000 C 
BRANCH   7   8
ATOM      8  C   UNL     1     -33.538  25.205  30.435  1.00  0.00    -0.000 C 
BRANCH   8   9
ATOM      9  C   UNL     1     -34.341  25.290  31.741  1.00  0.00    -0.000 C 
BRANCH   9  10
ATOM     10  C   UNL     1     -34.333  23.970  32.526  1.00  0.00    -0.003 C 
ATOM     11  C   UNL     1     -35.717  23.325  32.530  1.00  0.00     0.004 C 
ENDBRANCH   9  10
ENDBRANCH   8   9
ENDBRANCH   7   8
ENDBRANCH   1   7
TORSDOF 7
ENDMDL
MODEL 6
REMARK VINA RESULT:    -3.487     14.832     16.107
REMARK INTER + INTRA:          -5.416
REMARK INTER:                  -5.063
REMARK INTRA:                  -0.353
REMARK UNBOUND:                -0.502
REMARK SMILES CCCCCCCCC(=O)[O-]
REMARK SMILES IDX 6 1 7 2 8 3 9 4 10 5 11 6 5 7 4 8 3 9 2 10 1 11
REMARK H PARENT
REMARK Flexibility Score: inf
ROOT
ATOM      1  C   UNL     1     -32.053  19.870  24.681  1.00  0.00     0.000 C 
ENDROOT
BRANCH   1   2
ATOM      2  C   UNL     1     -33.499  19.346  24.719  1.00  0.00     0.006 C 
BRANCH   2   3
ATOM      3  C   UNL     1     -33.568  17.823  24.548  1.00  0.00     0.053 C 
BRANCH   3   4
ATOM      4  C   UNL     1     -33.627  17.117  25.869  1.00  0.00     0.041 C 
ATOM      5  O   UNL     1     -32.576  16.932  26.536  1.00  0.00    -0.550 OA
ATOM      6  O   UNL     1     -34.841  16.639  26.347  1.00  0.00    -0.550 OA
ENDBRANCH   3   4
ENDBRANCH   2   3
ENDBRANCH   1   2
BRANCH   1   7
ATOM      7  C   UNL     1     -31.203  19.180  23.602  1.00  0.00     0.000 C 
BRANCH   7   8
ATOM      8  C   UNL     1     -30.375  20.177  22.772  1.00  0.00    -0.000 C 
BRANCH   8   9
ATOM      9  C   UNL     1     -29.691  21.243  23.641  1.00  0.00    -0.000 C 
BRANCH   9  10
ATOM     10  C   UNL     1     -28.353  21.714  23.053  1.00  0.00    -0.003 C 
ATOM     11  C   UNL     1     -27.297  20.615  23.140  1.00  0.00     0.004 C 
ENDBRANCH   9  10
ENDBRANCH   8   9
ENDBRANCH   7   8
ENDBRANCH   1   7
TORSDOF 7
ENDMDL
MODEL 7
REMARK VINA RESULT:    -3.469     14.054     15.136
REMARK INTER + INTRA:          -5.390
REMARK INTER:                  -5.144
REMARK INTRA:                  -0.246
REMARK UNBOUND:                -0.502
REMARK SMILES CCCCCCCCC(=O)[O-]
REMARK SMILES IDX 6 1 7 2 8 3 9 4 10 5 11 6 5 7 4 8 3 9 2 10 1 11
REMARK H PARENT
REMARK Flexibility Score: inf
ROOT
ATOM      1  C   UNL     1     -31.448  22.799  29.726  1.00  0.00     0.000 C 
ENDROOT
BRANCH   1   2
ATOM      2  C   UNL     1     -30.071  22.329  29.228  1.00  0.00     0.006 C 
BRANCH   2   3
ATOM      3  C   UNL     1     -29.929  22.464  27.706  1.00  0.00     0.053 C 
BRANCH   3   4
ATOM      4  C   UNL     1     -28.510  22.282  27.261  1.00  0.00     0.041 C 
ATOM      5  O   UNL     1     -27.779  21.416  27.809  1.00  0.00    -0.550 OA
ATOM      6  O   UNL     1     -27.987  23.089  26.258  1.00  0.00    -0.550 OA
ENDBRANCH   3   4
ENDBRANCH   2   3
ENDBRANCH   1   2
BRANCH   1   7
ATOM      7  C   UNL     1     -31.650  24.314  29.564  1.00  0.00     0.000 C 
BRANCH   7   8
ATOM      8  C   UNL     1     -31.942  25.019  30.900  1.00  0.00    -0.000 C 
BRANCH   8   9
ATOM      9  C   UNL     1     -33.427  24.956  31.288  1.00  0.00    -0.000 C 
BRANCH   9  10
ATOM     10  C   UNL     1     -34.218  26.176  30.793  1.00  0.00    -0.003 C 
ATOM     11  C   UNL     1     -35.397  25.749  29.922  1.00  0.00     0.004 C 
ENDBRANCH   9  10
ENDBRANCH   8   9
ENDBRANCH   7   8
ENDBRANCH   1   7
TORSDOF 7
ENDMDL
MODEL 8
REMARK VINA RESULT:    -3.436     14.185     15.399
REMARK INTER + INTRA:          -5.343
REMARK INTER:                  -4.494
REMARK INTRA:                  -0.849
REMARK UNBOUND:                -0.502
REMARK SMILES CCCCCCCCC(=O)[O-]
REMARK SMILES IDX 6 1 7 2 8 3 9 4 10 5 11 6 5 7 4 8 3 9 2 10 1 11
REMARK H PARENT
REMARK Flexibility Score: inf
ROOT
ATOM      1  C   UNL     1     -32.046  22.955  29.637  1.00  0.00     0.000 C 
ENDROOT
BRANCH   1   2
ATOM      2  C   UNL     1     -31.363  21.890  30.511  1.00  0.00     0.006 C 
BRANCH   2   3
ATOM      3  C   UNL     1     -32.056  21.725  31.870  1.00  0.00     0.053 C 
BRANCH   3   4
ATOM      4  C   UNL     1     -31.278  22.375  32.974  1.00  0.00     0.041 C 
ATOM      5  O   UNL     1     -31.799  23.288  33.666  1.00  0.00    -0.550 OA
ATOM      6  O   UNL     1     -29.965  21.989  33.218  1.00  0.00    -0.550 OA
ENDBRANCH   3   4
ENDBRANCH   2   3
ENDBRANCH   1   2
BRANCH   1   7
ATOM      7  C   UNL     1     -31.356  24.325  29.728  1.00  0.00     0.000 C 
BRANCH   7   8
ATOM      8  C   UNL     1     -32.060  25.279  30.710  1.00  0.00    -0.000 C 
BRANCH   8   9
ATOM      9  C   UNL     1     -33.591  25.178  30.636  1.00  0.00    -0.000 C 
BRANCH   9  10
ATOM     10  C   UNL     1     -34.252  25.207  32.022  1.00  0.00    -0.003 C 
ATOM     11  C   UNL     1     -35.089  23.953  32.258  1.00  0.00     0.004 C 
ENDBRANCH   9  10
ENDBRANCH   8   9
ENDBRANCH   7   8
ENDBRANCH   1   7
TORSDOF 7
ENDMDL
MODEL 9
REMARK VINA RESULT:    -3.418     15.729     17.141
REMARK INTER + INTRA:          -5.319
REMARK INTER:                  -5.061
REMARK INTRA:                  -0.258
REMARK UNBOUND:                -0.502
REMARK SMILES CCCCCCCCC(=O)[O-]
REMARK SMILES IDX 6 1 7 2 8 3 9 4 10 5 11 6 5 7 4 8 3 9 2 10 1 11
REMARK H PARENT
REMARK Flexibility Score: inf
ROOT
ATOM      1  C   UNL     1     -29.988  20.827  23.751  1.00  0.00     0.000 C 
ENDROOT
BRANCH   1   2
ATOM      2  C   UNL     1     -29.066  21.689  22.872  1.00  0.00     0.006 C 
BRANCH   2   3
ATOM      3  C   UNL     1     -27.594  21.571  23.288  1.00  0.00     0.053 C 
BRANCH   3   4
ATOM      4  C   UNL     1     -27.166  20.140  23.419  1.00  0.00     0.041 C 
ATOM      5  O   UNL     1     -26.998  19.630  24.557  1.00  0.00    -0.550 OA
ATOM      6  O   UNL     1     -26.926  19.380  22.281  1.00  0.00    -0.550 OA
ENDBRANCH   3   4
ENDBRANCH   2   3
ENDBRANCH   1   2
BRANCH   1   7
ATOM      7  C   UNL     1     -30.818  19.826  22.932  1.00  0.00     0.000 C 
BRANCH   7   8
ATOM      8  C   UNL     1     -31.636  18.869  23.818  1.00  0.00    -0.000 C 
BRANCH   8   9
ATOM      9  C   UNL     1     -32.791  19.577  24.542  1.00  0.00    -0.000 C 
BRANCH   9  10
ATOM     10  C   UNL     1     -33.755  18.591  25.219  1.00  0.00    -0.003 C 
ATOM     11  C   UNL     1     -33.817  17.272  24.455  1.00  0.00     0.004 C 
ENDBRANCH   9  10
ENDBRANCH   8   9
ENDBRANCH   7   8
ENDBRANCH   1   7
TORSDOF 7
ENDMDL
