MODEL 1
REMARK VINA RESULT:    -3.625      0.000      0.000
REMARK INTER + INTRA:          -5.701
REMARK INTER:                  -5.109
REMARK INTRA:                  -0.592
REMARK UNBOUND:                -0.592
REMARK SMILES CCCCCCCCC(=O)[O-]
REMARK SMILES IDX 6 1 7 2 8 3 9 4 10 5 11 6 5 7 4 8 3 9 2 10 1 11
REMARK H PARENT
REMARK Flexibility Score: inf
ROOT
ATOM      1  C   UNL     1      25.889  30.019 -13.426  1.00  0.00     0.000 C 
ENDROOT
BRANCH   1   2
ATOM      2  C   UNL     1      25.126  31.117 -12.662  1.00  0.00     0.006 C 
BRANCH   2   3
ATOM      3  C   UNL     1      24.821  32.367 -13.504  1.00  0.00     0.053 C 
BRANCH   3   4
ATOM      4  C   UNL     1      23.659  32.169 -14.429  1.00  0.00     0.041 C 
ATOM      5  O   UNL     1      23.772  32.435 -15.655  1.00  0.00    -0.550 OA
ATOM      6  O   UNL     1      22.439  31.723 -13.933  1.00  0.00    -0.550 OA
ENDBRANCH   3   4
ENDBRANCH   2   3
ENDBRANCH   1   2
BRANCH   1   7
ATOM      7  C   UNL     1      26.992  30.575 -14.338  1.00  0.00     0.000 C 
BRANCH   7   8
ATOM      8  C   UNL     1      28.357  30.528 -13.642  1.00  0.00    -0.000 C 
BRANCH   8   9
ATOM      9  C   UNL     1      28.341  29.551 -12.461  1.00  0.00    -0.000 C 
BRANCH   9  10
ATOM     10  C   UNL     1      29.147  30.102 -11.279  1.00  0.00    -0.003 C 
ATOM     11  C   UNL     1      28.244  30.824 -10.284  1.00  0.00     0.004 C 
ENDBRANCH   9  10
ENDBRANCH   8   9
ENDBRANCH   7   8
ENDBRANCH   1   7
TORSDOF 7
ENDMDL
MODEL 2
REMARK VINA RESULT:    -3.611      3.253      5.202
REMARK INTER + INTRA:          -5.680
REMARK INTER:                  -5.321
REMARK INTRA:                  -0.360
REMARK UNBOUND:                -0.592
REMARK SMILES CCCCCCCCC(=O)[O-]
REMARK SMILES IDX 6 1 7 2 8 3 9 4 10 5 11 6 5 7 4 8 3 9 2 10 1 11
REMARK H PARENT
REMARK Flexibility Score: inf
ROOT
ATOM      1  C   UNL     1      28.878  30.395 -12.966  1.00  0.00     0.000 C 
ENDROOT
BRANCH   1   2
ATOM      2  C   UNL     1      29.227  30.022 -11.513  1.00  0.00     0.006 C 
BRANCH   2   3
ATOM      3  C   UNL     1      28.145  30.411 -10.491  1.00  0.00     0.053 C 
BRANCH   3   4
ATOM      4  C   UNL     1      27.526  29.218  -9.827  1.00  0.00     0.041 C 
ATOM      5  O   UNL     1      27.444  29.164  -8.571  1.00  0.00    -0.550 OA
ATOM      6  O   UNL     1      27.071  28.150 -10.591  1.00  0.00    -0.550 OA
ENDBRANCH   3   4
ENDBRANCH   2   3
ENDBRANCH   1   2
BRANCH   1   7
ATOM      7  C   UNL     1      27.368  30.525 -13.208  1.00  0.00     0.000 C 
BRANCH   7   8
ATOM      8  C   UNL     1      27.022  30.259 -14.677  1.00  0.00    -0.000 C 
BRANCH   8   9
ATOM      9  C   UNL     1      25.516  30.408 -14.926  1.00  0.00    -0.000 C 
BRANCH   9  10
ATOM     10  C   UNL     1      24.885  31.373 -13.916  1.00  0.00    -0.003 C 
ATOM     11  C   UNL     1      24.663  32.751 -14.534  1.00  0.00     0.004 C 
ENDBRANCH   9  10
ENDBRANCH   8   9
ENDBRANCH   7   8
ENDBRANCH   1   7
TORSDOF 7
ENDMDL
MODEL 3
REMARK VINA RESULT:    -3.592      3.258      5.548
REMARK INTER + INTRA:          -5.654
REMARK INTER:                  -5.269
REMARK INTRA:                  -0.385
REMARK UNBOUND:                -0.592
REMARK SMILES CCCCCCCCC(=O)[O-]
REMARK SMILES IDX 6 1 7 2 8 3 9 4 10 5 11 6 5 7 4 8 3 9 2 10 1 11
REMARK H PARENT
REMARK Flexibility Score: inf
ROOT
ATOM      1  C   UNL     1      26.563  30.885 -14.140  1.00  0.00     0.000 C 
ENDROOT
BRANCH   1   2
ATOM      2  C   UNL     1      27.972  30.467 -13.681  1.00  0.00     0.006 C 
BRANCH   2   3
ATOM      3  C   UNL     1      27.983  29.594 -12.414  1.00  0.00     0.053 C 
BRANCH   3   4
ATOM      4  C   UNL     1      28.781  30.204 -11.302  1.00  0.00     0.041 C 
ATOM      5  O   UNL     1      30.029  30.037 -11.252  1.00  0.00    -0.550 OA
ATOM      6  O   UNL     1      28.145  30.928 -10.301  1.00  0.00    -0.550 OA
ENDBRANCH   3   4
ENDBRANCH   2   3
ENDBRANCH   1   2
BRANCH   1   7
ATOM      7  C   UNL     1      25.590  31.107 -12.973  1.00  0.00     0.000 C 
BRANCH   7   8
ATOM      8  C   UNL     1      24.561  32.191 -13.312  1.00  0.00    -0.000 C 
BRANCH   8   9
ATOM      9  C   UNL     1      24.719  32.667 -14.761  1.00  0.00    -0.000 C 
BRANCH   9  10
ATOM     10  C   UNL     1      23.545  32.194 -15.627  1.00  0.00    -0.003 C 
ATOM     11  C   UNL     1      22.502  31.463 -14.788  1.00  0.00     0.004 C 
ENDBRANCH   9  10
ENDBRANCH   8   9
ENDBRANCH   7   8
ENDBRANCH   1   7
TORSDOF 7
ENDMDL
MODEL 4
REMARK VINA RESULT:    -3.574      3.236      4.882
REMARK INTER + INTRA:          -5.629
REMARK INTER:                  -4.928
REMARK INTRA:                  -0.701
REMARK UNBOUND:                -0.592
REMARK SMILES CCCCCCCCC(=O)[O-]
REMARK SMILES IDX 6 1 7 2 8 3 9 4 10 5 11 6 5 7 4 8 3 9 2 10 1 11
REMARK H PARENT
REMARK Flexibility Score: inf
ROOT
ATOM      1  C   UNL     1      27.415  30.629 -14.307  1.00  0.00     0.000 C 
ENDROOT
BRANCH   1   2
ATOM      2  C   UNL     1      28.296  30.290 -13.090  1.00  0.00     0.006 C 
BRANCH   2   3
ATOM      3  C   UNL     1      27.551  29.545 -11.969  1.00  0.00     0.053 C 
BRANCH   3   4
ATOM      4  C   UNL     1      28.016  29.948 -10.602  1.00  0.00     0.041 C 
ATOM      5  O   UNL     1      28.723  30.980 -10.453  1.00  0.00    -0.550 OA
ATOM      6  O   UNL     1      27.700  29.167  -9.497  1.00  0.00    -0.550 OA
ENDBRANCH   3   4
ENDBRANCH   2   3
ENDBRANCH   1   2
BRANCH   1   7
ATOM      7  C   UNL     1      26.216  29.684 -14.466  1.00  0.00     0.000 C 
BRANCH   7   8
ATOM      8  C   UNL     1      24.907  30.472 -14.591  1.00  0.00    -0.000 C 
BRANCH   8   9
ATOM      9  C   UNL     1      25.140  31.969 -14.359  1.00  0.00    -0.000 C 
BRANCH   9  10
ATOM     10  C   UNL     1      24.244  32.499 -13.234  1.00  0.00    -0.003 C 
ATOM     11  C   UNL     1      24.724  32.009 -11.871  1.00  0.00     0.004 C 
ENDBRANCH   9  10
ENDBRANCH   8   9
ENDBRANCH   7   8
ENDBRANCH   1   7
TORSDOF 7
ENDMDL
MODEL 5
REMARK VINA RESULT:    -3.527      1.722      2.447
REMARK INTER + INTRA:          -5.563
REMARK INTER:                  -4.748
REMARK INTRA:                  -0.815
REMARK UNBOUND:                -0.592
REMARK SMILES CCCCCCCCC(=O)[O-]
REMARK SMILES IDX 6 1 7 2 8 3 9 4 10 5 11 6 5 7 4 8 3 9 2 10 1 11
REMARK H PARENT
REMARK Flexibility Score: inf
ROOT
ATOM      1  C   UNL     1      27.385  30.453 -14.374  1.00  0.00     0.000 C 
ENDROOT
BRANCH   1   2
ATOM      2  C   UNL     1      26.250  29.519 -13.917  1.00  0.00     0.006 C 
BRANCH   2   3
ATOM      3  C   UNL     1      24.898  30.227 -13.725  1.00  0.00     0.053 C 
BRANCH   3   4
ATOM      4  C   UNL     1      25.014  31.480 -12.911  1.00  0.00     0.041 C 
ATOM      5  O   UNL     1      25.315  31.416 -11.690  1.00  0.00    -0.550 OA
ATOM      6  O   UNL     1      24.755  32.716 -13.491  1.00  0.00    -0.550 OA
ENDBRANCH   3   4
ENDBRANCH   2   3
ENDBRANCH   1   2
BRANCH   1   7
ATOM      7  C   UNL     1      28.571  30.483 -13.400  1.00  0.00     0.000 C 
BRANCH   7   8
ATOM      8  C   UNL     1      28.371  29.479 -12.259  1.00  0.00    -0.000 C 
BRANCH   8   9
ATOM      9  C   UNL     1      28.464  30.170 -10.894  1.00  0.00    -0.000 C 
BRANCH   9  10
ATOM     10  C   UNL     1      27.719  29.369  -9.820  1.00  0.00    -0.003 C 
ATOM     11  C   UNL     1      26.731  28.390 -10.448  1.00  0.00     0.004 C 
ENDBRANCH   9  10
ENDBRANCH   8   9
ENDBRANCH   7   8
ENDBRANCH   1   7
TORSDOF 7
ENDMDL
MODEL 6
REMARK VINA RESULT:    -3.440      2.638      4.980
REMARK INTER + INTRA:          -5.439
REMARK INTER:                  -4.722
REMARK INTRA:                  -0.717
REMARK UNBOUND:                -0.592
REMARK SMILES CCCCCCCCC(=O)[O-]
REMARK SMILES IDX 6 1 7 2 8 3 9 4 10 5 11 6 5 7 4 8 3 9 2 10 1 11
REMARK H PARENT
REMARK Flexibility Score: inf
ROOT
ATOM      1  C   UNL     1      24.705  30.385 -11.837  1.00  0.00     0.000 C 
ENDROOT
BRANCH   1   2
ATOM      2  C   UNL     1      25.970  29.570 -12.160  1.00  0.00     0.006 C 
BRANCH   2   3
ATOM      3  C   UNL     1      27.284  30.331 -11.908  1.00  0.00     0.053 C 
BRANCH   3   4
ATOM      4  C   UNL     1      28.163  30.378 -13.120  1.00  0.00     0.041 C 
ATOM      5  O   UNL     1      29.415  30.306 -12.999  1.00  0.00    -0.550 OA
ATOM      6  O   UNL     1      27.605  30.538 -14.383  1.00  0.00    -0.550 OA
ENDBRANCH   3   4
ENDBRANCH   2   3
ENDBRANCH   1   2
BRANCH   1   7
ATOM      7  C   UNL     1      24.947  31.900 -11.837  1.00  0.00     0.000 C 
BRANCH   7   8
ATOM      8  C   UNL     1      24.074  32.597 -12.886  1.00  0.00    -0.000 C 
BRANCH   8   9
ATOM      9  C   UNL     1      24.775  32.640 -14.249  1.00  0.00    -0.000 C 
BRANCH   9  10
ATOM     10  C   UNL     1      23.848  32.139 -15.362  1.00  0.00    -0.003 C 
ATOM     11  C   UNL     1      24.007  30.637 -15.577  1.00  0.00     0.004 C 
ENDBRANCH   9  10
ENDBRANCH   8   9
ENDBRANCH   7   8
ENDBRANCH   1   7
TORSDOF 7
ENDMDL
MODEL 7
REMARK VINA RESULT:    -3.429      3.524      5.171
REMARK INTER + INTRA:          -5.425
REMARK INTER:                  -4.752
REMARK INTRA:                  -0.673
REMARK UNBOUND:                -0.592
REMARK SMILES CCCCCCCCC(=O)[O-]
REMARK SMILES IDX 6 1 7 2 8 3 9 4 10 5 11 6 5 7 4 8 3 9 2 10 1 11
REMARK H PARENT
REMARK Flexibility Score: inf
ROOT
ATOM      1  C   UNL     1      27.665  30.529 -14.247  1.00  0.00     0.000 C 
ENDROOT
BRANCH   1   2
ATOM      2  C   UNL     1      28.569  30.341 -13.015  1.00  0.00     0.006 C 
BRANCH   2   3
ATOM      3  C   UNL     1      28.078  29.256 -12.040  1.00  0.00     0.053 C 
BRANCH   3   4
ATOM      4  C   UNL     1      28.095  29.714 -10.613  1.00  0.00     0.041 C 
ATOM      5  O   UNL     1      27.736  28.932  -9.693  1.00  0.00    -0.550 OA
ATOM      6  O   UNL     1      28.475  31.014 -10.301  1.00  0.00    -0.550 OA
ENDBRANCH   3   4
ENDBRANCH   2   3
ENDBRANCH   1   2
BRANCH   1   7
ATOM      7  C   UNL     1      26.200  30.809 -13.883  1.00  0.00     0.000 C 
BRANCH   7   8
ATOM      8  C   UNL     1      25.250  29.961 -14.736  1.00  0.00    -0.000 C 
BRANCH   8   9
ATOM      9  C   UNL     1      26.027  28.960 -15.599  1.00  0.00    -0.000 C 
BRANCH   9  10
ATOM     10  C   UNL     1      25.506  27.533 -15.391  1.00  0.00    -0.003 C 
ATOM     11  C   UNL     1      26.368  26.773 -14.387  1.00  0.00     0.004 C 
ENDBRANCH   9  10
ENDBRANCH   8   9
ENDBRANCH   7   8
ENDBRANCH   1   7
TORSDOF 7
ENDMDL
MODEL 8
REMARK VINA RESULT:    -3.404      3.596      4.322
REMARK INTER + INTRA:          -5.390
REMARK INTER:                  -4.891
REMARK INTRA:                  -0.499
REMARK UNBOUND:                -0.592
REMARK SMILES CCCCCCCCC(=O)[O-]
REMARK SMILES IDX 6 1 7 2 8 3 9 4 10 5 11 6 5 7 4 8 3 9 2 10 1 11
REMARK H PARENT
REMARK Flexibility Score: inf
ROOT
ATOM      1  C   UNL     1      26.184  29.602 -15.147  1.00  0.00     0.000 C 
ENDROOT
BRANCH   1   2
ATOM      2  C   UNL     1      25.637  28.483 -14.242  1.00  0.00     0.006 C 
BRANCH   2   3
ATOM      3  C   UNL     1      26.170  27.082 -14.589  1.00  0.00     0.053 C 
BRANCH   3   4
ATOM      4  C   UNL     1      26.930  26.459 -13.458  1.00  0.00     0.041 C 
ATOM      5  O   UNL     1      27.391  25.291 -13.571  1.00  0.00    -0.550 OA
ATOM      6  O   UNL     1      27.100  27.151 -12.265  1.00  0.00    -0.550 OA
ENDBRANCH   3   4
ENDBRANCH   2   3
ENDBRANCH   1   2
BRANCH   1   7
ATOM      7  C   UNL     1      26.595  30.859 -14.369  1.00  0.00     0.000 C 
BRANCH   7   8
ATOM      8  C   UNL     1      27.135  30.496 -12.981  1.00  0.00    -0.000 C 
BRANCH   8   9
ATOM      9  C   UNL     1      28.662  30.356 -13.002  1.00  0.00    -0.000 C 
BRANCH   9  10
ATOM     10  C   UNL     1      29.200  29.991 -11.614  1.00  0.00    -0.003 C 
ATOM     11  C   UNL     1      28.469  30.761 -10.518  1.00  0.00     0.004 C 
ENDBRANCH   9  10
ENDBRANCH   8   9
ENDBRANCH   7   8
ENDBRANCH   1   7
TORSDOF 7
ENDMDL
MODEL 9
REMARK VINA RESULT:    -3.364      3.054      4.650
REMARK INTER + INTRA:          -5.332
REMARK INTER:                  -4.619
REMARK INTRA:                  -0.713
REMARK UNBOUND:                -0.592
REMARK SMILES CCCCCCCCC(=O)[O-]
REMARK SMILES IDX 6 1 7 2 8 3 9 4 10 5 11 6 5 7 4 8 3 9 2 10 1 11
REMARK H PARENT
REMARK Flexibility Score: inf
ROOT
ATOM      1  C   UNL     1      25.233  30.425 -14.776  1.00  0.00     0.000 C 
ENDROOT
BRANCH   1   2
ATOM      2  C   UNL     1      26.641  29.809 -14.701  1.00  0.00     0.006 C 
BRANCH   2   3
ATOM      3  C   UNL     1      27.615  30.586 -13.798  1.00  0.00     0.053 C 
BRANCH   3   4
ATOM      4  C   UNL     1      28.176  29.742 -12.695  1.00  0.00     0.041 C 
ATOM      5  O   UNL     1      27.757  28.566 -12.520  1.00  0.00    -0.550 OA
ATOM      6  O   UNL     1      29.138  30.261 -11.836  1.00  0.00    -0.550 OA
ENDBRANCH   3   4
ENDBRANCH   2   3
ENDBRANCH   1   2
BRANCH   1   7
ATOM      7  C   UNL     1      25.226  31.944 -14.554  1.00  0.00     0.000 C 
BRANCH   7   8
ATOM      8  C   UNL     1      24.007  32.375 -13.731  1.00  0.00    -0.000 C 
BRANCH   8   9
ATOM      9  C   UNL     1      24.386  32.607 -12.263  1.00  0.00    -0.000 C 
BRANCH   9  10
ATOM     10  C   UNL     1      23.831  31.492 -11.369  1.00  0.00    -0.003 C 
ATOM     11  C   UNL     1      24.874  30.404 -11.134  1.00  0.00     0.004 C 
ENDBRANCH   9  10
ENDBRANCH   8   9
ENDBRANCH   7   8
ENDBRANCH   1   7
TORSDOF 7
ENDMDL
