MODEL 1
REMARK VINA RESULT:    -4.090      0.000      0.000
REMARK INTER + INTRA:          -4.090
REMARK INTER:                  -4.090
REMARK INTRA:                   0.000
REMARK UNBOUND:                 0.000
REMARK SMILES CC1=CC[C@@H]2C[C@H]1C2(C)C
REMARK SMILES IDX 1 1 2 2 3 3 4 4 5 5 6 6 7 7 8 8 9 9 10 10
REMARK H PARENT
REMARK Flexibility Score: inf
ROOT
ATOM      1  C   UNL     1      39.817  20.626  -0.162  1.00  0.00     0.039 C 
ATOM      2  C   UNL     1      41.023  20.417  -1.026  1.00  0.00    -0.074 C 
ATOM      3  C   UNL     1      42.284  20.650  -0.556  1.00  0.00    -0.027 C 
ATOM      4  C   UNL     1      43.483  20.388  -1.488  1.00  0.00     0.031 C 
ATOM      5  C   UNL     1      42.978  19.914  -2.895  1.00  0.00    -0.000 C 
ATOM      6  C   UNL     1      41.841  20.884  -3.279  1.00  0.00     0.013 C 
ATOM      7  C   UNL     1      40.906  19.951  -2.484  1.00  0.00     0.021 C 
ATOM      8  C   UNL     1      41.910  18.797  -2.737  1.00  0.00    -0.026 C 
ATOM      9  C   UNL     1      42.106  17.730  -1.623  1.00  0.00     0.012 C 
ATOM     10  C   UNL     1      41.633  18.058  -4.072  1.00  0.00     0.012 C 
ENDROOT
TORSDOF 0
ENDMDL
MODEL 2
REMARK VINA RESULT:    -4.049      0.943      3.209
REMARK INTER + INTRA:          -4.049
REMARK INTER:                  -4.049
REMARK INTRA:                   0.000
REMARK UNBOUND:                 0.000
REMARK SMILES CC1=CC[C@@H]2C[C@H]1C2(C)C
REMARK SMILES IDX 1 1 2 2 3 3 4 4 5 5 6 6 7 7 8 8 9 9 10 10
REMARK H PARENT
REMARK Flexibility Score: inf
ROOT
ATOM      1  C   UNL     1      42.574  16.919  -1.980  1.00  0.00     0.039 C 
ATOM      2  C   UNL     1      42.285  18.389  -2.018  1.00  0.00    -0.074 C 
ATOM      3  C   UNL     1      42.515  19.130  -3.142  1.00  0.00    -0.027 C 
ATOM      4  C   UNL     1      42.168  20.632  -3.124  1.00  0.00     0.031 C 
ATOM      5  C   UNL     1      41.624  21.041  -1.710  1.00  0.00    -0.000 C 
ATOM      6  C   UNL     1      42.597  20.414  -0.691  1.00  0.00     0.013 C 
ATOM      7  C   UNL     1      41.736  19.140  -0.797  1.00  0.00     0.021 C 
ATOM      8  C   UNL     1      40.545  20.031  -1.234  1.00  0.00    -0.026 C 
ATOM      9  C   UNL     1      39.542  19.464  -2.278  1.00  0.00     0.012 C 
ATOM     10  C   UNL     1      39.736  20.566  -0.024  1.00  0.00     0.012 C 
ENDROOT
TORSDOF 0
ENDMDL
MODEL 3
REMARK VINA RESULT:    -3.895      1.160      3.384
REMARK INTER + INTRA:          -3.895
REMARK INTER:                  -3.895
REMARK INTRA:                   0.000
REMARK UNBOUND:                 0.000
REMARK SMILES CC1=CC[C@@H]2C[C@H]1C2(C)C
REMARK SMILES IDX 1 1 2 2 3 3 4 4 5 5 6 6 7 7 8 8 9 9 10 10
REMARK H PARENT
REMARK Flexibility Score: inf
ROOT
ATOM      1  C   UNL     1      43.741  20.993  -4.872  1.00  0.00     0.039 C 
ATOM      2  C   UNL     1      43.089  20.123  -3.842  1.00  0.00    -0.074 C 
ATOM      3  C   UNL     1      43.536  18.856  -3.594  1.00  0.00    -0.027 C 
ATOM      4  C   UNL     1      42.837  18.025  -2.499  1.00  0.00     0.031 C 
ATOM      5  C   UNL     1      41.648  18.840  -1.881  1.00  0.00    -0.000 C 
ATOM      6  C   UNL     1      40.876  19.427  -3.080  1.00  0.00     0.013 C 
ATOM      7  C   UNL     1      41.877  20.599  -3.028  1.00  0.00     0.021 C 
ATOM      8  C   UNL     1      42.108  20.282  -1.528  1.00  0.00    -0.026 C 
ATOM      9  C   UNL     1      43.533  20.487  -0.940  1.00  0.00     0.012 C 
ATOM     10  C   UNL     1      41.094  21.010  -0.610  1.00  0.00     0.012 C 
ENDROOT
TORSDOF 0
ENDMDL
MODEL 4
REMARK VINA RESULT:    -3.787      1.017      2.066
REMARK INTER + INTRA:          -3.787
REMARK INTER:                  -3.787
REMARK INTRA:                   0.000
REMARK UNBOUND:                 0.000
REMARK SMILES CC1=CC[C@@H]2C[C@H]1C2(C)C
REMARK SMILES IDX 1 1 2 2 3 3 4 4 5 5 6 6 7 7 8 8 9 9 10 10
REMARK H PARENT
REMARK Flexibility Score: inf
ROOT
ATOM      1  C   UNL     1      40.183  20.610  -0.148  1.00  0.00     0.039 C 
ATOM      2  C   UNL     1      41.209  20.094  -1.111  1.00  0.00    -0.074 C 
ATOM      3  C   UNL     1      41.573  18.778  -1.126  1.00  0.00    -0.027 C 
ATOM      4  C   UNL     1      42.613  18.308  -2.162  1.00  0.00     0.031 C 
ATOM      5  C   UNL     1      43.107  19.525  -3.019  1.00  0.00    -0.000 C 
ATOM      6  C   UNL     1      43.409  20.652  -2.010  1.00  0.00     0.013 C 
ATOM      7  C   UNL     1      41.915  21.017  -2.115  1.00  0.00     0.021 C 
ATOM      8  C   UNL     1      41.895  20.360  -3.519  1.00  0.00    -0.026 C 
ATOM      9  C   UNL     1      40.608  19.611  -3.967  1.00  0.00     0.012 C 
ATOM     10  C   UNL     1      42.293  21.355  -4.640  1.00  0.00     0.012 C 
ENDROOT
TORSDOF 0
ENDMDL
MODEL 5
REMARK VINA RESULT:    -3.675      1.312      3.065
REMARK INTER + INTRA:          -3.675
REMARK INTER:                  -3.675
REMARK INTRA:                   0.000
REMARK UNBOUND:                 0.000
REMARK SMILES CC1=CC[C@@H]2C[C@H]1C2(C)C
REMARK SMILES IDX 1 1 2 2 3 3 4 4 5 5 6 6 7 7 8 8 9 9 10 10
REMARK H PARENT
REMARK Flexibility Score: inf
ROOT
ATOM      1  C   UNL     1      43.782  17.622  -2.970  1.00  0.00     0.039 C 
ATOM      2  C   UNL     1      42.948  18.774  -2.496  1.00  0.00    -0.074 C 
ATOM      3  C   UNL     1      43.337  20.066  -2.705  1.00  0.00    -0.027 C 
ATOM      4  C   UNL     1      42.418  21.205  -2.218  1.00  0.00     0.031 C 
ATOM      5  C   UNL     1      41.161  20.609  -1.494  1.00  0.00    -0.000 C 
ATOM      6  C   UNL     1      41.702  19.528  -0.537  1.00  0.00     0.013 C 
ATOM      7  C   UNL     1      41.630  18.563  -1.737  1.00  0.00     0.021 C 
ATOM      8  C   UNL     1      40.534  19.473  -2.349  1.00  0.00    -0.026 C 
ATOM      9  C   UNL     1      40.491  19.640  -3.895  1.00  0.00     0.012 C 
ATOM     10  C   UNL     1      39.113  19.090  -1.862  1.00  0.00     0.012 C 
ENDROOT
TORSDOF 0
ENDMDL
MODEL 6
REMARK VINA RESULT:    -3.562      1.606      3.210
REMARK INTER + INTRA:          -3.562
REMARK INTER:                  -3.562
REMARK INTRA:                   0.000
REMARK UNBOUND:                 0.000
REMARK SMILES CC1=CC[C@@H]2C[C@H]1C2(C)C
REMARK SMILES IDX 1 1 2 2 3 3 4 4 5 5 6 6 7 7 8 8 9 9 10 10
REMARK H PARENT
REMARK Flexibility Score: inf
ROOT
ATOM      1  C   UNL     1      44.140  20.950  -5.276  1.00  0.00     0.039 C 
ATOM      2  C   UNL     1      43.547  20.262  -4.084  1.00  0.00    -0.074 C 
ATOM      3  C   UNL     1      43.443  20.893  -2.877  1.00  0.00    -0.027 C 
ATOM      4  C   UNL     1      42.797  20.138  -1.699  1.00  0.00     0.031 C 
ATOM      5  C   UNL     1      42.402  18.686  -2.141  1.00  0.00    -0.000 C 
ATOM      6  C   UNL     1      43.628  18.131  -2.895  1.00  0.00     0.013 C 
ATOM      7  C   UNL     1      43.046  18.812  -4.150  1.00  0.00     0.021 C 
ATOM      8  C   UNL     1      41.643  18.723  -3.497  1.00  0.00    -0.026 C 
ATOM      9  C   UNL     1      40.633  19.878  -3.754  1.00  0.00     0.012 C 
ATOM     10  C   UNL     1      40.934  17.380  -3.807  1.00  0.00     0.012 C 
ENDROOT
TORSDOF 0
ENDMDL
MODEL 7
REMARK VINA RESULT:    -3.481      1.409      3.504
REMARK INTER + INTRA:          -3.481
REMARK INTER:                  -3.481
REMARK INTRA:                   0.000
REMARK UNBOUND:                 0.000
REMARK SMILES CC1=CC[C@@H]2C[C@H]1C2(C)C
REMARK SMILES IDX 1 1 2 2 3 3 4 4 5 5 6 6 7 7 8 8 9 9 10 10
REMARK H PARENT
REMARK Flexibility Score: inf
ROOT
ATOM      1  C   UNL     1      44.311  17.539  -4.067  1.00  0.00     0.039 C 
ATOM      2  C   UNL     1      43.400  18.691  -3.770  1.00  0.00    -0.074 C 
ATOM      3  C   UNL     1      42.634  19.261  -4.746  1.00  0.00    -0.027 C 
ATOM      4  C   UNL     1      41.696  20.425  -4.367  1.00  0.00     0.031 C 
ATOM      5  C   UNL     1      41.854  20.770  -2.845  1.00  0.00    -0.000 C 
ATOM      6  C   UNL     1      43.374  20.825  -2.585  1.00  0.00     0.013 C 
ATOM      7  C   UNL     1      43.296  19.301  -2.365  1.00  0.00     0.021 C 
ATOM      8  C   UNL     1      41.801  19.473  -1.990  1.00  0.00    -0.026 C 
ATOM      9  C   UNL     1      40.803  18.352  -2.397  1.00  0.00     0.012 C 
ATOM     10  C   UNL     1      41.604  19.775  -0.482  1.00  0.00     0.012 C 
ENDROOT
TORSDOF 0
ENDMDL
MODEL 8
REMARK VINA RESULT:    -3.471      1.145      3.069
REMARK INTER + INTRA:          -3.471
REMARK INTER:                  -3.471
REMARK INTRA:                   0.000
REMARK UNBOUND:                 0.000
REMARK SMILES CC1=CC[C@@H]2C[C@H]1C2(C)C
REMARK SMILES IDX 1 1 2 2 3 3 4 4 5 5 6 6 7 7 8 8 9 9 10 10
REMARK H PARENT
REMARK Flexibility Score: inf
ROOT
ATOM      1  C   UNL     1      40.400  17.399  -2.439  1.00  0.00     0.039 C 
ATOM      2  C   UNL     1      41.212  18.610  -2.785  1.00  0.00    -0.074 C 
ATOM      3  C   UNL     1      40.781  19.512  -3.715  1.00  0.00    -0.027 C 
ATOM      4  C   UNL     1      41.652  20.752  -4.004  1.00  0.00     0.031 C 
ATOM      5  C   UNL     1      42.962  20.701  -3.144  1.00  0.00    -0.000 C 
ATOM      6  C   UNL     1      43.507  19.266  -3.297  1.00  0.00     0.013 C 
ATOM      7  C   UNL     1      42.572  18.889  -2.131  1.00  0.00     0.021 C 
ATOM      8  C   UNL     1      42.625  20.366  -1.665  1.00  0.00    -0.026 C 
ATOM      9  C   UNL     1      41.347  20.988  -1.033  1.00  0.00     0.012 C 
ATOM     10  C   UNL     1      43.819  20.642  -0.716  1.00  0.00     0.012 C 
ENDROOT
TORSDOF 0
ENDMDL
MODEL 9
REMARK VINA RESULT:    -3.418      1.331      1.849
REMARK INTER + INTRA:          -3.418
REMARK INTER:                  -3.418
REMARK INTRA:                   0.000
REMARK UNBOUND:                 0.000
REMARK SMILES CC1=CC[C@@H]2C[C@H]1C2(C)C
REMARK SMILES IDX 1 1 2 2 3 3 4 4 5 5 6 6 7 7 8 8 9 9 10 10
REMARK H PARENT
REMARK Flexibility Score: inf
ROOT
ATOM      1  C   UNL     1      42.283  20.604  -0.558  1.00  0.00     0.039 C 
ATOM      2  C   UNL     1      42.447  20.318  -2.019  1.00  0.00    -0.074 C 
ATOM      3  C   UNL     1      43.504  20.816  -2.727  1.00  0.00    -0.027 C 
ATOM      4  C   UNL     1      43.629  20.460  -4.222  1.00  0.00     0.031 C 
ATOM      5  C   UNL     1      42.415  19.573  -4.667  1.00  0.00    -0.000 C 
ATOM      6  C   UNL     1      41.161  20.264  -4.093  1.00  0.00     0.013 C 
ATOM      7  C   UNL     1      41.432  19.471  -2.800  1.00  0.00     0.021 C 
ATOM      8  C   UNL     1      42.188  18.419  -3.652  1.00  0.00    -0.026 C 
ATOM      9  C   UNL     1      43.430  17.718  -3.031  1.00  0.00     0.012 C 
ATOM     10  C   UNL     1      41.243  17.325  -4.212  1.00  0.00     0.012 C 
ENDROOT
TORSDOF 0
ENDMDL
