MODEL 1
REMARK VINA RESULT:    -3.724      0.000      0.000
REMARK INTER + INTRA:          -4.748
REMARK INTER:                  -4.595
REMARK INTRA:                  -0.153
REMARK UNBOUND:                -0.153
REMARK SMILES CCCCCC(=O)[O-]
REMARK SMILES IDX 4 1 5 2 6 3 7 4 8 5 3 6 2 7 1 8
REMARK H PARENT
REMARK Flexibility Score: inf
ROOT
ATOM      1  C   UNL     1     -14.181   1.439 -20.991  1.00  0.00     0.006 C 
ENDROOT
BRANCH   1   2
ATOM      2  C   UNL     1     -15.119   2.041 -19.941  1.00  0.00     0.053 C 
BRANCH   2   3
ATOM      3  C   UNL     1     -16.237   2.785 -20.601  1.00  0.00     0.041 C 
ATOM      4  O   UNL     1     -16.755   3.783 -20.033  1.00  0.00    -0.550 OA
ATOM      5  O   UNL     1     -16.671   2.409 -21.866  1.00  0.00    -0.550 OA
ENDBRANCH   2   3
ENDBRANCH   1   2
BRANCH   1   6
ATOM      6  C   UNL     1     -14.125  -0.089 -20.868  1.00  0.00     0.000 C 
BRANCH   6   7
ATOM      7  C   UNL     1     -14.638  -0.549 -19.499  1.00  0.00    -0.003 C 
ATOM      8  C   UNL     1     -13.908  -1.804 -19.030  1.00  0.00     0.004 C 
ENDBRANCH   6   7
ENDBRANCH   1   6
TORSDOF 4
ENDMDL
MODEL 2
REMARK VINA RESULT:    -3.692      2.787      4.551
REMARK INTER + INTRA:          -4.709
REMARK INTER:                  -4.657
REMARK INTRA:                  -0.052
REMARK UNBOUND:                -0.153
REMARK SMILES CCCCCC(=O)[O-]
REMARK SMILES IDX 4 1 5 2 6 3 7 4 8 5 3 6 2 7 1 8
REMARK H PARENT
REMARK Flexibility Score: inf
ROOT
ATOM      1  C   UNL     1     -14.826   1.168 -20.188  1.00  0.00     0.006 C 
ENDROOT
BRANCH   1   2
ATOM      2  C   UNL     1     -14.821   0.057 -19.133  1.00  0.00     0.053 C 
BRANCH   2   3
ATOM      3  C   UNL     1     -14.405  -1.244 -19.744  1.00  0.00     0.041 C 
ATOM      4  O   UNL     1     -13.629  -2.016 -19.122  1.00  0.00    -0.550 OA
ATOM      5  O   UNL     1     -14.914  -1.627 -20.978  1.00  0.00    -0.550 OA
ENDBRANCH   2   3
ENDBRANCH   1   2
BRANCH   1   6
ATOM      6  C   UNL     1     -15.410   2.466 -19.617  1.00  0.00     0.000 C 
BRANCH   6   7
ATOM      7  C   UNL     1     -16.067   3.304 -20.719  1.00  0.00    -0.003 C 
ATOM      8  C   UNL     1     -17.292   4.047 -20.191  1.00  0.00     0.004 C 
ENDBRANCH   6   7
ENDBRANCH   1   6
TORSDOF 4
ENDMDL
MODEL 3
REMARK VINA RESULT:    -3.658      2.840      4.487
REMARK INTER + INTRA:          -4.667
REMARK INTER:                  -4.569
REMARK INTRA:                  -0.098
REMARK UNBOUND:                -0.153
REMARK SMILES CCCCCC(=O)[O-]
REMARK SMILES IDX 4 1 5 2 6 3 7 4 8 5 3 6 2 7 1 8
REMARK H PARENT
REMARK Flexibility Score: inf
ROOT
ATOM      1  C   UNL     1     -14.453   1.051 -20.704  1.00  0.00     0.006 C 
ENDROOT
BRANCH   1   2
ATOM      2  C   UNL     1     -14.777   0.147 -19.511  1.00  0.00     0.053 C 
BRANCH   2   3
ATOM      3  C   UNL     1     -14.445  -1.278 -19.826  1.00  0.00     0.041 C 
ATOM      4  O   UNL     1     -14.860  -1.803 -20.894  1.00  0.00    -0.550 OA
ATOM      5  O   UNL     1     -13.637  -2.010 -18.967  1.00  0.00    -0.550 OA
ENDBRANCH   2   3
ENDBRANCH   1   2
BRANCH   1   6
ATOM      6  C   UNL     1     -15.630   1.978 -21.028  1.00  0.00     0.000 C 
BRANCH   6   7
ATOM      7  C   UNL     1     -15.969   2.873 -19.831  1.00  0.00    -0.003 C 
ATOM      8  C   UNL     1     -17.031   3.906 -20.198  1.00  0.00     0.004 C 
ENDBRANCH   6   7
ENDBRANCH   1   6
TORSDOF 4
ENDMDL
MODEL 4
REMARK VINA RESULT:    -3.654      3.625      4.908
REMARK INTER + INTRA:          -4.661
REMARK INTER:                  -4.529
REMARK INTRA:                  -0.132
REMARK UNBOUND:                -0.153
REMARK SMILES CCCCCC(=O)[O-]
REMARK SMILES IDX 4 1 5 2 6 3 7 4 8 5 3 6 2 7 1 8
REMARK H PARENT
REMARK Flexibility Score: inf
ROOT
ATOM      1  C   UNL     1     -14.884  -0.810 -20.510  1.00  0.00     0.006 C 
ENDROOT
BRANCH   1   2
ATOM      2  C   UNL     1     -14.130  -1.517 -19.380  1.00  0.00     0.053 C 
BRANCH   2   3
ATOM      3  C   UNL     1     -13.408  -2.718 -19.902  1.00  0.00     0.041 C 
ATOM      4  O   UNL     1     -12.665  -3.391 -19.139  1.00  0.00    -0.550 OA
ATOM      5  O   UNL     1     -13.594  -3.125 -21.217  1.00  0.00    -0.550 OA
ENDBRANCH   2   3
ENDBRANCH   1   2
BRANCH   1   6
ATOM      6  C   UNL     1     -14.126   0.437 -20.981  1.00  0.00     0.000 C 
BRANCH   6   7
ATOM      7  C   UNL     1     -15.015   1.683 -20.903  1.00  0.00    -0.003 C 
ATOM      8  C   UNL     1     -15.242   2.109 -19.456  1.00  0.00     0.004 C 
ENDBRANCH   6   7
ENDBRANCH   1   6
TORSDOF 4
ENDMDL
MODEL 5
REMARK VINA RESULT:    -3.574      3.206      4.130
REMARK INTER + INTRA:          -4.563
REMARK INTER:                  -4.341
REMARK INTRA:                  -0.223
REMARK UNBOUND:                -0.153
REMARK SMILES CCCCCC(=O)[O-]
REMARK SMILES IDX 4 1 5 2 6 3 7 4 8 5 3 6 2 7 1 8
REMARK H PARENT
REMARK Flexibility Score: inf
ROOT
ATOM      1  C   UNL     1     -14.543   1.082 -20.733  1.00  0.00     0.006 C 
ENDROOT
BRANCH   1   2
ATOM      2  C   UNL     1     -14.859   0.216 -19.510  1.00  0.00     0.053 C 
BRANCH   2   3
ATOM      3  C   UNL     1     -14.407  -1.193 -19.734  1.00  0.00     0.041 C 
ATOM      4  O   UNL     1     -13.744  -1.793 -18.847  1.00  0.00    -0.550 OA
ATOM      5  O   UNL     1     -14.761  -1.860 -20.899  1.00  0.00    -0.550 OA
ENDBRANCH   2   3
ENDBRANCH   1   2
BRANCH   1   6
ATOM      6  C   UNL     1     -15.830   1.564 -21.413  1.00  0.00     0.000 C 
BRANCH   6   7
ATOM      7  C   UNL     1     -16.056   0.834 -22.741  1.00  0.00    -0.003 C 
ATOM      8  C   UNL     1     -17.295  -0.055 -22.678  1.00  0.00     0.004 C 
ENDBRANCH   6   7
ENDBRANCH   1   6
TORSDOF 4
ENDMDL
MODEL 6
REMARK VINA RESULT:    -3.554      2.249      3.097
REMARK INTER + INTRA:          -4.538
REMARK INTER:                  -4.429
REMARK INTRA:                  -0.108
REMARK UNBOUND:                -0.153
REMARK SMILES CCCCCC(=O)[O-]
REMARK SMILES IDX 4 1 5 2 6 3 7 4 8 5 3 6 2 7 1 8
REMARK H PARENT
REMARK Flexibility Score: inf
ROOT
ATOM      1  C   UNL     1     -15.884   3.293 -20.660  1.00  0.00     0.006 C 
ENDROOT
BRANCH   1   2
ATOM      2  C   UNL     1     -17.134   4.082 -20.260  1.00  0.00     0.053 C 
BRANCH   2   3
ATOM      3  C   UNL     1     -16.875   5.553 -20.342  1.00  0.00     0.041 C 
ATOM      4  O   UNL     1     -17.770   6.331 -20.765  1.00  0.00    -0.550 OA
ATOM      5  O   UNL     1     -15.663   6.071 -19.904  1.00  0.00    -0.550 OA
ENDBRANCH   2   3
ENDBRANCH   1   2
BRANCH   1   6
ATOM      6  C   UNL     1     -15.378   2.436 -19.493  1.00  0.00     0.000 C 
BRANCH   6   7
ATOM      7  C   UNL     1     -14.818   1.100 -19.994  1.00  0.00    -0.003 C 
ATOM      8  C   UNL     1     -14.044   1.281 -21.297  1.00  0.00     0.004 C 
ENDBRANCH   6   7
ENDBRANCH   1   6
TORSDOF 4
ENDMDL
MODEL 7
REMARK VINA RESULT:    -3.551      1.378      2.249
REMARK INTER + INTRA:          -4.535
REMARK INTER:                  -4.415
REMARK INTRA:                  -0.120
REMARK UNBOUND:                -0.153
REMARK SMILES CCCCCC(=O)[O-]
REMARK SMILES IDX 4 1 5 2 6 3 7 4 8 5 3 6 2 7 1 8
REMARK H PARENT
REMARK Flexibility Score: inf
ROOT
ATOM      1  C   UNL     1     -15.422   3.211 -20.277  1.00  0.00     0.006 C 
ENDROOT
BRANCH   1   2
ATOM      2  C   UNL     1     -16.868   3.715 -20.240  1.00  0.00     0.053 C 
BRANCH   2   3
ATOM      3  C   UNL     1     -17.504   3.582 -21.588  1.00  0.00     0.041 C 
ATOM      4  O   UNL     1     -17.751   2.441 -22.061  1.00  0.00    -0.550 OA
ATOM      5  O   UNL     1     -17.871   4.717 -22.299  1.00  0.00    -0.550 OA
ENDBRANCH   2   3
ENDBRANCH   1   2
BRANCH   1   6
ATOM      6  C   UNL     1     -15.263   1.934 -19.442  1.00  0.00     0.000 C 
BRANCH   6   7
ATOM      7  C   UNL     1     -14.704   0.788 -20.292  1.00  0.00    -0.003 C 
ATOM      8  C   UNL     1     -14.618  -0.505 -19.487  1.00  0.00     0.004 C 
ENDBRANCH   6   7
ENDBRANCH   1   6
TORSDOF 4
ENDMDL
MODEL 8
REMARK VINA RESULT:    -3.524      2.399      2.820
REMARK INTER + INTRA:          -4.502
REMARK INTER:                  -4.285
REMARK INTRA:                  -0.217
REMARK UNBOUND:                -0.153
REMARK SMILES CCCCCC(=O)[O-]
REMARK SMILES IDX 4 1 5 2 6 3 7 4 8 5 3 6 2 7 1 8
REMARK H PARENT
REMARK Flexibility Score: inf
ROOT
ATOM      1  C   UNL     1     -14.698   0.819 -21.072  1.00  0.00     0.006 C 
ENDROOT
BRANCH   1   2
ATOM      2  C   UNL     1     -16.018   1.060 -21.811  1.00  0.00     0.053 C 
BRANCH   2   3
ATOM      3  C   UNL     1     -16.404  -0.149 -22.603  1.00  0.00     0.041 C 
ATOM      4  O   UNL     1     -17.620  -0.438 -22.764  1.00  0.00    -0.550 OA
ATOM      5  O   UNL     1     -15.425  -0.929 -23.205  1.00  0.00    -0.550 OA
ENDBRANCH   2   3
ENDBRANCH   1   2
BRANCH   1   6
ATOM      6  C   UNL     1     -14.939   0.599 -19.574  1.00  0.00     0.000 C 
BRANCH   6   7
ATOM      7  C   UNL     1     -14.580  -0.834 -19.165  1.00  0.00    -0.003 C 
ATOM      8  C   UNL     1     -13.656  -1.486 -20.190  1.00  0.00     0.004 C 
ENDBRANCH   6   7
ENDBRANCH   1   6
TORSDOF 4
ENDMDL
MODEL 9
REMARK VINA RESULT:    -3.507      4.946      6.279
REMARK INTER + INTRA:          -4.480
REMARK INTER:                  -4.233
REMARK INTRA:                  -0.247
REMARK UNBOUND:                -0.153
REMARK SMILES CCCCCC(=O)[O-]
REMARK SMILES IDX 4 1 5 2 6 3 7 4 8 5 3 6 2 7 1 8
REMARK H PARENT
REMARK Flexibility Score: inf
ROOT
ATOM      1  C   UNL     1     -13.947   5.850 -20.769  1.00  0.00     0.006 C 
ENDROOT
BRANCH   1   2
ATOM      2  C   UNL     1     -14.007   5.279 -22.189  1.00  0.00     0.053 C 
BRANCH   2   3
ATOM      3  C   UNL     1     -15.308   5.628 -22.840  1.00  0.00     0.041 C 
ATOM      4  O   UNL     1     -16.202   4.752 -22.977  1.00  0.00    -0.550 OA
ATOM      5  O   UNL     1     -15.552   6.933 -23.250  1.00  0.00    -0.550 OA
ENDBRANCH   2   3
ENDBRANCH   1   2
BRANCH   1   6
ATOM      6  C   UNL     1     -12.943   7.006 -20.682  1.00  0.00     0.000 C 
BRANCH   6   7
ATOM      7  C   UNL     1     -13.644   8.316 -20.308  1.00  0.00    -0.003 C 
ATOM      8  C   UNL     1     -15.091   8.067 -19.889  1.00  0.00     0.004 C 
ENDBRANCH   6   7
ENDBRANCH   1   6
TORSDOF 4
ENDMDL
