MODEL 1
REMARK VINA RESULT:    -4.287      0.000      0.000
REMARK INTER + INTRA:         -10.357
REMARK INTER:                  -8.047
REMARK INTRA:                  -2.310
REMARK UNBOUND:                -2.310
REMARK SMILES CCCCCCCCCCCCCC=CC=CC(=O)OC
REMARK SMILES IDX 9 1 8 2 7 3 6 4 5 5 4 6 3 7 2 8 1 9 10 10 11 11 12 12 13 13
REMARK SMILES IDX 14 14 15 15 16 16 17 17 18 18 19 19 20 20 21 21
REMARK H PARENT
REMARK Flexibility Score: inf
ROOT
ATOM      1  C   UNL     1      68.587  55.193  20.326  1.00  0.00     0.000 C 
ENDROOT
BRANCH   1   2
ATOM      2  C   UNL     1      69.969  55.302  20.996  1.00  0.00     0.000 C 
BRANCH   2   3
ATOM      3  C   UNL     1      71.039  54.464  20.278  1.00  0.00     0.000 C 
BRANCH   3   4
ATOM      4  C   UNL     1      71.981  53.740  21.257  1.00  0.00    -0.000 C 
BRANCH   4   5
ATOM      5  C   UNL     1      71.222  52.851  22.255  1.00  0.00    -0.000 C 
BRANCH   5   6
ATOM      6  C   UNL     1      70.439  51.721  21.564  1.00  0.00    -0.000 C 
BRANCH   6   7
ATOM      7  C   UNL     1      69.341  51.132  22.474  1.00  0.00    -0.000 C 
BRANCH   7   8
ATOM      8  C   UNL     1      69.600  49.673  22.885  1.00  0.00    -0.003 C 
ATOM      9  C   UNL     1      68.603  48.692  22.273  1.00  0.00     0.004 C 
ENDBRANCH   7   8
ENDBRANCH   6   7
ENDBRANCH   5   6
ENDBRANCH   4   5
ENDBRANCH   3   4
ENDBRANCH   2   3
ENDBRANCH   1   2
BRANCH   1  10
ATOM     10  C   UNL     1      67.724  54.073  20.928  1.00  0.00     0.000 C 
BRANCH  10  11
ATOM     11  C   UNL     1      66.922  53.305  19.864  1.00  0.00     0.000 C 
BRANCH  11  12
ATOM     12  C   UNL     1      67.718  52.137  19.258  1.00  0.00     0.004 C 
BRANCH  12  13
ATOM     13  C   UNL     1      68.049  52.353  17.773  1.00  0.00     0.027 C 
BRANCH  13  14
ATOM     14  C   UNL     1      69.515  52.615  17.579  1.00  0.00    -0.027 C 
ATOM     15  C   UNL     1      69.952  53.676  16.893  1.00  0.00    -0.004 C 
BRANCH  15  16
ATOM     16  C   UNL     1      71.399  53.919  16.728  1.00  0.00     0.007 C 
ATOM     17  C   UNL     1      71.941  54.831  15.905  1.00  0.00     0.093 C 
BRANCH  17  18
ATOM     18  C   UNL     1      71.220  55.653  14.914  1.00  0.00     0.330 C 
ATOM     19  O   UNL     1      70.635  56.720  15.246  1.00  0.00    -0.247 OA
BRANCH  18  20
ATOM     20  O   UNL     1      71.138  55.189  13.597  1.00  0.00    -0.466 OA
ATOM     21  C   UNL     1      71.473  55.998  12.476  1.00  0.00     0.282 C 
ENDBRANCH  18  20
ENDBRANCH  17  18
ENDBRANCH  15  16
ENDBRANCH  13  14
ENDBRANCH  12  13
ENDBRANCH  11  12
ENDBRANCH  10  11
ENDBRANCH   1  10
TORSDOF 15
ENDMDL
MODEL 2
REMARK VINA RESULT:    -4.282      1.602      2.170
REMARK INTER + INTRA:         -10.348
REMARK INTER:                  -8.248
REMARK INTRA:                  -2.099
REMARK UNBOUND:                -2.310
REMARK SMILES CCCCCCCCCCCCCC=CC=CC(=O)OC
REMARK SMILES IDX 9 1 8 2 7 3 6 4 5 5 4 6 3 7 2 8 1 9 10 10 11 11 12 12 13 13
REMARK SMILES IDX 14 14 15 15 16 16 17 17 18 18 19 19 20 20 21 21
REMARK H PARENT
REMARK Flexibility Score: inf
ROOT
ATOM      1  C   UNL     1      66.589  55.611  21.989  1.00  0.00     0.000 C 
ENDROOT
BRANCH   1   2
ATOM      2  C   UNL     1      68.097  55.382  22.196  1.00  0.00     0.000 C 
BRANCH   2   3
ATOM      3  C   UNL     1      68.415  54.768  23.569  1.00  0.00     0.000 C 
BRANCH   3   4
ATOM      4  C   UNL     1      69.359  53.554  23.472  1.00  0.00    -0.000 C 
BRANCH   4   5
ATOM      5  C   UNL     1      70.029  53.439  22.094  1.00  0.00    -0.000 C 
BRANCH   5   6
ATOM      6  C   UNL     1      70.573  52.027  21.817  1.00  0.00    -0.000 C 
BRANCH   6   7
ATOM      7  C   UNL     1      69.836  50.948  22.639  1.00  0.00    -0.000 C 
BRANCH   7   8
ATOM      8  C   UNL     1      68.836  50.122  21.812  1.00  0.00    -0.003 C 
ATOM      9  C   UNL     1      68.708  48.679  22.295  1.00  0.00     0.004 C 
ENDBRANCH   7   8
ENDBRANCH   6   7
ENDBRANCH   5   6
ENDBRANCH   4   5
ENDBRANCH   3   4
ENDBRANCH   2   3
ENDBRANCH   1   2
BRANCH   1  10
ATOM     10  C   UNL     1      66.042  54.871  20.758  1.00  0.00     0.000 C 
BRANCH  10  11
ATOM     11  C   UNL     1      67.047  53.861  20.178  1.00  0.00     0.000 C 
BRANCH  11  12
ATOM     12  C   UNL     1      66.363  52.594  19.640  1.00  0.00     0.004 C 
BRANCH  12  13
ATOM     13  C   UNL     1      67.148  51.939  18.492  1.00  0.00     0.027 C 
BRANCH  13  14
ATOM     14  C   UNL     1      68.628  52.103  18.688  1.00  0.00    -0.027 C 
ATOM     15  C   UNL     1      69.400  52.669  17.755  1.00  0.00    -0.004 C 
BRANCH  15  16
ATOM     16  C   UNL     1      70.851  52.831  17.977  1.00  0.00     0.007 C 
ATOM     17  C   UNL     1      71.628  53.744  17.374  1.00  0.00     0.093 C 
BRANCH  17  18
ATOM     18  C   UNL     1      71.225  54.651  16.281  1.00  0.00     0.330 C 
ATOM     19  O   UNL     1      71.699  54.529  15.119  1.00  0.00    -0.247 OA
BRANCH  18  20
ATOM     20  O   UNL     1      70.351  55.701  16.575  1.00  0.00    -0.466 OA
ATOM     21  C   UNL     1      70.648  57.058  16.263  1.00  0.00     0.282 C 
ENDBRANCH  18  20
ENDBRANCH  17  18
ENDBRANCH  15  16
ENDBRANCH  13  14
ENDBRANCH  12  13
ENDBRANCH  11  12
ENDBRANCH  10  11
ENDBRANCH   1  10
TORSDOF 15
ENDMDL
MODEL 3
REMARK VINA RESULT:    -4.118      1.510      3.401
REMARK INTER + INTRA:         -10.039
REMARK INTER:                  -7.871
REMARK INTRA:                  -2.168
REMARK UNBOUND:                -2.310
REMARK SMILES CCCCCCCCCCCCCC=CC=CC(=O)OC
REMARK SMILES IDX 9 1 8 2 7 3 6 4 5 5 4 6 3 7 2 8 1 9 10 10 11 11 12 12 13 13
REMARK SMILES IDX 14 14 15 15 16 16 17 17 18 18 19 19 20 20 21 21
REMARK H PARENT
REMARK Flexibility Score: inf
ROOT
ATOM      1  C   UNL     1      67.953  52.718  17.490  1.00  0.00     0.000 C 
ENDROOT
BRANCH   1   2
ATOM      2  C   UNL     1      67.162  51.915  18.538  1.00  0.00     0.000 C 
BRANCH   2   3
ATOM      3  C   UNL     1      66.649  52.795  19.688  1.00  0.00     0.000 C 
BRANCH   3   4
ATOM      4  C   UNL     1      67.740  53.717  20.262  1.00  0.00    -0.000 C 
BRANCH   4   5
ATOM      5  C   UNL     1      68.428  53.117  21.498  1.00  0.00    -0.000 C 
BRANCH   5   6
ATOM      6  C   UNL     1      69.849  52.609  21.196  1.00  0.00    -0.000 C 
BRANCH   6   7
ATOM      7  C   UNL     1      69.871  51.099  20.879  1.00  0.00    -0.000 C 
BRANCH   7   8
ATOM      8  C   UNL     1      68.753  50.307  21.577  1.00  0.00    -0.003 C 
ATOM      9  C   UNL     1      69.277  49.162  22.440  1.00  0.00     0.004 C 
ENDBRANCH   7   8
ENDBRANCH   6   7
ENDBRANCH   5   6
ENDBRANCH   4   5
ENDBRANCH   3   4
ENDBRANCH   2   3
ENDBRANCH   1   2
BRANCH   1  10
ATOM     10  C   UNL     1      69.448  52.361  17.474  1.00  0.00     0.000 C 
BRANCH  10  11
ATOM     11  C   UNL     1      70.355  53.604  17.494  1.00  0.00     0.000 C 
BRANCH  11  12
ATOM     12  C   UNL     1      71.830  53.250  17.745  1.00  0.00     0.004 C 
BRANCH  12  13
ATOM     13  C   UNL     1      72.497  54.185  18.767  1.00  0.00     0.027 C 
BRANCH  13  14
ATOM     14  C   UNL     1      72.671  55.566  18.202  1.00  0.00    -0.027 C 
ATOM     15  C   UNL     1      73.336  55.777  17.062  1.00  0.00    -0.004 C 
BRANCH  15  16
ATOM     16  C   UNL     1      73.482  57.143  16.520  1.00  0.00     0.007 C 
ATOM     17  C   UNL     1      72.590  57.760  15.731  1.00  0.00     0.093 C 
BRANCH  17  18
ATOM     18  C   UNL     1      71.380  57.157  15.138  1.00  0.00     0.330 C 
ATOM     19  O   UNL     1      70.310  57.049  15.797  1.00  0.00    -0.247 OA
BRANCH  18  20
ATOM     20  O   UNL     1      71.461  56.639  13.842  1.00  0.00    -0.466 OA
ATOM     21  C   UNL     1      71.409  55.243  13.569  1.00  0.00     0.282 C 
ENDBRANCH  18  20
ENDBRANCH  17  18
ENDBRANCH  15  16
ENDBRANCH  13  14
ENDBRANCH  12  13
ENDBRANCH  11  12
ENDBRANCH  10  11
ENDBRANCH   1  10
TORSDOF 15
ENDMDL
MODEL 4
REMARK VINA RESULT:    -4.104      4.432      7.243
REMARK INTER + INTRA:         -10.014
REMARK INTER:                  -7.602
REMARK INTRA:                  -2.412
REMARK UNBOUND:                -2.310
REMARK SMILES CCCCCCCCCCCCCC=CC=CC(=O)OC
REMARK SMILES IDX 9 1 8 2 7 3 6 4 5 5 4 6 3 7 2 8 1 9 10 10 11 11 12 12 13 13
REMARK SMILES IDX 14 14 15 15 16 16 17 17 18 18 19 19 20 20 21 21
REMARK H PARENT
REMARK Flexibility Score: inf
ROOT
ATOM      1  C   UNL     1      66.204  52.758  19.597  1.00  0.00     0.000 C 
ENDROOT
BRANCH   1   2
ATOM      2  C   UNL     1      67.152  51.728  18.956  1.00  0.00     0.000 C 
BRANCH   2   3
ATOM      3  C   UNL     1      67.778  52.238  17.649  1.00  0.00     0.000 C 
BRANCH   3   4
ATOM      4  C   UNL     1      69.229  52.720  17.835  1.00  0.00    -0.000 C 
BRANCH   4   5
ATOM      5  C   UNL     1      69.962  51.962  18.954  1.00  0.00    -0.000 C 
BRANCH   5   6
ATOM      6  C   UNL     1      70.413  52.887  20.097  1.00  0.00    -0.000 C 
BRANCH   6   7
ATOM      7  C   UNL     1      70.540  52.134  21.439  1.00  0.00    -0.000 C 
BRANCH   7   8
ATOM      8  C   UNL     1      69.240  51.440  21.879  1.00  0.00    -0.003 C 
ATOM      9  C   UNL     1      69.349  49.917  21.890  1.00  0.00     0.004 C 
ENDBRANCH   7   8
ENDBRANCH   6   7
ENDBRANCH   5   6
ENDBRANCH   4   5
ENDBRANCH   3   4
ENDBRANCH   2   3
ENDBRANCH   1   2
BRANCH   1  10
ATOM     10  C   UNL     1      66.957  53.906  20.287  1.00  0.00     0.000 C 
BRANCH  10  11
ATOM     11  C   UNL     1      66.020  54.849  21.062  1.00  0.00     0.000 C 
BRANCH  11  12
ATOM     12  C   UNL     1      66.789  55.862  21.926  1.00  0.00     0.004 C 
BRANCH  12  13
ATOM     13  C   UNL     1      68.310  55.784  21.716  1.00  0.00     0.027 C 
BRANCH  13  14
ATOM     14  C   UNL     1      69.018  55.481  23.007  1.00  0.00    -0.027 C 
ATOM     15  C   UNL     1      68.553  54.564  23.861  1.00  0.00    -0.004 C 
BRANCH  15  16
ATOM     16  C   UNL     1      69.274  54.274  25.117  1.00  0.00     0.007 C 
ATOM     17  C   UNL     1      69.177  54.991  26.247  1.00  0.00     0.093 C 
BRANCH  17  18
ATOM     18  C   UNL     1      68.460  56.270  26.413  1.00  0.00     0.330 C 
ATOM     19  O   UNL     1      69.073  57.372  26.403  1.00  0.00    -0.247 OA
BRANCH  18  20
ATOM     20  O   UNL     1      67.083  56.236  26.651  1.00  0.00    -0.466 OA
ATOM     21  C   UNL     1      66.136  56.819  25.764  1.00  0.00     0.282 C 
ENDBRANCH  18  20
ENDBRANCH  17  18
ENDBRANCH  15  16
ENDBRANCH  13  14
ENDBRANCH  12  13
ENDBRANCH  11  12
ENDBRANCH  10  11
ENDBRANCH   1  10
TORSDOF 15
ENDMDL
MODEL 5
REMARK VINA RESULT:    -4.048      2.529      4.337
REMARK INTER + INTRA:          -9.908
REMARK INTER:                  -7.861
REMARK INTRA:                  -2.047
REMARK UNBOUND:                -2.310
REMARK SMILES CCCCCCCCCCCCCC=CC=CC(=O)OC
REMARK SMILES IDX 9 1 8 2 7 3 6 4 5 5 4 6 3 7 2 8 1 9 10 10 11 11 12 12 13 13
REMARK SMILES IDX 14 14 15 15 16 16 17 17 18 18 19 19 20 20 21 21
REMARK H PARENT
REMARK Flexibility Score: inf
ROOT
ATOM      1  C   UNL     1      67.993  52.739  17.849  1.00  0.00     0.000 C 
ENDROOT
BRANCH   1   2
ATOM      2  C   UNL     1      67.058  52.240  18.966  1.00  0.00     0.000 C 
BRANCH   2   3
ATOM      3  C   UNL     1      66.718  53.340  19.984  1.00  0.00     0.000 C 
BRANCH   3   4
ATOM      4  C   UNL     1      67.928  54.233  20.318  1.00  0.00    -0.000 C 
BRANCH   4   5
ATOM      5  C   UNL     1      68.586  53.856  21.655  1.00  0.00    -0.000 C 
BRANCH   5   6
ATOM      6  C   UNL     1      69.608  52.716  21.510  1.00  0.00    -0.000 C 
BRANCH   6   7
ATOM      7  C   UNL     1      69.215  51.473  22.336  1.00  0.00    -0.000 C 
BRANCH   7   8
ATOM      8  C   UNL     1      69.078  50.194  21.494  1.00  0.00    -0.003 C 
ATOM      9  C   UNL     1      68.929  48.932  22.341  1.00  0.00     0.004 C 
ENDBRANCH   7   8
ENDBRANCH   6   7
ENDBRANCH   5   6
ENDBRANCH   4   5
ENDBRANCH   3   4
ENDBRANCH   2   3
ENDBRANCH   1   2
BRANCH   1  10
ATOM     10  C   UNL     1      69.356  52.028  17.857  1.00  0.00     0.000 C 
BRANCH  10  11
ATOM     11  C   UNL     1      70.538  53.012  17.824  1.00  0.00     0.000 C 
BRANCH  11  12
ATOM     12  C   UNL     1      70.122  54.415  17.350  1.00  0.00     0.004 C 
BRANCH  12  13
ATOM     13  C   UNL     1      70.641  54.741  15.940  1.00  0.00     0.027 C 
BRANCH  13  14
ATOM     14  C   UNL     1      72.069  55.202  15.984  1.00  0.00    -0.027 C 
ATOM     15  C   UNL     1      72.501  56.055  16.919  1.00  0.00    -0.004 C 
BRANCH  15  16
ATOM     16  C   UNL     1      73.914  56.483  16.949  1.00  0.00     0.007 C 
ATOM     17  C   UNL     1      74.908  55.825  17.565  1.00  0.00     0.093 C 
BRANCH  17  18
ATOM     18  C   UNL     1      74.766  54.645  18.441  1.00  0.00     0.330 C 
ATOM     19  O   UNL     1      75.078  53.490  18.042  1.00  0.00    -0.247 OA
BRANCH  18  20
ATOM     20  O   UNL     1      74.211  54.822  19.712  1.00  0.00    -0.466 OA
ATOM     21  C   UNL     1      74.947  55.365  20.802  1.00  0.00     0.282 C 
ENDBRANCH  18  20
ENDBRANCH  17  18
ENDBRANCH  15  16
ENDBRANCH  13  14
ENDBRANCH  12  13
ENDBRANCH  11  12
ENDBRANCH  10  11
ENDBRANCH   1  10
TORSDOF 15
ENDMDL
MODEL 6
REMARK VINA RESULT:    -4.020      3.047      6.399
REMARK INTER + INTRA:          -9.856
REMARK INTER:                  -6.918
REMARK INTRA:                  -2.938
REMARK UNBOUND:                -2.310
REMARK SMILES CCCCCCCCCCCCCC=CC=CC(=O)OC
REMARK SMILES IDX 9 1 8 2 7 3 6 4 5 5 4 6 3 7 2 8 1 9 10 10 11 11 12 12 13 13
REMARK SMILES IDX 14 14 15 15 16 16 17 17 18 18 19 19 20 20 21 21
REMARK H PARENT
REMARK Flexibility Score: inf
ROOT
ATOM      1  C   UNL     1      71.562  57.127  15.790  1.00  0.00     0.000 C 
ENDROOT
BRANCH   1   2
ATOM      2  C   UNL     1      71.644  56.022  14.721  1.00  0.00     0.000 C 
BRANCH   2   3
ATOM      3  C   UNL     1      71.302  54.633  15.283  1.00  0.00     0.000 C 
BRANCH   3   4
ATOM      4  C   UNL     1      72.147  54.267  16.517  1.00  0.00    -0.000 C 
BRANCH   4   5
ATOM      5  C   UNL     1      71.352  53.464  17.558  1.00  0.00    -0.000 C 
BRANCH   5   6
ATOM      6  C   UNL     1      69.833  53.534  17.324  1.00  0.00    -0.000 C 
BRANCH   6   7
ATOM      7  C   UNL     1      69.105  52.278  17.848  1.00  0.00    -0.000 C 
BRANCH   7   8
ATOM      8  C   UNL     1      67.572  52.390  17.797  1.00  0.00    -0.003 C 
ATOM      9  C   UNL     1      66.873  51.528  18.846  1.00  0.00     0.004 C 
ENDBRANCH   7   8
ENDBRANCH   6   7
ENDBRANCH   5   6
ENDBRANCH   4   5
ENDBRANCH   3   4
ENDBRANCH   2   3
ENDBRANCH   1   2
BRANCH   1  10
ATOM     10  C   UNL     1      70.137  57.319  16.334  1.00  0.00     0.000 C 
BRANCH  10  11
ATOM     11  C   UNL     1      70.084  57.320  17.872  1.00  0.00     0.000 C 
BRANCH  11  12
ATOM     12  C   UNL     1      71.478  57.451  18.507  1.00  0.00     0.004 C 
BRANCH  12  13
ATOM     13  C   UNL     1      71.636  56.591  19.771  1.00  0.00     0.027 C 
BRANCH  13  14
ATOM     14  C   UNL     1      70.340  55.924  20.135  1.00  0.00    -0.027 C 
ATOM     15  C   UNL     1      70.311  54.789  20.840  1.00  0.00    -0.004 C 
BRANCH  15  16
ATOM     16  C   UNL     1      69.024  54.160  21.198  1.00  0.00     0.007 C 
ATOM     17  C   UNL     1      68.867  52.882  21.578  1.00  0.00     0.093 C 
BRANCH  17  18
ATOM     18  C   UNL     1      69.906  51.834  21.572  1.00  0.00     0.330 C 
ATOM     19  O   UNL     1      69.719  50.728  20.994  1.00  0.00    -0.247 OA
BRANCH  18  20
ATOM     20  O   UNL     1      71.088  52.063  22.282  1.00  0.00    -0.466 OA
ATOM     21  C   UNL     1      71.149  52.022  23.703  1.00  0.00     0.282 C 
ENDBRANCH  18  20
ENDBRANCH  17  18
ENDBRANCH  15  16
ENDBRANCH  13  14
ENDBRANCH  12  13
ENDBRANCH  11  12
ENDBRANCH  10  11
ENDBRANCH   1  10
TORSDOF 15
ENDMDL
MODEL 7
REMARK VINA RESULT:    -3.968      4.851      7.670
REMARK INTER + INTRA:          -9.759
REMARK INTER:                  -7.410
REMARK INTRA:                  -2.349
REMARK UNBOUND:                -2.310
REMARK SMILES CCCCCCCCCCCCCC=CC=CC(=O)OC
REMARK SMILES IDX 9 1 8 2 7 3 6 4 5 5 4 6 3 7 2 8 1 9 10 10 11 11 12 12 13 13
REMARK SMILES IDX 14 14 15 15 16 16 17 17 18 18 19 19 20 20 21 21
REMARK H PARENT
REMARK Flexibility Score: inf
ROOT
ATOM      1  C   UNL     1      68.176  54.374  22.928  1.00  0.00     0.000 C 
ENDROOT
BRANCH   1   2
ATOM      2  C   UNL     1      69.262  53.505  23.588  1.00  0.00     0.000 C 
BRANCH   2   3
ATOM      3  C   UNL     1      69.262  52.062  23.059  1.00  0.00     0.000 C 
BRANCH   3   4
ATOM      4  C   UNL     1      70.315  51.834  21.958  1.00  0.00    -0.000 C 
BRANCH   4   5
ATOM      5  C   UNL     1      69.705  51.262  20.669  1.00  0.00    -0.000 C 
BRANCH   5   6
ATOM      6  C   UNL     1      69.713  52.275  19.511  1.00  0.00    -0.000 C 
BRANCH   6   7
ATOM      7  C   UNL     1      68.305  52.488  18.914  1.00  0.00    -0.000 C 
BRANCH   7   8
ATOM      8  C   UNL     1      67.218  51.631  19.584  1.00  0.00    -0.003 C 
ATOM      9  C   UNL     1      66.065  51.285  18.644  1.00  0.00     0.004 C 
ENDBRANCH   7   8
ENDBRANCH   6   7
ENDBRANCH   5   6
ENDBRANCH   4   5
ENDBRANCH   3   4
ENDBRANCH   2   3
ENDBRANCH   1   2
BRANCH   1  10
ATOM     10  C   UNL     1      68.744  55.313  21.851  1.00  0.00     0.000 C 
BRANCH  10  11
ATOM     11  C   UNL     1      67.718  55.646  20.754  1.00  0.00     0.000 C 
BRANCH  11  12
ATOM     12  C   UNL     1      66.289  55.777  21.307  1.00  0.00     0.004 C 
BRANCH  12  13
ATOM     13  C   UNL     1      65.973  57.198  21.801  1.00  0.00     0.027 C 
BRANCH  13  14
ATOM     14  C   UNL     1      65.557  57.187  23.245  1.00  0.00    -0.027 C 
ATOM     15  C   UNL     1      66.440  57.388  24.229  1.00  0.00    -0.004 C 
BRANCH  15  16
ATOM     16  C   UNL     1      66.004  57.387  25.640  1.00  0.00     0.007 C 
ATOM     17  C   UNL     1      66.726  56.920  26.671  1.00  0.00     0.093 C 
BRANCH  17  18
ATOM     18  C   UNL     1      68.009  56.196  26.584  1.00  0.00     0.330 C 
ATOM     19  O   UNL     1      68.057  54.937  26.644  1.00  0.00    -0.247 OA
BRANCH  18  20
ATOM     20  O   UNL     1      69.190  56.940  26.501  1.00  0.00    -0.466 OA
ATOM     21  C   UNL     1      70.027  56.924  25.351  1.00  0.00     0.282 C 
ENDBRANCH  18  20
ENDBRANCH  17  18
ENDBRANCH  15  16
ENDBRANCH  13  14
ENDBRANCH  12  13
ENDBRANCH  11  12
ENDBRANCH  10  11
ENDBRANCH   1  10
TORSDOF 15
ENDMDL
MODEL 8
REMARK VINA RESULT:    -3.947      2.338      3.956
REMARK INTER + INTRA:          -9.719
REMARK INTER:                  -6.802
REMARK INTRA:                  -2.917
REMARK UNBOUND:                -2.310
REMARK SMILES CCCCCCCCCCCCCC=CC=CC(=O)OC
REMARK SMILES IDX 9 1 8 2 7 3 6 4 5 5 4 6 3 7 2 8 1 9 10 10 11 11 12 12 13 13
REMARK SMILES IDX 14 14 15 15 16 16 17 17 18 18 19 19 20 20 21 21
REMARK H PARENT
REMARK Flexibility Score: inf
ROOT
ATOM      1  C   UNL     1      69.017  54.033  21.903  1.00  0.00     0.000 C 
ENDROOT
BRANCH   1   2
ATOM      2  C   UNL     1      69.008  52.499  22.029  1.00  0.00     0.000 C 
BRANCH   2   3
ATOM      3  C   UNL     1      69.998  51.824  21.066  1.00  0.00     0.000 C 
BRANCH   3   4
ATOM      4  C   UNL     1      70.291  52.681  19.820  1.00  0.00    -0.000 C 
BRANCH   4   5
ATOM      5  C   UNL     1      70.136  51.889  18.512  1.00  0.00    -0.000 C 
BRANCH   5   6
ATOM      6  C   UNL     1      69.396  52.686  17.423  1.00  0.00    -0.000 C 
BRANCH   6   7
ATOM      7  C   UNL     1      67.883  52.792  17.707  1.00  0.00    -0.000 C 
BRANCH   7   8
ATOM      8  C   UNL     1      67.254  51.475  18.192  1.00  0.00    -0.003 C 
ATOM      9  C   UNL     1      66.206  51.678  19.284  1.00  0.00     0.004 C 
ENDBRANCH   7   8
ENDBRANCH   6   7
ENDBRANCH   5   6
ENDBRANCH   4   5
ENDBRANCH   3   4
ENDBRANCH   2   3
ENDBRANCH   1   2
BRANCH   1  10
ATOM     10  C   UNL     1      67.623  54.610  21.611  1.00  0.00     0.000 C 
BRANCH  10  11
ATOM     11  C   UNL     1      67.509  55.198  20.194  1.00  0.00     0.000 C 
BRANCH  11  12
ATOM     12  C   UNL     1      67.877  56.690  20.145  1.00  0.00     0.004 C 
BRANCH  12  13
ATOM     13  C   UNL     1      69.339  56.926  19.734  1.00  0.00     0.027 C 
BRANCH  13  14
ATOM     14  C   UNL     1      69.671  56.183  18.471  1.00  0.00    -0.027 C 
ATOM     15  C   UNL     1      70.789  56.436  17.784  1.00  0.00    -0.004 C 
BRANCH  15  16
ATOM     16  C   UNL     1      71.100  55.683  16.552  1.00  0.00     0.007 C 
ATOM     17  C   UNL     1      72.161  54.879  16.385  1.00  0.00     0.093 C 
BRANCH  17  18
ATOM     18  C   UNL     1      73.286  54.707  17.326  1.00  0.00     0.330 C 
ATOM     19  O   UNL     1      73.258  53.827  18.228  1.00  0.00    -0.247 OA
BRANCH  18  20
ATOM     20  O   UNL     1      74.366  55.591  17.241  1.00  0.00    -0.466 OA
ATOM     21  C   UNL     1      75.687  55.227  17.628  1.00  0.00     0.282 C 
ENDBRANCH  18  20
ENDBRANCH  17  18
ENDBRANCH  15  16
ENDBRANCH  13  14
ENDBRANCH  12  13
ENDBRANCH  11  12
ENDBRANCH  10  11
ENDBRANCH   1  10
TORSDOF 15
ENDMDL
MODEL 9
REMARK VINA RESULT:    -3.927      3.714      5.939
REMARK INTER + INTRA:          -9.680
REMARK INTER:                  -6.817
REMARK INTRA:                  -2.863
REMARK UNBOUND:                -2.310
REMARK SMILES CCCCCCCCCCCCCC=CC=CC(=O)OC
REMARK SMILES IDX 9 1 8 2 7 3 6 4 5 5 4 6 3 7 2 8 1 9 10 10 11 11 12 12 13 13
REMARK SMILES IDX 14 14 15 15 16 16 17 17 18 18 19 19 20 20 21 21
REMARK H PARENT
REMARK Flexibility Score: inf
ROOT
ATOM      1  C   UNL     1      68.507  52.004  18.289  1.00  0.00     0.000 C 
ENDROOT
BRANCH   1   2
ATOM      2  C   UNL     1      69.015  53.294  17.620  1.00  0.00     0.000 C 
BRANCH   2   3
ATOM      3  C   UNL     1      70.008  54.064  18.505  1.00  0.00     0.000 C 
BRANCH   3   4
ATOM      4  C   UNL     1      70.910  53.131  19.334  1.00  0.00    -0.000 C 
BRANCH   4   5
ATOM      5  C   UNL     1      70.983  53.544  20.813  1.00  0.00    -0.000 C 
BRANCH   5   6
ATOM      6  C   UNL     1      70.936  52.337  21.766  1.00  0.00    -0.000 C 
BRANCH   6   7
ATOM      7  C   UNL     1      69.508  51.775  21.924  1.00  0.00    -0.000 C 
BRANCH   7   8
ATOM      8  C   UNL     1      69.374  50.306  21.490  1.00  0.00    -0.003 C 
ATOM      9  C   UNL     1      68.976  49.376  22.634  1.00  0.00     0.004 C 
ENDBRANCH   7   8
ENDBRANCH   6   7
ENDBRANCH   5   6
ENDBRANCH   4   5
ENDBRANCH   3   4
ENDBRANCH   2   3
ENDBRANCH   1   2
BRANCH   1  10
ATOM     10  C   UNL     1      67.141  51.555  17.747  1.00  0.00     0.000 C 
BRANCH  10  11
ATOM     11  C   UNL     1      65.995  51.813  18.740  1.00  0.00     0.000 C 
BRANCH  11  12
ATOM     12  C   UNL     1      66.475  52.517  20.020  1.00  0.00     0.004 C 
BRANCH  12  13
ATOM     13  C   UNL     1      65.560  53.681  20.434  1.00  0.00     0.027 C 
BRANCH  13  14
ATOM     14  C   UNL     1      66.363  54.907  20.766  1.00  0.00    -0.027 C 
ATOM     15  C   UNL     1      67.584  54.819  21.303  1.00  0.00    -0.004 C 
BRANCH  15  16
ATOM     16  C   UNL     1      68.359  56.038  21.608  1.00  0.00     0.007 C 
ATOM     17  C   UNL     1      69.029  56.262  22.749  1.00  0.00     0.093 C 
BRANCH  17  18
ATOM     18  C   UNL     1      69.003  55.418  23.960  1.00  0.00     0.330 C 
ATOM     19  O   UNL     1      69.919  54.585  24.199  1.00  0.00    -0.247 OA
BRANCH  18  20
ATOM     20  O   UNL     1      67.899  55.510  24.813  1.00  0.00    -0.466 OA
ATOM     21  C   UNL     1      67.873  54.908  26.102  1.00  0.00     0.282 C 
ENDBRANCH  18  20
ENDBRANCH  17  18
ENDBRANCH  15  16
ENDBRANCH  13  14
ENDBRANCH  12  13
ENDBRANCH  11  12
ENDBRANCH  10  11
ENDBRANCH   1  10
TORSDOF 15
ENDMDL
