MODEL 1
REMARK VINA RESULT:    -4.192      0.000      0.000
REMARK INTER + INTRA:          -8.319
REMARK INTER:                  -7.378
REMARK INTRA:                  -0.941
REMARK UNBOUND:                -0.941
REMARK SMILES CCCCCCCCCCCCCCC(=O)[O-]
REMARK SMILES IDX 9 1 10 2 11 3 12 4 13 5 14 6 15 7 16 8 17 9 8 10 7 11 6 12
REMARK SMILES IDX 5 13 4 14 3 15 2 16 1 17
REMARK H PARENT
REMARK Flexibility Score: inf
ROOT
ATOM      1  C   UNL     1      -4.022   7.630  -7.504  1.00  0.00     0.000 C 
ENDROOT
BRANCH   1   2
ATOM      2  C   UNL     1      -5.074   8.578  -8.101  1.00  0.00     0.000 C 
BRANCH   2   3
ATOM      3  C   UNL     1      -6.358   8.644  -7.260  1.00  0.00     0.000 C 
BRANCH   3   4
ATOM      4  C   UNL     1      -7.595   8.801  -8.157  1.00  0.00     0.000 C 
BRANCH   4   5
ATOM      5  C   UNL     1      -7.997   7.490  -8.847  1.00  0.00     0.006 C 
BRANCH   5   6
ATOM      6  C   UNL     1      -8.035   6.299  -7.880  1.00  0.00     0.053 C 
BRANCH   6   7
ATOM      7  C   UNL     1      -7.427   5.089  -8.516  1.00  0.00     0.041 C 
ATOM      8  O   UNL     1      -6.244   4.758  -8.246  1.00  0.00    -0.550 OA
ATOM      9  O   UNL     1      -8.183   4.303  -9.375  1.00  0.00    -0.550 OA
ENDBRANCH   6   7
ENDBRANCH   5   6
ENDBRANCH   4   5
ENDBRANCH   3   4
ENDBRANCH   2   3
ENDBRANCH   1   2
BRANCH   1  10
ATOM     10  C   UNL     1      -4.530   6.901  -6.247  1.00  0.00     0.000 C 
BRANCH  10  11
ATOM     11  C   UNL     1      -3.752   5.607  -5.958  1.00  0.00    -0.000 C 
BRANCH  11  12
ATOM     12  C   UNL     1      -3.370   5.459  -4.477  1.00  0.00    -0.000 C 
BRANCH  12  13
ATOM     13  C   UNL     1      -2.479   4.226  -4.264  1.00  0.00    -0.000 C 
BRANCH  13  14
ATOM     14  C   UNL     1      -2.954   3.344  -3.099  1.00  0.00    -0.000 C 
BRANCH  14  15
ATOM     15  C   UNL     1      -1.796   2.826  -2.236  1.00  0.00    -0.000 C 
BRANCH  15  16
ATOM     16  C   UNL     1      -0.759   2.091  -3.093  1.00  0.00    -0.003 C 
ATOM     17  C   UNL     1      -1.187   0.650  -3.361  1.00  0.00     0.004 C 
ENDBRANCH  15  16
ENDBRANCH  14  15
ENDBRANCH  13  14
ENDBRANCH  12  13
ENDBRANCH  11  12
ENDBRANCH  10  11
ENDBRANCH   1  10
TORSDOF 13
ENDMDL
MODEL 2
REMARK VINA RESULT:    -4.157      3.160      7.301
REMARK INTER + INTRA:          -8.257
REMARK INTER:                  -6.834
REMARK INTRA:                  -1.422
REMARK UNBOUND:                -0.941
REMARK SMILES CCCCCCCCCCCCCCC(=O)[O-]
REMARK SMILES IDX 9 1 10 2 11 3 12 4 13 5 14 6 15 7 16 8 17 9 8 10 7 11 6 12
REMARK SMILES IDX 5 13 4 14 3 15 2 16 1 17
REMARK H PARENT
REMARK Flexibility Score: inf
ROOT
ATOM      1  C   UNL     1      -3.392   7.870  -7.033  1.00  0.00     0.000 C 
ENDROOT
BRANCH   1   2
ATOM      2  C   UNL     1      -4.289   6.980  -6.158  1.00  0.00     0.000 C 
BRANCH   2   3
ATOM      3  C   UNL     1      -3.711   5.571  -5.958  1.00  0.00     0.000 C 
BRANCH   3   4
ATOM      4  C   UNL     1      -3.408   5.306  -4.476  1.00  0.00     0.000 C 
BRANCH   4   5
ATOM      5  C   UNL     1      -2.462   4.114  -4.269  1.00  0.00     0.006 C 
BRANCH   5   6
ATOM      6  C   UNL     1      -2.815   3.288  -3.024  1.00  0.00     0.053 C 
BRANCH   6   7
ATOM      7  C   UNL     1      -1.614   2.540  -2.537  1.00  0.00     0.041 C 
ATOM      8  O   UNL     1      -1.318   1.423  -3.035  1.00  0.00    -0.550 OA
ATOM      9  O   UNL     1      -0.798   3.097  -1.562  1.00  0.00    -0.550 OA
ENDBRANCH   6   7
ENDBRANCH   5   6
ENDBRANCH   4   5
ENDBRANCH   3   4
ENDBRANCH   2   3
ENDBRANCH   1   2
BRANCH   1  10
ATOM     10  C   UNL     1      -3.806   7.848  -8.516  1.00  0.00     0.000 C 
BRANCH  10  11
ATOM     11  C   UNL     1      -4.201   9.237  -9.041  1.00  0.00    -0.000 C 
BRANCH  11  12
ATOM     12  C   UNL     1      -5.698   9.348  -9.370  1.00  0.00    -0.000 C 
BRANCH  12  13
ATOM     13  C   UNL     1      -6.484   9.881  -8.163  1.00  0.00    -0.000 C 
BRANCH  13  14
ATOM     14  C   UNL     1      -7.206   8.769  -7.387  1.00  0.00    -0.000 C 
BRANCH  14  15
ATOM     15  C   UNL     1      -7.693   7.631  -8.295  1.00  0.00    -0.000 C 
BRANCH  15  16
ATOM     16  C   UNL     1      -7.653   6.287  -7.560  1.00  0.00    -0.003 C 
ATOM     17  C   UNL     1      -6.688   5.316  -8.236  1.00  0.00     0.004 C 
ENDBRANCH  15  16
ENDBRANCH  14  15
ENDBRANCH  13  14
ENDBRANCH  12  13
ENDBRANCH  11  12
ENDBRANCH  10  11
ENDBRANCH   1  10
TORSDOF 13
ENDMDL
MODEL 3
REMARK VINA RESULT:    -3.868      3.417      7.097
REMARK INTER + INTRA:          -7.748
REMARK INTER:                  -6.933
REMARK INTRA:                  -0.815
REMARK UNBOUND:                -0.941
REMARK SMILES CCCCCCCCCCCCCCC(=O)[O-]
REMARK SMILES IDX 9 1 10 2 11 3 12 4 13 5 14 6 15 7 16 8 17 9 8 10 7 11 6 12
REMARK SMILES IDX 5 13 4 14 3 15 2 16 1 17
REMARK H PARENT
REMARK Flexibility Score: inf
ROOT
ATOM      1  C   UNL     1      -4.584   7.516  -7.366  1.00  0.00     0.000 C 
ENDROOT
BRANCH   1   2
ATOM      2  C   UNL     1      -3.558   7.053  -6.319  1.00  0.00     0.000 C 
BRANCH   2   3
ATOM      3  C   UNL     1      -3.685   5.559  -5.985  1.00  0.00     0.000 C 
BRANCH   3   4
ATOM      4  C   UNL     1      -3.484   5.312  -4.482  1.00  0.00     0.000 C 
BRANCH   4   5
ATOM      5  C   UNL     1      -2.432   4.231  -4.195  1.00  0.00     0.006 C 
BRANCH   5   6
ATOM      6  C   UNL     1      -2.831   3.313  -3.031  1.00  0.00     0.053 C 
BRANCH   6   7
ATOM      7  C   UNL     1      -1.626   2.622  -2.475  1.00  0.00     0.041 C 
ATOM      8  O   UNL     1      -1.351   1.445  -2.828  1.00  0.00    -0.550 OA
ATOM      9  O   UNL     1      -0.783   3.293  -1.600  1.00  0.00    -0.550 OA
ENDBRANCH   6   7
ENDBRANCH   5   6
ENDBRANCH   4   5
ENDBRANCH   3   4
ENDBRANCH   2   3
ENDBRANCH   1   2
BRANCH   1  10
ATOM     10  C   UNL     1      -5.894   8.013  -6.728  1.00  0.00     0.000 C 
BRANCH  10  11
ATOM     11  C   UNL     1      -7.098   7.128  -7.085  1.00  0.00    -0.000 C 
BRANCH  11  12
ATOM     12  C   UNL     1      -6.861   6.276  -8.342  1.00  0.00    -0.000 C 
BRANCH  12  13
ATOM     13  C   UNL     1      -7.727   5.008  -8.314  1.00  0.00    -0.000 C 
BRANCH  13  14
ATOM     14  C   UNL     1      -8.981   5.164  -7.440  1.00  0.00    -0.000 C 
BRANCH  14  15
ATOM     15  C   UNL     1      -9.134   4.033  -6.414  1.00  0.00    -0.000 C 
BRANCH  15  16
ATOM     16  C   UNL     1     -10.124   4.424  -5.311  1.00  0.00    -0.003 C 
ATOM     17  C   UNL     1     -10.125   3.398  -4.180  1.00  0.00     0.004 C 
ENDBRANCH  15  16
ENDBRANCH  14  15
ENDBRANCH  13  14
ENDBRANCH  12  13
ENDBRANCH  11  12
ENDBRANCH  10  11
ENDBRANCH   1  10
TORSDOF 13
ENDMDL
MODEL 4
REMARK VINA RESULT:    -3.835      3.319      6.262
REMARK INTER + INTRA:          -7.690
REMARK INTER:                  -6.599
REMARK INTRA:                  -1.091
REMARK UNBOUND:                -0.941
REMARK SMILES CCCCCCCCCCCCCCC(=O)[O-]
REMARK SMILES IDX 9 1 10 2 11 3 12 4 13 5 14 6 15 7 16 8 17 9 8 10 7 11 6 12
REMARK SMILES IDX 5 13 4 14 3 15 2 16 1 17
REMARK H PARENT
REMARK Flexibility Score: inf
ROOT
ATOM      1  C   UNL     1      -6.796   9.570  -8.389  1.00  0.00     0.000 C 
ENDROOT
BRANCH   1   2
ATOM      2  C   UNL     1      -5.925  10.003  -9.579  1.00  0.00     0.000 C 
BRANCH   2   3
ATOM      3  C   UNL     1      -4.594   9.239  -9.650  1.00  0.00     0.000 C 
BRANCH   3   4
ATOM      4  C   UNL     1      -3.861   9.286  -8.301  1.00  0.00     0.000 C 
BRANCH   4   5
ATOM      5  C   UNL     1      -3.551   7.888  -7.746  1.00  0.00     0.006 C 
BRANCH   5   6
ATOM      6  C   UNL     1      -4.595   7.411  -6.728  1.00  0.00     0.053 C 
BRANCH   6   7
ATOM      7  C   UNL     1      -4.108   6.190  -6.013  1.00  0.00     0.041 C 
ATOM      8  O   UNL     1      -4.232   5.054  -6.541  1.00  0.00    -0.550 OA
ATOM      9  O   UNL     1      -3.476   6.312  -4.783  1.00  0.00    -0.550 OA
ENDBRANCH   6   7
ENDBRANCH   5   6
ENDBRANCH   4   5
ENDBRANCH   3   4
ENDBRANCH   2   3
ENDBRANCH   1   2
BRANCH   1  10
ATOM     10  C   UNL     1      -8.168   9.027  -8.829  1.00  0.00     0.000 C 
BRANCH  10  11
ATOM     11  C   UNL     1      -8.083   8.162 -10.097  1.00  0.00    -0.000 C 
BRANCH  11  12
ATOM     12  C   UNL     1      -7.397   6.809  -9.851  1.00  0.00    -0.000 C 
BRANCH  12  13
ATOM     13  C   UNL     1      -8.399   5.654 -10.000  1.00  0.00    -0.000 C 
BRANCH  13  14
ATOM     14  C   UNL     1      -8.162   4.528  -8.982  1.00  0.00    -0.000 C 
BRANCH  14  15
ATOM     15  C   UNL     1      -8.391   4.979  -7.533  1.00  0.00    -0.000 C 
BRANCH  15  16
ATOM     16  C   UNL     1      -9.810   4.634  -7.069  1.00  0.00    -0.003 C 
ATOM     17  C   UNL     1      -9.794   3.945  -5.707  1.00  0.00     0.004 C 
ENDBRANCH  15  16
ENDBRANCH  14  15
ENDBRANCH  13  14
ENDBRANCH  12  13
ENDBRANCH  11  12
ENDBRANCH  10  11
ENDBRANCH   1  10
TORSDOF 13
ENDMDL
MODEL 5
REMARK VINA RESULT:    -3.815      3.159      7.450
REMARK INTER + INTRA:          -7.656
REMARK INTER:                  -6.580
REMARK INTRA:                  -1.076
REMARK UNBOUND:                -0.941
REMARK SMILES CCCCCCCCCCCCCCC(=O)[O-]
REMARK SMILES IDX 9 1 10 2 11 3 12 4 13 5 14 6 15 7 16 8 17 9 8 10 7 11 6 12
REMARK SMILES IDX 5 13 4 14 3 15 2 16 1 17
REMARK H PARENT
REMARK Flexibility Score: inf
ROOT
ATOM      1  C   UNL     1      -4.181   7.049  -6.315  1.00  0.00     0.000 C 
ENDROOT
BRANCH   1   2
ATOM      2  C   UNL     1      -3.829   5.597  -5.956  1.00  0.00     0.000 C 
BRANCH   2   3
ATOM      3  C   UNL     1      -3.404   5.435  -4.489  1.00  0.00     0.000 C 
BRANCH   3   4
ATOM      4  C   UNL     1      -2.601   4.141  -4.289  1.00  0.00     0.000 C 
BRANCH   4   5
ATOM      5  C   UNL     1      -2.969   3.410  -2.989  1.00  0.00     0.006 C 
BRANCH   5   6
ATOM      6  C   UNL     1      -1.748   2.800  -2.288  1.00  0.00     0.053 C 
BRANCH   6   7
ATOM      7  C   UNL     1      -1.044   1.846  -3.202  1.00  0.00     0.041 C 
ATOM      8  O   UNL     1      -0.040   2.223  -3.860  1.00  0.00    -0.550 OA
ATOM      9  O   UNL     1      -1.472   0.529  -3.292  1.00  0.00    -0.550 OA
ENDBRANCH   6   7
ENDBRANCH   5   6
ENDBRANCH   4   5
ENDBRANCH   3   4
ENDBRANCH   2   3
ENDBRANCH   1   2
BRANCH   1  10
ATOM     10  C   UNL     1      -3.382   7.568  -7.524  1.00  0.00     0.000 C 
BRANCH  10  11
ATOM     11  C   UNL     1      -4.071   8.750  -8.226  1.00  0.00    -0.000 C 
BRANCH  11  12
ATOM     12  C   UNL     1      -4.842   8.328  -9.486  1.00  0.00    -0.000 C 
BRANCH  12  13
ATOM     13  C   UNL     1      -6.254   8.932  -9.490  1.00  0.00    -0.000 C 
BRANCH  13  14
ATOM     14  C   UNL     1      -7.347   7.888  -9.211  1.00  0.00    -0.000 C 
BRANCH  14  15
ATOM     15  C   UNL     1      -7.487   7.560  -7.717  1.00  0.00    -0.000 C 
BRANCH  15  16
ATOM     16  C   UNL     1      -7.774   6.069  -7.508  1.00  0.00    -0.003 C 
ATOM     17  C   UNL     1      -6.729   5.203  -8.207  1.00  0.00     0.004 C 
ENDBRANCH  15  16
ENDBRANCH  14  15
ENDBRANCH  13  14
ENDBRANCH  12  13
ENDBRANCH  11  12
ENDBRANCH  10  11
ENDBRANCH   1  10
TORSDOF 13
ENDMDL
MODEL 6
REMARK VINA RESULT:    -3.689      1.970      2.814
REMARK INTER + INTRA:          -7.433
REMARK INTER:                  -6.404
REMARK INTRA:                  -1.028
REMARK UNBOUND:                -0.941
REMARK SMILES CCCCCCCCCCCCCCC(=O)[O-]
REMARK SMILES IDX 9 1 10 2 11 3 12 4 13 5 14 6 15 7 16 8 17 9 8 10 7 11 6 12
REMARK SMILES IDX 5 13 4 14 3 15 2 16 1 17
REMARK H PARENT
REMARK Flexibility Score: inf
ROOT
ATOM      1  C   UNL     1      -5.230   5.405  -7.237  1.00  0.00     0.000 C 
ENDROOT
BRANCH   1   2
ATOM      2  C   UNL     1      -6.656   5.445  -7.809  1.00  0.00     0.000 C 
BRANCH   2   3
ATOM      3  C   UNL     1      -7.401   6.741  -7.453  1.00  0.00     0.000 C 
BRANCH   3   4
ATOM      4  C   UNL     1      -7.873   7.469  -8.720  1.00  0.00     0.000 C 
BRANCH   4   5
ATOM      5  C   UNL     1      -6.707   7.997  -9.569  1.00  0.00     0.006 C 
BRANCH   5   6
ATOM      6  C   UNL     1      -5.995   9.190  -8.918  1.00  0.00     0.053 C 
BRANCH   6   7
ATOM      7  C   UNL     1      -4.516   9.091  -9.124  1.00  0.00     0.041 C 
ATOM      8  O   UNL     1      -3.758  10.015  -8.730  1.00  0.00    -0.550 OA
ATOM      9  O   UNL     1      -3.972   7.957  -9.711  1.00  0.00    -0.550 OA
ENDBRANCH   6   7
ENDBRANCH   5   6
ENDBRANCH   4   5
ENDBRANCH   3   4
ENDBRANCH   2   3
ENDBRANCH   1   2
BRANCH   1  10
ATOM     10  C   UNL     1      -4.875   6.678  -6.448  1.00  0.00     0.000 C 
BRANCH  10  11
ATOM     11  C   UNL     1      -3.734   6.453  -5.443  1.00  0.00    -0.000 C 
BRANCH  11  12
ATOM     12  C   UNL     1      -3.437   4.965  -5.201  1.00  0.00    -0.000 C 
BRANCH  12  13
ATOM     13  C   UNL     1      -2.787   4.753  -3.826  1.00  0.00    -0.000 C 
BRANCH  13  14
ATOM     14  C   UNL     1      -2.862   3.294  -3.352  1.00  0.00    -0.000 C 
BRANCH  14  15
ATOM     15  C   UNL     1      -1.775   2.947  -2.324  1.00  0.00    -0.000 C 
BRANCH  15  16
ATOM     16  C   UNL     1      -0.705   2.041  -2.942  1.00  0.00    -0.003 C 
ATOM     17  C   UNL     1      -1.291   0.691  -3.347  1.00  0.00     0.004 C 
ENDBRANCH  15  16
ENDBRANCH  14  15
ENDBRANCH  13  14
ENDBRANCH  12  13
ENDBRANCH  11  12
ENDBRANCH  10  11
ENDBRANCH   1  10
TORSDOF 13
ENDMDL
MODEL 7
REMARK VINA RESULT:    -3.573      3.249      7.523
REMARK INTER + INTRA:          -7.229
REMARK INTER:                  -5.870
REMARK INTRA:                  -1.359
REMARK UNBOUND:                -0.941
REMARK SMILES CCCCCCCCCCCCCCC(=O)[O-]
REMARK SMILES IDX 9 1 10 2 11 3 12 4 13 5 14 6 15 7 16 8 17 9 8 10 7 11 6 12
REMARK SMILES IDX 5 13 4 14 3 15 2 16 1 17
REMARK H PARENT
REMARK Flexibility Score: inf
ROOT
ATOM      1  C   UNL     1      -5.354   5.265  -7.128  1.00  0.00     0.000 C 
ENDROOT
BRANCH   1   2
ATOM      2  C   UNL     1      -4.728   6.458  -6.388  1.00  0.00     0.000 C 
BRANCH   2   3
ATOM      3  C   UNL     1      -3.349   6.131  -5.794  1.00  0.00     0.000 C 
BRANCH   3   4
ATOM      4  C   UNL     1      -3.489   5.442  -4.428  1.00  0.00     0.000 C 
BRANCH   4   5
ATOM      5  C   UNL     1      -2.645   4.163  -4.321  1.00  0.00     0.006 C 
BRANCH   5   6
ATOM      6  C   UNL     1      -2.916   3.383  -3.027  1.00  0.00     0.053 C 
BRANCH   6   7
ATOM      7  C   UNL     1      -1.642   2.818  -2.482  1.00  0.00     0.041 C 
ATOM      8  O   UNL     1      -1.088   3.349  -1.485  1.00  0.00    -0.550 OA
ATOM      9  O   UNL     1      -1.089   1.678  -3.051  1.00  0.00    -0.550 OA
ENDBRANCH   6   7
ENDBRANCH   5   6
ENDBRANCH   4   5
ENDBRANCH   3   4
ENDBRANCH   2   3
ENDBRANCH   1   2
BRANCH   1  10
ATOM     10  C   UNL     1      -6.201   5.699  -8.337  1.00  0.00     0.000 C 
BRANCH  10  11
ATOM     11  C   UNL     1      -7.606   6.175  -7.935  1.00  0.00    -0.000 C 
BRANCH  11  12
ATOM     12  C   UNL     1      -7.726   7.706  -7.886  1.00  0.00    -0.000 C 
BRANCH  12  13
ATOM     13  C   UNL     1      -7.833   8.291  -9.303  1.00  0.00    -0.000 C 
BRANCH  13  14
ATOM     14  C   UNL     1      -6.569   9.056  -9.726  1.00  0.00    -0.000 C 
BRANCH  14  15
ATOM     15  C   UNL     1      -5.674   9.428  -8.535  1.00  0.00    -0.000 C 
BRANCH  15  16
ATOM     16  C   UNL     1      -4.196   9.188  -8.864  1.00  0.00    -0.003 C 
ATOM     17  C   UNL     1      -4.032   8.049  -9.867  1.00  0.00     0.004 C 
ENDBRANCH  15  16
ENDBRANCH  14  15
ENDBRANCH  13  14
ENDBRANCH  12  13
ENDBRANCH  11  12
ENDBRANCH  10  11
ENDBRANCH   1  10
TORSDOF 13
ENDMDL
MODEL 8
REMARK VINA RESULT:    -3.377      1.060      2.308
REMARK INTER + INTRA:          -6.883
REMARK INTER:                  -6.084
REMARK INTRA:                  -0.799
REMARK UNBOUND:                -0.941
REMARK SMILES CCCCCCCCCCCCCCC(=O)[O-]
REMARK SMILES IDX 9 1 10 2 11 3 12 4 13 5 14 6 15 7 16 8 17 9 8 10 7 11 6 12
REMARK SMILES IDX 5 13 4 14 3 15 2 16 1 17
REMARK H PARENT
REMARK Flexibility Score: inf
ROOT
ATOM      1  C   UNL     1      -3.408   5.851  -5.975  1.00  0.00     0.000 C 
ENDROOT
BRANCH   1   2
ATOM      2  C   UNL     1      -4.225   7.137  -6.180  1.00  0.00     0.000 C 
BRANCH   2   3
ATOM      3  C   UNL     1      -3.944   7.808  -7.534  1.00  0.00     0.000 C 
BRANCH   3   4
ATOM      4  C   UNL     1      -5.254   8.163  -8.253  1.00  0.00     0.000 C 
BRANCH   4   5
ATOM      5  C   UNL     1      -5.688   7.087  -9.260  1.00  0.00     0.006 C 
BRANCH   5   6
ATOM      6  C   UNL     1      -7.128   6.609  -9.030  1.00  0.00     0.053 C 
BRANCH   6   7
ATOM      7  C   UNL     1      -7.156   5.504  -8.022  1.00  0.00     0.041 C 
ATOM      8  O   UNL     1      -6.179   4.718  -7.915  1.00  0.00    -0.550 OA
ATOM      9  O   UNL     1      -8.245   5.368  -7.171  1.00  0.00    -0.550 OA
ENDBRANCH   6   7
ENDBRANCH   5   6
ENDBRANCH   4   5
ENDBRANCH   3   4
ENDBRANCH   2   3
ENDBRANCH   1   2
BRANCH   1  10
ATOM     10  C   UNL     1      -3.430   5.365  -4.514  1.00  0.00     0.000 C 
BRANCH  10  11
ATOM     11  C   UNL     1      -2.591   4.096  -4.300  1.00  0.00    -0.000 C 
BRANCH  11  12
ATOM     12  C   UNL     1      -2.940   3.362  -2.997  1.00  0.00    -0.000 C 
BRANCH  12  13
ATOM     13  C   UNL     1      -1.686   2.735  -2.369  1.00  0.00    -0.000 C 
BRANCH  13  14
ATOM     14  C   UNL     1      -0.713   2.177  -3.419  1.00  0.00    -0.000 C 
BRANCH  14  15
ATOM     15  C   UNL     1      -0.502   0.662  -3.286  1.00  0.00    -0.000 C 
BRANCH  15  16
ATOM     16  C   UNL     1      -1.829  -0.091  -3.437  1.00  0.00    -0.003 C 
ATOM     17  C   UNL     1      -1.677  -1.298  -4.359  1.00  0.00     0.004 C 
ENDBRANCH  15  16
ENDBRANCH  14  15
ENDBRANCH  13  14
ENDBRANCH  12  13
ENDBRANCH  11  12
ENDBRANCH  10  11
ENDBRANCH   1  10
TORSDOF 13
ENDMDL
MODEL 9
REMARK VINA RESULT:    -3.147      3.145      5.414
REMARK INTER + INTRA:          -6.480
REMARK INTER:                  -5.655
REMARK INTRA:                  -0.824
REMARK UNBOUND:                -0.941
REMARK SMILES CCCCCCCCCCCCCCC(=O)[O-]
REMARK SMILES IDX 9 1 10 2 11 3 12 4 13 5 14 6 15 7 16 8 17 9 8 10 7 11 6 12
REMARK SMILES IDX 5 13 4 14 3 15 2 16 1 17
REMARK H PARENT
REMARK Flexibility Score: inf
ROOT
ATOM      1  C   UNL     1      -7.314   6.062  -8.562  1.00  0.00     0.000 C 
ENDROOT
BRANCH   1   2
ATOM      2  C   UNL     1      -8.156   5.592  -9.759  1.00  0.00     0.000 C 
BRANCH   2   3
ATOM      3  C   UNL     1      -9.657   5.519  -9.436  1.00  0.00     0.000 C 
BRANCH   3   4
ATOM      4  C   UNL     1     -10.106   4.063  -9.236  1.00  0.00     0.000 C 
BRANCH   4   5
ATOM      5  C   UNL     1      -9.720   3.509  -7.856  1.00  0.00     0.006 C 
BRANCH   5   6
ATOM      6  C   UNL     1     -10.125   4.445  -6.709  1.00  0.00     0.053 C 
BRANCH   6   7
ATOM      7  C   UNL     1      -9.996   3.745  -5.393  1.00  0.00     0.041 C 
ATOM      8  O   UNL     1      -9.868   2.494  -5.351  1.00  0.00    -0.550 OA
ATOM      9  O   UNL     1      -9.975   4.479  -4.215  1.00  0.00    -0.550 OA
ENDBRANCH   6   7
ENDBRANCH   5   6
ENDBRANCH   4   5
ENDBRANCH   3   4
ENDBRANCH   2   3
ENDBRANCH   1   2
BRANCH   1  10
ATOM     10  C   UNL     1      -7.730   7.457  -8.060  1.00  0.00     0.000 C 
BRANCH  10  11
ATOM     11  C   UNL     1      -6.824   8.575  -8.601  1.00  0.00    -0.000 C 
BRANCH  11  12
ATOM     12  C   UNL     1      -5.879   8.092  -9.712  1.00  0.00    -0.000 C 
BRANCH  12  13
ATOM     13  C   UNL     1      -4.624   7.438  -9.115  1.00  0.00    -0.000 C 
BRANCH  13  14
ATOM     14  C   UNL     1      -3.770   8.425  -8.303  1.00  0.00    -0.000 C 
BRANCH  14  15
ATOM     15  C   UNL     1      -3.450   7.911  -6.892  1.00  0.00    -0.000 C 
BRANCH  15  16
ATOM     16  C   UNL     1      -4.027   6.508  -6.676  1.00  0.00    -0.003 C 
ATOM     17  C   UNL     1      -3.738   6.004  -5.264  1.00  0.00     0.004 C 
ENDBRANCH  15  16
ENDBRANCH  14  15
ENDBRANCH  13  14
ENDBRANCH  12  13
ENDBRANCH  11  12
ENDBRANCH  10  11
ENDBRANCH   1  10
TORSDOF 13
ENDMDL
