MODEL 1
REMARK VINA RESULT:    -3.239      0.000      0.000
REMARK INTER + INTRA:          -5.189
REMARK INTER:                  -4.565
REMARK INTRA:                  -0.624
REMARK UNBOUND:                -0.624
REMARK SMILES CCCCCCCCC=O
REMARK SMILES IDX 5 1 4 2 3 3 2 4 1 5 6 6 7 7 8 8 9 9 10 10
REMARK H PARENT
REMARK Flexibility Score: inf
ROOT
ATOM      1  C   UNL     1     148.737 151.871 146.068  1.00  0.00     0.000 C 
ENDROOT
BRANCH   1   2
ATOM      2  C   UNL     1     149.796 152.318 145.053  1.00  0.00    -0.000 C 
BRANCH   2   3
ATOM      3  C   UNL     1     150.998 152.960 145.759  1.00  0.00    -0.000 C 
BRANCH   3   4
ATOM      4  C   UNL     1     152.100 151.941 146.094  1.00  0.00    -0.003 C 
ATOM      5  C   UNL     1     153.185 151.872 145.021  1.00  0.00     0.004 C 
ENDBRANCH   3   4
ENDBRANCH   2   3
ENDBRANCH   1   2
BRANCH   1   6
ATOM      6  C   UNL     1     148.243 150.450 145.757  1.00  0.00     0.000 C 
BRANCH   6   7
ATOM      7  C   UNL     1     149.320 149.583 145.086  1.00  0.00     0.008 C 
BRANCH   7   8
ATOM      8  C   UNL     1     150.089 148.713 146.090  1.00  0.00     0.072 C 
BRANCH   8   9
ATOM      9  C   UNL     1     151.258 148.043 145.431  1.00  0.00     0.224 C 
ATOM     10  O   UNL     1     152.400 148.329 145.756  1.00  0.00    -0.303 OA
ENDBRANCH   8   9
ENDBRANCH   7   8
ENDBRANCH   6   7
ENDBRANCH   1   6
TORSDOF 7
ENDMDL
MODEL 2
REMARK VINA RESULT:    -2.424      8.194     10.028
REMARK INTER + INTRA:          -4.040
REMARK INTER:                  -3.185
REMARK INTRA:                  -0.855
REMARK UNBOUND:                -0.624
REMARK SMILES CCCCCCCCC=O
REMARK SMILES IDX 5 1 4 2 3 3 2 4 1 5 6 6 7 7 8 8 9 9 10 10
REMARK H PARENT
REMARK Flexibility Score: inf
ROOT
ATOM      1  C   UNL     1     159.426 152.797 138.696  1.00  0.00     0.000 C 
ENDROOT
BRANCH   1   2
ATOM      2  C   UNL     1     159.335 153.883 139.776  1.00  0.00    -0.000 C 
BRANCH   2   3
ATOM      3  C   UNL     1     157.895 154.395 139.920  1.00  0.00    -0.000 C 
BRANCH   3   4
ATOM      4  C   UNL     1     157.239 154.704 138.564  1.00  0.00    -0.003 C 
ATOM      5  C   UNL     1     155.714 154.632 138.615  1.00  0.00     0.004 C 
ENDBRANCH   3   4
ENDBRANCH   2   3
ENDBRANCH   1   2
BRANCH   1   6
ATOM      6  C   UNL     1     158.819 151.476 139.192  1.00  0.00     0.000 C 
BRANCH   6   7
ATOM      7  C   UNL     1     157.813 150.877 138.196  1.00  0.00     0.008 C 
BRANCH   7   8
ATOM      8  C   UNL     1     156.368 150.927 138.712  1.00  0.00     0.072 C 
BRANCH   8   9
ATOM      9  C   UNL     1     156.339 151.079 140.204  1.00  0.00     0.224 C 
ATOM     10  O   UNL     1     155.505 151.794 140.737  1.00  0.00    -0.303 OA
ENDBRANCH   8   9
ENDBRANCH   7   8
ENDBRANCH   6   7
ENDBRANCH   1   6
TORSDOF 7
ENDMDL
MODEL 3
REMARK VINA RESULT:    -2.389      8.161     10.021
REMARK INTER + INTRA:          -3.990
REMARK INTER:                  -3.171
REMARK INTRA:                  -0.819
REMARK UNBOUND:                -0.624
REMARK SMILES CCCCCCCCC=O
REMARK SMILES IDX 5 1 4 2 3 3 2 4 1 5 6 6 7 7 8 8 9 9 10 10
REMARK H PARENT
REMARK Flexibility Score: inf
ROOT
ATOM      1  C   UNL     1     153.030 142.153 138.546  1.00  0.00     0.000 C 
ENDROOT
BRANCH   1   2
ATOM      2  C   UNL     1     153.937 142.258 139.779  1.00  0.00    -0.000 C 
BRANCH   2   3
ATOM      3  C   UNL     1     154.573 143.652 139.876  1.00  0.00    -0.000 C 
BRANCH   3   4
ATOM      4  C   UNL     1     154.815 144.289 138.498  1.00  0.00    -0.003 C 
ATOM      5  C   UNL     1     155.104 145.787 138.582  1.00  0.00     0.004 C 
ENDBRANCH   3   4
ENDBRANCH   2   3
ENDBRANCH   1   2
BRANCH   1   6
ATOM      6  C   UNL     1     151.583 142.534 138.895  1.00  0.00     0.000 C 
BRANCH   6   7
ATOM      7  C   UNL     1     151.033 143.654 137.997  1.00  0.00     0.008 C 
BRANCH   7   8
ATOM      8  C   UNL     1     151.142 145.040 138.648  1.00  0.00     0.072 C 
BRANCH   8   9
ATOM      9  C   UNL     1     151.074 144.936 140.142  1.00  0.00     0.224 C 
ATOM     10  O   UNL     1     151.805 145.617 140.845  1.00  0.00    -0.303 OA
ENDBRANCH   8   9
ENDBRANCH   7   8
ENDBRANCH   6   7
ENDBRANCH   1   6
TORSDOF 7
ENDMDL
MODEL 4
REMARK VINA RESULT:    -2.389      8.690     10.292
REMARK INTER + INTRA:          -3.990
REMARK INTER:                  -3.170
REMARK INTRA:                  -0.820
REMARK UNBOUND:                -0.624
REMARK SMILES CCCCCCCCC=O
REMARK SMILES IDX 5 1 4 2 3 3 2 4 1 5 6 6 7 7 8 8 9 9 10 10
REMARK H PARENT
REMARK Flexibility Score: inf
ROOT
ATOM      1  C   UNL     1     148.450 159.976 139.651  1.00  0.00     0.000 C 
ENDROOT
BRANCH   1   2
ATOM      2  C   UNL     1     147.365 159.109 139.000  1.00  0.00    -0.000 C 
BRANCH   2   3
ATOM      3  C   UNL     1     146.893 158.007 139.959  1.00  0.00    -0.000 C 
BRANCH   3   4
ATOM      4  C   UNL     1     146.490 156.718 139.225  1.00  0.00    -0.003 C 
ATOM      5  C   UNL     1     146.530 156.867 137.704  1.00  0.00     0.004 C 
ENDBRANCH   3   4
ENDBRANCH   2   3
ENDBRANCH   1   2
BRANCH   1   6
ATOM      6  C   UNL     1     149.798 159.240 139.680  1.00  0.00     0.000 C 
BRANCH   6   7
ATOM      7  C   UNL     1     150.109 158.521 138.358  1.00  0.00     0.008 C 
BRANCH   7   8
ATOM      8  C   UNL     1     150.277 157.005 138.534  1.00  0.00     0.072 C 
BRANCH   8   9
ATOM      9  C   UNL     1     150.447 156.652 139.981  1.00  0.00     0.224 C 
ATOM     10  O   UNL     1     149.733 155.808 140.500  1.00  0.00    -0.303 OA
ENDBRANCH   8   9
ENDBRANCH   7   8
ENDBRANCH   6   7
ENDBRANCH   1   6
TORSDOF 7
ENDMDL
MODEL 5
REMARK VINA RESULT:    -2.336      8.100     10.543
REMARK INTER + INTRA:          -3.916
REMARK INTER:                  -3.228
REMARK INTRA:                  -0.688
REMARK UNBOUND:                -0.624
REMARK SMILES CCCCCCCCC=O
REMARK SMILES IDX 5 1 4 2 3 3 2 4 1 5 6 6 7 7 8 8 9 9 10 10
REMARK H PARENT
REMARK Flexibility Score: inf
ROOT
ATOM      1  C   UNL     1     159.135 152.840 138.715  1.00  0.00     0.000 C 
ENDROOT
BRANCH   1   2
ATOM      2  C   UNL     1     158.949 151.459 139.355  1.00  0.00    -0.000 C 
BRANCH   2   3
ATOM      3  C   UNL     1     157.620 150.826 138.917  1.00  0.00    -0.000 C 
BRANCH   3   4
ATOM      4  C   UNL     1     156.667 150.579 140.098  1.00  0.00    -0.003 C 
ATOM      5  C   UNL     1     155.600 151.664 140.232  1.00  0.00     0.004 C 
ENDBRANCH   3   4
ENDBRANCH   2   3
ENDBRANCH   1   2
BRANCH   1   6
ATOM      6  C   UNL     1     159.056 153.952 139.773  1.00  0.00     0.000 C 
BRANCH   6   7
ATOM      7  C   UNL     1     157.661 154.593 139.853  1.00  0.00     0.008 C 
BRANCH   7   8
ATOM      8  C   UNL     1     157.007 154.759 138.474  1.00  0.00     0.072 C 
BRANCH   8   9
ATOM      9  C   UNL     1     155.581 155.203 138.609  1.00  0.00     0.224 C 
ATOM     10  O   UNL     1     154.681 154.562 138.089  1.00  0.00    -0.303 OA
ENDBRANCH   8   9
ENDBRANCH   7   8
ENDBRANCH   6   7
ENDBRANCH   1   6
TORSDOF 7
ENDMDL
MODEL 6
REMARK VINA RESULT:    -2.334      8.506     10.051
REMARK INTER + INTRA:          -3.913
REMARK INTER:                  -3.147
REMARK INTRA:                  -0.766
REMARK UNBOUND:                -0.624
REMARK SMILES CCCCCCCCC=O
REMARK SMILES IDX 5 1 4 2 3 3 2 4 1 5 6 6 7 7 8 8 9 9 10 10
REMARK H PARENT
REMARK Flexibility Score: inf
ROOT
ATOM      1  C   UNL     1     142.370 148.433 138.236  1.00  0.00     0.000 C 
ENDROOT
BRANCH   1   2
ATOM      2  C   UNL     1     142.329 147.664 139.563  1.00  0.00    -0.000 C 
BRANCH   2   3
ATOM      3  C   UNL     1     143.577 146.786 139.728  1.00  0.00    -0.000 C 
BRANCH   3   4
ATOM      4  C   UNL     1     144.286 146.510 138.393  1.00  0.00    -0.003 C 
ATOM      5  C   UNL     1     145.753 146.121 138.572  1.00  0.00     0.004 C 
ENDBRANCH   3   4
ENDBRANCH   2   3
ENDBRANCH   1   2
BRANCH   1   6
ATOM      6  C   UNL     1     142.722 149.911 138.467  1.00  0.00     0.000 C 
BRANCH   6   7
ATOM      7  C   UNL     1     144.110 150.281 137.920  1.00  0.00     0.008 C 
BRANCH   7   8
ATOM      8  C   UNL     1     145.043 150.838 139.004  1.00  0.00     0.072 C 
BRANCH   8   9
ATOM      9  C   UNL     1     145.863 149.743 139.618  1.00  0.00     0.224 C 
ATOM     10  O   UNL     1     145.697 149.426 140.785  1.00  0.00    -0.303 OA
ENDBRANCH   8   9
ENDBRANCH   7   8
ENDBRANCH   6   7
ENDBRANCH   1   6
TORSDOF 7
ENDMDL
MODEL 7
REMARK VINA RESULT:    -2.317      8.429      9.969
REMARK INTER + INTRA:          -3.889
REMARK INTER:                  -3.340
REMARK INTRA:                  -0.549
REMARK UNBOUND:                -0.624
REMARK SMILES CCCCCCCCC=O
REMARK SMILES IDX 5 1 4 2 3 3 2 4 1 5 6 6 7 7 8 8 9 9 10 10
REMARK H PARENT
REMARK Flexibility Score: inf
ROOT
ATOM      1  C   UNL     1     144.164 146.489 137.568  1.00  0.00     0.000 C 
ENDROOT
BRANCH   1   2
ATOM      2  C   UNL     1     145.487 146.443 136.794  1.00  0.00    -0.000 C 
BRANCH   2   3
ATOM      3  C   UNL     1     146.682 146.365 137.755  1.00  0.00    -0.000 C 
BRANCH   3   4
ATOM      4  C   UNL     1     147.424 145.021 137.668  1.00  0.00    -0.003 C 
ATOM      5  C   UNL     1     147.362 144.227 138.972  1.00  0.00     0.004 C 
ENDBRANCH   3   4
ENDBRANCH   2   3
ENDBRANCH   1   2
BRANCH   1   6
ATOM      6  C   UNL     1     144.411 146.453 139.084  1.00  0.00     0.000 C 
BRANCH   6   7
ATOM      7  C   UNL     1     143.779 147.649 139.814  1.00  0.00     0.008 C 
BRANCH   7   8
ATOM      8  C   UNL     1     144.207 148.999 139.219  1.00  0.00     0.072 C 
BRANCH   8   9
ATOM      9  C   UNL     1     145.555 149.405 139.734  1.00  0.00     0.224 C 
ATOM     10  O   UNL     1     145.777 149.435 140.934  1.00  0.00    -0.303 OA
ENDBRANCH   8   9
ENDBRANCH   7   8
ENDBRANCH   6   7
ENDBRANCH   1   6
TORSDOF 7
ENDMDL
MODEL 8
REMARK VINA RESULT:    -2.312      8.328     10.307
REMARK INTER + INTRA:          -3.882
REMARK INTER:                  -3.265
REMARK INTRA:                  -0.617
REMARK UNBOUND:                -0.624
REMARK SMILES CCCCCCCCC=O
REMARK SMILES IDX 5 1 4 2 3 3 2 4 1 5 6 6 7 7 8 8 9 9 10 10
REMARK H PARENT
REMARK Flexibility Score: inf
ROOT
ATOM      1  C   UNL     1     157.294 154.701 138.831  1.00  0.00     0.000 C 
ENDROOT
BRANCH   1   2
ATOM      2  C   UNL     1     155.881 154.110 138.920  1.00  0.00    -0.000 C 
BRANCH   2   3
ATOM      3  C   UNL     1     155.901 152.597 138.663  1.00  0.00    -0.000 C 
BRANCH   3   4
ATOM      4  C   UNL     1     155.646 151.778 139.938  1.00  0.00    -0.003 C 
ATOM      5  C   UNL     1     156.598 150.590 140.077  1.00  0.00     0.004 C 
ENDBRANCH   3   4
ENDBRANCH   2   3
ENDBRANCH   1   2
BRANCH   1   6
ATOM      6  C   UNL     1     158.076 154.456 140.130  1.00  0.00     0.000 C 
BRANCH   6   7
ATOM      7  C   UNL     1     159.537 154.055 139.874  1.00  0.00     0.008 C 
BRANCH   7   8
ATOM      8  C   UNL     1     159.671 152.955 138.811  1.00  0.00     0.072 C 
BRANCH   8   9
ATOM      9  C   UNL     1     159.969 151.630 139.448  1.00  0.00     0.224 C 
ATOM     10  O   UNL     1     160.575 151.575 140.507  1.00  0.00    -0.303 OA
ENDBRANCH   8   9
ENDBRANCH   7   8
ENDBRANCH   6   7
ENDBRANCH   1   6
TORSDOF 7
ENDMDL
MODEL 9
REMARK VINA RESULT:    -2.308      8.420     10.724
REMARK INTER + INTRA:          -3.877
REMARK INTER:                  -3.117
REMARK INTRA:                  -0.760
REMARK UNBOUND:                -0.624
REMARK SMILES CCCCCCCCC=O
REMARK SMILES IDX 5 1 4 2 3 3 2 4 1 5 6 6 7 7 8 8 9 9 10 10
REMARK H PARENT
REMARK Flexibility Score: inf
ROOT
ATOM      1  C   UNL     1     154.442 143.322 140.174  1.00  0.00     0.000 C 
ENDROOT
BRANCH   1   2
ATOM      2  C   UNL     1     154.078 141.866 139.860  1.00  0.00    -0.000 C 
BRANCH   2   3
ATOM      3  C   UNL     1     153.550 141.729 138.425  1.00  0.00    -0.000 C 
BRANCH   3   4
ATOM      4  C   UNL     1     152.029 141.515 138.373  1.00  0.00    -0.003 C 
ATOM      5  C   UNL     1     151.427 141.215 139.745  1.00  0.00     0.004 C 
ENDBRANCH   3   4
ENDBRANCH   2   3
ENDBRANCH   1   2
BRANCH   1   6
ATOM      6  C   UNL     1     154.532 144.157 138.887  1.00  0.00     0.000 C 
BRANCH   6   7
ATOM      7  C   UNL     1     153.595 145.375 138.905  1.00  0.00     0.008 C 
BRANCH   7   8
ATOM      8  C   UNL     1     152.476 145.244 139.948  1.00  0.00     0.072 C 
BRANCH   8   9
ATOM      9  C   UNL     1     151.145 145.056 139.283  1.00  0.00     0.224 C 
ATOM     10  O   UNL     1     150.207 144.577 139.900  1.00  0.00    -0.303 OA
ENDBRANCH   8   9
ENDBRANCH   7   8
ENDBRANCH   6   7
ENDBRANCH   1   6
TORSDOF 7
ENDMDL
