MODEL 1
REMARK VINA RESULT:    -0.324      0.000      0.000
REMARK INTER + INTRA:          -1.165
REMARK INTER:                  -0.608
REMARK INTRA:                  -0.557
REMARK UNBOUND:                -0.557
REMARK SMILES CCCCCCCCC=CCCCCCCCC(=O)[O-]
REMARK SMILES IDX 10 1 9 2 11 3 12 4 13 5 14 6 15 7 16 8 17 9 18 10 19 11
REMARK SMILES IDX 20 12 8 13 7 14 6 15 5 16 4 17 3 18 2 19 1 20
REMARK H PARENT
REMARK Flexibility Score: inf
ROOT
ATOM      1  C   UNL     1      19.450  12.067  38.891  1.00  0.00    -0.031 C 
ATOM      2  C   UNL     1      20.116  10.936  38.613  1.00  0.00    -0.031 C 
ENDROOT
BRANCH   1   3
ATOM      3  C   UNL     1      18.370  12.110  39.938  1.00  0.00     0.027 C 
BRANCH   3   4
ATOM      4  C   UNL     1      18.926  12.328  41.356  1.00  0.00     0.004 C 
BRANCH   4   5
ATOM      5  C   UNL     1      20.451  12.147  41.471  1.00  0.00     0.000 C 
BRANCH   5   6
ATOM      6  C   UNL     1      21.162  13.403  41.996  1.00  0.00     0.000 C 
BRANCH   6   7
ATOM      7  C   UNL     1      20.183  14.576  42.122  1.00  0.00     0.000 C 
BRANCH   7   8
ATOM      8  C   UNL     1      20.857  15.901  41.735  1.00  0.00     0.006 C 
BRANCH   8   9
ATOM      9  C   UNL     1      20.081  16.651  40.645  1.00  0.00     0.053 C 
BRANCH   9  10
ATOM     10  C   UNL     1      19.711  15.750  39.507  1.00  0.00     0.041 C 
ATOM     11  O   UNL     1      20.527  15.540  38.571  1.00  0.00    -0.550 OA
ATOM     12  O   UNL     1      18.451  15.167  39.463  1.00  0.00    -0.550 OA
ENDBRANCH   9  10
ENDBRANCH   8   9
ENDBRANCH   7   8
ENDBRANCH   6   7
ENDBRANCH   5   6
ENDBRANCH   4   5
ENDBRANCH   3   4
ENDBRANCH   1   3
BRANCH   2  13
ATOM     13  C   UNL     1      21.184  10.890  37.555  1.00  0.00     0.027 C 
BRANCH  13  14
ATOM     14  C   UNL     1      22.387  11.763  37.945  1.00  0.00     0.004 C 
BRANCH  14  15
ATOM     15  C   UNL     1      22.782  12.754  36.837  1.00  0.00     0.000 C 
BRANCH  15  16
ATOM     16  C   UNL     1      21.879  14.000  36.810  1.00  0.00     0.000 C 
BRANCH  16  17
ATOM     17  C   UNL     1      21.218  14.219  35.439  1.00  0.00    -0.000 C 
BRANCH  17  18
ATOM     18  C   UNL     1      20.162  13.154  35.111  1.00  0.00    -0.000 C 
BRANCH  18  19
ATOM     19  C   UNL     1      19.310  13.578  33.910  1.00  0.00    -0.003 C 
ATOM     20  C   UNL     1      18.622  12.377  33.268  1.00  0.00     0.004 C 
ENDBRANCH  18  19
ENDBRANCH  17  18
ENDBRANCH  16  17
ENDBRANCH  15  16
ENDBRANCH  14  15
ENDBRANCH  13  14
ENDBRANCH   2  13
TORSDOF 15
ENDMDL
MODEL 2
REMARK VINA RESULT:    -0.152      2.162      5.429
REMARK INTER + INTRA:          -0.844
REMARK INTER:                   1.253
REMARK INTRA:                  -2.097
REMARK UNBOUND:                -0.557
REMARK SMILES CCCCCCCCC=CCCCCCCCC(=O)[O-]
REMARK SMILES IDX 10 1 9 2 11 3 12 4 13 5 14 6 15 7 16 8 17 9 18 10 19 11
REMARK SMILES IDX 20 12 8 13 7 14 6 15 5 16 4 17 3 18 2 19 1 20
REMARK H PARENT
REMARK Flexibility Score: inf
ROOT
ATOM      1  C   UNL     1      19.749  11.324  38.688  1.00  0.00    -0.031 C 
ATOM      2  C   UNL     1      20.069  11.755  39.919  1.00  0.00    -0.031 C 
ENDROOT
BRANCH   1   3
ATOM      3  C   UNL     1      20.801  10.875  37.711  1.00  0.00     0.027 C 
BRANCH   3   4
ATOM      4  C   UNL     1      22.164  11.545  37.958  1.00  0.00     0.004 C 
BRANCH   4   5
ATOM      5  C   UNL     1      22.607  12.509  36.843  1.00  0.00     0.000 C 
BRANCH   5   6
ATOM      6  C   UNL     1      22.615  13.977  37.293  1.00  0.00     0.000 C 
BRANCH   6   7
ATOM      7  C   UNL     1      21.578  14.796  36.514  1.00  0.00     0.000 C 
BRANCH   7   8
ATOM      8  C   UNL     1      20.344  13.944  36.177  1.00  0.00     0.006 C 
BRANCH   8   9
ATOM      9  C   UNL     1      19.750  14.300  34.808  1.00  0.00     0.053 C 
BRANCH   9  10
ATOM     10  C   UNL     1      20.088  13.273  33.771  1.00  0.00     0.041 C 
ATOM     11  O   UNL     1      19.188  12.532  33.294  1.00  0.00    -0.550 OA
ATOM     12  O   UNL     1      21.403  13.113  33.355  1.00  0.00    -0.550 OA
ENDBRANCH   9  10
ENDBRANCH   8   9
ENDBRANCH   7   8
ENDBRANCH   6   7
ENDBRANCH   5   6
ENDBRANCH   4   5
ENDBRANCH   3   4
ENDBRANCH   1   3
BRANCH   2  13
ATOM     13  C   UNL     1      19.018  12.220  40.889  1.00  0.00     0.027 C 
BRANCH  13  14
ATOM     14  C   UNL     1      19.647  12.997  42.056  1.00  0.00     0.004 C 
BRANCH  14  15
ATOM     15  C   UNL     1      21.175  13.121  41.928  1.00  0.00     0.000 C 
BRANCH  15  16
ATOM     16  C   UNL     1      21.638  14.581  41.783  1.00  0.00     0.000 C 
BRANCH  16  17
ATOM     17  C   UNL     1      20.504  15.588  42.035  1.00  0.00    -0.000 C 
BRANCH  17  18
ATOM     18  C   UNL     1      20.137  16.397  40.783  1.00  0.00    -0.000 C 
BRANCH  18  19
ATOM     19  C   UNL     1      20.119  15.501  39.539  1.00  0.00    -0.003 C 
ATOM     20  C   UNL     1      18.702  15.033  39.217  1.00  0.00     0.004 C 
ENDBRANCH  18  19
ENDBRANCH  17  18
ENDBRANCH  16  17
ENDBRANCH  15  16
ENDBRANCH  14  15
ENDBRANCH  13  14
ENDBRANCH   2  13
TORSDOF 15
ENDMDL
MODEL 3
REMARK VINA RESULT:     0.039      2.075      4.826
REMARK INTER + INTRA:          -0.485
REMARK INTER:                   0.252
REMARK INTRA:                  -0.737
REMARK UNBOUND:                -0.557
REMARK SMILES CCCCCCCCC=CCCCCCCCC(=O)[O-]
REMARK SMILES IDX 10 1 9 2 11 3 12 4 13 5 14 6 15 7 16 8 17 9 18 10 19 11
REMARK SMILES IDX 20 12 8 13 7 14 6 15 5 16 4 17 3 18 2 19 1 20
REMARK H PARENT
REMARK Flexibility Score: inf
ROOT
ATOM      1  C   UNL     1      20.108  13.691  41.316  1.00  0.00    -0.031 C 
ATOM      2  C   UNL     1      19.153  13.207  42.125  1.00  0.00    -0.031 C 
ENDROOT
BRANCH   1   3
ATOM      3  C   UNL     1      20.796  14.999  41.602  1.00  0.00     0.027 C 
BRANCH   3   4
ATOM      4  C   UNL     1      20.484  16.076  40.549  1.00  0.00     0.004 C 
BRANCH   4   5
ATOM      5  C   UNL     1      19.481  15.631  39.468  1.00  0.00     0.000 C 
BRANCH   5   6
ATOM      6  C   UNL     1      20.115  14.722  38.405  1.00  0.00     0.000 C 
BRANCH   6   7
ATOM      7  C   UNL     1      21.178  15.478  37.599  1.00  0.00     0.000 C 
BRANCH   7   8
ATOM      8  C   UNL     1      21.343  14.870  36.198  1.00  0.00     0.006 C 
BRANCH   8   9
ATOM      9  C   UNL     1      20.146  13.997  35.800  1.00  0.00     0.053 C 
BRANCH   9  10
ATOM     10  C   UNL     1      20.259  13.509  34.388  1.00  0.00     0.041 C 
ATOM     11  O   UNL     1      21.320  13.693  33.736  1.00  0.00    -0.550 OA
ATOM     12  O   UNL     1      19.180  12.880  33.782  1.00  0.00    -0.550 OA
ENDBRANCH   9  10
ENDBRANCH   8   9
ENDBRANCH   7   8
ENDBRANCH   6   7
ENDBRANCH   5   6
ENDBRANCH   4   5
ENDBRANCH   3   4
ENDBRANCH   1   3
BRANCH   2  13
ATOM     13  C   UNL     1      18.454  11.908  41.829  1.00  0.00     0.027 C 
BRANCH  13  14
ATOM     14  C   UNL     1      18.278  11.706  40.316  1.00  0.00     0.004 C 
BRANCH  14  15
ATOM     15  C   UNL     1      19.603  11.387  39.603  1.00  0.00     0.000 C 
BRANCH  15  16
ATOM     16  C   UNL     1      19.394  10.877  38.168  1.00  0.00     0.000 C 
BRANCH  16  17
ATOM     17  C   UNL     1      20.516  11.320  37.214  1.00  0.00    -0.000 C 
BRANCH  17  18
ATOM     18  C   UNL     1      21.914  10.943  37.725  1.00  0.00    -0.000 C 
BRANCH  18  19
ATOM     19  C   UNL     1      22.604  12.148  38.372  1.00  0.00    -0.003 C 
ATOM     20  C   UNL     1      23.696  12.711  37.467  1.00  0.00     0.004 C 
ENDBRANCH  18  19
ENDBRANCH  17  18
ENDBRANCH  16  17
ENDBRANCH  15  16
ENDBRANCH  14  15
ENDBRANCH  13  14
ENDBRANCH   2  13
TORSDOF 15
ENDMDL
MODEL 4
REMARK VINA RESULT:     0.393      1.356      2.152
REMARK INTER + INTRA:           0.179
REMARK INTER:                   0.065
REMARK INTRA:                   0.115
REMARK UNBOUND:                -0.557
REMARK SMILES CCCCCCCCC=CCCCCCCCC(=O)[O-]
REMARK SMILES IDX 10 1 9 2 11 3 12 4 13 5 14 6 15 7 16 8 17 9 18 10 19 11
REMARK SMILES IDX 20 12 8 13 7 14 6 15 5 16 4 17 3 18 2 19 1 20
REMARK H PARENT
REMARK Flexibility Score: inf
ROOT
ATOM      1  C   UNL     1      21.643  12.263  39.836  1.00  0.00    -0.031 C 
ATOM      2  C   UNL     1      20.939  11.478  39.004  1.00  0.00    -0.031 C 
ENDROOT
BRANCH   1   3
ATOM      3  C   UNL     1      21.350  12.312  41.311  1.00  0.00     0.027 C 
BRANCH   3   4
ATOM      4  C   UNL     1      20.029  13.034  41.630  1.00  0.00     0.004 C 
BRANCH   4   5
ATOM      5  C   UNL     1      18.767  12.217  41.299  1.00  0.00     0.000 C 
BRANCH   5   6
ATOM      6  C   UNL     1      17.875  12.896  40.250  1.00  0.00     0.000 C 
BRANCH   6   7
ATOM      7  C   UNL     1      18.722  13.559  39.157  1.00  0.00     0.000 C 
BRANCH   7   8
ATOM      8  C   UNL     1      18.629  15.090  39.241  1.00  0.00     0.006 C 
BRANCH   8   9
ATOM      9  C   UNL     1      20.008  15.750  39.362  1.00  0.00     0.053 C 
BRANCH   9  10
ATOM     10  C   UNL     1      20.174  16.454  40.673  1.00  0.00     0.041 C 
ATOM     11  O   UNL     1      19.747  17.629  40.822  1.00  0.00    -0.550 OA
ATOM     12  O   UNL     1      20.831  15.824  41.722  1.00  0.00    -0.550 OA
ENDBRANCH   9  10
ENDBRANCH   8   9
ENDBRANCH   7   8
ENDBRANCH   6   7
ENDBRANCH   5   6
ENDBRANCH   4   5
ENDBRANCH   3   4
ENDBRANCH   1   3
BRANCH   2  13
ATOM     13  C   UNL     1      21.220  11.442  37.528  1.00  0.00     0.027 C 
BRANCH  13  14
ATOM     14  C   UNL     1      22.438  12.311  37.175  1.00  0.00     0.004 C 
BRANCH  14  15
ATOM     15  C   UNL     1      22.183  13.809  37.409  1.00  0.00     0.000 C 
BRANCH  15  16
ATOM     16  C   UNL     1      21.598  14.510  36.171  1.00  0.00     0.000 C 
BRANCH  16  17
ATOM     17  C   UNL     1      20.387  13.763  35.587  1.00  0.00    -0.000 C 
BRANCH  17  18
ATOM     18  C   UNL     1      20.416  13.689  34.054  1.00  0.00    -0.000 C 
BRANCH  18  19
ATOM     19  C   UNL     1      19.006  13.486  33.488  1.00  0.00    -0.003 C 
ATOM     20  C   UNL     1      18.612  12.012  33.503  1.00  0.00     0.004 C 
ENDBRANCH  18  19
ENDBRANCH  17  18
ENDBRANCH  16  17
ENDBRANCH  15  16
ENDBRANCH  14  15
ENDBRANCH  13  14
ENDBRANCH   2  13
TORSDOF 15
ENDMDL
MODEL 5
REMARK VINA RESULT:     0.709      2.127      5.775
REMARK INTER + INTRA:           0.774
REMARK INTER:                   1.087
REMARK INTRA:                  -0.313
REMARK UNBOUND:                -0.557
REMARK SMILES CCCCCCCCC=CCCCCCCCC(=O)[O-]
REMARK SMILES IDX 10 1 9 2 11 3 12 4 13 5 14 6 15 7 16 8 17 9 18 10 19 11
REMARK SMILES IDX 20 12 8 13 7 14 6 15 5 16 4 17 3 18 2 19 1 20
REMARK H PARENT
REMARK Flexibility Score: inf
ROOT
ATOM      1  C   UNL     1      19.734  12.149  38.826  1.00  0.00    -0.031 C 
ATOM      2  C   UNL     1      18.646  12.155  39.612  1.00  0.00    -0.031 C 
ENDROOT
BRANCH   1   3
ATOM      3  C   UNL     1      20.511  10.888  38.562  1.00  0.00     0.027 C 
BRANCH   3   4
ATOM      4  C   UNL     1      21.556  11.057  37.446  1.00  0.00     0.004 C 
BRANCH   4   5
ATOM      5  C   UNL     1      22.763  11.929  37.838  1.00  0.00     0.000 C 
BRANCH   5   6
ATOM      6  C   UNL     1      22.515  13.427  37.609  1.00  0.00     0.000 C 
BRANCH   6   7
ATOM      7  C   UNL     1      22.155  13.707  36.146  1.00  0.00     0.000 C 
BRANCH   7   8
ATOM      8  C   UNL     1      20.746  14.308  36.030  1.00  0.00     0.006 C 
BRANCH   8   9
ATOM      9  C   UNL     1      19.731  13.304  35.467  1.00  0.00     0.053 C 
BRANCH   9  10
ATOM     10  C   UNL     1      19.722  13.303  33.970  1.00  0.00     0.041 C 
ATOM     11  O   UNL     1      20.501  14.058  33.329  1.00  0.00    -0.550 OA
ATOM     12  O   UNL     1      18.831  12.492  33.281  1.00  0.00    -0.550 OA
ENDBRANCH   9  10
ENDBRANCH   8   9
ENDBRANCH   7   8
ENDBRANCH   6   7
ENDBRANCH   5   6
ENDBRANCH   4   5
ENDBRANCH   3   4
ENDBRANCH   1   3
BRANCH   2  13
ATOM     13  C   UNL     1      17.880  13.419  39.888  1.00  0.00     0.027 C 
BRANCH  13  14
ATOM     14  C   UNL     1      18.591  14.640  39.285  1.00  0.00     0.004 C 
BRANCH  14  15
ATOM     15  C   UNL     1      20.075  14.717  39.682  1.00  0.00     0.000 C 
BRANCH  15  16
ATOM     16  C   UNL     1      20.271  14.969  41.187  1.00  0.00     0.000 C 
BRANCH  16  17
ATOM     17  C   UNL     1      19.945  13.732  42.040  1.00  0.00    -0.000 C 
BRANCH  17  18
ATOM     18  C   UNL     1      21.116  12.743  42.125  1.00  0.00    -0.000 C 
BRANCH  18  19
ATOM     19  C   UNL     1      22.458  13.482  42.125  1.00  0.00    -0.003 C 
ATOM     20  C   UNL     1      23.628  12.503  42.106  1.00  0.00     0.004 C 
ENDBRANCH  18  19
ENDBRANCH  17  18
ENDBRANCH  16  17
ENDBRANCH  15  16
ENDBRANCH  14  15
ENDBRANCH  13  14
ENDBRANCH   2  13
TORSDOF 15
ENDMDL
MODEL 6
REMARK VINA RESULT:     1.398      2.312      5.690
REMARK INTER + INTRA:           2.067
REMARK INTER:                   3.696
REMARK INTRA:                  -1.629
REMARK UNBOUND:                -0.557
REMARK SMILES CCCCCCCCC=CCCCCCCCC(=O)[O-]
REMARK SMILES IDX 10 1 9 2 11 3 12 4 13 5 14 6 15 7 16 8 17 9 18 10 19 11
REMARK SMILES IDX 20 12 8 13 7 14 6 15 5 16 4 17 3 18 2 19 1 20
REMARK H PARENT
REMARK Flexibility Score: inf
ROOT
ATOM      1  C   UNL     1      19.666  15.275  40.577  1.00  0.00    -0.031 C 
ATOM      2  C   UNL     1      20.239  14.104  40.899  1.00  0.00    -0.031 C 
ENDROOT
BRANCH   1   3
ATOM      3  C   UNL     1      20.088  16.052  39.360  1.00  0.00     0.027 C 
BRANCH   3   4
ATOM      4  C   UNL     1      20.236  15.164  38.112  1.00  0.00     0.004 C 
BRANCH   4   5
ATOM      5  C   UNL     1      21.527  15.412  37.309  1.00  0.00     0.000 C 
BRANCH   5   6
ATOM      6  C   UNL     1      21.356  15.140  35.808  1.00  0.00     0.000 C 
BRANCH   6   7
ATOM      7  C   UNL     1      21.892  13.752  35.438  1.00  0.00     0.000 C 
BRANCH   7   8
ATOM      8  C   UNL     1      20.775  12.698  35.493  1.00  0.00     0.006 C 
BRANCH   8   9
ATOM      9  C   UNL     1      19.418  13.266  35.057  1.00  0.00     0.053 C 
BRANCH   9  10
ATOM     10  C   UNL     1      19.216  13.147  33.578  1.00  0.00     0.041 C 
ATOM     11  O   UNL     1      18.559  12.184  33.101  1.00  0.00    -0.550 OA
ATOM     12  O   UNL     1      19.781  14.084  32.722  1.00  0.00    -0.550 OA
ENDBRANCH   9  10
ENDBRANCH   8   9
ENDBRANCH   7   8
ENDBRANCH   6   7
ENDBRANCH   5   6
ENDBRANCH   4   5
ENDBRANCH   3   4
ENDBRANCH   1   3
BRANCH   2  13
ATOM     13  C   UNL     1      19.828  13.336  42.125  1.00  0.00     0.027 C 
BRANCH  13  14
ATOM     14  C   UNL     1      19.143  12.014  41.746  1.00  0.00     0.004 C 
BRANCH  14  15
ATOM     15  C   UNL     1      18.067  12.195  40.662  1.00  0.00     0.000 C 
BRANCH  15  16
ATOM     16  C   UNL     1      18.562  11.782  39.265  1.00  0.00     0.000 C 
BRANCH  16  17
ATOM     17  C   UNL     1      19.914  11.052  39.310  1.00  0.00    -0.000 C 
BRANCH  17  18
ATOM     18  C   UNL     1      20.915  11.590  38.277  1.00  0.00    -0.000 C 
BRANCH  18  19
ATOM     19  C   UNL     1      22.251  11.941  38.940  1.00  0.00    -0.003 C 
ATOM     20  C   UNL     1      23.354  12.118  37.900  1.00  0.00     0.004 C 
ENDBRANCH  18  19
ENDBRANCH  17  18
ENDBRANCH  16  17
ENDBRANCH  15  16
ENDBRANCH  14  15
ENDBRANCH  13  14
ENDBRANCH   2  13
TORSDOF 15
ENDMDL
MODEL 7
REMARK VINA RESULT:     1.459      1.733      3.508
REMARK INTER + INTRA:           2.182
REMARK INTER:                   3.048
REMARK INTRA:                  -0.867
REMARK UNBOUND:                -0.557
REMARK SMILES CCCCCCCCC=CCCCCCCCC(=O)[O-]
REMARK SMILES IDX 10 1 9 2 11 3 12 4 13 5 14 6 15 7 16 8 17 9 18 10 19 11
REMARK SMILES IDX 20 12 8 13 7 14 6 15 5 16 4 17 3 18 2 19 1 20
REMARK H PARENT
REMARK Flexibility Score: inf
ROOT
ATOM      1  C   UNL     1      22.187  14.467  36.824  1.00  0.00    -0.031 C 
ATOM      2  C   UNL     1      22.277  13.553  37.802  1.00  0.00    -0.031 C 
ENDROOT
BRANCH   1   3
ATOM      3  C   UNL     1      21.302  15.678  36.955  1.00  0.00     0.027 C 
BRANCH   3   4
ATOM      4  C   UNL     1      20.484  15.676  38.258  1.00  0.00     0.004 C 
BRANCH   4   5
ATOM      5  C   UNL     1      19.377  14.606  38.307  1.00  0.00     0.000 C 
BRANCH   5   6
ATOM      6  C   UNL     1      18.662  14.552  39.665  1.00  0.00     0.000 C 
BRANCH   6   7
ATOM      7  C   UNL     1      18.019  13.178  39.892  1.00  0.00     0.000 C 
BRANCH   7   8
ATOM      8  C   UNL     1      18.958  12.254  40.683  1.00  0.00     0.006 C 
BRANCH   8   9
ATOM      9  C   UNL     1      19.374  12.864  42.028  1.00  0.00     0.053 C 
BRANCH   9  10
ATOM     10  C   UNL     1      20.722  13.510  41.952  1.00  0.00     0.041 C 
ATOM     11  O   UNL     1      21.752  12.811  41.760  1.00  0.00    -0.550 OA
ATOM     12  O   UNL     1      20.846  14.882  42.125  1.00  0.00    -0.550 OA
ENDBRANCH   9  10
ENDBRANCH   8   9
ENDBRANCH   7   8
ENDBRANCH   6   7
ENDBRANCH   5   6
ENDBRANCH   4   5
ENDBRANCH   3   4
ENDBRANCH   1   3
BRANCH   2  13
ATOM     13  C   UNL     1      23.148  12.334  37.664  1.00  0.00     0.027 C 
BRANCH  13  14
ATOM     14  C   UNL     1      22.303  11.050  37.642  1.00  0.00     0.004 C 
BRANCH  14  15
ATOM     15  C   UNL     1      20.898  11.256  38.232  1.00  0.00     0.000 C 
BRANCH  15  16
ATOM     16  C   UNL     1      19.804  11.294  37.152  1.00  0.00     0.000 C 
BRANCH  16  17
ATOM     17  C   UNL     1      20.293  11.929  35.839  1.00  0.00    -0.000 C 
BRANCH  17  18
ATOM     18  C   UNL     1      19.392  13.078  35.363  1.00  0.00    -0.000 C 
BRANCH  18  19
ATOM     19  C   UNL     1      19.868  13.622  34.011  1.00  0.00    -0.003 C 
ATOM     20  C   UNL     1      21.373  13.435  33.840  1.00  0.00     0.004 C 
ENDBRANCH  18  19
ENDBRANCH  17  18
ENDBRANCH  16  17
ENDBRANCH  15  16
ENDBRANCH  14  15
ENDBRANCH  13  14
ENDBRANCH   2  13
TORSDOF 15
ENDMDL
MODEL 8
REMARK VINA RESULT:     1.493     14.315     16.451
REMARK INTER + INTRA:           2.244
REMARK INTER:                   2.835
REMARK INTRA:                  -0.590
REMARK UNBOUND:                -0.557
REMARK SMILES CCCCCCCCC=CCCCCCCCC(=O)[O-]
REMARK SMILES IDX 10 1 9 2 11 3 12 4 13 5 14 6 15 7 16 8 17 9 18 10 19 11
REMARK SMILES IDX 20 12 8 13 7 14 6 15 5 16 4 17 3 18 2 19 1 20
REMARK H PARENT
REMARK Flexibility Score: inf
ROOT
ATOM      1  C   UNL     1      24.686  28.683  33.833  1.00  0.00    -0.031 C 
ATOM      2  C   UNL     1      24.884  29.702  32.981  1.00  0.00    -0.031 C 
ENDROOT
BRANCH   1   3
ATOM      3  C   UNL     1      24.656  28.895  35.323  1.00  0.00     0.027 C 
BRANCH   3   4
ATOM      4  C   UNL     1      23.225  28.978  35.882  1.00  0.00     0.004 C 
BRANCH   4   5
ATOM      5  C   UNL     1      23.080  28.464  37.326  1.00  0.00     0.000 C 
BRANCH   5   6
ATOM      6  C   UNL     1      21.615  28.329  37.766  1.00  0.00     0.000 C 
BRANCH   6   7
ATOM      7  C   UNL     1      21.447  27.182  38.770  1.00  0.00     0.000 C 
BRANCH   7   8
ATOM      8  C   UNL     1      21.599  27.686  40.213  1.00  0.00     0.006 C 
BRANCH   8   9
ATOM      9  C   UNL     1      20.698  28.894  40.503  1.00  0.00     0.053 C 
BRANCH   9  10
ATOM     10  C   UNL     1      19.328  28.474  40.937  1.00  0.00     0.041 C 
ATOM     11  O   UNL     1      18.308  28.973  40.391  1.00  0.00    -0.550 OA
ATOM     12  O   UNL     1      19.176  27.556  41.967  1.00  0.00    -0.550 OA
ENDBRANCH   9  10
ENDBRANCH   8   9
ENDBRANCH   7   8
ENDBRANCH   6   7
ENDBRANCH   5   6
ENDBRANCH   4   5
ENDBRANCH   3   4
ENDBRANCH   1   3
BRANCH   2  13
ATOM     13  C   UNL     1      24.930  29.487  31.494  1.00  0.00     0.027 C 
BRANCH  13  14
ATOM     14  C   UNL     1      25.464  28.086  31.153  1.00  0.00     0.004 C 
BRANCH  14  15
ATOM     15  C   UNL     1      26.089  28.016  29.750  1.00  0.00     0.000 C 
BRANCH  15  16
ATOM     16  C   UNL     1      27.362  27.154  29.713  1.00  0.00     0.000 C 
BRANCH  16  17
ATOM     17  C   UNL     1      27.913  26.975  28.289  1.00  0.00    -0.000 C 
BRANCH  17  18
ATOM     18  C   UNL     1      29.431  27.189  28.206  1.00  0.00    -0.000 C 
BRANCH  18  19
ATOM     19  C   UNL     1      30.183  25.873  28.434  1.00  0.00    -0.003 C 
ATOM     20  C   UNL     1      30.579  25.228  27.110  1.00  0.00     0.004 C 
ENDBRANCH  18  19
ENDBRANCH  17  18
ENDBRANCH  16  17
ENDBRANCH  15  16
ENDBRANCH  14  15
ENDBRANCH  13  14
ENDBRANCH   2  13
TORSDOF 15
ENDMDL
