MODEL 1
REMARK VINA RESULT:    -5.220      0.000      0.000
REMARK INTER + INTRA:          -6.035
REMARK INTER:                  -5.983
REMARK INTRA:                  -0.051
REMARK UNBOUND:                -0.051
REMARK SMILES O=C([O-])c1cc(O)c(O)c(O)c1
REMARK SMILES IDX 4 1 5 2 12 3 6 4 10 5 8 6 2 7 1 8 3 9 7 10 11 12 9 14
REMARK H PARENT 7 11 11 13 9 15
REMARK Flexibility Score: inf
ROOT
ATOM      1  C   UNL     1       3.850 -19.781   7.833  1.00  0.00     0.005 A 
ATOM      2  C   UNL     1       5.128 -20.092   7.338  1.00  0.00     0.060 A 
ATOM      3  C   UNL     1       3.070 -20.804   8.396  1.00  0.00     0.060 A 
ATOM      4  C   UNL     1       5.619 -21.404   7.403  1.00  0.00     0.162 A 
ATOM      5  C   UNL     1       3.552 -22.115   8.466  1.00  0.00     0.162 A 
ATOM      6  C   UNL     1       4.830 -22.420   7.969  1.00  0.00     0.200 A 
ENDROOT
BRANCH   1   7
ATOM      7  C   UNL     1       3.331 -18.397   7.763  1.00  0.00     0.072 C 
ATOM      8  O   UNL     1       4.121 -17.418   7.703  1.00  0.00    -0.545 OA
ATOM      9  O   UNL     1       1.961 -18.157   7.763  1.00  0.00    -0.545 OA
ENDBRANCH   1   7
BRANCH   4  10
ATOM     10  O   UNL     1       6.888 -21.699   6.909  1.00  0.00    -0.504 OA
ATOM     11  H   UNL     1       7.283 -22.630   6.978  1.00  0.00     0.293 HD
ENDBRANCH   4  10
BRANCH   5  12
ATOM     12  O   UNL     1       2.745 -23.101   9.033  1.00  0.00    -0.504 OA
ATOM     13  H   UNL     1       2.946 -23.506   9.939  1.00  0.00     0.293 HD
ENDBRANCH   5  12
BRANCH   6  14
ATOM     14  O   UNL     1       5.304 -23.731   8.042  1.00  0.00    -0.502 OA
ATOM     15  H   UNL     1       4.725 -24.498   8.365  1.00  0.00     0.293 HD
ENDBRANCH   6  14
TORSDOF 4
ENDMDL
MODEL 2
REMARK VINA RESULT:    -5.214      0.053      2.602
REMARK INTER + INTRA:          -6.027
REMARK INTER:                  -5.976
REMARK INTRA:                  -0.051
REMARK UNBOUND:                -0.051
REMARK SMILES O=C([O-])c1cc(O)c(O)c(O)c1
REMARK SMILES IDX 4 1 5 2 12 3 6 4 10 5 8 6 2 7 1 8 3 9 7 10 11 12 9 14
REMARK H PARENT 7 11 11 13 9 15
REMARK Flexibility Score: inf
ROOT
ATOM      1  C   UNL     1       3.819 -19.785   7.851  1.00  0.00     0.005 A 
ATOM      2  C   UNL     1       3.044 -20.811   8.419  1.00  0.00     0.060 A 
ATOM      3  C   UNL     1       5.095 -20.092   7.353  1.00  0.00     0.060 A 
ATOM      4  C   UNL     1       3.536 -22.122   8.490  1.00  0.00     0.162 A 
ATOM      5  C   UNL     1       5.594 -21.397   7.419  1.00  0.00     0.162 A 
ATOM      6  C   UNL     1       4.815 -22.418   7.989  1.00  0.00     0.200 A 
ENDROOT
BRANCH   1   7
ATOM      7  C   UNL     1       3.300 -18.401   7.776  1.00  0.00     0.072 C 
ATOM      8  O   UNL     1       2.060 -18.181   7.769  1.00  0.00    -0.545 OA
ATOM      9  O   UNL     1       4.176 -17.323   7.713  1.00  0.00    -0.545 OA
ENDBRANCH   1   7
BRANCH   4  10
ATOM     10  O   UNL     1       2.757 -23.130   9.056  1.00  0.00    -0.504 OA
ATOM     11  H   UNL     1       1.989 -22.921   9.682  1.00  0.00     0.293 HD
ENDBRANCH   4  10
BRANCH   5  12
ATOM     12  O   UNL     1       6.867 -21.659   6.913  1.00  0.00    -0.504 OA
ATOM     13  H   UNL     1       7.066 -22.480   6.355  1.00  0.00     0.293 HD
ENDBRANCH   5  12
BRANCH   6  14
ATOM     14  O   UNL     1       5.320 -23.718   8.051  1.00  0.00    -0.502 OA
ATOM     15  H   UNL     1       5.120 -24.339   8.826  1.00  0.00     0.293 HD
ENDBRANCH   6  14
TORSDOF 4
ENDMDL
MODEL 3
REMARK VINA RESULT:    -4.727     14.254     15.302
REMARK INTER + INTRA:          -5.469
REMARK INTER:                  -5.416
REMARK INTRA:                  -0.053
REMARK UNBOUND:                -0.051
REMARK SMILES O=C([O-])c1cc(O)c(O)c(O)c1
REMARK SMILES IDX 4 1 5 2 12 3 6 4 10 5 8 6 2 7 1 8 3 9 7 10 11 12 9 14
REMARK H PARENT 7 11 11 13 9 15
REMARK Flexibility Score: inf
ROOT
ATOM      1  C   UNL     1      10.070  -7.006   7.231  1.00  0.00     0.005 A 
ATOM      2  C   UNL     1      10.623  -6.561   8.444  1.00  0.00     0.060 A 
ATOM      3  C   UNL     1       8.682  -7.204   7.147  1.00  0.00     0.060 A 
ATOM      4  C   UNL     1       9.803  -6.317   9.555  1.00  0.00     0.162 A 
ATOM      5  C   UNL     1       7.857  -6.963   8.251  1.00  0.00     0.162 A 
ATOM      6  C   UNL     1       8.416  -6.518   9.460  1.00  0.00     0.200 A 
ENDROOT
BRANCH   1   7
ATOM      7  C   UNL     1      10.934  -7.264   6.058  1.00  0.00     0.072 C 
ATOM      8  O   UNL     1      12.171  -7.031   6.108  1.00  0.00    -0.545 OA
ATOM      9  O   UNL     1      10.391  -7.768   4.880  1.00  0.00    -0.545 OA
ENDBRANCH   1   7
BRANCH   4  10
ATOM     10  O   UNL     1      10.364  -5.875  10.752  1.00  0.00    -0.504 OA
ATOM     11  H   UNL     1      11.028  -5.110  10.779  1.00  0.00     0.293 HD
ENDBRANCH   4  10
BRANCH   5  12
ATOM     12  O   UNL     1       6.484  -7.171   8.125  1.00  0.00    -0.504 OA
ATOM     13  H   UNL     1       6.102  -8.031   7.750  1.00  0.00     0.293 HD
ENDBRANCH   5  12
BRANCH   6  14
ATOM     14  O   UNL     1       7.586  -6.279  10.557  1.00  0.00    -0.502 OA
ATOM     15  H   UNL     1       6.878  -5.554  10.551  1.00  0.00     0.293 HD
ENDBRANCH   6  14
TORSDOF 4
ENDMDL
MODEL 4
REMARK VINA RESULT:    -4.469      1.743      2.746
REMARK INTER + INTRA:          -5.174
REMARK INTER:                  -5.128
REMARK INTRA:                  -0.046
REMARK UNBOUND:                -0.051
REMARK SMILES O=C([O-])c1cc(O)c(O)c(O)c1
REMARK SMILES IDX 4 1 5 2 12 3 6 4 10 5 8 6 2 7 1 8 3 9 7 10 11 12 9 14
REMARK H PARENT 7 11 11 13 9 15
REMARK Flexibility Score: inf
ROOT
ATOM      1  C   UNL     1       4.724 -18.526   8.000  1.00  0.00     0.005 A 
ATOM      2  C   UNL     1       5.370 -19.768   7.878  1.00  0.00     0.060 A 
ATOM      3  C   UNL     1       3.358 -18.435   7.686  1.00  0.00     0.060 A 
ATOM      4  C   UNL     1       4.664 -20.901   7.451  1.00  0.00     0.162 A 
ATOM      5  C   UNL     1       2.645 -19.561   7.260  1.00  0.00     0.162 A 
ATOM      6  C   UNL     1       3.297 -20.799   7.140  1.00  0.00     0.200 A 
ENDROOT
BRANCH   1   7
ATOM      7  C   UNL     1       5.468 -17.329   8.450  1.00  0.00     0.072 C 
ATOM      8  O   UNL     1       5.634 -16.348   7.678  1.00  0.00    -0.545 OA
ATOM      9  O   UNL     1       5.997 -17.271   9.735  1.00  0.00    -0.545 OA
ENDBRANCH   1   7
BRANCH   4  10
ATOM     10  O   UNL     1       5.316 -22.128   7.334  1.00  0.00    -0.504 OA
ATOM     11  H   UNL     1       4.830 -23.005   7.476  1.00  0.00     0.293 HD
ENDBRANCH   4  10
BRANCH   5  12
ATOM     12  O   UNL     1       1.290 -19.427   6.959  1.00  0.00    -0.504 OA
ATOM     13  H   UNL     1       0.631 -19.020   7.611  1.00  0.00     0.293 HD
ENDBRANCH   5  12
BRANCH   6  14
ATOM     14  O   UNL     1       2.579 -21.918   6.713  1.00  0.00    -0.502 OA
ATOM     15  H   UNL     1       1.679 -22.166   7.108  1.00  0.00     0.293 HD
ENDBRANCH   6  14
TORSDOF 4
ENDMDL
MODEL 5
REMARK VINA RESULT:    -4.455      1.731      3.257
REMARK INTER + INTRA:          -5.157
REMARK INTER:                  -5.110
REMARK INTRA:                  -0.047
REMARK UNBOUND:                -0.051
REMARK SMILES O=C([O-])c1cc(O)c(O)c(O)c1
REMARK SMILES IDX 4 1 5 2 12 3 6 4 10 5 8 6 2 7 1 8 3 9 7 10 11 12 9 14
REMARK H PARENT 7 11 11 13 9 15
REMARK Flexibility Score: inf
ROOT
ATOM      1  C   UNL     1       4.688 -18.445   8.054  1.00  0.00     0.005 A 
ATOM      2  C   UNL     1       3.325 -18.372   7.721  1.00  0.00     0.060 A 
ATOM      3  C   UNL     1       5.351 -19.678   7.940  1.00  0.00     0.060 A 
ATOM      4  C   UNL     1       2.635 -19.511   7.282  1.00  0.00     0.162 A 
ATOM      5  C   UNL     1       4.671 -20.819   7.503  1.00  0.00     0.162 A 
ATOM      6  C   UNL     1       3.308 -20.739   7.172  1.00  0.00     0.200 A 
ENDROOT
BRANCH   1   7
ATOM      7  C   UNL     1       5.417 -17.244   8.518  1.00  0.00     0.072 C 
ATOM      8  O   UNL     1       6.002 -17.240   9.634  1.00  0.00    -0.545 OA
ATOM      9  O   UNL     1       5.466 -16.101   7.728  1.00  0.00    -0.545 OA
ENDBRANCH   1   7
BRANCH   4  10
ATOM     10  O   UNL     1       1.282 -19.424   6.955  1.00  0.00    -0.504 OA
ATOM     11  H   UNL     1       0.564 -19.815   7.553  1.00  0.00     0.293 HD
ENDBRANCH   4  10
BRANCH   5  12
ATOM     12  O   UNL     1       5.367 -22.023   7.404  1.00  0.00    -0.504 OA
ATOM     13  H   UNL     1       4.907 -22.921   7.496  1.00  0.00     0.293 HD
ENDBRANCH   5  12
BRANCH   6  14
ATOM     14  O   UNL     1       2.636 -21.882   6.736  1.00  0.00    -0.502 OA
ATOM     15  H   UNL     1       3.114 -22.760   6.568  1.00  0.00     0.293 HD
ENDBRANCH   6  14
TORSDOF 4
ENDMDL
MODEL 6
REMARK VINA RESULT:    -4.440      3.065      5.939
REMARK INTER + INTRA:          -5.141
REMARK INTER:                  -5.089
REMARK INTRA:                  -0.052
REMARK UNBOUND:                -0.051
REMARK SMILES O=C([O-])c1cc(O)c(O)c(O)c1
REMARK SMILES IDX 4 1 5 2 12 3 6 4 10 5 8 6 2 7 1 8 3 9 7 10 11 12 9 14
REMARK H PARENT 7 11 11 13 9 15
REMARK Flexibility Score: inf
ROOT
ATOM      1  C   UNL     1       4.427 -17.457   8.059  1.00  0.00     0.005 A 
ATOM      2  C   UNL     1       5.713 -17.024   8.427  1.00  0.00     0.060 A 
ATOM      3  C   UNL     1       3.436 -16.498   7.796  1.00  0.00     0.060 A 
ATOM      4  C   UNL     1       6.004 -15.657   8.531  1.00  0.00     0.162 A 
ATOM      5  C   UNL     1       3.717 -15.132   7.896  1.00  0.00     0.162 A 
ATOM      6  C   UNL     1       5.004 -14.706   8.264  1.00  0.00     0.200 A 
ENDROOT
BRANCH   1   7
ATOM      7  C   UNL     1       4.120 -18.900   7.950  1.00  0.00     0.072 C 
ATOM      8  O   UNL     1       5.045 -19.747   7.838  1.00  0.00    -0.545 OA
ATOM      9  O   UNL     1       2.801 -19.343   7.970  1.00  0.00    -0.545 OA
ENDBRANCH   1   7
BRANCH   4  10
ATOM     10  O   UNL     1       7.283 -15.241   8.896  1.00  0.00    -0.504 OA
ATOM     11  H   UNL     1       7.433 -14.402   9.443  1.00  0.00     0.293 HD
ENDBRANCH   4  10
BRANCH   5  12
ATOM     12  O   UNL     1       2.704 -14.213   7.625  1.00  0.00    -0.504 OA
ATOM     13  H   UNL     1       2.581 -13.369   8.172  1.00  0.00     0.293 HD
ENDBRANCH   5  12
BRANCH   6  14
ATOM     14  O   UNL     1       5.277 -13.340   8.362  1.00  0.00    -0.502 OA
ATOM     15  H   UNL     1       6.029 -12.979   8.937  1.00  0.00     0.293 HD
ENDBRANCH   6  14
TORSDOF 4
ENDMDL
MODEL 7
REMARK VINA RESULT:    -4.416      3.097      6.289
REMARK INTER + INTRA:          -5.113
REMARK INTER:                  -5.060
REMARK INTRA:                  -0.053
REMARK UNBOUND:                -0.051
REMARK SMILES O=C([O-])c1cc(O)c(O)c(O)c1
REMARK SMILES IDX 4 1 5 2 12 3 6 4 10 5 8 6 2 7 1 8 3 9 7 10 11 12 9 14
REMARK H PARENT 7 11 11 13 9 15
REMARK Flexibility Score: inf
ROOT
ATOM      1  C   UNL     1       4.416 -17.389   8.028  1.00  0.00     0.005 A 
ATOM      2  C   UNL     1       3.412 -16.431   7.801  1.00  0.00     0.060 A 
ATOM      3  C   UNL     1       5.703 -16.954   8.382  1.00  0.00     0.060 A 
ATOM      4  C   UNL     1       3.690 -15.062   7.924  1.00  0.00     0.162 A 
ATOM      5  C   UNL     1       5.989 -15.591   8.509  1.00  0.00     0.162 A 
ATOM      6  C   UNL     1       4.982 -14.639   8.280  1.00  0.00     0.200 A 
ENDROOT
BRANCH   1   7
ATOM      7  C   UNL     1       4.123 -18.833   7.897  1.00  0.00     0.072 C 
ATOM      8  O   UNL     1       5.053 -19.682   7.937  1.00  0.00    -0.545 OA
ATOM      9  O   UNL     1       2.815 -19.274   7.728  1.00  0.00    -0.545 OA
ENDBRANCH   1   7
BRANCH   4  10
ATOM     10  O   UNL     1       2.686 -14.123   7.696  1.00  0.00    -0.504 OA
ATOM     11  H   UNL     1       2.486 -13.772   6.767  1.00  0.00     0.293 HD
ENDBRANCH   4  10
BRANCH   5  12
ATOM     12  O   UNL     1       7.281 -15.202   8.863  1.00  0.00    -0.504 OA
ATOM     13  H   UNL     1       7.461 -14.570   9.633  1.00  0.00     0.293 HD
ENDBRANCH   5  12
BRANCH   6  14
ATOM     14  O   UNL     1       5.275 -13.280   8.408  1.00  0.00    -0.502 OA
ATOM     15  H   UNL     1       4.551 -12.575   8.478  1.00  0.00     0.293 HD
ENDBRANCH   6  14
TORSDOF 4
ENDMDL
MODEL 8
REMARK VINA RESULT:    -4.394      3.570      5.197
REMARK INTER + INTRA:          -5.087
REMARK INTER:                  -5.034
REMARK INTRA:                  -0.053
REMARK UNBOUND:                -0.051
REMARK SMILES O=C([O-])c1cc(O)c(O)c(O)c1
REMARK SMILES IDX 4 1 5 2 12 3 6 4 10 5 8 6 2 7 1 8 3 9 7 10 11 12 9 14
REMARK H PARENT 7 11 11 13 9 15
REMARK Flexibility Score: inf
ROOT
ATOM      1  C   UNL     1       5.312 -15.113   7.286  1.00  0.00     0.005 A 
ATOM      2  C   UNL     1       5.776 -15.586   8.526  1.00  0.00     0.060 A 
ATOM      3  C   UNL     1       4.869 -16.037   6.327  1.00  0.00     0.060 A 
ATOM      4  C   UNL     1       5.796 -16.960   8.803  1.00  0.00     0.162 A 
ATOM      5  C   UNL     1       4.885 -17.410   6.595  1.00  0.00     0.162 A 
ATOM      6  C   UNL     1       5.349 -17.877   7.836  1.00  0.00     0.200 A 
ENDROOT
BRANCH   1   7
ATOM      7  C   UNL     1       5.291 -13.663   6.992  1.00  0.00     0.072 C 
ATOM      8  O   UNL     1       4.997 -13.245   5.841  1.00  0.00    -0.545 OA
ATOM      9  O   UNL     1       5.597 -12.739   7.986  1.00  0.00    -0.545 OA
ENDBRANCH   1   7
BRANCH   4  10
ATOM     10  O   UNL     1       6.258 -17.417  10.037  1.00  0.00    -0.504 OA
ATOM     11  H   UNL     1       7.212 -17.734  10.163  1.00  0.00     0.293 HD
ENDBRANCH   4  10
BRANCH   5  12
ATOM     12  O   UNL     1       4.435 -18.295   5.615  1.00  0.00    -0.504 OA
ATOM     13  H   UNL     1       3.972 -17.975   4.773  1.00  0.00     0.293 HD
ENDBRANCH   5  12
BRANCH   6  14
ATOM     14  O   UNL     1       5.362 -19.248   8.096  1.00  0.00    -0.502 OA
ATOM     15  H   UNL     1       5.537 -19.934   7.371  1.00  0.00     0.293 HD
ENDBRANCH   6  14
TORSDOF 4
ENDMDL
MODEL 9
REMARK VINA RESULT:    -4.353     13.007     14.805
REMARK INTER + INTRA:          -5.040
REMARK INTER:                  -4.994
REMARK INTRA:                  -0.046
REMARK UNBOUND:                -0.051
REMARK SMILES O=C([O-])c1cc(O)c(O)c(O)c1
REMARK SMILES IDX 4 1 5 2 12 3 6 4 10 5 8 6 2 7 1 8 3 9 7 10 11 12 9 14
REMARK H PARENT 7 11 11 13 9 15
REMARK Flexibility Score: inf
ROOT
ATOM      1  C   UNL     1       7.763  -7.440   7.016  1.00  0.00     0.005 A 
ATOM      2  C   UNL     1       7.235  -7.047   8.258  1.00  0.00     0.060 A 
ATOM      3  C   UNL     1       9.149  -7.355   6.809  1.00  0.00     0.060 A 
ATOM      4  C   UNL     1       8.077  -6.577   9.276  1.00  0.00     0.162 A 
ATOM      5  C   UNL     1       9.997  -6.888   7.818  1.00  0.00     0.162 A 
ATOM      6  C   UNL     1       9.463  -6.496   9.057  1.00  0.00     0.200 A 
ENDROOT
BRANCH   1   7
ATOM      7  C   UNL     1       6.875  -7.936   5.942  1.00  0.00     0.072 C 
ATOM      8  O   UNL     1       5.985  -7.193   5.451  1.00  0.00    -0.545 OA
ATOM      9  O   UNL     1       7.011  -9.233   5.458  1.00  0.00    -0.545 OA
ENDBRANCH   1   7
BRANCH   4  10
ATOM     10  O   UNL     1       7.540  -6.190  10.503  1.00  0.00    -0.504 OA
ATOM     11  H   UNL     1       7.959  -6.475  11.380  1.00  0.00     0.293 HD
ENDBRANCH   4  10
BRANCH   5  12
ATOM     12  O   UNL     1      11.368  -6.820   7.571  1.00  0.00    -0.504 OA
ATOM     13  H   UNL     1      11.775  -6.098   6.988  1.00  0.00     0.293 HD
ENDBRANCH   5  12
BRANCH   6  14
ATOM     14  O   UNL     1      10.315  -6.031  10.060  1.00  0.00    -0.502 OA
ATOM     15  H   UNL     1      11.322  -6.134  10.005  1.00  0.00     0.293 HD
ENDBRANCH   6  14
TORSDOF 4
ENDMDL
