MODEL 1
REMARK VINA RESULT:    -1.761      0.000      0.000
REMARK INTER + INTRA:          -2.387
REMARK INTER:                  -2.173
REMARK INTRA:                  -0.214
REMARK UNBOUND:                -0.214
REMARK SMILES C=CC[C@@H](C)C(=O)CC
REMARK SMILES IDX 4 1 5 2 6 3 7 4 8 5 9 6 3 7 2 8 1 9
REMARK H PARENT
REMARK Flexibility Score: inf
ROOT
ATOM      1  C   UNL     1      93.115  17.024 119.791  1.00  0.00     0.057 C 
ATOM      2  C   UNL     1      93.007  16.034 118.623  1.00  0.00     0.016 C 
ENDROOT
BRANCH   1   3
ATOM      3  C   UNL     1      91.838  17.828 119.905  1.00  0.00     0.135 C 
ATOM      4  O   UNL     1      91.509  18.575 118.994  1.00  0.00    -0.299 OA
BRANCH   3   5
ATOM      5  C   UNL     1      90.960  17.729 121.125  1.00  0.00     0.072 C 
ATOM      6  C   UNL     1      89.549  18.218 120.816  1.00  0.00     0.012 C 
ENDBRANCH   3   5
ENDBRANCH   1   3
BRANCH   1   7
ATOM      7  C   UNL     1      93.405  16.305 121.125  1.00  0.00     0.038 C 
BRANCH   7   8
ATOM      8  C   UNL     1      94.741  15.608 121.123  1.00  0.00    -0.034 C 
ATOM      9  C   UNL     1      95.883  16.278 120.939  1.00  0.00     0.004 C 
ENDBRANCH   7   8
ENDBRANCH   1   7
TORSDOF 4
ENDMDL
MODEL 2
REMARK VINA RESULT:    -1.689      3.407      5.705
REMARK INTER + INTRA:          -2.298
REMARK INTER:                  -2.177
REMARK INTRA:                  -0.121
REMARK UNBOUND:                -0.214
REMARK SMILES C=CC[C@@H](C)C(=O)CC
REMARK SMILES IDX 4 1 5 2 6 3 7 4 8 5 9 6 3 7 2 8 1 9
REMARK H PARENT
REMARK Flexibility Score: inf
ROOT
ATOM      1  C   UNL     1      87.583  18.616 121.094  1.00  0.00     0.057 C 
ATOM      2  C   UNL     1      87.411  20.141 121.125  1.00  0.00     0.016 C 
ENDROOT
BRANCH   1   3
ATOM      3  C   UNL     1      86.357  17.971 120.486  1.00  0.00     0.135 C 
ATOM      4  O   UNL     1      86.473  17.264 119.494  1.00  0.00    -0.299 OA
BRANCH   3   5
ATOM      5  C   UNL     1      84.988  18.185 121.077  1.00  0.00     0.072 C 
ATOM      6  C   UNL     1      84.007  17.137 120.562  1.00  0.00     0.012 C 
ENDBRANCH   3   5
ENDBRANCH   1   3
BRANCH   1   7
ATOM      7  C   UNL     1      88.843  18.199 120.307  1.00  0.00     0.038 C 
BRANCH   7   8
ATOM      8  C   UNL     1      90.105  18.372 121.110  1.00  0.00    -0.034 C 
ATOM      9  C   UNL     1      91.279  17.894 120.686  1.00  0.00     0.004 C 
ENDBRANCH   7   8
ENDBRANCH   1   7
TORSDOF 4
ENDMDL
MODEL 3
REMARK VINA RESULT:    -1.049      1.631      2.492
REMARK INTER + INTRA:          -1.508
REMARK INTER:                  -1.292
REMARK INTRA:                  -0.216
REMARK UNBOUND:                -0.214
REMARK SMILES C=CC[C@@H](C)C(=O)CC
REMARK SMILES IDX 4 1 5 2 6 3 7 4 8 5 9 6 3 7 2 8 1 9
REMARK H PARENT
REMARK Flexibility Score: inf
ROOT
ATOM      1  C   UNL     1      94.743  15.591 120.251  1.00  0.00     0.057 C 
ATOM      2  C   UNL     1      94.299  14.366 121.064  1.00  0.00     0.016 C 
ENDROOT
BRANCH   1   3
ATOM      3  C   UNL     1      93.539  16.249 119.613  1.00  0.00     0.135 C 
ATOM      4  O   UNL     1      93.397  16.205 118.398  1.00  0.00    -0.299 OA
BRANCH   3   5
ATOM      5  C   UNL     1      92.507  16.964 120.446  1.00  0.00     0.072 C 
ATOM      6  C   UNL     1      91.761  17.999 119.611  1.00  0.00     0.012 C 
ENDBRANCH   3   5
ENDBRANCH   1   3
BRANCH   1   7
ATOM      7  C   UNL     1      95.500  16.612 121.125  1.00  0.00     0.038 C 
BRANCH   7   8
ATOM      8  C   UNL     1      96.956  16.717 120.755  1.00  0.00    -0.034 C 
ATOM      9  C   UNL     1      97.356  17.340 119.642  1.00  0.00     0.004 C 
ENDBRANCH   7   8
ENDBRANCH   1   7
TORSDOF 4
ENDMDL
MODEL 4
REMARK VINA RESULT:    -0.705      1.637      2.122
REMARK INTER + INTRA:          -1.083
REMARK INTER:                  -0.878
REMARK INTRA:                  -0.205
REMARK UNBOUND:                -0.214
REMARK SMILES C=CC[C@@H](C)C(=O)CC
REMARK SMILES IDX 4 1 5 2 6 3 7 4 8 5 9 6 3 7 2 8 1 9
REMARK H PARENT
REMARK Flexibility Score: inf
ROOT
ATOM      1  C   UNL     1      93.670  16.419 120.549  1.00  0.00     0.057 C 
ATOM      2  C   UNL     1      95.050  16.320 119.883  1.00  0.00     0.016 C 
ENDROOT
BRANCH   1   3
ATOM      3  C   UNL     1      92.652  16.928 119.551  1.00  0.00     0.135 C 
ATOM      4  O   UNL     1      92.437  16.292 118.528  1.00  0.00    -0.299 OA
BRANCH   3   5
ATOM      5  C   UNL     1      91.897  18.208 119.792  1.00  0.00     0.072 C 
ATOM      6  C   UNL     1      90.417  17.926 120.030  1.00  0.00     0.012 C 
ENDBRANCH   3   5
ENDBRANCH   1   3
BRANCH   1   7
ATOM      7  C   UNL     1      93.214  15.061 121.121  1.00  0.00     0.038 C 
BRANCH   7   8
ATOM      8  C   UNL     1      94.240  13.977 120.915  1.00  0.00    -0.034 C 
ATOM      9  C   UNL     1      93.945  12.686 121.096  1.00  0.00     0.004 C 
ENDBRANCH   7   8
ENDBRANCH   1   7
TORSDOF 4
ENDMDL
MODEL 5
REMARK VINA RESULT:    -0.571      1.405      4.191
REMARK INTER + INTRA:          -0.919
REMARK INTER:                  -0.708
REMARK INTRA:                  -0.211
REMARK UNBOUND:                -0.214
REMARK SMILES C=CC[C@@H](C)C(=O)CC
REMARK SMILES IDX 4 1 5 2 6 3 7 4 8 5 9 6 3 7 2 8 1 9
REMARK H PARENT
REMARK Flexibility Score: inf
ROOT
ATOM      1  C   UNL     1      91.757  17.450 119.559  1.00  0.00     0.057 C 
ATOM      2  C   UNL     1      92.147  18.771 118.881  1.00  0.00     0.016 C 
ENDROOT
BRANCH   1   3
ATOM      3  C   UNL     1      92.920  16.482 119.511  1.00  0.00     0.135 C 
ATOM      4  O   UNL     1      93.084  15.781 118.522  1.00  0.00    -0.299 OA
BRANCH   3   5
ATOM      5  C   UNL     1      93.883  16.362 120.663  1.00  0.00     0.072 C 
ATOM      6  C   UNL     1      94.446  14.948 120.751  1.00  0.00     0.012 C 
ENDBRANCH   3   5
ENDBRANCH   1   3
BRANCH   1   7
ATOM      7  C   UNL     1      91.313  17.667 121.020  1.00  0.00     0.038 C 
BRANCH   7   8
ATOM      8  C   UNL     1      90.088  18.537 121.125  1.00  0.00    -0.034 C 
ATOM      9  C   UNL     1      88.900  18.139 120.659  1.00  0.00     0.004 C 
ENDBRANCH   7   8
ENDBRANCH   1   7
TORSDOF 4
ENDMDL
MODEL 6
REMARK VINA RESULT:     0.827     13.021     13.996
REMARK INTER + INTRA:           0.806
REMARK INTER:                   1.130
REMARK INTRA:                  -0.323
REMARK UNBOUND:                -0.214
REMARK SMILES C=CC[C@@H](C)C(=O)CC
REMARK SMILES IDX 4 1 5 2 6 3 7 4 8 5 9 6 3 7 2 8 1 9
REMARK H PARENT
REMARK Flexibility Score: inf
ROOT
ATOM      1  C   UNL     1      83.310  24.919 115.255  1.00  0.00     0.057 C 
ATOM      2  C   UNL     1      82.930  23.435 115.153  1.00  0.00     0.016 C 
ENDROOT
BRANCH   1   3
ATOM      3  C   UNL     1      82.391  25.747 114.382  1.00  0.00     0.135 C 
ATOM      4  O   UNL     1      81.307  25.293 114.042  1.00  0.00    -0.299 OA
BRANCH   3   5
ATOM      5  C   UNL     1      82.788  27.124 113.918  1.00  0.00     0.072 C 
ATOM      6  C   UNL     1      83.765  27.040 112.750  1.00  0.00     0.012 C 
ENDBRANCH   3   5
ENDBRANCH   1   3
BRANCH   1   7
ATOM      7  C   UNL     1      83.250  25.426 116.711  1.00  0.00     0.038 C 
BRANCH   7   8
ATOM      8  C   UNL     1      84.520  26.116 117.131  1.00  0.00    -0.034 C 
ATOM      9  C   UNL     1      85.378  26.616 116.237  1.00  0.00     0.004 C 
ENDBRANCH   7   8
ENDBRANCH   1   7
TORSDOF 4
ENDMDL
