MODEL 1
REMARK VINA RESULT:    -2.159      0.000      0.000
REMARK INTER + INTRA:          -2.159
REMARK INTER:                  -2.159
REMARK INTRA:                   0.000
REMARK UNBOUND:                 0.000
REMARK SMILES CC(=O)[O-]
REMARK SMILES IDX 1 1 2 2 3 3 4 4
REMARK H PARENT
REMARK Flexibility Score: inf
ROOT
ATOM      1  C   UNL     1     -26.981 -16.033  10.611  1.00  0.00     0.063 C 
ATOM      2  C   UNL     1     -27.101 -17.039  11.705  1.00  0.00     0.038 C 
ATOM      3  O   UNL     1     -28.023 -17.897  11.676  1.00  0.00    -0.550 OA
ATOM      4  O   UNL     1     -26.231 -17.000  12.786  1.00  0.00    -0.550 OA
ENDROOT
TORSDOF 0
ENDMDL
MODEL 2
REMARK VINA RESULT:    -2.143      0.154      1.623
REMARK INTER + INTRA:          -2.143
REMARK INTER:                  -2.143
REMARK INTRA:                   0.000
REMARK UNBOUND:                 0.000
REMARK SMILES CC(=O)[O-]
REMARK SMILES IDX 1 1 2 2 3 3 4 4
REMARK H PARENT
REMARK Flexibility Score: inf
ROOT
ATOM      1  C   UNL     1     -27.000 -16.000  10.499  1.00  0.00     0.063 C 
ATOM      2  C   UNL     1     -27.109 -16.967  11.629  1.00  0.00     0.038 C 
ATOM      3  O   UNL     1     -26.251 -16.961  12.550  1.00  0.00    -0.550 OA
ATOM      4  O   UNL     1     -28.125 -17.913  11.640  1.00  0.00    -0.550 OA
ENDROOT
TORSDOF 0
ENDMDL
MODEL 3
REMARK VINA RESULT:    -1.978      1.515      2.227
REMARK INTER + INTRA:          -1.978
REMARK INTER:                  -1.978
REMARK INTRA:                   0.000
REMARK UNBOUND:                 0.000
REMARK SMILES CC(=O)[O-]
REMARK SMILES IDX 1 1 2 2 3 3 4 4
REMARK H PARENT
REMARK Flexibility Score: inf
ROOT
ATOM      1  C   UNL     1     -27.684 -18.305  12.282  1.00  0.00     0.063 C 
ATOM      2  C   UNL     1     -26.731 -17.159  12.238  1.00  0.00     0.038 C 
ATOM      3  O   UNL     1     -25.954 -16.945  13.205  1.00  0.00    -0.550 OA
ATOM      4  O   UNL     1     -26.734 -16.291  11.153  1.00  0.00    -0.550 OA
ENDROOT
TORSDOF 0
ENDMDL
MODEL 4
REMARK VINA RESULT:    -1.921      1.405      1.995
REMARK INTER + INTRA:          -1.921
REMARK INTER:                  -1.921
REMARK INTRA:                   0.000
REMARK UNBOUND:                 0.000
REMARK SMILES CC(=O)[O-]
REMARK SMILES IDX 1 1 2 2 3 3 4 4
REMARK H PARENT
REMARK Flexibility Score: inf
ROOT
ATOM      1  C   UNL     1     -27.358 -18.979  12.818  1.00  0.00     0.063 C 
ATOM      2  C   UNL     1     -26.902 -17.629  12.377  1.00  0.00     0.038 C 
ATOM      3  O   UNL     1     -27.337 -17.135  11.304  1.00  0.00    -0.550 OA
ATOM      4  O   UNL     1     -25.954 -16.937  13.119  1.00  0.00    -0.550 OA
ENDROOT
TORSDOF 0
ENDMDL
MODEL 5
REMARK VINA RESULT:    -1.768     17.342     17.662
REMARK INTER + INTRA:          -1.768
REMARK INTER:                  -1.768
REMARK INTRA:                   0.000
REMARK UNBOUND:                 0.000
REMARK SMILES CC(=O)[O-]
REMARK SMILES IDX 1 1 2 2 3 3 4 4
REMARK H PARENT
REMARK Flexibility Score: inf
ROOT
ATOM      1  C   UNL     1      -9.005 -18.661   9.439  1.00  0.00     0.063 C 
ATOM      2  C   UNL     1      -9.611 -17.458  10.078  1.00  0.00     0.038 C 
ATOM      3  O   UNL     1      -9.721 -16.384   9.428  1.00  0.00    -0.550 OA
ATOM      4  O   UNL     1     -10.006 -17.500  11.409  1.00  0.00    -0.550 OA
ENDROOT
TORSDOF 0
ENDMDL
MODEL 6
REMARK VINA RESULT:    -1.740      2.003      2.249
REMARK INTER + INTRA:          -1.740
REMARK INTER:                  -1.740
REMARK INTRA:                   0.000
REMARK UNBOUND:                 0.000
REMARK SMILES CC(=O)[O-]
REMARK SMILES IDX 1 1 2 2 3 3 4 4
REMARK H PARENT
REMARK Flexibility Score: inf
ROOT
ATOM      1  C   UNL     1     -27.269 -17.855  11.986  1.00  0.00     0.063 C 
ATOM      2  C   UNL     1     -27.057 -18.674  13.215  1.00  0.00     0.038 C 
ATOM      3  O   UNL     1     -27.674 -19.761  13.364  1.00  0.00    -0.550 OA
ATOM      4  O   UNL     1     -26.219 -18.214  14.222  1.00  0.00    -0.550 OA
ENDROOT
TORSDOF 0
ENDMDL
MODEL 7
REMARK VINA RESULT:    -1.715     17.182     17.279
REMARK INTER + INTRA:          -1.715
REMARK INTER:                  -1.715
REMARK INTRA:                   0.000
REMARK UNBOUND:                 0.000
REMARK SMILES CC(=O)[O-]
REMARK SMILES IDX 1 1 2 2 3 3 4 4
REMARK H PARENT
REMARK Flexibility Score: inf
ROOT
ATOM      1  C   UNL     1      -9.483 -17.393   9.760  1.00  0.00     0.063 C 
ATOM      2  C   UNL     1      -9.873 -18.158  10.980  1.00  0.00     0.038 C 
ATOM      3  O   UNL     1     -10.078 -19.398  10.909  1.00  0.00    -0.550 OA
ATOM      4  O   UNL     1     -10.064 -17.496  12.186  1.00  0.00    -0.550 OA
ENDROOT
TORSDOF 0
ENDMDL
MODEL 8
REMARK VINA RESULT:    -1.703     22.424     22.747
REMARK INTER + INTRA:          -1.703
REMARK INTER:                  -1.703
REMARK INTRA:                   0.000
REMARK UNBOUND:                 0.000
REMARK SMILES CC(=O)[O-]
REMARK SMILES IDX 1 1 2 2 3 3 4 4
REMARK H PARENT
REMARK Flexibility Score: inf
ROOT
ATOM      1  C   UNL     1     -10.118 -18.190  -1.417  1.00  0.00     0.063 C 
ATOM      2  C   UNL     1      -9.485 -17.620  -2.641  1.00  0.00     0.038 C 
ATOM      3  O   UNL     1      -9.530 -18.252  -3.729  1.00  0.00    -0.550 OA
ATOM      4  O   UNL     1      -8.798 -16.415  -2.573  1.00  0.00    -0.550 OA
ENDROOT
TORSDOF 0
ENDMDL
MODEL 9
REMARK VINA RESULT:    -1.683     17.533     17.941
REMARK INTER + INTRA:          -1.683
REMARK INTER:                  -1.683
REMARK INTRA:                   0.000
REMARK UNBOUND:                 0.000
REMARK SMILES CC(=O)[O-]
REMARK SMILES IDX 1 1 2 2 3 3 4 4
REMARK H PARENT
REMARK Flexibility Score: inf
ROOT
ATOM      1  C   UNL     1      -9.390 -17.042   9.742  1.00  0.00     0.063 C 
ATOM      2  C   UNL     1      -9.376 -18.529   9.852  1.00  0.00     0.038 C 
ATOM      3  O   UNL     1     -10.075 -19.105  10.728  1.00  0.00    -0.550 OA
ATOM      4  O   UNL     1      -8.550 -19.281   9.027  1.00  0.00    -0.550 OA
ENDROOT
TORSDOF 0
ENDMDL
