MODEL 1
REMARK VINA RESULT:    -4.529      0.000      0.000
REMARK INTER + INTRA:          -9.253
REMARK INTER:                  -7.970
REMARK INTRA:                  -1.282
REMARK UNBOUND:                -1.282
REMARK SMILES CCCCCCCCCCCCCCC(=O)[O-]
REMARK SMILES IDX 9 1 10 2 11 3 12 4 13 5 14 6 15 7 16 8 17 9 8 10 7 11 6 12
REMARK SMILES IDX 5 13 4 14 3 15 2 16 1 17
REMARK H PARENT
REMARK Flexibility Score: inf
ROOT
ATOM      1  C   UNL     1      -5.485  -4.273  -2.241  1.00  0.00     0.000 C 
ENDROOT
BRANCH   1   2
ATOM      2  C   UNL     1      -4.601  -4.174  -3.501  1.00  0.00     0.000 C 
BRANCH   2   3
ATOM      3  C   UNL     1      -5.240  -3.430  -4.687  1.00  0.00     0.000 C 
BRANCH   3   4
ATOM      4  C   UNL     1      -4.357  -3.440  -5.944  1.00  0.00     0.000 C 
BRANCH   4   5
ATOM      5  C   UNL     1      -4.093  -2.011  -6.439  1.00  0.00     0.006 C 
BRANCH   5   6
ATOM      6  C   UNL     1      -5.354  -1.139  -6.396  1.00  0.00     0.053 C 
BRANCH   6   7
ATOM      7  C   UNL     1      -5.044   0.266  -5.975  1.00  0.00     0.041 C 
ATOM      8  O   UNL     1      -5.728   1.226  -6.415  1.00  0.00    -0.550 OA
ATOM      9  O   UNL     1      -3.976   0.515  -5.122  1.00  0.00    -0.550 OA
ENDBRANCH   6   7
ENDBRANCH   5   6
ENDBRANCH   4   5
ENDBRANCH   3   4
ENDBRANCH   2   3
ENDBRANCH   1   2
BRANCH   1  10
ATOM     10  C   UNL     1      -5.050  -3.376  -1.065  1.00  0.00     0.000 C 
BRANCH  10  11
ATOM     11  C   UNL     1      -6.170  -3.024  -0.067  1.00  0.00    -0.000 C 
BRANCH  11  12
ATOM     12  C   UNL     1      -7.599  -3.328  -0.560  1.00  0.00    -0.000 C 
BRANCH  12  13
ATOM     13  C   UNL     1      -8.533  -3.945   0.500  1.00  0.00    -0.000 C 
BRANCH  13  14
ATOM     14  C   UNL     1      -8.121  -5.342   1.002  1.00  0.00    -0.000 C 
BRANCH  14  15
ATOM     15  C   UNL     1      -7.707  -6.334  -0.101  1.00  0.00    -0.000 C 
BRANCH  15  16
ATOM     16  C   UNL     1      -6.612  -7.308   0.354  1.00  0.00    -0.003 C 
ATOM     17  C   UNL     1      -5.388  -6.558   0.871  1.00  0.00     0.004 C 
ENDBRANCH  15  16
ENDBRANCH  14  15
ENDBRANCH  13  14
ENDBRANCH  12  13
ENDBRANCH  11  12
ENDBRANCH  10  11
ENDBRANCH   1  10
TORSDOF 13
ENDMDL
MODEL 2
REMARK VINA RESULT:    -4.377      1.278      2.079
REMARK INTER + INTRA:          -8.986
REMARK INTER:                  -7.900
REMARK INTRA:                  -1.086
REMARK UNBOUND:                -1.282
REMARK SMILES CCCCCCCCCCCCCCC(=O)[O-]
REMARK SMILES IDX 9 1 10 2 11 3 12 4 13 5 14 6 15 7 16 8 17 9 8 10 7 11 6 12
REMARK SMILES IDX 5 13 4 14 3 15 2 16 1 17
REMARK H PARENT
REMARK Flexibility Score: inf
ROOT
ATOM      1  C   UNL     1      -3.908  -3.406  -2.967  1.00  0.00     0.000 C 
ENDROOT
BRANCH   1   2
ATOM      2  C   UNL     1      -4.972  -3.365  -4.083  1.00  0.00     0.000 C 
BRANCH   2   3
ATOM      3  C   UNL     1      -4.471  -3.787  -5.475  1.00  0.00     0.000 C 
BRANCH   3   4
ATOM      4  C   UNL     1      -4.101  -2.591  -6.365  1.00  0.00     0.000 C 
BRANCH   4   5
ATOM      5  C   UNL     1      -4.955  -1.363  -6.018  1.00  0.00     0.006 C 
BRANCH   5   6
ATOM      6  C   UNL     1      -4.148  -0.060  -6.070  1.00  0.00     0.053 C 
BRANCH   6   7
ATOM      7  C   UNL     1      -5.017   1.141  -5.856  1.00  0.00     0.041 C 
ATOM      8  O   UNL     1      -6.153   1.207  -6.397  1.00  0.00    -0.550 OA
ATOM      9  O   UNL     1      -4.558   2.203  -5.087  1.00  0.00    -0.550 OA
ENDBRANCH   6   7
ENDBRANCH   5   6
ENDBRANCH   4   5
ENDBRANCH   3   4
ENDBRANCH   2   3
ENDBRANCH   1   2
BRANCH   1  10
ATOM     10  C   UNL     1      -3.593  -2.045  -2.314  1.00  0.00     0.000 C 
BRANCH  10  11
ATOM     11  C   UNL     1      -3.831  -1.984  -0.793  1.00  0.00    -0.000 C 
BRANCH  11  12
ATOM     12  C   UNL     1      -4.755  -3.085  -0.235  1.00  0.00    -0.000 C 
BRANCH  12  13
ATOM     13  C   UNL     1      -6.156  -2.602   0.192  1.00  0.00    -0.000 C 
BRANCH  13  14
ATOM     14  C   UNL     1      -7.331  -3.258  -0.559  1.00  0.00    -0.000 C 
BRANCH  14  15
ATOM     15  C   UNL     1      -8.486  -3.741   0.336  1.00  0.00    -0.000 C 
BRANCH  15  16
ATOM     16  C   UNL     1      -8.457  -5.256   0.582  1.00  0.00    -0.003 C 
ATOM     17  C   UNL     1      -7.682  -5.592   1.853  1.00  0.00     0.004 C 
ENDBRANCH  15  16
ENDBRANCH  14  15
ENDBRANCH  13  14
ENDBRANCH  12  13
ENDBRANCH  11  12
ENDBRANCH  10  11
ENDBRANCH   1  10
TORSDOF 13
ENDMDL
MODEL 3
REMARK VINA RESULT:    -4.359      1.578      3.121
REMARK INTER + INTRA:          -8.953
REMARK INTER:                  -7.816
REMARK INTRA:                  -1.137
REMARK UNBOUND:                -1.282
REMARK SMILES CCCCCCCCCCCCCCC(=O)[O-]
REMARK SMILES IDX 9 1 10 2 11 3 12 4 13 5 14 6 15 7 16 8 17 9 8 10 7 11 6 12
REMARK SMILES IDX 5 13 4 14 3 15 2 16 1 17
REMARK H PARENT
REMARK Flexibility Score: inf
ROOT
ATOM      1  C   UNL     1      -5.366  -3.396  -4.580  1.00  0.00     0.000 C 
ENDROOT
BRANCH   1   2
ATOM      2  C   UNL     1      -4.307  -3.507  -5.696  1.00  0.00     0.000 C 
BRANCH   2   3
ATOM      3  C   UNL     1      -4.005  -2.194  -6.440  1.00  0.00     0.000 C 
BRANCH   3   4
ATOM      4  C   UNL     1      -5.009  -1.078  -6.115  1.00  0.00     0.000 C 
BRANCH   4   5
ATOM      5  C   UNL     1      -4.321   0.082  -5.381  1.00  0.00     0.006 C 
BRANCH   5   6
ATOM      6  C   UNL     1      -4.916   1.443  -5.762  1.00  0.00     0.053 C 
BRANCH   6   7
ATOM      7  C   UNL     1      -3.957   2.260  -6.574  1.00  0.00     0.041 C 
ATOM      8  O   UNL     1      -2.786   1.846  -6.778  1.00  0.00    -0.550 OA
ATOM      9  O   UNL     1      -4.348   3.495  -7.076  1.00  0.00    -0.550 OA
ENDBRANCH   6   7
ENDBRANCH   5   6
ENDBRANCH   4   5
ENDBRANCH   3   4
ENDBRANCH   2   3
ENDBRANCH   1   2
BRANCH   1  10
ATOM     10  C   UNL     1      -4.873  -3.777  -3.170  1.00  0.00     0.000 C 
BRANCH  10  11
ATOM     11  C   UNL     1      -3.932  -2.750  -2.511  1.00  0.00    -0.000 C 
BRANCH  11  12
ATOM     12  C   UNL     1      -4.070  -2.630  -0.980  1.00  0.00    -0.000 C 
BRANCH  12  13
ATOM     13  C   UNL     1      -4.486  -3.929  -0.262  1.00  0.00    -0.000 C 
BRANCH  13  14
ATOM     14  C   UNL     1      -5.668  -3.786   0.716  1.00  0.00    -0.000 C 
BRANCH  14  15
ATOM     15  C   UNL     1      -6.656  -2.654   0.382  1.00  0.00    -0.000 C 
BRANCH  15  16
ATOM     16  C   UNL     1      -7.976  -3.169  -0.207  1.00  0.00    -0.003 C 
ATOM     17  C   UNL     1      -8.331  -4.542   0.354  1.00  0.00     0.004 C 
ENDBRANCH  15  16
ENDBRANCH  14  15
ENDBRANCH  13  14
ENDBRANCH  12  13
ENDBRANCH  11  12
ENDBRANCH  10  11
ENDBRANCH   1  10
TORSDOF 13
ENDMDL
MODEL 4
REMARK VINA RESULT:    -4.332      1.486      2.790
REMARK INTER + INTRA:          -8.906
REMARK INTER:                  -7.348
REMARK INTRA:                  -1.557
REMARK UNBOUND:                -1.282
REMARK SMILES CCCCCCCCCCCCCCC(=O)[O-]
REMARK SMILES IDX 9 1 10 2 11 3 12 4 13 5 14 6 15 7 16 8 17 9 8 10 7 11 6 12
REMARK SMILES IDX 5 13 4 14 3 15 2 16 1 17
REMARK H PARENT
REMARK Flexibility Score: inf
ROOT
ATOM      1  C   UNL     1      -3.412  -3.198  -2.934  1.00  0.00     0.000 C 
ENDROOT
BRANCH   1   2
ATOM      2  C   UNL     1      -4.800  -3.780  -3.271  1.00  0.00     0.000 C 
BRANCH   2   3
ATOM      3  C   UNL     1      -5.359  -3.375  -4.646  1.00  0.00     0.000 C 
BRANCH   3   4
ATOM      4  C   UNL     1      -4.340  -3.553  -5.782  1.00  0.00     0.000 C 
BRANCH   4   5
ATOM      5  C   UNL     1      -4.009  -2.206  -6.438  1.00  0.00     0.006 C 
BRANCH   5   6
ATOM      6  C   UNL     1      -5.201  -1.241  -6.418  1.00  0.00     0.053 C 
BRANCH   6   7
ATOM      7  C   UNL     1      -4.801   0.127  -5.957  1.00  0.00     0.041 C 
ATOM      8  O   UNL     1      -5.531   1.121  -6.211  1.00  0.00    -0.550 OA
ATOM      9  O   UNL     1      -3.603   0.308  -5.277  1.00  0.00    -0.550 OA
ENDBRANCH   6   7
ENDBRANCH   5   6
ENDBRANCH   4   5
ENDBRANCH   3   4
ENDBRANCH   2   3
ENDBRANCH   1   2
BRANCH   1  10
ATOM     10  C   UNL     1      -3.423  -1.755  -2.392  1.00  0.00     0.000 C 
BRANCH  10  11
ATOM     11  C   UNL     1      -3.621  -1.635  -0.869  1.00  0.00    -0.000 C 
BRANCH  11  12
ATOM     12  C   UNL     1      -2.698  -2.532  -0.020  1.00  0.00    -0.000 C 
BRANCH  12  13
ATOM     13  C   UNL     1      -3.424  -3.426   1.005  1.00  0.00    -0.000 C 
BRANCH  13  14
ATOM     14  C   UNL     1      -4.582  -4.268   0.433  1.00  0.00    -0.000 C 
BRANCH  14  15
ATOM     15  C   UNL     1      -5.984  -3.866   0.927  1.00  0.00    -0.000 C 
BRANCH  15  16
ATOM     16  C   UNL     1      -6.894  -3.369  -0.205  1.00  0.00    -0.003 C 
ATOM     17  C   UNL     1      -8.362  -3.634   0.113  1.00  0.00     0.004 C 
ENDBRANCH  15  16
ENDBRANCH  14  15
ENDBRANCH  13  14
ENDBRANCH  12  13
ENDBRANCH  11  12
ENDBRANCH  10  11
ENDBRANCH   1  10
TORSDOF 13
ENDMDL
MODEL 5
REMARK VINA RESULT:    -4.229      1.750      3.555
REMARK INTER + INTRA:          -8.725
REMARK INTER:                  -7.548
REMARK INTRA:                  -1.178
REMARK UNBOUND:                -1.282
REMARK SMILES CCCCCCCCCCCCCCC(=O)[O-]
REMARK SMILES IDX 9 1 10 2 11 3 12 4 13 5 14 6 15 7 16 8 17 9 8 10 7 11 6 12
REMARK SMILES IDX 5 13 4 14 3 15 2 16 1 17
REMARK H PARENT
REMARK Flexibility Score: inf
ROOT
ATOM      1  C   UNL     1      -4.355  -3.475  -5.677  1.00  0.00     0.000 C 
ENDROOT
BRANCH   1   2
ATOM      2  C   UNL     1      -4.077  -2.182  -6.471  1.00  0.00     0.000 C 
BRANCH   2   3
ATOM      3  C   UNL     1      -5.221  -1.152  -6.459  1.00  0.00     0.000 C 
BRANCH   3   4
ATOM      4  C   UNL     1      -4.761   0.247  -6.023  1.00  0.00     0.000 C 
BRANCH   4   5
ATOM      5  C   UNL     1      -3.229   0.346  -6.024  1.00  0.00     0.006 C 
BRANCH   5   6
ATOM      6  C   UNL     1      -2.676   0.808  -4.669  1.00  0.00     0.053 C 
BRANCH   6   7
ATOM      7  C   UNL     1      -2.546  -0.331  -3.705  1.00  0.00     0.041 C 
ATOM      8  O   UNL     1      -3.163  -0.307  -2.607  1.00  0.00    -0.550 OA
ATOM      9  O   UNL     1      -1.715  -1.404  -4.004  1.00  0.00    -0.550 OA
ENDBRANCH   6   7
ENDBRANCH   5   6
ENDBRANCH   4   5
ENDBRANCH   3   4
ENDBRANCH   2   3
ENDBRANCH   1   2
BRANCH   1  10
ATOM     10  C   UNL     1      -5.265  -3.302  -4.444  1.00  0.00     0.000 C 
BRANCH  10  11
ATOM     11  C   UNL     1      -4.916  -4.207  -3.247  1.00  0.00    -0.000 C 
BRANCH  11  12
ATOM     12  C   UNL     1      -4.061  -3.537  -2.153  1.00  0.00    -0.000 C 
BRANCH  12  13
ATOM     13  C   UNL     1      -4.843  -3.087  -0.904  1.00  0.00    -0.000 C 
BRANCH  13  14
ATOM     14  C   UNL     1      -6.113  -3.904  -0.596  1.00  0.00    -0.000 C 
BRANCH  14  15
ATOM     15  C   UNL     1      -7.373  -3.067  -0.311  1.00  0.00    -0.000 C 
BRANCH  15  16
ATOM     16  C   UNL     1      -8.504  -3.888   0.324  1.00  0.00    -0.003 C 
ATOM     17  C   UNL     1      -8.201  -5.382   0.262  1.00  0.00     0.004 C 
ENDBRANCH  15  16
ENDBRANCH  14  15
ENDBRANCH  13  14
ENDBRANCH  12  13
ENDBRANCH  11  12
ENDBRANCH  10  11
ENDBRANCH   1  10
TORSDOF 13
ENDMDL
MODEL 6
REMARK VINA RESULT:    -4.219      3.665      7.337
REMARK INTER + INTRA:          -8.708
REMARK INTER:                  -7.358
REMARK INTRA:                  -1.350
REMARK UNBOUND:                -1.282
REMARK SMILES CCCCCCCCCCCCCCC(=O)[O-]
REMARK SMILES IDX 9 1 10 2 11 3 12 4 13 5 14 6 15 7 16 8 17 9 8 10 7 11 6 12
REMARK SMILES IDX 5 13 4 14 3 15 2 16 1 17
REMARK H PARENT
REMARK Flexibility Score: inf
ROOT
ATOM      1  C   UNL     1      -5.157  -3.327  -4.193  1.00  0.00     0.000 C 
ENDROOT
BRANCH   1   2
ATOM      2  C   UNL     1      -4.552  -3.920  -2.904  1.00  0.00     0.000 C 
BRANCH   2   3
ATOM      3  C   UNL     1      -5.552  -4.134  -1.754  1.00  0.00     0.000 C 
BRANCH   3   4
ATOM      4  C   UNL     1      -5.532  -2.994  -0.726  1.00  0.00     0.000 C 
BRANCH   4   5
ATOM      5  C   UNL     1      -6.865  -2.915   0.032  1.00  0.00     0.006 C 
BRANCH   5   6
ATOM      6  C   UNL     1      -7.022  -4.052   1.050  1.00  0.00     0.053 C 
BRANCH   6   7
ATOM      7  C   UNL     1      -8.231  -4.889   0.766  1.00  0.00     0.041 C 
ATOM      8  O   UNL     1      -8.150  -5.882  -0.004  1.00  0.00    -0.550 OA
ATOM      9  O   UNL     1      -9.458  -4.550   1.326  1.00  0.00    -0.550 OA
ENDBRANCH   6   7
ENDBRANCH   5   6
ENDBRANCH   4   5
ENDBRANCH   3   4
ENDBRANCH   2   3
ENDBRANCH   1   2
BRANCH   1  10
ATOM     10  C   UNL     1      -4.420  -3.704  -5.494  1.00  0.00     0.000 C 
BRANCH  10  11
ATOM     11  C   UNL     1      -4.055  -2.513  -6.402  1.00  0.00    -0.000 C 
BRANCH  11  12
ATOM     12  C   UNL     1      -5.106  -1.386  -6.449  1.00  0.00    -0.000 C 
BRANCH  12  13
ATOM     13  C   UNL     1      -4.570   0.016  -6.093  1.00  0.00    -0.000 C 
BRANCH  13  14
ATOM     14  C   UNL     1      -3.189   0.034  -5.409  1.00  0.00    -0.000 C 
BRANCH  14  15
ATOM     15  C   UNL     1      -3.212   0.356  -3.904  1.00  0.00    -0.000 C 
BRANCH  15  16
ATOM     16  C   UNL     1      -2.712  -0.808  -3.038  1.00  0.00    -0.003 C 
ATOM     17  C   UNL     1      -2.705  -0.431  -1.560  1.00  0.00     0.004 C 
ENDBRANCH  15  16
ENDBRANCH  14  15
ENDBRANCH  13  14
ENDBRANCH  12  13
ENDBRANCH  11  12
ENDBRANCH  10  11
ENDBRANCH   1  10
TORSDOF 13
ENDMDL
MODEL 7
REMARK VINA RESULT:    -4.160      3.474      7.072
REMARK INTER + INTRA:          -8.603
REMARK INTER:                  -6.641
REMARK INTRA:                  -1.962
REMARK UNBOUND:                -1.282
REMARK SMILES CCCCCCCCCCCCCCC(=O)[O-]
REMARK SMILES IDX 9 1 10 2 11 3 12 4 13 5 14 6 15 7 16 8 17 9 8 10 7 11 6 12
REMARK SMILES IDX 5 13 4 14 3 15 2 16 1 17
REMARK H PARENT
REMARK Flexibility Score: inf
ROOT
ATOM      1  C   UNL     1      -2.954  -1.234  -2.500  1.00  0.00     0.000 C 
ENDROOT
BRANCH   1   2
ATOM      2  C   UNL     1      -3.460  -1.154  -1.045  1.00  0.00     0.000 C 
BRANCH   2   3
ATOM      3  C   UNL     1      -2.992  -2.298  -0.129  1.00  0.00     0.000 C 
BRANCH   3   4
ATOM      4  C   UNL     1      -4.101  -3.319   0.167  1.00  0.00     0.000 C 
BRANCH   4   5
ATOM      5  C   UNL     1      -5.483  -2.739  -0.165  1.00  0.00     0.006 C 
BRANCH   5   6
ATOM      6  C   UNL     1      -6.471  -3.820  -0.621  1.00  0.00     0.053 C 
BRANCH   6   7
ATOM      7  C   UNL     1      -7.477  -4.138   0.444  1.00  0.00     0.041 C 
ATOM      8  O   UNL     1      -8.708  -4.010   0.212  1.00  0.00    -0.550 OA
ATOM      9  O   UNL     1      -7.051  -4.542   1.703  1.00  0.00    -0.550 OA
ENDBRANCH   6   7
ENDBRANCH   5   6
ENDBRANCH   4   5
ENDBRANCH   3   4
ENDBRANCH   2   3
ENDBRANCH   1   2
BRANCH   1  10
ATOM     10  C   UNL     1      -2.071  -2.458  -2.818  1.00  0.00     0.000 C 
BRANCH  10  11
ATOM     11  C   UNL     1      -2.673  -3.446  -3.836  1.00  0.00    -0.000 C 
BRANCH  11  12
ATOM     12  C   UNL     1      -4.173  -3.745  -3.642  1.00  0.00    -0.000 C 
BRANCH  12  13
ATOM     13  C   UNL     1      -5.073  -3.344  -4.828  1.00  0.00    -0.000 C 
BRANCH  13  14
ATOM     14  C   UNL     1      -4.324  -2.851  -6.081  1.00  0.00    -0.000 C 
BRANCH  14  15
ATOM     15  C   UNL     1      -4.742  -1.457  -6.584  1.00  0.00    -0.000 C 
BRANCH  15  16
ATOM     16  C   UNL     1      -3.900  -0.327  -5.975  1.00  0.00    -0.003 C 
ATOM     17  C   UNL     1      -2.433  -0.459  -6.372  1.00  0.00     0.004 C 
ENDBRANCH  15  16
ENDBRANCH  14  15
ENDBRANCH  13  14
ENDBRANCH  12  13
ENDBRANCH  11  12
ENDBRANCH  10  11
ENDBRANCH   1  10
TORSDOF 13
ENDMDL
MODEL 8
REMARK VINA RESULT:    -4.108      6.305     12.114
REMARK INTER + INTRA:          -8.513
REMARK INTER:                  -7.641
REMARK INTRA:                  -0.871
REMARK UNBOUND:                -1.282
REMARK SMILES CCCCCCCCCCCCCCC(=O)[O-]
REMARK SMILES IDX 9 1 10 2 11 3 12 4 13 5 14 6 15 7 16 8 17 9 8 10 7 11 6 12
REMARK SMILES IDX 5 13 4 14 3 15 2 16 1 17
REMARK H PARENT
REMARK Flexibility Score: inf
ROOT
ATOM      1  C   UNL     1      -1.052   1.540  -8.631  1.00  0.00     0.000 C 
ENDROOT
BRANCH   1   2
ATOM      2  C   UNL     1      -1.462   2.554  -7.544  1.00  0.00     0.000 C 
BRANCH   2   3
ATOM      3  C   UNL     1      -2.784   3.297  -7.811  1.00  0.00     0.000 C 
BRANCH   3   4
ATOM      4  C   UNL     1      -3.690   3.368  -6.573  1.00  0.00     0.000 C 
BRANCH   4   5
ATOM      5  C   UNL     1      -4.699   2.210  -6.565  1.00  0.00     0.006 C 
BRANCH   5   6
ATOM      6  C   UNL     1      -4.327   1.124  -5.548  1.00  0.00     0.053 C 
BRANCH   6   7
ATOM      7  C   UNL     1      -4.284  -0.235  -6.178  1.00  0.00     0.041 C 
ATOM      8  O   UNL     1      -3.185  -0.733  -6.539  1.00  0.00    -0.550 OA
ATOM      9  O   UNL     1      -5.463  -0.937  -6.398  1.00  0.00    -0.550 OA
ENDBRANCH   6   7
ENDBRANCH   5   6
ENDBRANCH   4   5
ENDBRANCH   3   4
ENDBRANCH   2   3
ENDBRANCH   1   2
BRANCH   1  10
ATOM     10  C   UNL     1       0.060   2.020  -9.585  1.00  0.00     0.000 C 
BRANCH  10  11
ATOM     11  C   UNL     1      -0.405   2.983 -10.694  1.00  0.00    -0.000 C 
BRANCH  11  12
ATOM     12  C   UNL     1      -1.710   2.574 -11.405  1.00  0.00    -0.000 C 
BRANCH  12  13
ATOM     13  C   UNL     1      -2.181   3.544 -12.507  1.00  0.00    -0.000 C 
BRANCH  13  14
ATOM     14  C   UNL     1      -3.674   3.438 -12.878  1.00  0.00    -0.000 C 
BRANCH  14  15
ATOM     15  C   UNL     1      -4.282   4.711 -13.495  1.00  0.00    -0.000 C 
BRANCH  15  16
ATOM     16  C   UNL     1      -3.547   5.169 -14.762  1.00  0.00    -0.003 C 
ATOM     17  C   UNL     1      -4.434   5.027 -15.995  1.00  0.00     0.004 C 
ENDBRANCH  15  16
ENDBRANCH  14  15
ENDBRANCH  13  14
ENDBRANCH  12  13
ENDBRANCH  11  12
ENDBRANCH  10  11
ENDBRANCH   1  10
TORSDOF 13
ENDMDL
MODEL 9
REMARK VINA RESULT:    -4.048      3.440      7.781
REMARK INTER + INTRA:          -8.406
REMARK INTER:                  -6.453
REMARK INTRA:                  -1.953
REMARK UNBOUND:                -1.282
REMARK SMILES CCCCCCCCCCCCCCC(=O)[O-]
REMARK SMILES IDX 9 1 10 2 11 3 12 4 13 5 14 6 15 7 16 8 17 9 8 10 7 11 6 12
REMARK SMILES IDX 5 13 4 14 3 15 2 16 1 17
REMARK H PARENT
REMARK Flexibility Score: inf
ROOT
ATOM      1  C   UNL     1      -4.646  -0.231  -5.521  1.00  0.00     0.000 C 
ENDROOT
BRANCH   1   2
ATOM      2  C   UNL     1      -4.793  -1.390  -6.528  1.00  0.00     0.000 C 
BRANCH   2   3
ATOM      3  C   UNL     1      -4.009  -2.665  -6.172  1.00  0.00     0.000 C 
BRANCH   3   4
ATOM      4  C   UNL     1      -4.815  -3.638  -5.298  1.00  0.00     0.000 C 
BRANCH   4   5
ATOM      5  C   UNL     1      -4.008  -4.066  -4.065  1.00  0.00     0.006 C 
BRANCH   5   6
ATOM      6  C   UNL     1      -4.134  -3.062  -2.912  1.00  0.00     0.053 C 
BRANCH   6   7
ATOM      7  C   UNL     1      -4.912  -3.630  -1.764  1.00  0.00     0.041 C 
ATOM      8  O   UNL     1      -4.750  -3.176  -0.601  1.00  0.00    -0.550 OA
ATOM      9  O   UNL     1      -5.790  -4.686  -1.975  1.00  0.00    -0.550 OA
ENDBRANCH   6   7
ENDBRANCH   5   6
ENDBRANCH   4   5
ENDBRANCH   3   4
ENDBRANCH   2   3
ENDBRANCH   1   2
BRANCH   1  10
ATOM     10  C   UNL     1      -5.022   1.161  -6.067  1.00  0.00     0.000 C 
BRANCH  10  11
ATOM     11  C   UNL     1      -4.025   2.284  -5.724  1.00  0.00    -0.000 C 
BRANCH  11  12
ATOM     12  C   UNL     1      -3.166   2.775  -6.908  1.00  0.00    -0.000 C 
BRANCH  12  13
ATOM     13  C   UNL     1      -1.738   2.196  -6.957  1.00  0.00    -0.000 C 
BRANCH  13  14
ATOM     14  C   UNL     1      -1.606   0.842  -7.683  1.00  0.00    -0.000 C 
BRANCH  14  15
ATOM     15  C   UNL     1      -1.121  -0.323  -6.801  1.00  0.00    -0.000 C 
BRANCH  15  16
ATOM     16  C   UNL     1      -0.815   0.107  -5.360  1.00  0.00    -0.003 C 
ATOM     17  C   UNL     1      -1.196  -0.986  -4.367  1.00  0.00     0.004 C 
ENDBRANCH  15  16
ENDBRANCH  14  15
ENDBRANCH  13  14
ENDBRANCH  12  13
ENDBRANCH  11  12
ENDBRANCH  10  11
ENDBRANCH   1  10
TORSDOF 13
ENDMDL
