MODEL 1
REMARK VINA RESULT:    11.844      0.000      0.000
REMARK INTER + INTRA:          21.899
REMARK INTER:                  22.231
REMARK INTRA:                  -0.331
REMARK UNBOUND:                -0.331
REMARK SMILES O=C([O-])CCCCCCCCCCCCCCC(=O)[O-]
REMARK SMILES IDX 10 1 9 2 8 3 7 4 6 5 5 6 4 7 2 8 1 9 3 10 11 11 12 12 13 13
REMARK SMILES IDX 14 14 15 15 16 16 17 17 18 18 19 19 20 20
REMARK H PARENT
REMARK Flexibility Score: inf
ROOT
ATOM      1  C   UNL     1      18.520 -57.859  -2.443  1.00  0.00     0.000 C 
ENDROOT
BRANCH   1   2
ATOM      2  C   UNL     1      19.125 -57.398  -1.105  1.00  0.00     0.000 C 
BRANCH   2   3
ATOM      3  C   UNL     1      18.057 -57.082  -0.046  1.00  0.00     0.000 C 
BRANCH   3   4
ATOM      4  C   UNL     1      16.652 -57.105  -0.661  1.00  0.00     0.000 C 
BRANCH   4   5
ATOM      5  C   UNL     1      16.076 -55.687  -0.767  1.00  0.00     0.000 C 
BRANCH   5   6
ATOM      6  C   UNL     1      15.825 -55.303  -2.230  1.00  0.00     0.006 C 
BRANCH   6   7
ATOM      7  C   UNL     1      16.898 -55.901  -3.146  1.00  0.00     0.053 C 
BRANCH   7   8
ATOM      8  C   UNL     1      17.536 -54.832  -3.974  1.00  0.00     0.041 C 
ATOM      9  O   UNL     1      18.014 -53.805  -3.423  1.00  0.00    -0.550 OA
ATOM     10  O   UNL     1      17.560 -54.944  -5.358  1.00  0.00    -0.550 OA
ENDBRANCH   7   8
ENDBRANCH   6   7
ENDBRANCH   5   6
ENDBRANCH   4   5
ENDBRANCH   3   4
ENDBRANCH   2   3
ENDBRANCH   1   2
BRANCH   1  11
ATOM     11  C   UNL     1      19.076 -59.191  -2.984  1.00  0.00     0.000 C 
BRANCH  11  12
ATOM     12  C   UNL     1      18.063 -60.353  -3.032  1.00  0.00     0.000 C 
BRANCH  12  13
ATOM     13  C   UNL     1      16.645 -59.998  -2.552  1.00  0.00     0.000 C 
BRANCH  13  14
ATOM     14  C   UNL     1      15.633 -59.900  -3.704  1.00  0.00     0.000 C 
BRANCH  14  15
ATOM     15  C   UNL     1      15.294 -58.434  -4.011  1.00  0.00     0.000 C 
BRANCH  15  16
ATOM     16  C   UNL     1      13.789 -58.207  -4.249  1.00  0.00     0.006 C 
BRANCH  16  17
ATOM     17  C   UNL     1      13.157 -57.147  -3.334  1.00  0.00     0.053 C 
BRANCH  17  18
ATOM     18  C   UNL     1      11.696 -57.393  -3.118  1.00  0.00     0.041 C 
ATOM     19  O   UNL     1      11.301 -58.483  -2.628  1.00  0.00    -0.550 OA
ATOM     20  O   UNL     1      10.771 -56.402  -3.427  1.00  0.00    -0.550 OA
ENDBRANCH  17  18
ENDBRANCH  16  17
ENDBRANCH  15  16
ENDBRANCH  14  15
ENDBRANCH  13  14
ENDBRANCH  12  13
ENDBRANCH  11  12
ENDBRANCH   1  11
TORSDOF 15
ENDMDL
MODEL 2
REMARK VINA RESULT:    12.480      4.884      7.518
REMARK INTER + INTRA:          23.093
REMARK INTER:                  23.635
REMARK INTRA:                  -0.542
REMARK UNBOUND:                -0.331
REMARK SMILES O=C([O-])CCCCCCCCCCCCCCC(=O)[O-]
REMARK SMILES IDX 10 1 9 2 8 3 7 4 6 5 5 6 4 7 2 8 1 9 3 10 11 11 12 12 13 13
REMARK SMILES IDX 14 14 15 15 16 16 17 17 18 18 19 19 20 20
REMARK H PARENT
REMARK Flexibility Score: inf
ROOT
ATOM      1  C   UNL     1      11.637 -55.464  -3.668  1.00  0.00     0.000 C 
ENDROOT
BRANCH   1   2
ATOM      2  C   UNL     1      10.580 -54.635  -4.418  1.00  0.00     0.000 C 
BRANCH   2   3
ATOM      3  C   UNL     1      10.302 -53.280  -3.749  1.00  0.00     0.000 C 
BRANCH   3   4
ATOM      4  C   UNL     1       8.796 -53.063  -3.554  1.00  0.00     0.000 C 
BRANCH   4   5
ATOM      5  C   UNL     1       8.507 -51.645  -3.047  1.00  0.00     0.000 C 
BRANCH   5   6
ATOM      6  C   UNL     1       9.800 -50.828  -2.928  1.00  0.00     0.006 C 
BRANCH   6   7
ATOM      7  C   UNL     1       9.556 -49.524  -2.162  1.00  0.00     0.053 C 
BRANCH   7   8
ATOM      8  C   UNL     1      10.676 -48.561  -2.395  1.00  0.00     0.041 C 
ATOM      9  O   UNL     1      10.714 -47.877  -3.452  1.00  0.00    -0.550 OA
ATOM     10  O   UNL     1      11.706 -48.454  -1.470  1.00  0.00    -0.550 OA
ENDBRANCH   7   8
ENDBRANCH   6   7
ENDBRANCH   5   6
ENDBRANCH   4   5
ENDBRANCH   3   4
ENDBRANCH   2   3
ENDBRANCH   1   2
BRANCH   1  11
ATOM     11  C   UNL     1      11.351 -56.977  -3.602  1.00  0.00     0.000 C 
BRANCH  11  12
ATOM     12  C   UNL     1      12.544 -57.852  -3.167  1.00  0.00     0.000 C 
BRANCH  12  13
ATOM     13  C   UNL     1      13.785 -57.753  -4.072  1.00  0.00     0.000 C 
BRANCH  13  14
ATOM     14  C   UNL     1      14.823 -58.849  -3.783  1.00  0.00     0.000 C 
BRANCH  14  15
ATOM     15  C   UNL     1      16.079 -58.254  -3.129  1.00  0.00     0.000 C 
BRANCH  15  16
ATOM     16  C   UNL     1      16.112 -56.716  -3.191  1.00  0.00     0.006 C 
BRANCH  16  17
ATOM     17  C   UNL     1      17.370 -56.085  -2.575  1.00  0.00     0.053 C 
BRANCH  17  18
ATOM     18  C   UNL     1      18.055 -57.016  -1.622  1.00  0.00     0.041 C 
ATOM     19  O   UNL     1      19.027 -57.717  -2.007  1.00  0.00    -0.550 OA
ATOM     20  O   UNL     1      17.639 -57.084  -0.297  1.00  0.00    -0.550 OA
ENDBRANCH  17  18
ENDBRANCH  16  17
ENDBRANCH  15  16
ENDBRANCH  14  15
ENDBRANCH  13  14
ENDBRANCH  12  13
ENDBRANCH  11  12
ENDBRANCH   1  11
TORSDOF 15
ENDMDL
MODEL 3
REMARK VINA RESULT:    12.649      4.898      7.458
REMARK INTER + INTRA:          23.410
REMARK INTER:                  23.808
REMARK INTRA:                  -0.398
REMARK UNBOUND:                -0.331
REMARK SMILES O=C([O-])CCCCCCCCCCCCCCC(=O)[O-]
REMARK SMILES IDX 10 1 9 2 8 3 7 4 6 5 5 6 4 7 2 8 1 9 3 10 11 11 12 12 13 13
REMARK SMILES IDX 14 14 15 15 16 16 17 17 18 18 19 19 20 20
REMARK H PARENT
REMARK Flexibility Score: inf
ROOT
ATOM      1  C   UNL     1      11.258 -56.714  -3.681  1.00  0.00     0.000 C 
ENDROOT
BRANCH   1   2
ATOM      2  C   UNL     1      12.433 -57.582  -3.197  1.00  0.00     0.000 C 
BRANCH   2   3
ATOM      3  C   UNL     1      13.553 -57.703  -4.241  1.00  0.00     0.000 C 
BRANCH   3   4
ATOM      4  C   UNL     1      14.628 -58.696  -3.780  1.00  0.00     0.000 C 
BRANCH   4   5
ATOM      5  C   UNL     1      15.856 -57.959  -3.230  1.00  0.00     0.000 C 
BRANCH   5   6
ATOM      6  C   UNL     1      16.865 -58.945  -2.628  1.00  0.00     0.006 C 
BRANCH   6   7
ATOM      7  C   UNL     1      18.179 -58.239  -2.279  1.00  0.00     0.053 C 
BRANCH   7   8
ATOM      8  C   UNL     1      17.915 -56.995  -1.494  1.00  0.00     0.041 C 
ATOM      9  O   UNL     1      18.012 -55.866  -2.043  1.00  0.00    -0.550 OA
ATOM     10  O   UNL     1      17.609 -57.077  -0.141  1.00  0.00    -0.550 OA
ENDBRANCH   7   8
ENDBRANCH   6   7
ENDBRANCH   5   6
ENDBRANCH   4   5
ENDBRANCH   3   4
ENDBRANCH   2   3
ENDBRANCH   1   2
BRANCH   1  11
ATOM     11  C   UNL     1      11.599 -55.230  -3.918  1.00  0.00     0.000 C 
BRANCH  11  12
ATOM     12  C   UNL     1      10.434 -54.364  -4.438  1.00  0.00     0.000 C 
BRANCH  12  13
ATOM     13  C   UNL     1       9.468 -53.856  -3.352  1.00  0.00     0.000 C 
BRANCH  13  14
ATOM     14  C   UNL     1       8.674 -52.617  -3.792  1.00  0.00     0.000 C 
BRANCH  14  15
ATOM     15  C   UNL     1       8.572 -51.598  -2.648  1.00  0.00     0.000 C 
BRANCH  15  16
ATOM     16  C   UNL     1       9.110 -50.208  -3.037  1.00  0.00     0.006 C 
BRANCH  16  17
ATOM     17  C   UNL     1       9.721 -49.417  -1.870  1.00  0.00     0.053 C 
BRANCH  17  18
ATOM     18  C   UNL     1      10.918 -48.623  -2.297  1.00  0.00     0.041 C 
ATOM     19  O   UNL     1      10.929 -48.044  -3.414  1.00  0.00    -0.550 OA
ATOM     20  O   UNL     1      12.008 -48.497  -1.444  1.00  0.00    -0.550 OA
ENDBRANCH  17  18
ENDBRANCH  16  17
ENDBRANCH  15  16
ENDBRANCH  14  15
ENDBRANCH  13  14
ENDBRANCH  12  13
ENDBRANCH  11  12
ENDBRANCH   1  11
TORSDOF 15
ENDMDL
MODEL 4
REMARK VINA RESULT:    12.712      1.618      2.803
REMARK INTER + INTRA:          23.529
REMARK INTER:                  24.642
REMARK INTRA:                  -1.113
REMARK UNBOUND:                -0.331
REMARK SMILES O=C([O-])CCCCCCCCCCCCCCC(=O)[O-]
REMARK SMILES IDX 10 1 9 2 8 3 7 4 6 5 5 6 4 7 2 8 1 9 3 10 11 11 12 12 13 13
REMARK SMILES IDX 14 14 15 15 16 16 17 17 18 18 19 19 20 20
REMARK H PARENT
REMARK Flexibility Score: inf
ROOT
ATOM      1  C   UNL     1      17.883 -60.535  -3.196  1.00  0.00     0.000 C 
ENDROOT
BRANCH   1   2
ATOM      2  C   UNL     1      19.125 -59.762  -2.717  1.00  0.00     0.000 C 
BRANCH   2   3
ATOM      3  C   UNL     1      19.050 -58.261  -3.034  1.00  0.00     0.000 C 
BRANCH   3   4
ATOM      4  C   UNL     1      19.041 -57.427  -1.747  1.00  0.00     0.000 C 
BRANCH   4   5
ATOM      5  C   UNL     1      17.613 -57.010  -1.372  1.00  0.00     0.000 C 
BRANCH   5   6
ATOM      6  C   UNL     1      16.923 -56.297  -2.541  1.00  0.00     0.006 C 
BRANCH   6   7
ATOM      7  C   UNL     1      17.556 -54.926  -2.798  1.00  0.00     0.053 C 
BRANCH   7   8
ATOM      8  C   UNL     1      17.620 -54.644  -4.265  1.00  0.00     0.041 C 
ATOM      9  O   UNL     1      17.450 -55.574  -5.097  1.00  0.00    -0.550 OA
ATOM     10  O   UNL     1      17.918 -53.364  -4.716  1.00  0.00    -0.550 OA
ENDBRANCH   7   8
ENDBRANCH   6   7
ENDBRANCH   5   6
ENDBRANCH   4   5
ENDBRANCH   3   4
ENDBRANCH   2   3
ENDBRANCH   1   2
BRANCH   1  11
ATOM     11  C   UNL     1      16.533 -59.880  -2.845  1.00  0.00     0.000 C 
BRANCH  11  12
ATOM     12  C   UNL     1      15.802 -59.212  -4.028  1.00  0.00     0.000 C 
BRANCH  12  13
ATOM     13  C   UNL     1      14.266 -59.213  -3.925  1.00  0.00     0.000 C 
BRANCH  13  14
ATOM     14  C   UNL     1      13.676 -57.801  -3.796  1.00  0.00     0.000 C 
BRANCH  14  15
ATOM     15  C   UNL     1      12.226 -57.857  -3.292  1.00  0.00     0.000 C 
BRANCH  15  16
ATOM     16  C   UNL     1      11.602 -56.460  -3.115  1.00  0.00     0.006 C 
BRANCH  16  17
ATOM     17  C   UNL     1      11.140 -55.803  -4.425  1.00  0.00     0.053 C 
BRANCH  17  18
ATOM     18  C   UNL     1      10.946 -54.326  -4.273  1.00  0.00     0.041 C 
ATOM     19  O   UNL     1      11.910 -53.537  -4.451  1.00  0.00    -0.550 OA
ATOM     20  O   UNL     1       9.688 -53.818  -3.967  1.00  0.00    -0.550 OA
ENDBRANCH  17  18
ENDBRANCH  16  17
ENDBRANCH  15  16
ENDBRANCH  14  15
ENDBRANCH  13  14
ENDBRANCH  12  13
ENDBRANCH  11  12
ENDBRANCH   1  11
TORSDOF 15
ENDMDL
MODEL 5
REMARK VINA RESULT:    12.773      0.719      5.146
REMARK INTER + INTRA:          23.642
REMARK INTER:                  24.570
REMARK INTRA:                  -0.927
REMARK UNBOUND:                -0.331
REMARK SMILES O=C([O-])CCCCCCCCCCCCCCC(=O)[O-]
REMARK SMILES IDX 10 1 9 2 8 3 7 4 6 5 5 6 4 7 2 8 1 9 3 10 11 11 12 12 13 13
REMARK SMILES IDX 14 14 15 15 16 16 17 17 18 18 19 19 20 20
REMARK H PARENT
REMARK Flexibility Score: inf
ROOT
ATOM      1  C   UNL     1      19.125 -59.575  -2.337  1.00  0.00     0.000 C 
ENDROOT
BRANCH   1   2
ATOM      2  C   UNL     1      18.026 -60.116  -3.268  1.00  0.00     0.000 C 
BRANCH   2   3
ATOM      3  C   UNL     1      16.626 -60.047  -2.638  1.00  0.00     0.000 C 
BRANCH   3   4
ATOM      4  C   UNL     1      15.883 -58.784  -3.089  1.00  0.00     0.000 C 
BRANCH   4   5
ATOM      5  C   UNL     1      14.913 -59.097  -4.236  1.00  0.00     0.000 C 
BRANCH   5   6
ATOM      6  C   UNL     1      13.899 -57.963  -4.424  1.00  0.00     0.006 C 
BRANCH   6   7
ATOM      7  C   UNL     1      13.164 -57.661  -3.115  1.00  0.00     0.053 C 
BRANCH   7   8
ATOM      8  C   UNL     1      11.761 -57.222  -3.389  1.00  0.00     0.041 C 
ATOM      9  O   UNL     1      10.794 -57.803  -2.829  1.00  0.00    -0.550 OA
ATOM     10  O   UNL     1      11.517 -56.203  -4.300  1.00  0.00    -0.550 OA
ENDBRANCH   7   8
ENDBRANCH   6   7
ENDBRANCH   5   6
ENDBRANCH   4   5
ENDBRANCH   3   4
ENDBRANCH   2   3
ENDBRANCH   1   2
BRANCH   1  11
ATOM     11  C   UNL     1      18.994 -58.083  -1.974  1.00  0.00     0.000 C 
BRANCH  11  12
ATOM     12  C   UNL     1      19.059 -57.766  -0.465  1.00  0.00     0.000 C 
BRANCH  12  13
ATOM     13  C   UNL     1      18.074 -56.686   0.014  1.00  0.00     0.000 C 
BRANCH  13  14
ATOM     14  C   UNL     1      16.621 -56.985  -0.385  1.00  0.00     0.000 C 
BRANCH  14  15
ATOM     15  C   UNL     1      16.106 -55.948  -1.394  1.00  0.00     0.000 C 
BRANCH  15  16
ATOM     16  C   UNL     1      17.234 -55.329  -2.241  1.00  0.00     0.006 C 
BRANCH  16  17
ATOM     17  C   UNL     1      17.309 -55.861  -3.680  1.00  0.00     0.053 C 
BRANCH  17  18
ATOM     18  C   UNL     1      17.625 -54.776  -4.663  1.00  0.00     0.041 C 
ATOM     19  O   UNL     1      17.368 -54.932  -5.885  1.00  0.00    -0.550 OA
ATOM     20  O   UNL     1      18.175 -53.577  -4.222  1.00  0.00    -0.550 OA
ENDBRANCH  17  18
ENDBRANCH  16  17
ENDBRANCH  15  16
ENDBRANCH  14  15
ENDBRANCH  13  14
ENDBRANCH  12  13
ENDBRANCH  11  12
ENDBRANCH   1  11
TORSDOF 15
ENDMDL
MODEL 6
REMARK VINA RESULT:    12.938      1.478      5.311
REMARK INTER + INTRA:          23.952
REMARK INTER:                  24.522
REMARK INTRA:                  -0.570
REMARK UNBOUND:                -0.331
REMARK SMILES O=C([O-])CCCCCCCCCCCCCCC(=O)[O-]
REMARK SMILES IDX 10 1 9 2 8 3 7 4 6 5 5 6 4 7 2 8 1 9 3 10 11 11 12 12 13 13
REMARK SMILES IDX 14 14 15 15 16 16 17 17 18 18 19 19 20 20
REMARK H PARENT
REMARK Flexibility Score: inf
ROOT
ATOM      1  C   UNL     1      16.463 -59.573  -2.745  1.00  0.00     0.000 C 
ENDROOT
BRANCH   1   2
ATOM      2  C   UNL     1      15.777 -58.770  -3.864  1.00  0.00     0.000 C 
BRANCH   2   3
ATOM      3  C   UNL     1      14.263 -59.021  -3.935  1.00  0.00     0.000 C 
BRANCH   3   4
ATOM      4  C   UNL     1      13.482 -57.710  -3.789  1.00  0.00     0.000 C 
BRANCH   4   5
ATOM      5  C   UNL     1      12.128 -57.950  -3.109  1.00  0.00     0.000 C 
BRANCH   5   6
ATOM      6  C   UNL     1      11.295 -56.664  -3.072  1.00  0.00     0.006 C 
BRANCH   6   7
ATOM      7  C   UNL     1      11.350 -55.935  -4.418  1.00  0.00     0.053 C 
BRANCH   7   8
ATOM      8  C   UNL     1      11.005 -54.490  -4.248  1.00  0.00     0.041 C 
ATOM      9  O   UNL     1       9.827 -54.149  -3.962  1.00  0.00    -0.550 OA
ATOM     10  O   UNL     1      11.972 -53.515  -4.453  1.00  0.00    -0.550 OA
ENDBRANCH   7   8
ENDBRANCH   6   7
ENDBRANCH   5   6
ENDBRANCH   4   5
ENDBRANCH   3   4
ENDBRANCH   2   3
ENDBRANCH   1   2
BRANCH   1  11
ATOM     11  C   UNL     1      17.656 -60.437  -3.201  1.00  0.00     0.000 C 
BRANCH  11  12
ATOM     12  C   UNL     1      19.047 -59.817  -2.952  1.00  0.00     0.000 C 
BRANCH  12  13
ATOM     13  C   UNL     1      19.040 -58.307  -2.655  1.00  0.00     0.000 C 
BRANCH  13  14
ATOM     14  C   UNL     1      18.711 -57.989  -1.189  1.00  0.00     0.000 C 
BRANCH  14  15
ATOM     15  C   UNL     1      17.586 -56.948  -1.093  1.00  0.00     0.000 C 
BRANCH  15  16
ATOM     16  C   UNL     1      17.843 -55.710  -1.973  1.00  0.00     0.006 C 
BRANCH  16  17
ATOM     17  C   UNL     1      16.958 -55.630  -3.226  1.00  0.00     0.053 C 
BRANCH  17  18
ATOM     18  C   UNL     1      17.561 -54.757  -4.284  1.00  0.00     0.041 C 
ATOM     19  O   UNL     1      17.638 -55.162  -5.473  1.00  0.00    -0.550 OA
ATOM     20  O   UNL     1      18.009 -53.482  -3.960  1.00  0.00    -0.550 OA
ENDBRANCH  17  18
ENDBRANCH  16  17
ENDBRANCH  15  16
ENDBRANCH  14  15
ENDBRANCH  13  14
ENDBRANCH  12  13
ENDBRANCH  11  12
ENDBRANCH   1  11
TORSDOF 15
ENDMDL
MODEL 7
REMARK VINA RESULT:    13.421      2.339      2.857
REMARK INTER + INTRA:          24.858
REMARK INTER:                  25.096
REMARK INTRA:                  -0.238
REMARK UNBOUND:                -0.331
REMARK SMILES O=C([O-])CCCCCCCCCCCCCCC(=O)[O-]
REMARK SMILES IDX 10 1 9 2 8 3 7 4 6 5 5 6 4 7 2 8 1 9 3 10 11 11 12 12 13 13
REMARK SMILES IDX 14 14 15 15 16 16 17 17 18 18 19 19 20 20
REMARK H PARENT
REMARK Flexibility Score: inf
ROOT
ATOM      1  C   UNL     1      18.722 -57.467  -2.375  1.00  0.00     0.000 C 
ENDROOT
BRANCH   1   2
ATOM      2  C   UNL     1      19.120 -57.129  -0.928  1.00  0.00     0.000 C 
BRANCH   2   3
ATOM      3  C   UNL     1      17.905 -56.918  -0.011  1.00  0.00     0.000 C 
BRANCH   3   4
ATOM      4  C   UNL     1      16.595 -57.048  -0.797  1.00  0.00     0.000 C 
BRANCH   4   5
ATOM      5  C   UNL     1      15.836 -55.715  -0.825  1.00  0.00     0.000 C 
BRANCH   5   6
ATOM      6  C   UNL     1      15.829 -55.115  -2.236  1.00  0.00     0.006 C 
BRANCH   6   7
ATOM      7  C   UNL     1      16.796 -55.866  -3.157  1.00  0.00     0.053 C 
BRANCH   7   8
ATOM      8  C   UNL     1      17.523 -54.910  -4.047  1.00  0.00     0.041 C 
ATOM      9  O   UNL     1      17.627 -55.146  -5.280  1.00  0.00    -0.550 OA
ATOM     10  O   UNL     1      18.130 -53.783  -3.509  1.00  0.00    -0.550 OA
ENDBRANCH   7   8
ENDBRANCH   6   7
ENDBRANCH   5   6
ENDBRANCH   4   5
ENDBRANCH   3   4
ENDBRANCH   2   3
ENDBRANCH   1   2
BRANCH   1  11
ATOM     11  C   UNL     1      19.125 -58.877  -2.849  1.00  0.00     0.000 C 
BRANCH  11  12
ATOM     12  C   UNL     1      17.955 -59.782  -3.288  1.00  0.00     0.000 C 
BRANCH  12  13
ATOM     13  C   UNL     1      16.739 -59.772  -2.344  1.00  0.00     0.000 C 
BRANCH  13  14
ATOM     14  C   UNL     1      15.415 -60.043  -3.074  1.00  0.00     0.000 C 
BRANCH  14  15
ATOM     15  C   UNL     1      14.978 -58.816  -3.888  1.00  0.00     0.000 C 
BRANCH  15  16
ATOM     16  C   UNL     1      14.762 -59.135  -5.379  1.00  0.00     0.006 C 
BRANCH  16  17
ATOM     17  C   UNL     1      14.630 -60.634  -5.692  1.00  0.00     0.053 C 
BRANCH  17  18
ATOM     18  C   UNL     1      14.098 -60.873  -7.072  1.00  0.00     0.041 C 
ATOM     19  O   UNL     1      14.272 -60.016  -7.977  1.00  0.00    -0.550 OA
ATOM     20  O   UNL     1      13.439 -62.062  -7.366  1.00  0.00    -0.550 OA
ENDBRANCH  17  18
ENDBRANCH  16  17
ENDBRANCH  15  16
ENDBRANCH  14  15
ENDBRANCH  13  14
ENDBRANCH  12  13
ENDBRANCH  11  12
ENDBRANCH   1  11
TORSDOF 15
ENDMDL
MODEL 8
REMARK VINA RESULT:    14.631      2.473      5.782
REMARK INTER + INTRA:          27.130
REMARK INTER:                  27.971
REMARK INTRA:                  -0.840
REMARK UNBOUND:                -0.331
REMARK SMILES O=C([O-])CCCCCCCCCCCCCCC(=O)[O-]
REMARK SMILES IDX 10 1 9 2 8 3 7 4 6 5 5 6 4 7 2 8 1 9 3 10 11 11 12 12 13 13
REMARK SMILES IDX 14 14 15 15 16 16 17 17 18 18 19 19 20 20
REMARK H PARENT
REMARK Flexibility Score: inf
ROOT
ATOM      1  C   UNL     1      17.653 -60.918  -2.719  1.00  0.00     0.000 C 
ENDROOT
BRANCH   1   2
ATOM      2  C   UNL     1      16.566 -59.888  -2.361  1.00  0.00     0.000 C 
BRANCH   2   3
ATOM      3  C   UNL     1      15.318 -60.007  -3.248  1.00  0.00     0.000 C 
BRANCH   3   4
ATOM      4  C   UNL     1      14.930 -58.644  -3.834  1.00  0.00     0.000 C 
BRANCH   4   5
ATOM      5  C   UNL     1      14.719 -58.738  -5.351  1.00  0.00     0.000 C 
BRANCH   5   6
ATOM      6  C   UNL     1      15.270 -60.058  -5.902  1.00  0.00     0.006 C 
BRANCH   6   7
ATOM      7  C   UNL     1      14.183 -61.138  -5.928  1.00  0.00     0.053 C 
BRANCH   7   8
ATOM      8  C   UNL     1      13.580 -61.243  -7.292  1.00  0.00     0.041 C 
ATOM      9  O   UNL     1      13.933 -60.450  -8.204  1.00  0.00    -0.550 OA
ATOM     10  O   UNL     1      12.590 -62.184  -7.545  1.00  0.00    -0.550 OA
ENDBRANCH   7   8
ENDBRANCH   6   7
ENDBRANCH   5   6
ENDBRANCH   4   5
ENDBRANCH   3   4
ENDBRANCH   2   3
ENDBRANCH   1   2
BRANCH   1  11
ATOM     11  C   UNL     1      19.037 -60.319  -3.039  1.00  0.00     0.000 C 
BRANCH  11  12
ATOM     12  C   UNL     1      19.121 -58.781  -2.957  1.00  0.00     0.000 C 
BRANCH  12  13
ATOM     13  C   UNL     1      19.125 -58.207  -1.529  1.00  0.00     0.000 C 
BRANCH  13  14
ATOM     14  C   UNL     1      18.813 -56.703  -1.491  1.00  0.00     0.000 C 
BRANCH  14  15
ATOM     15  C   UNL     1      17.328 -56.460  -1.185  1.00  0.00     0.000 C 
BRANCH  15  16
ATOM     16  C   UNL     1      16.545 -55.939  -2.405  1.00  0.00     0.006 C 
BRANCH  16  17
ATOM     17  C   UNL     1      17.282 -56.100  -3.744  1.00  0.00     0.053 C 
BRANCH  17  18
ATOM     18  C   UNL     1      17.649 -54.777  -4.344  1.00  0.00     0.041 C 
ATOM     19  O   UNL     1      17.605 -54.611  -5.591  1.00  0.00    -0.550 OA
ATOM     20  O   UNL     1      18.009 -53.717  -3.520  1.00  0.00    -0.550 OA
ENDBRANCH  17  18
ENDBRANCH  16  17
ENDBRANCH  15  16
ENDBRANCH  14  15
ENDBRANCH  13  14
ENDBRANCH  12  13
ENDBRANCH  11  12
ENDBRANCH   1  11
TORSDOF 15
ENDMDL
