MODEL 1
REMARK VINA RESULT:    -6.912      0.000      0.000
REMARK INTER + INTRA:          -8.700
REMARK INTER:                  -8.326
REMARK INTRA:                  -0.373
REMARK UNBOUND:                -0.373
REMARK SMILES O=c1c(O)c(-c2ccc(O)cc2O)oc2cc(O)cc(O)c12
REMARK SMILES IDX 5 1 3 2 2 3 1 4 22 5 20 6 19 7 17 8 16 9 15 10 14 11 6 12
REMARK SMILES IDX 8 13 7 14 9 15 11 16 12 17 10 18 13 20 4 22 21 24 18 26
REMARK H PARENT 10 19 13 21 4 23 21 25 18 27
REMARK Flexibility Score: inf
ROOT
ATOM      1  C   UNL     1     100.783 117.488 121.718  1.00  0.00     0.184 A 
ATOM      2  C   UNL     1      99.973 118.446 122.353  1.00  0.00     0.208 A 
ATOM      3  C   UNL     1     100.052 118.584 123.747  1.00  0.00     0.238 A 
ATOM      4  O   UNL     1      99.333 119.443 124.327  1.00  0.00    -0.285 OA
ATOM      5  C   UNL     1     100.931 117.760 124.479  1.00  0.00     0.111 A 
ATOM      6  C   UNL     1     101.069 117.833 125.886  1.00  0.00     0.134 A 
ATOM      7  C   UNL     1     101.964 116.975 126.543  1.00  0.00     0.093 A 
ATOM      8  C   UNL     1     102.721 116.048 125.824  1.00  0.00     0.123 A 
ATOM      9  C   UNL     1     102.589 115.971 124.433  1.00  0.00     0.094 A 
ATOM     10  C   UNL     1     101.705 116.817 123.760  1.00  0.00     0.146 A 
ATOM     11  O   UNL     1     101.601 116.725 122.438  1.00  0.00    -0.451 OA
ENDROOT
BRANCH   1  12
ATOM     12  C   UNL     1     100.757 117.309 120.251  1.00  0.00     0.063 A 
ATOM     13  C   UNL     1      99.544 116.626 118.255  1.00  0.00     0.047 A 
ATOM     14  C   UNL     1      99.616 116.755 119.644  1.00  0.00     0.020 A 
ATOM     15  C   UNL     1     100.606 117.057 117.452  1.00  0.00     0.119 A 
ATOM     16  C   UNL     1     101.743 117.611 118.046  1.00  0.00     0.093 A 
ATOM     17  C   UNL     1     101.833 117.737 119.437  1.00  0.00     0.130 A 
BRANCH  15  18
ATOM     18  O   UNL     1     100.543 116.937 116.066  1.00  0.00    -0.508 OA
ATOM     19  H   UNL     1     101.294 117.265 115.471  1.00  0.00     0.293 HD
ENDBRANCH  15  18
BRANCH  17  20
ATOM     20  O   UNL     1     103.008 118.265 119.978  1.00  0.00    -0.507 OA
ATOM     21  H   UNL     1     103.073 118.610 120.928  1.00  0.00     0.293 HD
ENDBRANCH  17  20
ENDBRANCH   1  12
BRANCH   2  22
ATOM     22  O   UNL     1      99.096 119.231 121.600  1.00  0.00    -0.502 OA
ATOM     23  H   UNL     1      98.096 119.231 121.760  1.00  0.00     0.293 HD
ENDBRANCH   2  22
BRANCH   6  24
ATOM     24  O   UNL     1     100.327 118.748 126.634  1.00  0.00    -0.507 OA
ATOM     25  H   UNL     1     100.070 119.656 126.262  1.00  0.00     0.293 HD
ENDBRANCH   6  24
BRANCH   8  26
ATOM     26  O   UNL     1     103.602 115.208 126.501  1.00  0.00    -0.508 OA
ATOM     27  H   UNL     1     103.463 114.969 127.476  1.00  0.00     0.293 HD
ENDBRANCH   8  26
TORSDOF 6
ENDMDL
MODEL 2
REMARK VINA RESULT:    -6.775      1.733      6.516
REMARK INTER + INTRA:          -8.534
REMARK INTER:                  -8.492
REMARK INTRA:                  -0.042
REMARK UNBOUND:                -0.373
REMARK SMILES O=c1c(O)c(-c2ccc(O)cc2O)oc2cc(O)cc(O)c12
REMARK SMILES IDX 5 1 3 2 2 3 1 4 22 5 20 6 19 7 17 8 16 9 15 10 14 11 6 12
REMARK SMILES IDX 8 13 7 14 9 15 11 16 12 17 10 18 13 20 4 22 21 24 18 26
REMARK H PARENT 10 19 13 21 4 23 21 25 18 27
REMARK Flexibility Score: inf
ROOT
ATOM      1  C   UNL     1     101.187 116.003 122.828  1.00  0.00     0.184 A 
ATOM      2  C   UNL     1     100.409 117.153 123.052  1.00  0.00     0.208 A 
ATOM      3  C   UNL     1      99.845 117.815 121.951  1.00  0.00     0.238 A 
ATOM      4  O   UNL     1      99.142 118.846 122.140  1.00  0.00    -0.285 OA
ATOM      5  C   UNL     1     100.073 117.321 120.651  1.00  0.00     0.111 A 
ATOM      6  C   UNL     1      99.544 117.930 119.487  1.00  0.00     0.134 A 
ATOM      7  C   UNL     1      99.820 117.380 118.227  1.00  0.00     0.093 A 
ATOM      8  C   UNL     1     100.613 116.237 118.106  1.00  0.00     0.123 A 
ATOM      9  C   UNL     1     101.139 115.630 119.252  1.00  0.00     0.094 A 
ATOM     10  C   UNL     1     100.875 116.162 120.516  1.00  0.00     0.146 A 
ATOM     11  O   UNL     1     101.385 115.565 121.588  1.00  0.00    -0.451 OA
ENDROOT
BRANCH   1  12
ATOM     12  C   UNL     1     101.792 115.253 123.949  1.00  0.00     0.063 A 
ATOM     13  C   UNL     1     102.914 115.277 126.109  1.00  0.00     0.047 A 
ATOM     14  C   UNL     1     102.384 115.959 125.011  1.00  0.00     0.020 A 
ATOM     15  C   UNL     1     102.851 113.880 126.165  1.00  0.00     0.119 A 
ATOM     16  C   UNL     1     102.262 113.169 125.116  1.00  0.00     0.093 A 
ATOM     17  C   UNL     1     101.737 113.840 124.005  1.00  0.00     0.130 A 
BRANCH  15  18
ATOM     18  O   UNL     1     103.372 113.190 127.258  1.00  0.00    -0.508 OA
ATOM     19  H   UNL     1     103.266 112.186 127.348  1.00  0.00     0.293 HD
ENDBRANCH  15  18
BRANCH  17  20
ATOM     20  O   UNL     1     101.192 113.078 122.970  1.00  0.00    -0.507 OA
ATOM     21  H   UNL     1     100.202 113.055 122.761  1.00  0.00     0.293 HD
ENDBRANCH  17  20
ENDBRANCH   1  12
BRANCH   2  22
ATOM     22  O   UNL     1     100.221 117.629 124.352  1.00  0.00    -0.502 OA
ATOM     23  H   UNL     1     100.825 117.362 125.119  1.00  0.00     0.293 HD
ENDBRANCH   2  22
BRANCH   6  24
ATOM     24  O   UNL     1      98.749 119.074 119.574  1.00  0.00    -0.507 OA
ATOM     25  H   UNL     1      97.771 119.024 119.838  1.00  0.00     0.293 HD
ENDBRANCH   6  24
BRANCH   8  26
ATOM     26  O   UNL     1     100.872 115.711 116.842  1.00  0.00    -0.508 OA
ATOM     27  H   UNL     1     100.777 116.274 116.004  1.00  0.00     0.293 HD
ENDBRANCH   8  26
TORSDOF 6
ENDMDL
MODEL 3
REMARK VINA RESULT:    -6.730     10.010     11.577
REMARK INTER + INTRA:          -8.481
REMARK INTER:                  -8.103
REMARK INTRA:                  -0.378
REMARK UNBOUND:                -0.373
REMARK SMILES O=c1c(O)c(-c2ccc(O)cc2O)oc2cc(O)cc(O)c12
REMARK SMILES IDX 5 1 3 2 2 3 1 4 22 5 20 6 19 7 17 8 16 9 15 10 14 11 6 12
REMARK SMILES IDX 8 13 7 14 9 15 11 16 12 17 10 18 13 20 4 22 21 24 18 26
REMARK H PARENT 10 19 13 21 4 23 21 25 18 27
REMARK Flexibility Score: inf
ROOT
ATOM      1  C   UNL     1     100.491 107.820 116.181  1.00  0.00     0.184 A 
ATOM      2  C   UNL     1     100.357 108.725 117.249  1.00  0.00     0.208 A 
ATOM      3  C   UNL     1     100.771 108.329 118.530  1.00  0.00     0.238 A 
ATOM      4  O   UNL     1     100.659 109.134 119.494  1.00  0.00    -0.285 OA
ATOM      5  C   UNL     1     101.303 107.038 118.720  1.00  0.00     0.111 A 
ATOM      6  C   UNL     1     101.741 106.559 119.979  1.00  0.00     0.134 A 
ATOM      7  C   UNL     1     102.256 105.259 120.088  1.00  0.00     0.093 A 
ATOM      8  C   UNL     1     102.341 104.429 118.968  1.00  0.00     0.123 A 
ATOM      9  C   UNL     1     101.910 104.897 117.721  1.00  0.00     0.094 A 
ATOM     10  C   UNL     1     101.395 106.189 117.591  1.00  0.00     0.146 A 
ATOM     11  O   UNL     1     100.995 106.608 116.396  1.00  0.00    -0.451 OA
ENDROOT
BRANCH   1  12
ATOM     12  C   UNL     1     100.090 108.187 114.807  1.00  0.00     0.063 A 
ATOM     13  C   UNL     1      98.318 108.680 113.213  1.00  0.00     0.047 A 
ATOM     14  C   UNL     1      98.723 108.282 114.490  1.00  0.00     0.020 A 
ATOM     15  C   UNL     1      99.270 108.997 112.239  1.00  0.00     0.119 A 
ATOM     16  C   UNL     1     100.631 108.908 112.545  1.00  0.00     0.093 A 
ATOM     17  C   UNL     1     101.052 108.500 113.817  1.00  0.00     0.130 A 
BRANCH  15  18
ATOM     18  O   UNL     1      98.877 109.400 110.965  1.00  0.00    -0.508 OA
ATOM     19  H   UNL     1      98.059 109.006 110.515  1.00  0.00     0.293 HD
ENDBRANCH  15  18
BRANCH  17  20
ATOM     20  O   UNL     1     102.424 108.394 114.056  1.00  0.00    -0.507 OA
ATOM     21  H   UNL     1     102.858 107.558 114.426  1.00  0.00     0.293 HD
ENDBRANCH  17  20
ENDBRANCH   1  12
BRANCH   2  22
ATOM     22  O   UNL     1      99.805 109.990 117.030  1.00  0.00    -0.502 OA
ATOM     23  H   UNL     1      99.472 110.286 116.120  1.00  0.00     0.293 HD
ENDBRANCH   2  22
BRANCH   6  24
ATOM     24  O   UNL     1     101.668 107.363 121.118  1.00  0.00    -0.507 OA
ATOM     25  H   UNL     1     101.969 107.027 122.027  1.00  0.00     0.293 HD
ENDBRANCH   6  24
BRANCH   8  26
ATOM     26  O   UNL     1     102.855 103.142 119.104  1.00  0.00    -0.508 OA
ATOM     27  H   UNL     1     103.601 102.804 118.507  1.00  0.00     0.293 HD
ENDBRANCH   8  26
TORSDOF 6
ENDMDL
MODEL 4
REMARK VINA RESULT:    -6.596     10.668     11.927
REMARK INTER + INTRA:          -8.320
REMARK INTER:                  -8.000
REMARK INTRA:                  -0.320
REMARK UNBOUND:                -0.373
REMARK SMILES O=c1c(O)c(-c2ccc(O)cc2O)oc2cc(O)cc(O)c12
REMARK SMILES IDX 5 1 3 2 2 3 1 4 22 5 20 6 19 7 17 8 16 9 15 10 14 11 6 12
REMARK SMILES IDX 8 13 7 14 9 15 11 16 12 17 10 18 13 20 4 22 21 24 18 26
REMARK H PARENT 10 19 13 21 4 23 21 25 18 27
REMARK Flexibility Score: inf
ROOT
ATOM      1  C   UNL     1      99.719 108.685 114.920  1.00  0.00     0.184 A 
ATOM      2  C   UNL     1     100.805 109.540 115.178  1.00  0.00     0.208 A 
ATOM      3  C   UNL     1     101.849 109.081 115.997  1.00  0.00     0.238 A 
ATOM      4  O   UNL     1     102.830 109.838 116.233  1.00  0.00    -0.285 OA
ATOM      5  C   UNL     1     101.784 107.784 116.545  1.00  0.00     0.111 A 
ATOM      6  C   UNL     1     102.792 107.246 117.382  1.00  0.00     0.134 A 
ATOM      7  C   UNL     1     102.652 105.947 117.892  1.00  0.00     0.093 A 
ATOM      8  C   UNL     1     101.528 105.177 117.584  1.00  0.00     0.123 A 
ATOM      9  C   UNL     1     100.529 105.703 116.757  1.00  0.00     0.094 A 
ATOM     10  C   UNL     1     100.650 106.994 116.238  1.00  0.00     0.146 A 
ATOM     11  O   UNL     1      99.688 107.468 115.454  1.00  0.00    -0.451 OA
ENDROOT
BRANCH   1  12
ATOM     12  C   UNL     1      98.600 109.106 114.050  1.00  0.00     0.063 A 
ATOM     13  C   UNL     1      97.311 108.789 112.010  1.00  0.00     0.047 A 
ATOM     14  C   UNL     1      98.394 108.448 112.825  1.00  0.00     0.020 A 
ATOM     15  C   UNL     1      96.415 109.786 112.412  1.00  0.00     0.119 A 
ATOM     16  C   UNL     1      96.610 110.444 113.629  1.00  0.00     0.093 A 
ATOM     17  C   UNL     1      97.697 110.119 114.450  1.00  0.00     0.130 A 
BRANCH  15  18
ATOM     18  O   UNL     1      95.330 110.130 111.609  1.00  0.00    -0.508 OA
ATOM     19  H   UNL     1      94.528 110.622 111.986  1.00  0.00     0.293 HD
ENDBRANCH  15  18
BRANCH  17  20
ATOM     20  O   UNL     1      97.863 110.834 115.639  1.00  0.00    -0.507 OA
ATOM     21  H   UNL     1      98.540 110.580 116.347  1.00  0.00     0.293 HD
ENDBRANCH  17  20
ENDBRANCH   1  12
BRANCH   2  22
ATOM     22  O   UNL     1     100.828 110.828 114.638  1.00  0.00    -0.502 OA
ATOM     23  H   UNL     1     101.543 111.131 113.989  1.00  0.00     0.293 HD
ENDBRANCH   2  22
BRANCH   6  24
ATOM     24  O   UNL     1     103.926 107.990 117.710  1.00  0.00    -0.507 OA
ATOM     25  H   UNL     1     104.269 108.731 117.108  1.00  0.00     0.293 HD
ENDBRANCH   6  24
BRANCH   8  26
ATOM     26  O   UNL     1     101.415 103.889 118.104  1.00  0.00    -0.508 OA
ATOM     27  H   UNL     1     101.977 103.584 118.889  1.00  0.00     0.293 HD
ENDBRANCH   8  26
TORSDOF 6
ENDMDL
MODEL 5
REMARK VINA RESULT:    -6.522      2.561      5.371
REMARK INTER + INTRA:          -8.230
REMARK INTER:                  -7.836
REMARK INTRA:                  -0.394
REMARK UNBOUND:                -0.373
REMARK SMILES O=c1c(O)c(-c2ccc(O)cc2O)oc2cc(O)cc(O)c12
REMARK SMILES IDX 5 1 3 2 2 3 1 4 22 5 20 6 19 7 17 8 16 9 15 10 14 11 6 12
REMARK SMILES IDX 8 13 7 14 9 15 11 16 12 17 10 18 13 20 4 22 21 24 18 26
REMARK H PARENT 10 19 13 21 4 23 21 25 18 27
REMARK Flexibility Score: inf
ROOT
ATOM      1  C   UNL     1     101.475 116.263 123.788  1.00  0.00     0.184 A 
ATOM      2  C   UNL     1     101.560 117.016 124.972  1.00  0.00     0.208 A 
ATOM      3  C   UNL     1     100.921 118.264 125.029  1.00  0.00     0.238 A 
ATOM      4  O   UNL     1     100.987 118.947 126.088  1.00  0.00    -0.285 OA
ATOM      5  C   UNL     1     100.216 118.736 123.904  1.00  0.00     0.111 A 
ATOM      6  C   UNL     1      99.546 119.984 123.877  1.00  0.00     0.134 A 
ATOM      7  C   UNL     1      98.869 120.385 122.716  1.00  0.00     0.093 A 
ATOM      8  C   UNL     1      98.849 119.568 121.584  1.00  0.00     0.123 A 
ATOM      9  C   UNL     1      99.508 118.334 121.604  1.00  0.00     0.094 A 
ATOM     10  C   UNL     1     100.187 117.916 122.750  1.00  0.00     0.146 A 
ATOM     11  O   UNL     1     100.804 116.738 122.743  1.00  0.00    -0.451 OA
ENDROOT
BRANCH   1  12
ATOM     12  C   UNL     1     102.113 114.934 123.674  1.00  0.00     0.063 A 
ATOM     13  C   UNL     1     101.898 112.509 123.696  1.00  0.00     0.047 A 
ATOM     14  C   UNL     1     101.332 113.777 123.851  1.00  0.00     0.020 A 
ATOM     15  C   UNL     1     103.248 112.379 123.352  1.00  0.00     0.119 A 
ATOM     16  C   UNL     1     104.031 113.522 123.171  1.00  0.00     0.093 A 
ATOM     17  C   UNL     1     103.479 114.799 123.334  1.00  0.00     0.130 A 
BRANCH  15  18
ATOM     18  O   UNL     1     103.821 111.119 123.189  1.00  0.00    -0.508 OA
ATOM     19  H   UNL     1     103.701 110.591 122.333  1.00  0.00     0.293 HD
ENDBRANCH  15  18
BRANCH  17  20
ATOM     20  O   UNL     1     104.317 115.905 123.176  1.00  0.00    -0.507 OA
ATOM     21  H   UNL     1     105.126 116.074 123.760  1.00  0.00     0.293 HD
ENDBRANCH  17  20
ENDBRANCH   1  12
BRANCH   2  22
ATOM     22  O   UNL     1     102.286 116.528 126.062  1.00  0.00    -0.502 OA
ATOM     23  H   UNL     1     103.297 116.482 126.062  1.00  0.00     0.293 HD
ENDBRANCH   2  22
BRANCH   6  24
ATOM     24  O   UNL     1      99.549 120.823 124.992  1.00  0.00    -0.507 OA
ATOM     25  H   UNL     1      98.704 121.284 125.313  1.00  0.00     0.293 HD
ENDBRANCH   6  24
BRANCH   8  26
ATOM     26  O   UNL     1      98.169 119.992 120.444  1.00  0.00    -0.508 OA
ATOM     27  H   UNL     1      97.956 120.970 120.287  1.00  0.00     0.293 HD
ENDBRANCH   8  26
TORSDOF 6
ENDMDL
MODEL 6
REMARK VINA RESULT:    -6.468      9.525     11.436
REMARK INTER + INTRA:          -8.164
REMARK INTER:                  -7.747
REMARK INTRA:                  -0.417
REMARK UNBOUND:                -0.373
REMARK SMILES O=c1c(O)c(-c2ccc(O)cc2O)oc2cc(O)cc(O)c12
REMARK SMILES IDX 5 1 3 2 2 3 1 4 22 5 20 6 19 7 17 8 16 9 15 10 14 11 6 12
REMARK SMILES IDX 8 13 7 14 9 15 11 16 12 17 10 18 13 20 4 22 21 24 18 26
REMARK H PARENT 10 19 13 21 4 23 21 25 18 27
REMARK Flexibility Score: inf
ROOT
ATOM      1  C   UNL     1      99.310 109.344 114.984  1.00  0.00     0.184 A 
ATOM      2  C   UNL     1      99.681 110.222 116.017  1.00  0.00     0.208 A 
ATOM      3  C   UNL     1     100.404 109.718 117.109  1.00  0.00     0.238 A 
ATOM      4  O   UNL     1     100.745 110.498 118.041  1.00  0.00    -0.285 OA
ATOM      5  C   UNL     1     100.735 108.349 117.152  1.00  0.00     0.111 A 
ATOM      6  C   UNL     1     101.458 107.759 118.217  1.00  0.00     0.134 A 
ATOM      7  C   UNL     1     101.746 106.387 118.187  1.00  0.00     0.093 A 
ATOM      8  C   UNL     1     101.326 105.593 117.118  1.00  0.00     0.123 A 
ATOM      9  C   UNL     1     100.611 106.169 116.062  1.00  0.00     0.094 A 
ATOM     10  C   UNL     1     100.315 107.534 116.072  1.00  0.00     0.146 A 
ATOM     11  O   UNL     1      99.637 108.057 115.056  1.00  0.00    -0.451 OA
ENDROOT
BRANCH   1  12
ATOM     12  C   UNL     1      98.565 109.821 113.800  1.00  0.00     0.063 A 
ATOM     13  C   UNL     1      98.593 110.625 111.503  1.00  0.00     0.047 A 
ATOM     14  C   UNL     1      99.274 110.222 112.654  1.00  0.00     0.020 A 
ATOM     15  C   UNL     1      97.194 110.624 111.477  1.00  0.00     0.119 A 
ATOM     16  C   UNL     1      96.480 110.223 112.610  1.00  0.00     0.093 A 
ATOM     17  C   UNL     1      97.150 109.828 113.774  1.00  0.00     0.130 A 
BRANCH  15  18
ATOM     18  O   UNL     1      96.504 111.018 110.333  1.00  0.00    -0.508 OA
ATOM     19  H   UNL     1      95.673 110.531 110.021  1.00  0.00     0.293 HD
ENDBRANCH  15  18
BRANCH  17  20
ATOM     20  O   UNL     1      96.386 109.472 114.887  1.00  0.00    -0.507 OA
ATOM     21  H   UNL     1      96.771 109.394 115.820  1.00  0.00     0.293 HD
ENDBRANCH  17  20
ENDBRANCH   1  12
BRANCH   2  22
ATOM     22  O   UNL     1      99.317 111.570 115.955  1.00  0.00    -0.502 OA
ATOM     23  H   UNL     1      98.634 111.917 115.294  1.00  0.00     0.293 HD
ENDBRANCH   2  22
BRANCH   6  24
ATOM     24  O   UNL     1     101.891 108.525 119.300  1.00  0.00    -0.507 OA
ATOM     25  H   UNL     1     102.366 108.106 120.093  1.00  0.00     0.293 HD
ENDBRANCH   6  24
BRANCH   8  26
ATOM     26  O   UNL     1     101.624 104.232 117.114  1.00  0.00    -0.508 OA
ATOM     27  H   UNL     1     101.783 103.727 116.249  1.00  0.00     0.293 HD
ENDBRANCH   8  26
TORSDOF 6
ENDMDL
MODEL 7
REMARK VINA RESULT:    -6.448      2.866      5.236
REMARK INTER + INTRA:          -8.141
REMARK INTER:                  -7.760
REMARK INTRA:                  -0.381
REMARK UNBOUND:                -0.373
REMARK SMILES O=c1c(O)c(-c2ccc(O)cc2O)oc2cc(O)cc(O)c12
REMARK SMILES IDX 5 1 3 2 2 3 1 4 22 5 20 6 19 7 17 8 16 9 15 10 14 11 6 12
REMARK SMILES IDX 8 13 7 14 9 15 11 16 12 17 10 18 13 20 4 22 21 24 18 26
REMARK H PARENT 10 19 13 21 4 23 21 25 18 27
REMARK Flexibility Score: inf
ROOT
ATOM      1  C   UNL     1     101.944 115.396 123.448  1.00  0.00     0.184 A 
ATOM      2  C   UNL     1     102.300 115.711 124.771  1.00  0.00     0.208 A 
ATOM      3  C   UNL     1     101.802 116.892 125.344  1.00  0.00     0.238 A 
ATOM      4  O   UNL     1     102.112 117.184 126.532  1.00  0.00    -0.285 OA
ATOM      5  C   UNL     1     100.966 117.735 124.584  1.00  0.00     0.111 A 
ATOM      6  C   UNL     1     100.425 118.944 125.085  1.00  0.00     0.134 A 
ATOM      7  C   UNL     1      99.604 119.731 124.264  1.00  0.00     0.093 A 
ATOM      8  C   UNL     1      99.314 119.336 122.956  1.00  0.00     0.123 A 
ATOM      9  C   UNL     1      99.846 118.142 122.456  1.00  0.00     0.094 A 
ATOM     10  C   UNL     1     100.665 117.344 123.257  1.00  0.00     0.146 A 
ATOM     11  O   UNL     1     101.155 116.214 122.758  1.00  0.00    -0.451 OA
ENDROOT
BRANCH   1  12
ATOM     12  C   UNL     1     102.422 114.157 122.798  1.00  0.00     0.063 A 
ATOM     13  C   UNL     1     104.057 113.044 121.380  1.00  0.00     0.047 A 
ATOM     14  C   UNL     1     103.552 114.209 121.963  1.00  0.00     0.020 A 
ATOM     15  C   UNL     1     103.446 111.810 121.630  1.00  0.00     0.119 A 
ATOM     16  C   UNL     1     102.324 111.748 122.460  1.00  0.00     0.093 A 
ATOM     17  C   UNL     1     101.801 112.909 123.042  1.00  0.00     0.130 A 
BRANCH  15  18
ATOM     18  O   UNL     1     103.944 110.642 121.058  1.00  0.00    -0.508 OA
ATOM     19  H   UNL     1     103.577 109.732 121.309  1.00  0.00     0.293 HD
ENDBRANCH  15  18
BRANCH  17  20
ATOM     20  O   UNL     1     100.656 112.793 123.834  1.00  0.00    -0.507 OA
ATOM     21  H   UNL     1      99.946 112.089 123.679  1.00  0.00     0.293 HD
ENDBRANCH  17  20
ENDBRANCH   1  12
BRANCH   2  22
ATOM     22  O   UNL     1     103.149 114.865 125.490  1.00  0.00    -0.502 OA
ATOM     23  H   UNL     1     103.192 113.868 125.318  1.00  0.00     0.293 HD
ENDBRANCH   2  22
BRANCH   6  24
ATOM     24  O   UNL     1     100.697 119.367 126.387  1.00  0.00    -0.507 OA
ATOM     25  H   UNL     1      99.975 119.395 127.099  1.00  0.00     0.293 HD
ENDBRANCH   6  24
BRANCH   8  26
ATOM     26  O   UNL     1      98.496 120.136 122.162  1.00  0.00    -0.508 OA
ATOM     27  H   UNL     1      97.687 119.757 121.684  1.00  0.00     0.293 HD
ENDBRANCH   8  26
TORSDOF 6
ENDMDL
MODEL 8
REMARK VINA RESULT:    -6.389      2.994      5.000
REMARK INTER + INTRA:          -8.070
REMARK INTER:                  -7.692
REMARK INTRA:                  -0.378
REMARK UNBOUND:                -0.373
REMARK SMILES O=c1c(O)c(-c2ccc(O)cc2O)oc2cc(O)cc(O)c12
REMARK SMILES IDX 5 1 3 2 2 3 1 4 22 5 20 6 19 7 17 8 16 9 15 10 14 11 6 12
REMARK SMILES IDX 8 13 7 14 9 15 11 16 12 17 10 18 13 20 4 22 21 24 18 26
REMARK H PARENT 10 19 13 21 4 23 21 25 18 27
REMARK Flexibility Score: inf
ROOT
ATOM      1  C   UNL     1     101.481 115.265 122.412  1.00  0.00     0.184 A 
ATOM      2  C   UNL     1     100.779 115.842 121.340  1.00  0.00     0.208 A 
ATOM      3  C   UNL     1     100.162 117.089 121.526  1.00  0.00     0.238 A 
ATOM      4  O   UNL     1      99.533 117.618 120.569  1.00  0.00    -0.285 OA
ATOM      5  C   UNL     1     100.251 117.729 122.778  1.00  0.00     0.111 A 
ATOM      6  C   UNL     1      99.655 118.984 123.050  1.00  0.00     0.134 A 
ATOM      7  C   UNL     1      99.786 119.555 124.325  1.00  0.00     0.093 A 
ATOM      8  C   UNL     1     100.498 118.897 125.331  1.00  0.00     0.123 A 
ATOM      9  C   UNL     1     101.089 117.656 125.068  1.00  0.00     0.094 A 
ATOM     10  C   UNL     1     100.971 117.072 123.805  1.00  0.00     0.146 A 
ATOM     11  O   UNL     1     101.544 115.894 123.582  1.00  0.00    -0.451 OA
ENDROOT
BRANCH   1  12
ATOM     12  C   UNL     1     102.167 113.963 122.271  1.00  0.00     0.063 A 
ATOM     13  C   UNL     1     103.982 112.656 121.312  1.00  0.00     0.047 A 
ATOM     14  C   UNL     1     103.283 113.860 121.422  1.00  0.00     0.020 A 
ATOM     15  C   UNL     1     103.582 111.540 122.055  1.00  0.00     0.119 A 
ATOM     16  C   UNL     1     102.476 111.632 122.903  1.00  0.00     0.093 A 
ATOM     17  C   UNL     1     101.759 112.830 123.014  1.00  0.00     0.130 A 
BRANCH  15  18
ATOM     18  O   UNL     1     104.276 110.336 121.956  1.00  0.00    -0.508 OA
ATOM     19  H   UNL     1     104.004 109.523 122.497  1.00  0.00     0.293 HD
ENDBRANCH  15  18
BRANCH  17  20
ATOM     20  O   UNL     1     100.640 112.855 123.850  1.00  0.00    -0.507 OA
ATOM     21  H   UNL     1      99.900 112.166 123.804  1.00  0.00     0.293 HD
ENDBRANCH  17  20
ENDBRANCH   1  12
BRANCH   2  22
ATOM     22  O   UNL     1     100.691 115.170 120.117  1.00  0.00    -0.502 OA
ATOM     23  H   UNL     1     101.348 114.449 119.847  1.00  0.00     0.293 HD
ENDBRANCH   2  22
BRANCH   6  24
ATOM     24  O   UNL     1      98.937 119.666 122.067  1.00  0.00    -0.507 OA
ATOM     25  H   UNL     1      98.926 120.679 122.022  1.00  0.00     0.293 HD
ENDBRANCH   6  24
BRANCH   8  26
ATOM     26  O   UNL     1     100.612 119.486 126.588  1.00  0.00    -0.508 OA
ATOM     27  H   UNL     1     100.256 120.417 126.772  1.00  0.00     0.293 HD
ENDBRANCH   8  26
TORSDOF 6
ENDMDL
MODEL 9
REMARK VINA RESULT:    -4.862      1.338      2.832
REMARK INTER + INTRA:          -6.230
REMARK INTER:                  -5.812
REMARK INTRA:                  -0.417
REMARK UNBOUND:                -0.373
REMARK SMILES O=c1c(O)c(-c2ccc(O)cc2O)oc2cc(O)cc(O)c12
REMARK SMILES IDX 5 1 3 2 2 3 1 4 22 5 20 6 19 7 17 8 16 9 15 10 14 11 6 12
REMARK SMILES IDX 8 13 7 14 9 15 11 16 12 17 10 18 13 20 4 22 21 24 18 26
REMARK H PARENT 10 19 13 21 4 23 21 25 18 27
REMARK Flexibility Score: inf
ROOT
ATOM      1  C   UNL     1     101.248 117.130 121.446  1.00  0.00     0.184 A 
ATOM      2  C   UNL     1     101.666 116.033 122.219  1.00  0.00     0.208 A 
ATOM      3  C   UNL     1     101.712 116.166 123.616  1.00  0.00     0.238 A 
ATOM      4  O   UNL     1     102.082 115.187 124.320  1.00  0.00    -0.285 OA
ATOM      5  C   UNL     1     101.348 117.391 124.210  1.00  0.00     0.111 A 
ATOM      6  C   UNL     1     101.370 117.609 125.609  1.00  0.00     0.134 A 
ATOM      7  C   UNL     1     100.996 118.859 126.124  1.00  0.00     0.093 A 
ATOM      8  C   UNL     1     100.603 119.893 125.272  1.00  0.00     0.123 A 
ATOM      9  C   UNL     1     100.579 119.684 123.888  1.00  0.00     0.094 A 
ATOM     10  C   UNL     1     100.946 118.446 123.355  1.00  0.00     0.146 A 
ATOM     11  O   UNL     1     100.913 118.273 122.038  1.00  0.00    -0.451 OA
ENDROOT
BRANCH   1  12
ATOM     12  C   UNL     1     101.161 117.044 119.973  1.00  0.00     0.063 A 
ATOM     13  C   UNL     1      99.825 116.615 117.984  1.00  0.00     0.047 A 
ATOM     14  C   UNL     1      99.950 116.651 119.375  1.00  0.00     0.020 A 
ATOM     15  C   UNL     1     100.904 116.979 117.171  1.00  0.00     0.119 A 
ATOM     16  C   UNL     1     102.111 117.373 117.755  1.00  0.00     0.093 A 
ATOM     17  C   UNL     1     102.253 117.404 119.148  1.00  0.00     0.130 A 
BRANCH  15  18
ATOM     18  O   UNL     1     100.788 116.950 115.783  1.00  0.00    -0.508 OA
ATOM     19  H   UNL     1     100.685 116.078 115.279  1.00  0.00     0.293 HD
ENDBRANCH  15  18
BRANCH  17  20
ATOM     20  O   UNL     1     103.492 117.772 119.677  1.00  0.00    -0.507 OA
ATOM     21  H   UNL     1     104.373 117.537 119.237  1.00  0.00     0.293 HD
ENDBRANCH  17  20
ENDBRANCH   1  12
BRANCH   2  22
ATOM     22  O   UNL     1     102.042 114.840 121.597  1.00  0.00    -0.502 OA
ATOM     23  H   UNL     1     101.407 114.309 121.015  1.00  0.00     0.293 HD
ENDBRANCH   2  22
BRANCH   6  24
ATOM     24  O   UNL     1     101.759 116.597 126.488  1.00  0.00    -0.507 OA
ATOM     25  H   UNL     1     101.121 115.860 126.767  1.00  0.00     0.293 HD
ENDBRANCH   6  24
BRANCH   8  26
ATOM     26  O   UNL     1     100.237 121.125 125.809  1.00  0.00    -0.508 OA
ATOM     27  H   UNL     1     100.929 121.775 126.163  1.00  0.00     0.293 HD
ENDBRANCH   8  26
TORSDOF 6
ENDMDL
