MODEL 1
REMARK VINA RESULT:    -3.591      0.000      0.000
REMARK INTER + INTRA:          -4.164
REMARK INTER:                  -4.116
REMARK INTRA:                  -0.048
REMARK UNBOUND:                -0.048
REMARK SMILES CC(C)[C@H]([NH3+])C(=O)[O-]
REMARK SMILES IDX 4 1 5 2 6 6 7 7 8 8 2 9 1 10 3 11
REMARK H PARENT 5 3 5 4 5 5
REMARK Flexibility Score: inf
ROOT
ATOM      1  C   UNL     1      33.918  36.336  14.434  1.00  0.00     0.230 C 
ENDROOT
BRANCH   1   2
ATOM      2  N   UNL     1      34.213  37.111  15.649  1.00  0.00    -0.350 N 
ATOM      3  H   UNL     1      34.782  36.527  16.305  1.00  0.00     0.345 HD
ATOM      4  H   UNL     1      33.330  37.369  16.143  1.00  0.00     0.345 HD
ATOM      5  H   UNL     1      34.753  37.979  15.428  1.00  0.00     0.345 HD
ENDBRANCH   1   2
BRANCH   1   6
ATOM      6  C   UNL     1      34.015  34.854  14.702  1.00  0.00     0.099 C 
ATOM      7  O   UNL     1      35.057  34.354  15.204  1.00  0.00    -0.544 OA
ATOM      8  O   UNL     1      32.962  34.020  14.347  1.00  0.00    -0.544 OA
ENDBRANCH   1   6
BRANCH   1   9
ATOM      9  C   UNL     1      34.809  36.740  13.221  1.00  0.00     0.047 C 
ATOM     10  C   UNL     1      36.113  37.449  13.622  1.00  0.00     0.014 C 
ATOM     11  C   UNL     1      34.036  37.593  12.202  1.00  0.00     0.014 C 
ENDBRANCH   1   9
TORSDOF 3
ENDMDL
MODEL 2
REMARK VINA RESULT:    -3.565      1.328      1.510
REMARK INTER + INTRA:          -4.134
REMARK INTER:                  -4.070
REMARK INTRA:                  -0.064
REMARK UNBOUND:                -0.048
REMARK SMILES CC(C)[C@H]([NH3+])C(=O)[O-]
REMARK SMILES IDX 4 1 5 2 6 6 7 7 8 8 2 9 1 10 3 11
REMARK H PARENT 5 3 5 4 5 5
REMARK Flexibility Score: inf
ROOT
ATOM      1  C   UNL     1      34.283  36.085  14.469  1.00  0.00     0.230 C 
ENDROOT
BRANCH   1   2
ATOM      2  N   UNL     1      33.446  37.047  15.205  1.00  0.00    -0.350 N 
ATOM      3  H   UNL     1      33.030  37.731  14.531  1.00  0.00     0.345 HD
ATOM      4  H   UNL     1      34.022  37.587  15.887  1.00  0.00     0.345 HD
ATOM      5  H   UNL     1      32.667  36.568  15.711  1.00  0.00     0.345 HD
ENDBRANCH   1   2
BRANCH   1   6
ATOM      6  C   UNL     1      35.312  35.460  15.378  1.00  0.00     0.099 C 
ATOM      7  O   UNL     1      35.513  35.913  16.537  1.00  0.00    -0.544 OA
ATOM      8  O   UNL     1      36.086  34.402  14.917  1.00  0.00    -0.544 OA
ENDBRANCH   1   6
BRANCH   1   9
ATOM      9  C   UNL     1      34.957  36.703  13.207  1.00  0.00     0.047 C 
ATOM     10  C   UNL     1      36.136  37.635  13.531  1.00  0.00     0.014 C 
ATOM     11  C   UNL     1      33.939  37.429  12.313  1.00  0.00     0.014 C 
ENDBRANCH   1   9
TORSDOF 3
ENDMDL
MODEL 3
REMARK VINA RESULT:    -3.476      2.364      3.377
REMARK INTER + INTRA:          -4.032
REMARK INTER:                  -3.985
REMARK INTRA:                  -0.047
REMARK UNBOUND:                -0.048
REMARK SMILES CC(C)[C@H]([NH3+])C(=O)[O-]
REMARK SMILES IDX 4 1 5 2 6 6 7 7 8 8 2 9 1 10 3 11
REMARK H PARENT 5 3 5 4 5 5
REMARK Flexibility Score: inf
ROOT
ATOM      1  C   UNL     1      34.861  36.609  14.645  1.00  0.00     0.230 C 
ENDROOT
BRANCH   1   2
ATOM      2  N   UNL     1      33.571  36.991  15.243  1.00  0.00    -0.350 N 
ATOM      3  H   UNL     1      33.432  38.023  15.139  1.00  0.00     0.345 HD
ATOM      4  H   UNL     1      33.563  36.773  16.264  1.00  0.00     0.345 HD
ATOM      5  H   UNL     1      32.774  36.501  14.777  1.00  0.00     0.345 HD
ENDBRANCH   1   2
BRANCH   1   6
ATOM      6  C   UNL     1      35.147  37.427  13.410  1.00  0.00     0.099 C 
ATOM      7  O   UNL     1      36.224  38.071  13.294  1.00  0.00    -0.544 OA
ATOM      8  O   UNL     1      34.191  37.514  12.405  1.00  0.00    -0.544 OA
ENDBRANCH   1   6
BRANCH   1   9
ATOM      9  C   UNL     1      34.963  35.085  14.337  1.00  0.00     0.047 C 
ATOM     10  C   UNL     1      33.634  34.331  14.505  1.00  0.00     0.014 C 
ATOM     11  C   UNL     1      36.065  34.406  15.168  1.00  0.00     0.014 C 
ENDBRANCH   1   9
TORSDOF 3
ENDMDL
MODEL 4
REMARK VINA RESULT:    -3.437     17.946     19.278
REMARK INTER + INTRA:          -3.987
REMARK INTER:                  -4.015
REMARK INTRA:                   0.028
REMARK UNBOUND:                -0.048
REMARK SMILES CC(C)[C@H]([NH3+])C(=O)[O-]
REMARK SMILES IDX 4 1 5 2 6 6 7 7 8 8 2 9 1 10 3 11
REMARK H PARENT 5 3 5 4 5 5
REMARK Flexibility Score: inf
ROOT
ATOM      1  C   UNL     1      31.298  25.881  29.613  1.00  0.00     0.230 C 
ENDROOT
BRANCH   1   2
ATOM      2  N   UNL     1      31.254  25.219  28.299  1.00  0.00    -0.350 N 
ATOM      3  H   UNL     1      30.443  24.557  28.271  1.00  0.00     0.345 HD
ATOM      4  H   UNL     1      32.121  24.660  28.141  1.00  0.00     0.345 HD
ATOM      5  H   UNL     1      31.141  25.912  27.525  1.00  0.00     0.345 HD
ENDBRANCH   1   2
BRANCH   1   6
ATOM      6  C   UNL     1      32.281  27.025  29.609  1.00  0.00     0.099 C 
ATOM      7  O   UNL     1      32.137  28.006  30.387  1.00  0.00    -0.544 OA
ATOM      8  O   UNL     1      33.334  27.025  28.702  1.00  0.00    -0.544 OA
ENDBRANCH   1   6
BRANCH   1   9
ATOM      9  C   UNL     1      31.599  24.895  30.783  1.00  0.00     0.047 C 
ATOM     10  C   UNL     1      30.959  25.309  32.118  1.00  0.00     0.014 C 
ATOM     11  C   UNL     1      33.108  24.669  30.968  1.00  0.00     0.014 C 
ENDBRANCH   1   9
TORSDOF 3
ENDMDL
MODEL 5
REMARK VINA RESULT:    -3.427     10.468     11.127
REMARK INTER + INTRA:          -3.975
REMARK INTER:                  -3.939
REMARK INTRA:                  -0.036
REMARK UNBOUND:                -0.048
REMARK SMILES CC(C)[C@H]([NH3+])C(=O)[O-]
REMARK SMILES IDX 4 1 5 2 6 6 7 7 8 8 2 9 1 10 3 11
REMARK H PARENT 5 3 5 4 5 5
REMARK Flexibility Score: inf
ROOT
ATOM      1  C   UNL     1      30.677  34.959  23.738  1.00  0.00     0.230 C 
ENDROOT
BRANCH   1   2
ATOM      2  N   UNL     1      30.229  36.331  23.447  1.00  0.00    -0.350 N 
ATOM      3  H   UNL     1      30.887  37.013  23.891  1.00  0.00     0.345 HD
ATOM      4  H   UNL     1      29.281  36.500  23.849  1.00  0.00     0.345 HD
ATOM      5  H   UNL     1      30.208  36.516  22.418  1.00  0.00     0.345 HD
ENDBRANCH   1   2
BRANCH   1   6
ATOM      6  C   UNL     1      29.542  33.977  23.587  1.00  0.00     0.099 C 
ATOM      7  O   UNL     1      29.763  32.775  23.279  1.00  0.00    -0.544 OA
ATOM      8  O   UNL     1      28.231  34.410  23.742  1.00  0.00    -0.544 OA
ENDBRANCH   1   6
BRANCH   1   9
ATOM      9  C   UNL     1      31.350  34.821  25.137  1.00  0.00     0.047 C 
ATOM     10  C   UNL     1      31.765  36.165  25.757  1.00  0.00     0.014 C 
ATOM     11  C   UNL     1      32.549  33.861  25.103  1.00  0.00     0.014 C 
ENDBRANCH   1   9
TORSDOF 3
ENDMDL
MODEL 6
REMARK VINA RESULT:    -3.372     18.061     19.047
REMARK INTER + INTRA:          -3.912
REMARK INTER:                  -3.878
REMARK INTRA:                  -0.034
REMARK UNBOUND:                -0.048
REMARK SMILES CC(C)[C@H]([NH3+])C(=O)[O-]
REMARK SMILES IDX 4 1 5 2 6 6 7 7 8 8 2 9 1 10 3 11
REMARK H PARENT 5 3 5 4 5 5
REMARK Flexibility Score: inf
ROOT
ATOM      1  C   UNL     1      32.437  25.282  29.391  1.00  0.00     0.230 C 
ENDROOT
BRANCH   1   2
ATOM      2  N   UNL     1      31.096  25.371  28.790  1.00  0.00    -0.350 N 
ATOM      3  H   UNL     1      30.486  24.619  29.189  1.00  0.00     0.345 HD
ATOM      4  H   UNL     1      31.146  25.220  27.758  1.00  0.00     0.345 HD
ATOM      5  H   UNL     1      30.650  26.296  28.985  1.00  0.00     0.345 HD
ENDBRANCH   1   2
BRANCH   1   6
ATOM      6  C   UNL     1      32.392  24.545  30.706  1.00  0.00     0.099 C 
ATOM      7  O   UNL     1      33.252  23.668  30.987  1.00  0.00    -0.544 OA
ATOM      8  O   UNL     1      31.361  24.799  31.603  1.00  0.00    -0.544 OA
ENDBRANCH   1   6
BRANCH   1   9
ATOM      9  C   UNL     1      33.125  26.671  29.555  1.00  0.00     0.047 C 
ATOM     10  C   UNL     1      32.164  27.787  29.997  1.00  0.00     0.014 C 
ATOM     11  C   UNL     1      33.874  27.092  28.281  1.00  0.00     0.014 C 
ENDBRANCH   1   9
TORSDOF 3
ENDMDL
MODEL 7
REMARK VINA RESULT:    -3.336      1.741      2.147
REMARK INTER + INTRA:          -3.872
REMARK INTER:                  -3.867
REMARK INTRA:                  -0.005
REMARK UNBOUND:                -0.048
REMARK SMILES CC(C)[C@H]([NH3+])C(=O)[O-]
REMARK SMILES IDX 4 1 5 2 6 6 7 7 8 8 2 9 1 10 3 11
REMARK H PARENT 5 3 5 4 5 5
REMARK Flexibility Score: inf
ROOT
ATOM      1  C   UNL     1      34.054  35.182  13.010  1.00  0.00     0.230 C 
ENDROOT
BRANCH   1   2
ATOM      2  N   UNL     1      33.045  35.047  11.948  1.00  0.00    -0.350 N 
ATOM      3  H   UNL     1      32.089  35.042  12.375  1.00  0.00     0.345 HD
ATOM      4  H   UNL     1      33.166  34.144  11.438  1.00  0.00     0.345 HD
ATOM      5  H   UNL     1      33.097  35.839  11.267  1.00  0.00     0.345 HD
ENDBRANCH   1   2
BRANCH   1   6
ATOM      6  C   UNL     1      33.629  34.446  14.256  1.00  0.00     0.099 C 
ATOM      7  O   UNL     1      34.382  34.391  15.265  1.00  0.00    -0.544 OA
ATOM      8  O   UNL     1      32.410  33.779  14.280  1.00  0.00    -0.544 OA
ENDBRANCH   1   6
BRANCH   1   9
ATOM      9  C   UNL     1      34.406  36.665  13.333  1.00  0.00     0.047 C 
ATOM     10  C   UNL     1      33.861  37.667  12.303  1.00  0.00     0.014 C 
ATOM     11  C   UNL     1      35.919  36.868  13.517  1.00  0.00     0.014 C 
ENDBRANCH   1   9
TORSDOF 3
ENDMDL
MODEL 8
REMARK VINA RESULT:    -3.285     17.930     18.809
REMARK INTER + INTRA:          -3.813
REMARK INTER:                  -3.750
REMARK INTRA:                  -0.063
REMARK UNBOUND:                -0.048
REMARK SMILES CC(C)[C@H]([NH3+])C(=O)[O-]
REMARK SMILES IDX 4 1 5 2 6 6 7 7 8 8 2 9 1 10 3 11
REMARK H PARENT 5 3 5 4 5 5
REMARK Flexibility Score: inf
ROOT
ATOM      1  C   UNL     1      32.344  27.081  30.812  1.00  0.00     0.230 C 
ENDROOT
BRANCH   1   2
ATOM      2  N   UNL     1      31.176  26.904  31.690  1.00  0.00    -0.350 N 
ATOM      3  H   UNL     1      31.102  27.722  32.340  1.00  0.00     0.345 HD
ATOM      4  H   UNL     1      31.285  26.047  32.276  1.00  0.00     0.345 HD
ATOM      5  H   UNL     1      30.290  26.839  31.140  1.00  0.00     0.345 HD
ENDBRANCH   1   2
BRANCH   1   6
ATOM      6  C   UNL     1      32.280  28.404  30.089  1.00  0.00     0.099 C 
ATOM      7  O   UNL     1      31.389  29.251  30.366  1.00  0.00    -0.544 OA
ATOM      8  O   UNL     1      33.184  28.676  29.070  1.00  0.00    -0.544 OA
ENDBRANCH   1   6
BRANCH   1   9
ATOM      9  C   UNL     1      32.534  25.907  29.806  1.00  0.00     0.047 C 
ATOM     10  C   UNL     1      31.221  25.419  29.171  1.00  0.00     0.014 C 
ATOM     11  C   UNL     1      33.285  24.725  30.441  1.00  0.00     0.014 C 
ENDBRANCH   1   9
TORSDOF 3
ENDMDL
MODEL 9
REMARK VINA RESULT:    -3.235      2.099      3.058
REMARK INTER + INTRA:          -3.755
REMARK INTER:                  -3.708
REMARK INTRA:                  -0.047
REMARK UNBOUND:                -0.048
REMARK SMILES CC(C)[C@H]([NH3+])C(=O)[O-]
REMARK SMILES IDX 4 1 5 2 6 6 7 7 8 8 2 9 1 10 3 11
REMARK H PARENT 5 3 5 4 5 5
REMARK Flexibility Score: inf
ROOT
ATOM      1  C   UNL     1      34.267  35.683  14.353  1.00  0.00     0.230 C 
ENDROOT
BRANCH   1   2
ATOM      2  N   UNL     1      33.626  36.930  13.904  1.00  0.00    -0.350 N 
ATOM      3  H   UNL     1      34.359  37.590  13.553  1.00  0.00     0.345 HD
ATOM      4  H   UNL     1      33.136  37.397  14.699  1.00  0.00     0.345 HD
ATOM      5  H   UNL     1      32.944  36.754  13.132  1.00  0.00     0.345 HD
ENDBRANCH   1   2
BRANCH   1   6
ATOM      6  C   UNL     1      35.767  35.829  14.390  1.00  0.00     0.099 C 
ATOM      7  O   UNL     1      36.489  34.959  14.947  1.00  0.00    -0.544 OA
ATOM      8  O   UNL     1      36.363  36.961  13.848  1.00  0.00    -0.544 OA
ENDBRANCH   1   6
BRANCH   1   9
ATOM      9  C   UNL     1      33.850  34.444  13.504  1.00  0.00     0.047 C 
ATOM     10  C   UNL     1      33.492  34.785  12.048  1.00  0.00     0.014 C 
ATOM     11  C   UNL     1      32.702  33.660  14.160  1.00  0.00     0.014 C 
ENDBRANCH   1   9
TORSDOF 3
ENDMDL
