MODEL 1
REMARK VINA RESULT:    -3.747      0.000      0.000
REMARK INTER + INTRA:          -4.968
REMARK INTER:                  -4.842
REMARK INTRA:                  -0.126
REMARK UNBOUND:                -0.126
REMARK SMILES CCCCCCC(=O)[O-]
REMARK SMILES IDX 5 1 6 2 7 3 8 4 9 5 4 6 3 7 2 8 1 9
REMARK H PARENT
REMARK Flexibility Score: inf
ROOT
ATOM      1  C   UNL     1     -15.353  -4.614 -31.483  1.00  0.00     0.006 C 
ENDROOT
BRANCH   1   2
ATOM      2  C   UNL     1     -15.716  -6.104 -31.426  1.00  0.00     0.053 C 
BRANCH   2   3
ATOM      3  C   UNL     1     -14.698  -6.896 -30.664  1.00  0.00     0.041 C 
ATOM      4  O   UNL     1     -14.802  -8.147 -30.578  1.00  0.00    -0.550 OA
ATOM      5  O   UNL     1     -13.652  -6.247 -30.020  1.00  0.00    -0.550 OA
ENDBRANCH   2   3
ENDBRANCH   1   2
BRANCH   1   6
ATOM      6  C   UNL     1     -15.795  -3.959 -32.802  1.00  0.00     0.000 C 
BRANCH   6   7
ATOM      7  C   UNL     1     -14.650  -3.210 -33.504  1.00  0.00    -0.000 C 
BRANCH   7   8
ATOM      8  C   UNL     1     -15.112  -1.891 -34.140  1.00  0.00    -0.003 C 
ATOM      9  C   UNL     1     -15.364  -0.827 -33.075  1.00  0.00     0.004 C 
ENDBRANCH   7   8
ENDBRANCH   6   7
ENDBRANCH   1   6
TORSDOF 5
ENDMDL
MODEL 2
REMARK VINA RESULT:    -3.654      1.473      1.812
REMARK INTER + INTRA:          -4.848
REMARK INTER:                  -4.669
REMARK INTRA:                  -0.179
REMARK UNBOUND:                -0.126
REMARK SMILES CCCCCCC(=O)[O-]
REMARK SMILES IDX 5 1 6 2 7 3 8 4 9 5 4 6 3 7 2 8 1 9
REMARK H PARENT
REMARK Flexibility Score: inf
ROOT
ATOM      1  C   UNL     1     -13.195  -4.784 -31.485  1.00  0.00     0.006 C 
ENDROOT
BRANCH   1   2
ATOM      2  C   UNL     1     -14.140  -5.396 -30.442  1.00  0.00     0.053 C 
BRANCH   2   3
ATOM      3  C   UNL     1     -15.008  -6.462 -31.037  1.00  0.00     0.041 C 
ATOM      4  O   UNL     1     -15.956  -6.152 -31.804  1.00  0.00    -0.550 OA
ATOM      5  O   UNL     1     -14.790  -7.796 -30.717  1.00  0.00    -0.550 OA
ENDBRANCH   2   3
ENDBRANCH   1   2
BRANCH   1   6
ATOM      6  C   UNL     1     -13.655  -3.387 -31.936  1.00  0.00     0.000 C 
BRANCH   6   7
ATOM      7  C   UNL     1     -14.390  -3.413 -33.286  1.00  0.00    -0.000 C 
BRANCH   7   8
ATOM      8  C   UNL     1     -15.396  -2.261 -33.432  1.00  0.00    -0.003 C 
ATOM      9  C   UNL     1     -15.089  -1.418 -34.666  1.00  0.00     0.004 C 
ENDBRANCH   7   8
ENDBRANCH   6   7
ENDBRANCH   1   6
TORSDOF 5
ENDMDL
MODEL 3
REMARK VINA RESULT:    -3.611      3.443      5.433
REMARK INTER + INTRA:          -4.792
REMARK INTER:                  -4.671
REMARK INTRA:                  -0.121
REMARK UNBOUND:                -0.126
REMARK SMILES CCCCCCC(=O)[O-]
REMARK SMILES IDX 5 1 6 2 7 3 8 4 9 5 4 6 3 7 2 8 1 9
REMARK H PARENT
REMARK Flexibility Score: inf
ROOT
ATOM      1  C   UNL     1     -15.744  -4.023 -32.932  1.00  0.00     0.006 C 
ENDROOT
BRANCH   1   2
ATOM      2  C   UNL     1     -14.664  -2.932 -32.957  1.00  0.00     0.053 C 
BRANCH   2   3
ATOM      3  C   UNL     1     -15.176  -1.659 -33.555  1.00  0.00     0.041 C 
ATOM      4  O   UNL     1     -15.333  -1.561 -34.800  1.00  0.00    -0.550 OA
ATOM      5  O   UNL     1     -15.446  -0.566 -32.741  1.00  0.00    -0.550 OA
ENDBRANCH   2   3
ENDBRANCH   1   2
BRANCH   1   6
ATOM      6  C   UNL     1     -15.967  -4.586 -31.518  1.00  0.00     0.000 C 
BRANCH   6   7
ATOM      7  C   UNL     1     -15.763  -6.108 -31.448  1.00  0.00    -0.000 C 
BRANCH   7   8
ATOM      8  C   UNL     1     -14.504  -6.498 -30.659  1.00  0.00    -0.003 C 
ATOM      9  C   UNL     1     -14.478  -7.997 -30.374  1.00  0.00     0.004 C 
ENDBRANCH   7   8
ENDBRANCH   6   7
ENDBRANCH   1   6
TORSDOF 5
ENDMDL
MODEL 4
REMARK VINA RESULT:    -3.584      2.445      4.978
REMARK INTER + INTRA:          -4.757
REMARK INTER:                  -4.586
REMARK INTRA:                  -0.171
REMARK UNBOUND:                -0.126
REMARK SMILES CCCCCCC(=O)[O-]
REMARK SMILES IDX 5 1 6 2 7 3 8 4 9 5 4 6 3 7 2 8 1 9
REMARK H PARENT
REMARK Flexibility Score: inf
ROOT
ATOM      1  C   UNL     1     -16.041  -5.694 -31.885  1.00  0.00     0.006 C 
ENDROOT
BRANCH   1   2
ATOM      2  C   UNL     1     -16.125  -4.164 -31.979  1.00  0.00     0.053 C 
BRANCH   2   3
ATOM      3  C   UNL     1     -15.128  -3.612 -32.950  1.00  0.00     0.041 C 
ATOM      4  O   UNL     1     -15.418  -2.612 -33.657  1.00  0.00    -0.550 OA
ATOM      5  O   UNL     1     -13.889  -4.223 -33.099  1.00  0.00    -0.550 OA
ENDBRANCH   2   3
ENDBRANCH   1   2
BRANCH   1   6
ATOM      6  C   UNL     1     -15.380  -6.159 -30.576  1.00  0.00     0.000 C 
BRANCH   6   7
ATOM      7  C   UNL     1     -14.971  -7.641 -30.614  1.00  0.00    -0.000 C 
BRANCH   7   8
ATOM      8  C   UNL     1     -13.672  -7.913 -29.841  1.00  0.00    -0.003 C 
ATOM      9  C   UNL     1     -12.911  -6.617 -29.573  1.00  0.00     0.004 C 
ENDBRANCH   7   8
ENDBRANCH   6   7
ENDBRANCH   1   6
TORSDOF 5
ENDMDL
MODEL 5
REMARK VINA RESULT:    -3.571     25.802     26.874
REMARK INTER + INTRA:          -4.740
REMARK INTER:                  -4.361
REMARK INTRA:                  -0.380
REMARK UNBOUND:                -0.126
REMARK SMILES CCCCCCC(=O)[O-]
REMARK SMILES IDX 5 1 6 2 7 3 8 4 9 5 4 6 3 7 2 8 1 9
REMARK H PARENT
REMARK Flexibility Score: inf
ROOT
ATOM      1  C   UNL     1       1.318   9.962 -15.907  1.00  0.00     0.006 C 
ENDROOT
BRANCH   1   2
ATOM      2  C   UNL     1       2.672  10.499 -16.391  1.00  0.00     0.053 C 
BRANCH   2   3
ATOM      3  C   UNL     1       2.922  10.161 -17.828  1.00  0.00     0.041 C 
ATOM      4  O   UNL     1       4.097   9.977 -18.241  1.00  0.00    -0.550 OA
ATOM      5  O   UNL     1       1.860  10.082 -18.720  1.00  0.00    -0.550 OA
ENDBRANCH   2   3
ENDBRANCH   1   2
BRANCH   1   6
ATOM      6  C   UNL     1       1.476   8.811 -14.899  1.00  0.00     0.000 C 
BRANCH   6   7
ATOM      7  C   UNL     1       1.688   7.450 -15.583  1.00  0.00    -0.000 C 
BRANCH   7   8
ATOM      8  C   UNL     1       0.791   7.265 -16.817  1.00  0.00    -0.003 C 
ATOM      9  C   UNL     1       1.497   6.439 -17.889  1.00  0.00     0.004 C 
ENDBRANCH   7   8
ENDBRANCH   6   7
ENDBRANCH   1   6
TORSDOF 5
ENDMDL
MODEL 6
REMARK VINA RESULT:    -3.549      2.662      5.487
REMARK INTER + INTRA:          -4.712
REMARK INTER:                  -4.482
REMARK INTRA:                  -0.229
REMARK UNBOUND:                -0.126
REMARK SMILES CCCCCCC(=O)[O-]
REMARK SMILES IDX 5 1 6 2 7 3 8 4 9 5 4 6 3 7 2 8 1 9
REMARK H PARENT
REMARK Flexibility Score: inf
ROOT
ATOM      1  C   UNL     1     -15.362  -6.898 -30.991  1.00  0.00     0.006 C 
ENDROOT
BRANCH   1   2
ATOM      2  C   UNL     1     -15.109  -5.398 -30.786  1.00  0.00     0.053 C 
BRANCH   2   3
ATOM      3  C   UNL     1     -14.864  -4.694 -32.085  1.00  0.00     0.041 C 
ATOM      4  O   UNL     1     -13.690  -4.534 -32.509  1.00  0.00    -0.550 OA
ATOM      5  O   UNL     1     -15.932  -4.184 -32.813  1.00  0.00    -0.550 OA
ENDBRANCH   2   3
ENDBRANCH   1   2
BRANCH   1   6
ATOM      6  C   UNL     1     -14.305  -7.767 -30.288  1.00  0.00     0.000 C 
BRANCH   6   7
ATOM      7  C   UNL     1     -13.204  -6.930 -29.616  1.00  0.00    -0.000 C 
BRANCH   7   8
ATOM      8  C   UNL     1     -12.145  -7.800 -28.922  1.00  0.00    -0.003 C 
ATOM      9  C   UNL     1     -12.743  -9.123 -28.454  1.00  0.00     0.004 C 
ENDBRANCH   7   8
ENDBRANCH   6   7
ENDBRANCH   1   6
TORSDOF 5
ENDMDL
MODEL 7
REMARK VINA RESULT:    -3.409     25.856     26.889
REMARK INTER + INTRA:          -4.531
REMARK INTER:                  -4.367
REMARK INTRA:                  -0.163
REMARK UNBOUND:                -0.126
REMARK SMILES CCCCCCC(=O)[O-]
REMARK SMILES IDX 5 1 6 2 7 3 8 4 9 5 4 6 3 7 2 8 1 9
REMARK H PARENT
REMARK Flexibility Score: inf
ROOT
ATOM      1  C   UNL     1       2.655   9.994 -18.224  1.00  0.00     0.006 C 
ENDROOT
BRANCH   1   2
ATOM      2  C   UNL     1       3.978   9.543 -18.858  1.00  0.00     0.053 C 
BRANCH   2   3
ATOM      3  C   UNL     1       3.752   8.755 -20.111  1.00  0.00     0.041 C 
ATOM      4  O   UNL     1       3.255   7.600 -20.054  1.00  0.00    -0.550 OA
ATOM      5  O   UNL     1       4.122   9.283 -21.342  1.00  0.00    -0.550 OA
ENDBRANCH   2   3
ENDBRANCH   1   2
BRANCH   1   6
ATOM      6  C   UNL     1       2.784  10.221 -16.708  1.00  0.00     0.000 C 
BRANCH   6   7
ATOM      7  C   UNL     1       1.427  10.192 -15.987  1.00  0.00    -0.000 C 
BRANCH   7   8
ATOM      8  C   UNL     1       1.373   9.134 -14.875  1.00  0.00    -0.003 C 
ATOM      9  C   UNL     1       1.660   7.741 -15.430  1.00  0.00     0.004 C 
ENDBRANCH   7   8
ENDBRANCH   6   7
ENDBRANCH   1   6
TORSDOF 5
ENDMDL
MODEL 8
REMARK VINA RESULT:    -3.346      1.649      2.386
REMARK INTER + INTRA:          -4.449
REMARK INTER:                  -4.086
REMARK INTRA:                  -0.364
REMARK UNBOUND:                -0.126
REMARK SMILES CCCCCCC(=O)[O-]
REMARK SMILES IDX 5 1 6 2 7 3 8 4 9 5 4 6 3 7 2 8 1 9
REMARK H PARENT
REMARK Flexibility Score: inf
ROOT
ATOM      1  C   UNL     1     -15.258  -6.299 -31.315  1.00  0.00     0.006 C 
ENDROOT
BRANCH   1   2
ATOM      2  C   UNL     1     -14.237  -6.862 -30.317  1.00  0.00     0.053 C 
BRANCH   2   3
ATOM      3  C   UNL     1     -13.150  -5.875 -30.020  1.00  0.00     0.041 C 
ATOM      4  O   UNL     1     -12.763  -5.696 -28.836  1.00  0.00    -0.550 OA
ATOM      5  O   UNL     1     -12.588  -5.127 -31.047  1.00  0.00    -0.550 OA
ENDBRANCH   2   3
ENDBRANCH   1   2
BRANCH   1   6
ATOM      6  C   UNL     1     -16.091  -5.156 -30.710  1.00  0.00     0.000 C 
BRANCH   6   7
ATOM      7  C   UNL     1     -16.124  -3.908 -31.607  1.00  0.00    -0.000 C 
BRANCH   7   8
ATOM      8  C   UNL     1     -15.506  -4.161 -32.991  1.00  0.00    -0.003 C 
ATOM      9  C   UNL     1     -14.710  -2.949 -33.466  1.00  0.00     0.004 C 
ENDBRANCH   7   8
ENDBRANCH   6   7
ENDBRANCH   1   6
TORSDOF 5
ENDMDL
MODEL 9
REMARK VINA RESULT:    -3.319      2.209      2.864
REMARK INTER + INTRA:          -4.415
REMARK INTER:                  -4.093
REMARK INTRA:                  -0.321
REMARK UNBOUND:                -0.126
REMARK SMILES CCCCCCC(=O)[O-]
REMARK SMILES IDX 5 1 6 2 7 3 8 4 9 5 4 6 3 7 2 8 1 9
REMARK H PARENT
REMARK Flexibility Score: inf
ROOT
ATOM      1  C   UNL     1     -14.321  -3.836 -33.465  1.00  0.00     0.006 C 
ENDROOT
BRANCH   1   2
ATOM      2  C   UNL     1     -13.994  -4.608 -32.180  1.00  0.00     0.053 C 
BRANCH   2   3
ATOM      3  C   UNL     1     -12.764  -4.077 -31.511  1.00  0.00     0.041 C 
ATOM      4  O   UNL     1     -12.590  -2.835 -31.397  1.00  0.00    -0.550 OA
ATOM      5  O   UNL     1     -11.792  -4.952 -31.043  1.00  0.00    -0.550 OA
ENDBRANCH   2   3
ENDBRANCH   1   2
BRANCH   1   6
ATOM      6  C   UNL     1     -15.602  -2.995 -33.327  1.00  0.00     0.000 C 
BRANCH   6   7
ATOM      7  C   UNL     1     -15.491  -1.628 -34.021  1.00  0.00    -0.000 C 
BRANCH   7   8
ATOM      8  C   UNL     1     -15.168  -0.493 -33.037  1.00  0.00    -0.003 C 
ATOM      9  C   UNL     1     -15.521  -0.890 -31.607  1.00  0.00     0.004 C 
ENDBRANCH   7   8
ENDBRANCH   6   7
ENDBRANCH   1   6
TORSDOF 5
ENDMDL
