MODEL 1
REMARK VINA RESULT:    -6.150      0.000      0.000
REMARK INTER + INTRA:          -6.150
REMARK INTER:                  -6.150
REMARK INTRA:                   0.000
REMARK UNBOUND:                 0.000
REMARK SMILES C=C1CCC[C@@]2(C)C=C3OC(=O)C(C)=C3C[C@@H]12
REMARK SMILES IDX 14 1 13 2 15 3 16 4 17 5 2 6 1 7 3 8 4 9 5 10 6 11 8 12 9 13
REMARK SMILES IDX 10 14 11 15 12 16 7 17
REMARK H PARENT
REMARK Flexibility Score: inf
ROOT
ATOM      1  C   UNL     1      66.624   7.146  -1.502  1.00  0.00     0.053 C 
ATOM      2  C   UNL     1      65.689   6.031  -1.155  1.00  0.00     0.041 C 
ATOM      3  C   UNL     1      65.769   4.771  -1.573  1.00  0.00     0.005 C 
ATOM      4  C   UNL     1      66.791   4.134  -2.457  1.00  0.00     0.049 C 
ATOM      5  C   UNL     1      66.225   2.808  -3.026  1.00  0.00     0.029 C 
ATOM      6  C   UNL     1      67.313   2.059  -3.774  1.00  0.00    -0.073 C 
ATOM      7  C   UNL     1      67.604   2.383  -5.044  1.00  0.00     0.008 C 
ATOM      8  C   UNL     1      68.051   0.924  -3.106  1.00  0.00     0.031 C 
ATOM      9  C   UNL     1      68.009   1.050  -1.584  1.00  0.00     0.005 C 
ATOM     10  C   UNL     1      66.589   1.208  -1.000  1.00  0.00     0.012 C 
ATOM     11  C   UNL     1      65.539   1.893  -1.938  1.00  0.00    -0.004 C 
ATOM     12  C   UNL     1      64.571   2.696  -1.073  1.00  0.00     0.027 C 
ATOM     13  C   UNL     1      64.738   4.005  -0.903  1.00  0.00     0.131 C 
ATOM     14  O   UNL     1      63.991   4.827  -0.072  1.00  0.00    -0.423 OA
ATOM     15  C   UNL     1      64.569   6.083  -0.210  1.00  0.00     0.339 C 
ATOM     16  O   UNL     1      64.178   7.108   0.406  1.00  0.00    -0.246 OA
ATOM     17  C   UNL     1      64.694   0.809  -2.653  1.00  0.00     0.016 C 
ENDROOT
TORSDOF 0
ENDMDL
MODEL 2
REMARK VINA RESULT:    -5.998      3.695      6.212
REMARK INTER + INTRA:          -5.998
REMARK INTER:                  -5.998
REMARK INTRA:                   0.000
REMARK UNBOUND:                 0.000
REMARK SMILES C=C1CCC[C@@]2(C)C=C3OC(=O)C(C)=C3C[C@@H]12
REMARK SMILES IDX 14 1 13 2 15 3 16 4 17 5 2 6 1 7 3 8 4 9 5 10 6 11 8 12 9 13
REMARK SMILES IDX 10 14 11 15 12 16 7 17
REMARK H PARENT
REMARK Flexibility Score: inf
ROOT
ATOM      1  C   UNL     1      68.445  -1.849  -0.130  1.00  0.00     0.053 C 
ATOM      2  C   UNL     1      68.811  -1.243  -1.448  1.00  0.00     0.041 C 
ATOM      3  C   UNL     1      68.177  -0.253  -2.069  1.00  0.00     0.005 C 
ATOM      4  C   UNL     1      66.976   0.519  -1.629  1.00  0.00     0.049 C 
ATOM      5  C   UNL     1      66.342   1.227  -2.854  1.00  0.00     0.029 C 
ATOM      6  C   UNL     1      65.235   2.161  -2.397  1.00  0.00    -0.073 C 
ATOM      7  C   UNL     1      64.008   1.680  -2.145  1.00  0.00     0.008 C 
ATOM      8  C   UNL     1      65.500   3.641  -2.256  1.00  0.00     0.031 C 
ATOM      9  C   UNL     1      66.986   3.924  -2.036  1.00  0.00     0.005 C 
ATOM     10  C   UNL     1      67.914   3.293  -3.096  1.00  0.00     0.012 C 
ATOM     11  C   UNL     1      67.390   1.978  -3.764  1.00  0.00    -0.004 C 
ATOM     12  C   UNL     1      68.589   1.085  -4.076  1.00  0.00     0.027 C 
ATOM     13  C   UNL     1      68.935   0.100  -3.251  1.00  0.00     0.131 C 
ATOM     14  O   UNL     1      70.050  -0.715  -3.370  1.00  0.00    -0.423 OA
ATOM     15  C   UNL     1      69.994  -1.549  -2.260  1.00  0.00     0.339 C 
ATOM     16  O   UNL     1      70.853  -2.430  -1.998  1.00  0.00    -0.246 OA
ATOM     17  C   UNL     1      66.726   2.313  -5.123  1.00  0.00     0.016 C 
ENDROOT
TORSDOF 0
ENDMDL
MODEL 3
REMARK VINA RESULT:    -5.975      2.767      4.771
REMARK INTER + INTRA:          -5.975
REMARK INTER:                  -5.975
REMARK INTRA:                   0.000
REMARK UNBOUND:                 0.000
REMARK SMILES C=C1CCC[C@@]2(C)C=C3OC(=O)C(C)=C3C[C@@H]12
REMARK SMILES IDX 14 1 13 2 15 3 16 4 17 5 2 6 1 7 3 8 4 9 5 10 6 11 8 12 9 13
REMARK SMILES IDX 10 14 11 15 12 16 7 17
REMARK H PARENT
REMARK Flexibility Score: inf
ROOT
ATOM      1  C   UNL     1      61.219   2.017   1.151  1.00  0.00     0.053 C 
ATOM      2  C   UNL     1      62.119   1.296   0.198  1.00  0.00     0.041 C 
ATOM      3  C   UNL     1      63.087   1.834  -0.539  1.00  0.00     0.005 C 
ATOM      4  C   UNL     1      63.545   3.255  -0.602  1.00  0.00     0.049 C 
ATOM      5  C   UNL     1      64.355   3.477  -1.905  1.00  0.00     0.029 C 
ATOM      6  C   UNL     1      64.982   4.859  -1.895  1.00  0.00    -0.073 C 
ATOM      7  C   UNL     1      64.261   5.930  -2.260  1.00  0.00     0.008 C 
ATOM      8  C   UNL     1      66.432   5.034  -1.507  1.00  0.00     0.031 C 
ATOM      9  C   UNL     1      66.916   3.882  -0.626  1.00  0.00     0.005 C 
ATOM     10  C   UNL     1      66.666   2.481  -1.222  1.00  0.00     0.012 C 
ATOM     11  C   UNL     1      65.434   2.357  -2.179  1.00  0.00    -0.004 C 
ATOM     12  C   UNL     1      64.834   0.962  -2.015  1.00  0.00     0.027 C 
ATOM     13  C   UNL     1      63.783   0.764  -1.224  1.00  0.00     0.131 C 
ATOM     14  O   UNL     1      63.207  -0.460  -0.916  1.00  0.00    -0.423 OA
ATOM     15  C   UNL     1      62.179  -0.151  -0.034  1.00  0.00     0.339 C 
ATOM     16  O   UNL     1      61.424  -1.009   0.493  1.00  0.00    -0.246 OA
ATOM     17  C   UNL     1      65.904   2.463  -3.652  1.00  0.00     0.016 C 
ENDROOT
TORSDOF 0
ENDMDL
MODEL 4
REMARK VINA RESULT:    -5.860      5.739      7.642
REMARK INTER + INTRA:          -5.860
REMARK INTER:                  -5.860
REMARK INTRA:                   0.000
REMARK UNBOUND:                 0.000
REMARK SMILES C=C1CCC[C@@]2(C)C=C3OC(=O)C(C)=C3C[C@@H]12
REMARK SMILES IDX 14 1 13 2 15 3 16 4 17 5 2 6 1 7 3 8 4 9 5 10 6 11 8 12 9 13
REMARK SMILES IDX 10 14 11 15 12 16 7 17
REMARK H PARENT
REMARK Flexibility Score: inf
ROOT
ATOM      1  C   UNL     1      65.518   6.700   2.832  1.00  0.00     0.053 C 
ATOM      2  C   UNL     1      64.436   5.695   2.595  1.00  0.00     0.041 C 
ATOM      3  C   UNL     1      64.008   4.774   3.454  1.00  0.00     0.005 C 
ATOM      4  C   UNL     1      64.458   4.509   4.854  1.00  0.00     0.049 C 
ATOM      5  C   UNL     1      64.015   3.084   5.276  1.00  0.00     0.029 C 
ATOM      6  C   UNL     1      64.300   2.870   6.751  1.00  0.00    -0.073 C 
ATOM      7  C   UNL     1      65.530   2.517   7.157  1.00  0.00     0.008 C 
ATOM      8  C   UNL     1      63.193   3.018   7.768  1.00  0.00     0.031 C 
ATOM      9  C   UNL     1      62.075   3.920   7.248  1.00  0.00     0.005 C 
ATOM     10  C   UNL     1      61.513   3.503   5.872  1.00  0.00     0.012 C 
ATOM     11  C   UNL     1      62.511   2.758   4.926  1.00  0.00    -0.004 C 
ATOM     12  C   UNL     1      62.185   3.141   3.484  1.00  0.00     0.027 C 
ATOM     13  C   UNL     1      62.872   4.096   2.863  1.00  0.00     0.131 C 
ATOM     14  O   UNL     1      62.616   4.601   1.597  1.00  0.00    -0.423 OA
ATOM     15  C   UNL     1      63.570   5.595   1.416  1.00  0.00     0.339 C 
ATOM     16  O   UNL     1      63.655   6.307   0.382  1.00  0.00    -0.246 OA
ATOM     17  C   UNL     1      62.291   1.228   5.035  1.00  0.00     0.016 C 
ENDROOT
TORSDOF 0
ENDMDL
MODEL 5
REMARK VINA RESULT:    -5.843      6.542      9.035
REMARK INTER + INTRA:          -5.843
REMARK INTER:                  -5.843
REMARK INTRA:                   0.000
REMARK UNBOUND:                 0.000
REMARK SMILES C=C1CCC[C@@]2(C)C=C3OC(=O)C(C)=C3C[C@@H]12
REMARK SMILES IDX 14 1 13 2 15 3 16 4 17 5 2 6 1 7 3 8 4 9 5 10 6 11 8 12 9 13
REMARK SMILES IDX 10 14 11 15 12 16 7 17
REMARK H PARENT
REMARK Flexibility Score: inf
ROOT
ATOM      1  C   UNL     1      60.251  -1.766   4.868  1.00  0.00     0.053 C 
ATOM      2  C   UNL     1      60.858  -0.919   3.794  1.00  0.00     0.041 C 
ATOM      3  C   UNL     1      61.365   0.302   3.938  1.00  0.00     0.005 C 
ATOM      4  C   UNL     1      61.486   1.131   5.175  1.00  0.00     0.049 C 
ATOM      5  C   UNL     1      61.703   2.615   4.780  1.00  0.00     0.029 C 
ATOM      6  C   UNL     1      62.012   3.440   6.017  1.00  0.00    -0.073 C 
ATOM      7  C   UNL     1      61.016   3.881   6.801  1.00  0.00     0.008 C 
ATOM      8  C   UNL     1      63.440   3.798   6.353  1.00  0.00     0.031 C 
ATOM      9  C   UNL     1      64.425   2.808   5.732  1.00  0.00     0.005 C 
ATOM     10  C   UNL     1      64.247   2.607   4.212  1.00  0.00     0.012 C 
ATOM     11  C   UNL     1      62.797   2.821   3.662  1.00  0.00    -0.004 C 
ATOM     12  C   UNL     1      62.579   1.861   2.494  1.00  0.00     0.027 C 
ATOM     13  C   UNL     1      61.952   0.702   2.676  1.00  0.00     0.131 C 
ATOM     14  O   UNL     1      61.774  -0.293   1.726  1.00  0.00    -0.423 OA
ATOM     15  C   UNL     1      61.105  -1.306   2.401  1.00  0.00     0.339 C 
ATOM     16  O   UNL     1      60.775  -2.401   1.876  1.00  0.00    -0.246 OA
ATOM     17  C   UNL     1      62.664   4.252   3.085  1.00  0.00     0.016 C 
ENDROOT
TORSDOF 0
ENDMDL
MODEL 6
REMARK VINA RESULT:    -5.822      6.776      8.046
REMARK INTER + INTRA:          -5.822
REMARK INTER:                  -5.822
REMARK INTRA:                   0.000
REMARK UNBOUND:                 0.000
REMARK SMILES C=C1CCC[C@@]2(C)C=C3OC(=O)C(C)=C3C[C@@H]12
REMARK SMILES IDX 14 1 13 2 15 3 16 4 17 5 2 6 1 7 3 8 4 9 5 10 6 11 8 12 9 13
REMARK SMILES IDX 10 14 11 15 12 16 7 17
REMARK H PARENT
REMARK Flexibility Score: inf
ROOT
ATOM      1  C   UNL     1      64.369   2.702   7.998  1.00  0.00     0.053 C 
ATOM      2  C   UNL     1      63.213   2.860   7.062  1.00  0.00     0.041 C 
ATOM      3  C   UNL     1      63.002   2.178   5.939  1.00  0.00     0.005 C 
ATOM      4  C   UNL     1      63.822   1.086   5.333  1.00  0.00     0.049 C 
ATOM      5  C   UNL     1      63.446   0.930   3.837  1.00  0.00     0.029 C 
ATOM      6  C   UNL     1      64.132  -0.292   3.255  1.00  0.00    -0.073 C 
ATOM      7  C   UNL     1      65.406  -0.218   2.840  1.00  0.00     0.008 C 
ATOM      8  C   UNL     1      63.375  -1.591   3.107  1.00  0.00     0.031 C 
ATOM      9  C   UNL     1      62.203  -1.667   4.085  1.00  0.00     0.005 C 
ATOM     10  C   UNL     1      61.247  -0.457   4.024  1.00  0.00     0.012 C 
ATOM     11  C   UNL     1      61.889   0.897   3.575  1.00  0.00    -0.004 C 
ATOM     12  C   UNL     1      61.183   2.033   4.310  1.00  0.00     0.027 C 
ATOM     13  C   UNL     1      61.711   2.563   5.410  1.00  0.00     0.131 C 
ATOM     14  O   UNL     1      61.127   3.527   6.218  1.00  0.00    -0.423 OA
ATOM     15  C   UNL     1      62.039   3.719   7.248  1.00  0.00     0.339 C 
ATOM     16  O   UNL     1      61.860   4.516   8.206  1.00  0.00    -0.246 OA
ATOM     17  C   UNL     1      61.630   1.121   2.064  1.00  0.00     0.016 C 
ENDROOT
TORSDOF 0
ENDMDL
MODEL 7
REMARK VINA RESULT:    -5.744      3.061      5.391
REMARK INTER + INTRA:          -5.744
REMARK INTER:                  -5.744
REMARK INTRA:                   0.000
REMARK UNBOUND:                 0.000
REMARK SMILES C=C1CCC[C@@]2(C)C=C3OC(=O)C(C)=C3C[C@@H]12
REMARK SMILES IDX 14 1 13 2 15 3 16 4 17 5 2 6 1 7 3 8 4 9 5 10 6 11 8 12 9 13
REMARK SMILES IDX 10 14 11 15 12 16 7 17
REMARK H PARENT
REMARK Flexibility Score: inf
ROOT
ATOM      1  C   UNL     1      66.891  -2.777  -0.709  1.00  0.00     0.053 C 
ATOM      2  C   UNL     1      65.828  -1.800  -1.099  1.00  0.00     0.041 C 
ATOM      3  C   UNL     1      66.014  -0.556  -1.532  1.00  0.00     0.005 C 
ATOM      4  C   UNL     1      67.293   0.180  -1.761  1.00  0.00     0.049 C 
ATOM      5  C   UNL     1      67.008   1.703  -1.814  1.00  0.00     0.029 C 
ATOM      6  C   UNL     1      68.263   2.450  -2.230  1.00  0.00    -0.073 C 
ATOM      7  C   UNL     1      69.207   2.743  -1.322  1.00  0.00     0.008 C 
ATOM      8  C   UNL     1      68.440   2.899  -3.661  1.00  0.00     0.031 C 
ATOM      9  C   UNL     1      67.609   2.047  -4.620  1.00  0.00     0.005 C 
ATOM     10  C   UNL     1      66.113   1.953  -4.249  1.00  0.00     0.012 C 
ATOM     11  C   UNL     1      65.779   2.087  -2.726  1.00  0.00    -0.004 C 
ATOM     12  C   UNL     1      64.569   1.208  -2.419  1.00  0.00     0.027 C 
ATOM     13  C   UNL     1      64.726  -0.010  -1.908  1.00  0.00     0.131 C 
ATOM     14  O   UNL     1      63.722  -0.938  -1.674  1.00  0.00    -0.423 OA
ATOM     15  C   UNL     1      64.386  -2.054  -1.179  1.00  0.00     0.339 C 
ATOM     16  O   UNL     1      63.812  -3.128  -0.860  1.00  0.00    -0.246 OA
ATOM     17  C   UNL     1      65.356   3.544  -2.412  1.00  0.00     0.016 C 
ENDROOT
TORSDOF 0
ENDMDL
MODEL 8
REMARK VINA RESULT:    -5.720      5.315      7.481
REMARK INTER + INTRA:          -5.720
REMARK INTER:                  -5.720
REMARK INTRA:                   0.000
REMARK UNBOUND:                 0.000
REMARK SMILES C=C1CCC[C@@]2(C)C=C3OC(=O)C(C)=C3C[C@@H]12
REMARK SMILES IDX 14 1 13 2 15 3 16 4 17 5 2 6 1 7 3 8 4 9 5 10 6 11 8 12 9 13
REMARK SMILES IDX 10 14 11 15 12 16 7 17
REMARK H PARENT
REMARK Flexibility Score: inf
ROOT
ATOM      1  C   UNL     1      63.618   5.720   0.925  1.00  0.00     0.053 C 
ATOM      2  C   UNL     1      63.513   4.254   1.204  1.00  0.00     0.041 C 
ATOM      3  C   UNL     1      63.419   3.679   2.400  1.00  0.00     0.005 C 
ATOM      4  C   UNL     1      63.373   4.316   3.750  1.00  0.00     0.049 C 
ATOM      5  C   UNL     1      63.726   3.261   4.830  1.00  0.00     0.029 C 
ATOM      6  C   UNL     1      63.503   3.842   6.214  1.00  0.00    -0.073 C 
ATOM      7  C   UNL     1      64.443   4.614   6.782  1.00  0.00     0.008 C 
ATOM      8  C   UNL     1      62.238   3.526   6.976  1.00  0.00     0.031 C 
ATOM      9  C   UNL     1      61.100   3.137   6.032  1.00  0.00     0.005 C 
ATOM     10  C   UNL     1      61.454   2.001   5.049  1.00  0.00     0.012 C 
ATOM     11  C   UNL     1      62.963   1.890   4.650  1.00  0.00    -0.004 C 
ATOM     12  C   UNL     1      63.046   1.399   3.207  1.00  0.00     0.027 C 
ATOM     13  C   UNL     1      63.217   2.258   2.205  1.00  0.00     0.131 C 
ATOM     14  O   UNL     1      63.213   1.953   0.852  1.00  0.00    -0.423 OA
ATOM     15  C   UNL     1      63.388   3.176   0.217  1.00  0.00     0.339 C 
ATOM     16  O   UNL     1      63.423   3.321  -1.033  1.00  0.00    -0.246 OA
ATOM     17  C   UNL     1      63.655   0.813   5.522  1.00  0.00     0.016 C 
ENDROOT
TORSDOF 0
ENDMDL
MODEL 9
REMARK VINA RESULT:    -5.568      2.220      4.294
REMARK INTER + INTRA:          -5.568
REMARK INTER:                  -5.568
REMARK INTRA:                   0.000
REMARK UNBOUND:                 0.000
REMARK SMILES C=C1CCC[C@@]2(C)C=C3OC(=O)C(C)=C3C[C@@H]12
REMARK SMILES IDX 14 1 13 2 15 3 16 4 17 5 2 6 1 7 3 8 4 9 5 10 6 11 8 12 9 13
REMARK SMILES IDX 10 14 11 15 12 16 7 17
REMARK H PARENT
REMARK Flexibility Score: inf
ROOT
ATOM      1  C   UNL     1      63.525  -1.387  -1.085  1.00  0.00     0.053 C 
ATOM      2  C   UNL     1      63.678   0.099  -1.160  1.00  0.00     0.041 C 
ATOM      3  C   UNL     1      64.723   0.765  -1.645  1.00  0.00     0.005 C 
ATOM      4  C   UNL     1      65.981   0.232  -2.249  1.00  0.00     0.049 C 
ATOM      5  C   UNL     1      67.067   1.340  -2.236  1.00  0.00     0.029 C 
ATOM      6  C   UNL     1      68.287   0.878  -3.011  1.00  0.00    -0.073 C 
ATOM      7  C   UNL     1      69.202   0.091  -2.422  1.00  0.00     0.008 C 
ATOM      8  C   UNL     1      68.498   1.327  -4.437  1.00  0.00     0.031 C 
ATOM      9  C   UNL     1      67.177   1.717  -5.100  1.00  0.00     0.005 C 
ATOM     10  C   UNL     1      66.352   2.753  -4.307  1.00  0.00     0.012 C 
ATOM     11  C   UNL     1      66.551   2.739  -2.755  1.00  0.00    -0.004 C 
ATOM     12  C   UNL     1      65.226   3.117  -2.096  1.00  0.00     0.027 C 
ATOM     13  C   UNL     1      64.403   2.177  -1.637  1.00  0.00     0.131 C 
ATOM     14  O   UNL     1      63.138   2.382  -1.107  1.00  0.00    -0.423 OA
ATOM     15  C   UNL     1      62.672   1.107  -0.813  1.00  0.00     0.339 C 
ATOM     16  O   UNL     1      61.536   0.869  -0.325  1.00  0.00    -0.246 OA
ATOM     17  C   UNL     1      67.571   3.832  -2.350  1.00  0.00     0.016 C 
ENDROOT
TORSDOF 0
ENDMDL
