MODEL 1
REMARK VINA RESULT:    -3.149      0.000      0.000
REMARK INTER + INTRA:          -3.655
REMARK INTER:                  -3.609
REMARK INTRA:                  -0.046
REMARK UNBOUND:                -0.046
REMARK SMILES CC(C)[C@@H]([NH3+])C(=O)[O-]
REMARK SMILES IDX 4 1 5 2 6 6 7 7 8 8 2 9 1 10 3 11
REMARK H PARENT 5 3 5 4 5 5
REMARK Flexibility Score: inf
ROOT
ATOM      1  C   UNL     1      24.084  43.564  41.091  1.00  0.00     0.230 C 
ENDROOT
BRANCH   1   2
ATOM      2  N   UNL     1      25.313  42.755  41.124  1.00  0.00    -0.350 N 
ATOM      3  H   UNL     1      25.135  41.827  41.573  1.00  0.00     0.345 HD
ATOM      4  H   UNL     1      26.064  43.260  41.647  1.00  0.00     0.345 HD
ATOM      5  H   UNL     1      25.667  42.601  40.151  1.00  0.00     0.345 HD
ENDBRANCH   1   2
BRANCH   1   6
ATOM      6  C   UNL     1      24.410  44.979  41.500  1.00  0.00     0.099 C 
ATOM      7  O   UNL     1      24.938  45.210  42.619  1.00  0.00    -0.544 OA
ATOM      8  O   UNL     1      24.125  46.038  40.645  1.00  0.00    -0.544 OA
ENDBRANCH   1   6
BRANCH   1   9
ATOM      9  C   UNL     1      23.408  43.536  39.687  1.00  0.00     0.047 C 
ATOM     10  C   UNL     1      23.886  42.342  38.844  1.00  0.00     0.014 C 
ATOM     11  C   UNL     1      21.875  43.486  39.807  1.00  0.00     0.014 C 
ENDBRANCH   1   9
TORSDOF 3
ENDMDL
MODEL 2
REMARK VINA RESULT:    -3.083      2.212      3.237
REMARK INTER + INTRA:          -3.579
REMARK INTER:                  -3.520
REMARK INTRA:                  -0.059
REMARK UNBOUND:                -0.046
REMARK SMILES CC(C)[C@@H]([NH3+])C(=O)[O-]
REMARK SMILES IDX 4 1 5 2 6 6 7 7 8 8 2 9 1 10 3 11
REMARK H PARENT 5 3 5 4 5 5
REMARK Flexibility Score: inf
ROOT
ATOM      1  C   UNL     1      24.223  43.582  40.100  1.00  0.00     0.230 C 
ENDROOT
BRANCH   1   2
ATOM      2  N   UNL     1      25.075  42.465  40.537  1.00  0.00    -0.350 N 
ATOM      3  H   UNL     1      26.015  42.514  40.078  1.00  0.00     0.345 HD
ATOM      4  H   UNL     1      24.619  41.552  40.308  1.00  0.00     0.345 HD
ATOM      5  H   UNL     1      25.201  42.494  41.575  1.00  0.00     0.345 HD
ENDBRANCH   1   2
BRANCH   1   6
ATOM      6  C   UNL     1      22.905  43.038  39.605  1.00  0.00     0.099 C 
ATOM      7  O   UNL     1      21.875  43.122  40.325  1.00  0.00    -0.544 OA
ATOM      8  O   UNL     1      22.821  42.436  38.355  1.00  0.00    -0.544 OA
ENDBRANCH   1   6
BRANCH   1   9
ATOM      9  C   UNL     1      23.998  44.622  41.240  1.00  0.00     0.047 C 
ATOM     10  C   UNL     1      25.117  44.567  42.294  1.00  0.00     0.014 C 
ATOM     11  C   UNL     1      23.904  46.051  40.680  1.00  0.00     0.014 C 
ENDBRANCH   1   9
TORSDOF 3
ENDMDL
MODEL 3
REMARK VINA RESULT:    -3.037      1.413      1.713
REMARK INTER + INTRA:          -3.526
REMARK INTER:                  -3.470
REMARK INTRA:                  -0.056
REMARK UNBOUND:                -0.046
REMARK SMILES CC(C)[C@@H]([NH3+])C(=O)[O-]
REMARK SMILES IDX 4 1 5 2 6 6 7 7 8 8 2 9 1 10 3 11
REMARK H PARENT 5 3 5 4 5 5
REMARK Flexibility Score: inf
ROOT
ATOM      1  C   UNL     1      23.547  43.183  40.204  1.00  0.00     0.230 C 
ENDROOT
BRANCH   1   2
ATOM      2  N   UNL     1      24.843  42.913  40.846  1.00  0.00    -0.350 N 
ATOM      3  H   UNL     1      25.519  43.689  40.658  1.00  0.00     0.345 HD
ATOM      4  H   UNL     1      25.238  42.011  40.496  1.00  0.00     0.345 HD
ATOM      5  H   UNL     1      24.718  42.813  41.880  1.00  0.00     0.345 HD
ENDBRANCH   1   2
BRANCH   1   6
ATOM      6  C   UNL     1      23.226  44.652  40.333  1.00  0.00     0.099 C 
ATOM      7  O   UNL     1      24.106  45.517  40.082  1.00  0.00    -0.544 OA
ATOM      8  O   UNL     1      21.959  45.059  40.735  1.00  0.00    -0.544 OA
ENDBRANCH   1   6
BRANCH   1   9
ATOM      9  C   UNL     1      23.538  42.745  38.708  1.00  0.00     0.047 C 
ATOM     10  C   UNL     1      24.213  41.378  38.507  1.00  0.00     0.014 C 
ATOM     11  C   UNL     1      22.104  42.684  38.154  1.00  0.00     0.014 C 
ENDBRANCH   1   9
TORSDOF 3
ENDMDL
MODEL 4
REMARK VINA RESULT:    -3.032      2.361      2.988
REMARK INTER + INTRA:          -3.520
REMARK INTER:                  -3.461
REMARK INTRA:                  -0.059
REMARK UNBOUND:                -0.046
REMARK SMILES CC(C)[C@@H]([NH3+])C(=O)[O-]
REMARK SMILES IDX 4 1 5 2 6 6 7 7 8 8 2 9 1 10 3 11
REMARK H PARENT 5 3 5 4 5 5
REMARK Flexibility Score: inf
ROOT
ATOM      1  C   UNL     1      24.399  43.577  41.497  1.00  0.00     0.230 C 
ENDROOT
BRANCH   1   2
ATOM      2  N   UNL     1      24.495  42.865  40.213  1.00  0.00    -0.350 N 
ATOM      3  H   UNL     1      24.061  43.427  39.444  1.00  0.00     0.345 HD
ATOM      4  H   UNL     1      24.021  41.935  40.279  1.00  0.00     0.345 HD
ATOM      5  H   UNL     1      25.498  42.682  39.977  1.00  0.00     0.345 HD
ENDBRANCH   1   2
BRANCH   1   6
ATOM      6  C   UNL     1      25.520  43.125  42.401  1.00  0.00     0.099 C 
ATOM      7  O   UNL     1      25.273  42.413  43.409  1.00  0.00    -0.544 OA
ATOM      8  O   UNL     1      26.832  43.495  42.128  1.00  0.00    -0.544 OA
ENDBRANCH   1   6
BRANCH   1   9
ATOM      9  C   UNL     1      24.433  45.124  41.306  1.00  0.00     0.047 C 
ATOM     10  C   UNL     1      23.291  45.616  40.402  1.00  0.00     0.014 C 
ATOM     11  C   UNL     1      24.356  45.854  42.659  1.00  0.00     0.014 C 
ENDBRANCH   1   9
TORSDOF 3
ENDMDL
MODEL 5
REMARK VINA RESULT:    -2.749      3.247      4.080
REMARK INTER + INTRA:          -3.196
REMARK INTER:                  -3.130
REMARK INTRA:                  -0.066
REMARK UNBOUND:                -0.046
REMARK SMILES CC(C)[C@@H]([NH3+])C(=O)[O-]
REMARK SMILES IDX 4 1 5 2 6 6 7 7 8 8 2 9 1 10 3 11
REMARK H PARENT 5 3 5 4 5 5
REMARK Flexibility Score: inf
ROOT
ATOM      1  C   UNL     1      23.312  42.105  38.807  1.00  0.00     0.230 C 
ENDROOT
BRANCH   1   2
ATOM      2  N   UNL     1      22.295  41.997  37.749  1.00  0.00    -0.350 N 
ATOM      3  H   UNL     1      21.736  42.880  37.680  1.00  0.00     0.345 HD
ATOM      4  H   UNL     1      21.657  41.192  37.943  1.00  0.00     0.345 HD
ATOM      5  H   UNL     1      22.753  41.812  36.827  1.00  0.00     0.345 HD
ENDBRANCH   1   2
BRANCH   1   6
ATOM      6  C   UNL     1      24.670  41.800  38.223  1.00  0.00     0.099 C 
ATOM      7  O   UNL     1      25.050  42.376  37.169  1.00  0.00    -0.544 OA
ATOM      8  O   UNL     1      25.507  40.878  38.841  1.00  0.00    -0.544 OA
ENDBRANCH   1   6
BRANCH   1   9
ATOM      9  C   UNL     1      23.304  43.513  39.478  1.00  0.00     0.047 C 
ATOM     10  C   UNL     1      21.875  43.993  39.785  1.00  0.00     0.014 C 
ATOM     11  C   UNL     1      24.126  43.514  40.779  1.00  0.00     0.014 C 
ENDBRANCH   1   9
TORSDOF 3
ENDMDL
MODEL 6
REMARK VINA RESULT:    -2.726      2.560      3.472
REMARK INTER + INTRA:          -3.170
REMARK INTER:                  -3.118
REMARK INTRA:                  -0.052
REMARK UNBOUND:                -0.046
REMARK SMILES CC(C)[C@@H]([NH3+])C(=O)[O-]
REMARK SMILES IDX 4 1 5 2 6 6 7 7 8 8 2 9 1 10 3 11
REMARK H PARENT 5 3 5 4 5 5
REMARK Flexibility Score: inf
ROOT
ATOM      1  C   UNL     1      25.040  43.760  42.377  1.00  0.00     0.230 C 
ENDROOT
BRANCH   1   2
ATOM      2  N   UNL     1      25.573  44.994  42.976  1.00  0.00    -0.350 N 
ATOM      3  H   UNL     1      24.998  45.284  43.801  1.00  0.00     0.345 HD
ATOM      4  H   UNL     1      25.585  45.763  42.269  1.00  0.00     0.345 HD
ATOM      5  H   UNL     1      26.561  44.846  43.286  1.00  0.00     0.345 HD
ENDBRANCH   1   2
BRANCH   1   6
ATOM      6  C   UNL     1      24.394  44.090  41.053  1.00  0.00     0.099 C 
ATOM      7  O   UNL     1      24.027  43.167  40.280  1.00  0.00    -0.544 OA
ATOM      8  O   UNL     1      24.206  45.415  40.677  1.00  0.00    -0.544 OA
ENDBRANCH   1   6
BRANCH   1   9
ATOM      9  C   UNL     1      26.148  42.678  42.196  1.00  0.00     0.047 C 
ATOM     10  C   UNL     1      27.554  43.299  42.144  1.00  0.00     0.014 C 
ATOM     11  C   UNL     1      26.099  41.637  43.328  1.00  0.00     0.014 C 
ENDBRANCH   1   9
TORSDOF 3
ENDMDL
MODEL 7
REMARK VINA RESULT:    -2.678     11.651     12.605
REMARK INTER + INTRA:          -3.115
REMARK INTER:                  -3.047
REMARK INTRA:                  -0.067
REMARK UNBOUND:                -0.046
REMARK SMILES CC(C)[C@@H]([NH3+])C(=O)[O-]
REMARK SMILES IDX 4 1 5 2 6 6 7 7 8 8 2 9 1 10 3 11
REMARK H PARENT 5 3 5 4 5 5
REMARK Flexibility Score: inf
ROOT
ATOM      1  C   UNL     1      32.110  42.590  31.237  1.00  0.00     0.230 C 
ENDROOT
BRANCH   1   2
ATOM      2  N   UNL     1      31.595  42.380  29.875  1.00  0.00    -0.350 N 
ATOM      3  H   UNL     1      30.548  42.385  29.869  1.00  0.00     0.345 HD
ATOM      4  H   UNL     1      31.944  41.472  29.493  1.00  0.00     0.345 HD
ATOM      5  H   UNL     1      31.942  43.135  29.239  1.00  0.00     0.345 HD
ENDBRANCH   1   2
BRANCH   1   6
ATOM      6  C   UNL     1      30.972  42.469  32.222  1.00  0.00     0.099 C 
ATOM      7  O   UNL     1      31.207  42.417  33.458  1.00  0.00    -0.544 OA
ATOM      8  O   UNL     1      29.659  42.409  31.771  1.00  0.00    -0.544 OA
ENDBRANCH   1   6
BRANCH   1   9
ATOM      9  C   UNL     1      33.252  41.588  31.587  1.00  0.00     0.047 C 
ATOM     10  C   UNL     1      32.888  40.145  31.198  1.00  0.00     0.014 C 
ATOM     11  C   UNL     1      34.568  41.980  30.893  1.00  0.00     0.014 C 
ENDBRANCH   1   9
TORSDOF 3
ENDMDL
MODEL 8
REMARK VINA RESULT:    -2.147      2.742      3.626
REMARK INTER + INTRA:          -2.507
REMARK INTER:                  -2.459
REMARK INTRA:                  -0.047
REMARK UNBOUND:                -0.046
REMARK SMILES CC(C)[C@@H]([NH3+])C(=O)[O-]
REMARK SMILES IDX 4 1 5 2 6 6 7 7 8 8 2 9 1 10 3 11
REMARK H PARENT 5 3 5 4 5 5
REMARK Flexibility Score: inf
ROOT
ATOM      1  C   UNL     1      23.086  43.612  40.379  1.00  0.00     0.230 C 
ENDROOT
BRANCH   1   2
ATOM      2  N   UNL     1      21.875  44.379  40.045  1.00  0.00    -0.350 N 
ATOM      3  H   UNL     1      21.014  43.842  40.303  1.00  0.00     0.345 HD
ATOM      4  H   UNL     1      21.858  44.601  39.024  1.00  0.00     0.345 HD
ATOM      5  H   UNL     1      21.874  45.290  40.559  1.00  0.00     0.345 HD
ENDBRANCH   1   2
BRANCH   1   6
ATOM      6  C   UNL     1      23.449  42.725  39.213  1.00  0.00     0.099 C 
ATOM      7  O   UNL     1      24.500  42.032  39.247  1.00  0.00    -0.544 OA
ATOM      8  O   UNL     1      22.628  42.671  38.092  1.00  0.00    -0.544 OA
ENDBRANCH   1   6
BRANCH   1   9
ATOM      9  C   UNL     1      24.278  44.545  40.755  1.00  0.00     0.047 C 
ATOM     10  C   UNL     1      23.859  46.024  40.791  1.00  0.00     0.014 C 
ATOM     11  C   UNL     1      24.878  44.158  42.118  1.00  0.00     0.014 C 
ENDBRANCH   1   9
TORSDOF 3
ENDMDL
MODEL 9
REMARK VINA RESULT:    -2.120      3.377      3.808
REMARK INTER + INTRA:          -2.475
REMARK INTER:                  -2.419
REMARK INTRA:                  -0.056
REMARK UNBOUND:                -0.046
REMARK SMILES CC(C)[C@@H]([NH3+])C(=O)[O-]
REMARK SMILES IDX 4 1 5 2 6 6 7 7 8 8 2 9 1 10 3 11
REMARK H PARENT 5 3 5 4 5 5
REMARK Flexibility Score: inf
ROOT
ATOM      1  C   UNL     1      24.071  42.665  39.040  1.00  0.00     0.230 C 
ENDROOT
BRANCH   1   2
ATOM      2  N   UNL     1      24.688  42.744  40.374  1.00  0.00    -0.350 N 
ATOM      3  H   UNL     1      25.483  43.424  40.374  1.00  0.00     0.345 HD
ATOM      4  H   UNL     1      25.030  41.802  40.670  1.00  0.00     0.345 HD
ATOM      5  H   UNL     1      23.979  43.049  41.080  1.00  0.00     0.345 HD
ENDBRANCH   1   2
BRANCH   1   6
ATOM      6  C   UNL     1      24.609  41.456  38.315  1.00  0.00     0.099 C 
ATOM      7  O   UNL     1      24.145  40.312  38.559  1.00  0.00    -0.544 OA
ATOM      8  O   UNL     1      25.625  41.598  37.376  1.00  0.00    -0.544 OA
ENDBRANCH   1   6
BRANCH   1   9
ATOM      9  C   UNL     1      22.514  42.611  39.123  1.00  0.00     0.047 C 
ATOM     10  C   UNL     1      21.956  43.649  40.111  1.00  0.00     0.014 C 
ATOM     11  C   UNL     1      21.875  42.835  37.742  1.00  0.00     0.014 C 
ENDBRANCH   1   9
TORSDOF 3
ENDMDL
