MODEL 1
REMARK VINA RESULT:    -5.377      0.000      0.000
REMARK INTER + INTRA:          -5.377
REMARK INTER:                  -5.377
REMARK INTRA:                   0.000
REMARK UNBOUND:                 0.000
REMARK SMILES CC(C)=C1CC[C@H](C)CC1=O
REMARK SMILES IDX 8 1 7 2 6 3 5 4 4 5 2 6 1 7 3 8 10 9 11 10 9 11
REMARK H PARENT
REMARK Flexibility Score: inf
ROOT
ATOM      1  C   UNL     1     122.000 178.987 127.406  1.00  0.00     0.008 C 
ATOM      2  C   UNL     1     121.109 177.810 127.819  1.00  0.00    -0.006 C 
ATOM      3  C   UNL     1     121.004 177.724 129.351  1.00  0.00     0.008 C 
ATOM      4  C   UNL     1     120.200 176.491 129.786  1.00  0.00     0.039 C 
ATOM      5  C   UNL     1     118.843 176.408 129.102  1.00  0.00    -0.006 C 
ATOM      6  C   UNL     1     117.764 175.854 129.729  1.00  0.00    -0.070 C 
ATOM      7  C   UNL     1     116.399 175.817 129.082  1.00  0.00     0.039 C 
ATOM      8  C   UNL     1     117.876 175.284 131.124  1.00  0.00     0.039 C 
ATOM      9  C   UNL     1     118.799 176.856 127.677  1.00  0.00     0.159 C 
ATOM     10  O   UNL     1     118.010 176.328 126.849  1.00  0.00    -0.295 OA
ATOM     11  C   UNL     1     119.709 177.953 127.205  1.00  0.00     0.084 C 
ENDROOT
TORSDOF 0
ENDMDL
MODEL 2
REMARK VINA RESULT:    -5.352      2.797      4.935
REMARK INTER + INTRA:          -5.352
REMARK INTER:                  -5.352
REMARK INTRA:                   0.000
REMARK UNBOUND:                 0.000
REMARK SMILES CC(C)=C1CC[C@H](C)CC1=O
REMARK SMILES IDX 8 1 7 2 6 3 5 4 4 5 2 6 1 7 3 8 10 9 11 10 9 11
REMARK H PARENT
REMARK Flexibility Score: inf
ROOT
ATOM      1  C   UNL     1     116.218 177.881 124.761  1.00  0.00     0.008 C 
ATOM      2  C   UNL     1     117.553 177.493 125.407  1.00  0.00    -0.006 C 
ATOM      3  C   UNL     1     118.695 177.586 124.382  1.00  0.00     0.008 C 
ATOM      4  C   UNL     1     120.023 177.105 124.982  1.00  0.00     0.039 C 
ATOM      5  C   UNL     1     120.357 177.799 126.295  1.00  0.00    -0.006 C 
ATOM      6  C   UNL     1     121.650 178.037 126.663  1.00  0.00    -0.070 C 
ATOM      7  C   UNL     1     121.992 178.776 127.936  1.00  0.00     0.039 C 
ATOM      8  C   UNL     1     122.806 177.605 125.791  1.00  0.00     0.039 C 
ATOM      9  C   UNL     1     119.200 178.093 127.194  1.00  0.00     0.159 C 
ATOM     10  O   UNL     1     119.327 178.084 128.448  1.00  0.00    -0.295 OA
ATOM     11  C   UNL     1     117.852 178.400 126.610  1.00  0.00     0.084 C 
ENDROOT
TORSDOF 0
ENDMDL
MODEL 3
REMARK VINA RESULT:    -5.335      3.575      5.121
REMARK INTER + INTRA:          -5.335
REMARK INTER:                  -5.335
REMARK INTRA:                   0.000
REMARK UNBOUND:                 0.000
REMARK SMILES CC(C)=C1CC[C@H](C)CC1=O
REMARK SMILES IDX 8 1 7 2 6 3 5 4 4 5 2 6 1 7 3 8 10 9 11 10 9 11
REMARK H PARENT
REMARK Flexibility Score: inf
ROOT
ATOM      1  C   UNL     1     123.937 175.996 122.078  1.00  0.00     0.008 C 
ATOM      2  C   UNL     1     123.194 176.142 123.411  1.00  0.00    -0.006 C 
ATOM      3  C   UNL     1     123.983 177.045 124.373  1.00  0.00     0.008 C 
ATOM      4  C   UNL     1     123.306 177.122 125.748  1.00  0.00     0.039 C 
ATOM      5  C   UNL     1     121.837 177.510 125.654  1.00  0.00    -0.006 C 
ATOM      6  C   UNL     1     121.230 178.233 126.641  1.00  0.00    -0.070 C 
ATOM      7  C   UNL     1     119.788 178.672 126.533  1.00  0.00     0.039 C 
ATOM      8  C   UNL     1     121.986 178.662 127.877  1.00  0.00     0.039 C 
ATOM      9  C   UNL     1     121.085 176.956 124.488  1.00  0.00     0.159 C 
ATOM     10  O   UNL     1     119.860 176.674 124.573  1.00  0.00    -0.295 OA
ATOM     11  C   UNL     1     121.789 176.720 123.183  1.00  0.00     0.084 C 
ENDROOT
TORSDOF 0
ENDMDL
MODEL 4
REMARK VINA RESULT:    -5.314      3.121      5.237
REMARK INTER + INTRA:          -5.314
REMARK INTER:                  -5.314
REMARK INTRA:                   0.000
REMARK UNBOUND:                 0.000
REMARK SMILES CC(C)=C1CC[C@H](C)CC1=O
REMARK SMILES IDX 8 1 7 2 6 3 5 4 4 5 2 6 1 7 3 8 10 9 11 10 9 11
REMARK H PARENT
REMARK Flexibility Score: inf
ROOT
ATOM      1  C   UNL     1     114.508 177.963 126.508  1.00  0.00     0.008 C 
ATOM      2  C   UNL     1     115.924 178.359 126.075  1.00  0.00    -0.006 C 
ATOM      3  C   UNL     1     116.919 178.154 127.230  1.00  0.00     0.008 C 
ATOM      4  C   UNL     1     118.323 178.640 126.849  1.00  0.00     0.039 C 
ATOM      5  C   UNL     1     118.815 178.038 125.540  1.00  0.00    -0.006 C 
ATOM      6  C   UNL     1     120.140 177.790 125.326  1.00  0.00    -0.070 C 
ATOM      7  C   UNL     1     120.633 177.140 124.054  1.00  0.00     0.039 C 
ATOM      8  C   UNL     1     121.178 178.120 126.374  1.00  0.00     0.039 C 
ATOM      9  C   UNL     1     117.782 177.848 124.477  1.00  0.00     0.159 C 
ATOM     10  O   UNL     1     118.075 177.948 123.255  1.00  0.00    -0.295 OA
ATOM     11  C   UNL     1     116.363 177.538 124.854  1.00  0.00     0.084 C 
ENDROOT
TORSDOF 0
ENDMDL
MODEL 5
REMARK VINA RESULT:    -5.272      1.432      1.903
REMARK INTER + INTRA:          -5.272
REMARK INTER:                  -5.272
REMARK INTRA:                   0.000
REMARK UNBOUND:                 0.000
REMARK SMILES CC(C)=C1CC[C@H](C)CC1=O
REMARK SMILES IDX 8 1 7 2 6 3 5 4 4 5 2 6 1 7 3 8 10 9 11 10 9 11
REMARK H PARENT
REMARK Flexibility Score: inf
ROOT
ATOM      1  C   UNL     1     121.882 178.773 127.391  1.00  0.00     0.008 C 
ATOM      2  C   UNL     1     120.624 177.906 127.271  1.00  0.00    -0.006 C 
ATOM      3  C   UNL     1     120.081 177.544 128.663  1.00  0.00     0.008 C 
ATOM      4  C   UNL     1     118.882 176.592 128.565  1.00  0.00     0.039 C 
ATOM      5  C   UNL     1     117.798 177.114 127.632  1.00  0.00    -0.006 C 
ATOM      6  C   UNL     1     116.479 176.838 127.853  1.00  0.00    -0.070 C 
ATOM      7  C   UNL     1     115.390 177.397 126.967  1.00  0.00     0.039 C 
ATOM      8  C   UNL     1     116.041 175.987 129.023  1.00  0.00     0.039 C 
ATOM      9  C   UNL     1     118.272 177.836 126.413  1.00  0.00     0.159 C 
ATOM     10  O   UNL     1     117.629 177.788 125.331  1.00  0.00    -0.295 OA
ATOM     11  C   UNL     1     119.543 178.635 126.460  1.00  0.00     0.084 C 
ENDROOT
TORSDOF 0
ENDMDL
MODEL 6
REMARK VINA RESULT:    -5.267      2.486      3.943
REMARK INTER + INTRA:          -5.267
REMARK INTER:                  -5.267
REMARK INTRA:                   0.000
REMARK UNBOUND:                 0.000
REMARK SMILES CC(C)=C1CC[C@H](C)CC1=O
REMARK SMILES IDX 8 1 7 2 6 3 5 4 4 5 2 6 1 7 3 8 10 9 11 10 9 11
REMARK H PARENT
REMARK Flexibility Score: inf
ROOT
ATOM      1  C   UNL     1     115.262 177.941 124.422  1.00  0.00     0.008 C 
ATOM      2  C   UNL     1     116.395 177.496 125.353  1.00  0.00    -0.006 C 
ATOM      3  C   UNL     1     116.872 178.671 126.224  1.00  0.00     0.008 C 
ATOM      4  C   UNL     1     118.074 178.272 127.090  1.00  0.00     0.039 C 
ATOM      5  C   UNL     1     117.815 177.010 127.902  1.00  0.00    -0.006 C 
ATOM      6  C   UNL     1     118.387 176.826 129.128  1.00  0.00    -0.070 C 
ATOM      7  C   UNL     1     118.093 175.604 129.967  1.00  0.00     0.039 C 
ATOM      8  C   UNL     1     119.315 177.859 129.723  1.00  0.00     0.039 C 
ATOM      9  C   UNL     1     117.003 175.952 127.229  1.00  0.00     0.159 C 
ATOM     10  O   UNL     1     117.197 174.730 127.463  1.00  0.00    -0.295 OA
ATOM     11  C   UNL     1     115.933 176.336 126.247  1.00  0.00     0.084 C 
ENDROOT
TORSDOF 0
ENDMDL
MODEL 7
REMARK VINA RESULT:    -5.217      3.220      4.555
REMARK INTER + INTRA:          -5.217
REMARK INTER:                  -5.217
REMARK INTRA:                   0.000
REMARK UNBOUND:                 0.000
REMARK SMILES CC(C)=C1CC[C@H](C)CC1=O
REMARK SMILES IDX 8 1 7 2 6 3 5 4 4 5 2 6 1 7 3 8 10 9 11 10 9 11
REMARK H PARENT
REMARK Flexibility Score: inf
ROOT
ATOM      1  C   UNL     1     121.460 177.274 125.959  1.00  0.00     0.008 C 
ATOM      2  C   UNL     1     120.097 177.899 125.640  1.00  0.00    -0.006 C 
ATOM      3  C   UNL     1     119.472 177.229 124.406  1.00  0.00     0.008 C 
ATOM      4  C   UNL     1     118.154 177.909 124.010  1.00  0.00     0.039 C 
ATOM      5  C   UNL     1     117.179 178.015 125.174  1.00  0.00    -0.006 C 
ATOM      6  C   UNL     1     115.829 177.965 124.976  1.00  0.00    -0.070 C 
ATOM      7  C   UNL     1     114.853 178.012 126.128  1.00  0.00     0.039 C 
ATOM      8  C   UNL     1     115.245 177.821 123.589  1.00  0.00     0.039 C 
ATOM      9  C   UNL     1     117.783 178.292 126.512  1.00  0.00     0.159 C 
ATOM     10  O   UNL     1     117.168 178.966 127.381  1.00  0.00    -0.295 OA
ATOM     11  C   UNL     1     119.150 177.768 126.843  1.00  0.00     0.084 C 
ENDROOT
TORSDOF 0
ENDMDL
MODEL 8
REMARK VINA RESULT:    -5.217      1.061      4.107
REMARK INTER + INTRA:          -5.217
REMARK INTER:                  -5.217
REMARK INTRA:                   0.000
REMARK UNBOUND:                 0.000
REMARK SMILES CC(C)=C1CC[C@H](C)CC1=O
REMARK SMILES IDX 8 1 7 2 6 3 5 4 4 5 2 6 1 7 3 8 10 9 11 10 9 11
REMARK H PARENT
REMARK Flexibility Score: inf
ROOT
ATOM      1  C   UNL     1     117.764 175.022 131.097  1.00  0.00     0.008 C 
ATOM      2  C   UNL     1     118.285 175.997 130.035  1.00  0.00    -0.006 C 
ATOM      3  C   UNL     1     119.505 176.769 130.564  1.00  0.00     0.008 C 
ATOM      4  C   UNL     1     119.979 177.822 129.554  1.00  0.00     0.039 C 
ATOM      5  C   UNL     1     120.213 177.238 128.168  1.00  0.00    -0.006 C 
ATOM      6  C   UNL     1     121.175 177.741 127.339  1.00  0.00    -0.070 C 
ATOM      7  C   UNL     1     121.455 177.133 125.984  1.00  0.00     0.039 C 
ATOM      8  C   UNL     1     122.035 178.911 127.756  1.00  0.00     0.039 C 
ATOM      9  C   UNL     1     119.259 176.173 127.735  1.00  0.00     0.159 C 
ATOM     10  O   UNL     1     118.936 176.035 126.525  1.00  0.00    -0.295 OA
ATOM     11  C   UNL     1     118.659 175.243 128.750  1.00  0.00     0.084 C 
ENDROOT
TORSDOF 0
ENDMDL
MODEL 9
REMARK VINA RESULT:    -5.211      3.643      4.447
REMARK INTER + INTRA:          -5.211
REMARK INTER:                  -5.211
REMARK INTRA:                   0.000
REMARK UNBOUND:                 0.000
REMARK SMILES CC(C)=C1CC[C@H](C)CC1=O
REMARK SMILES IDX 8 1 7 2 6 3 5 4 4 5 2 6 1 7 3 8 10 9 11 10 9 11
REMARK H PARENT
REMARK Flexibility Score: inf
ROOT
ATOM      1  C   UNL     1     122.003 176.751 123.242  1.00  0.00     0.008 C 
ATOM      2  C   UNL     1     120.833 177.051 124.186  1.00  0.00    -0.006 C 
ATOM      3  C   UNL     1     119.758 177.882 123.468  1.00  0.00     0.008 C 
ATOM      4  C   UNL     1     118.626 178.278 124.426  1.00  0.00     0.039 C 
ATOM      5  C   UNL     1     118.044 177.082 125.167  1.00  0.00    -0.006 C 
ATOM      6  C   UNL     1     116.728 177.046 125.531  1.00  0.00    -0.070 C 
ATOM      7  C   UNL     1     116.126 175.841 126.216  1.00  0.00     0.039 C 
ATOM      8  C   UNL     1     115.799 178.199 125.231  1.00  0.00     0.039 C 
ATOM      9  C   UNL     1     119.016 176.021 125.567  1.00  0.00     0.159 C 
ATOM     10  O   UNL     1     118.852 175.345 126.617  1.00  0.00    -0.295 OA
ATOM     11  C   UNL     1     120.221 175.745 124.714  1.00  0.00     0.084 C 
ENDROOT
TORSDOF 0
ENDMDL
