MODEL 1
REMARK VINA RESULT:     8.689      0.000      0.000
REMARK INTER + INTRA:          11.566
REMARK INTER:                  10.721
REMARK INTRA:                   0.846
REMARK UNBOUND:                 0.846
REMARK SMILES CC1=CC=CC(C)(C)CC1=O
REMARK SMILES IDX 1 1 2 2 3 3 10 4 11 5 9 6 4 8 5 9 6 10 7 11 8 12
REMARK H PARENT
REMARK Flexibility Score: 80.00
ROOT
ATOM      1  C   UNL     1      82.399  13.571 111.309  1.00  0.00     0.048 C 
ATOM      2  C   UNL     1      82.976  13.807 109.933  1.00  0.00    -0.008 C 
ATOM      3  C   UNL     1      82.129  13.797 108.881  1.00  0.00     0.007 C 
ENDROOT
BRANCH   2   4
ATOM      4  C   UNL     1      84.450  13.989 109.851  1.00  0.00     0.159 C 
ATOM      5  O   UNL     1      85.117  14.003 110.923  1.00  0.00    -0.295 OA
BRANCH   4   6
ATOM      6  C   UNL     1      85.210  14.120 108.564  1.00  0.00     0.091 CG0
ATOM      7  G   UNL     1      84.635  15.183 107.603  1.00  0.00     0.000 G0
ENDBRANCH   4   6
ENDBRANCH   2   4
BRANCH   3   8
ATOM      8  C   UNL     1      82.404  14.008 107.442  1.00  0.00    -0.003 C 
ATOM      9  C   UNL     1      83.449  14.618 106.872  1.00  0.00    -0.020 C 
BRANCH   9  10
ATOM     10  C   UNL     1      84.650  15.187 107.591  1.00  0.00    -0.010 CG0
ATOM     11  C   UNL     1      85.740  15.498 106.540  1.00  0.00     0.016 C 
ATOM     12  C   UNL     1      84.276  16.512 108.294  1.00  0.00     0.016 C 
ATOM     13  G   UNL     1      85.212  14.130 108.568  1.00  0.00     0.000 G0
ENDBRANCH   9  10
ENDBRANCH   3   8
TORSDOF 0
ENDMDL
MODEL 2
REMARK VINA RESULT:     9.813      1.651      3.331
REMARK INTER + INTRA:          12.953
REMARK INTER:                  11.896
REMARK INTRA:                   1.057
REMARK UNBOUND:                 0.846
REMARK SMILES CC1=CC=CC(C)(C)CC1=O
REMARK SMILES IDX 1 1 2 2 3 3 10 4 11 5 9 6 4 8 5 9 6 10 7 11 8 12
REMARK H PARENT
REMARK Flexibility Score: 80.00
ROOT
ATOM      1  C   UNL     1      82.958  15.855 105.661  1.00  0.00     0.048 C 
ATOM      2  C   UNL     1      83.464  14.912 106.728  1.00  0.00    -0.008 C 
ATOM      3  C   UNL     1      83.114  13.611 106.639  1.00  0.00     0.007 C 
ENDROOT
BRANCH   2   4
ATOM      4  C   UNL     1      84.276  15.514 107.819  1.00  0.00     0.159 C 
ATOM      5  O   UNL     1      84.347  16.772 107.895  1.00  0.00    -0.295 OA
BRANCH   4   6
ATOM      6  C   UNL     1      84.992  14.719 108.869  1.00  0.00     0.091 CG0
ATOM      7  G   UNL     1      84.083  13.732 109.635  1.00  0.00     0.000 G0
ENDBRANCH   4   6
ENDBRANCH   2   4
BRANCH   3   8
ATOM      8  C   UNL     1      83.467  12.473 107.519  1.00  0.00    -0.003 C 
ATOM      9  C   UNL     1      83.915  12.500 108.779  1.00  0.00    -0.020 C 
BRANCH   9  10
ATOM     10  C   UNL     1      84.104  13.732 109.632  1.00  0.00    -0.010 CG0
ATOM     11  C   UNL     1      82.718  14.369 109.878  1.00  0.00     0.016 C 
ATOM     12  C   UNL     1      84.701  13.346 111.006  1.00  0.00     0.016 C 
ATOM     13  G   UNL     1      84.975  14.756 108.870  1.00  0.00     0.000 G0
ENDBRANCH   9  10
ENDBRANCH   3   8
TORSDOF 0
ENDMDL
MODEL 3
REMARK VINA RESULT:    10.242      8.680     10.111
REMARK INTER + INTRA:          13.483
REMARK INTER:                  12.643
REMARK INTRA:                   0.840
REMARK UNBOUND:                 0.846
REMARK SMILES CC1=CC=CC(C)(C)CC1=O
REMARK SMILES IDX 1 1 2 2 3 3 10 4 11 5 9 6 4 8 5 9 6 10 7 11 8 12
REMARK H PARENT
REMARK Flexibility Score: 80.00
ROOT
ATOM      1  C   UNL     1      92.979  19.618 111.846  1.00  0.00     0.048 C 
ATOM      2  C   UNL     1      91.787  20.502 112.130  1.00  0.00    -0.008 C 
ATOM      3  C   UNL     1      91.895  21.819 111.855  1.00  0.00     0.007 C 
ENDROOT
BRANCH   2   4
ATOM      4  C   UNL     1      90.599  19.842 112.736  1.00  0.00     0.159 C 
ATOM      5  O   UNL     1      90.612  18.588 112.878  1.00  0.00    -0.295 OA
BRANCH   4   6
ATOM      6  C   UNL     1      89.391  20.580 113.231  1.00  0.00     0.091 CG0
ATOM      7  G   UNL     1      88.773  21.539 112.190  1.00  0.00     0.000 G0
ENDBRANCH   4   6
ENDBRANCH   2   4
BRANCH   3   8
ATOM      8  C   UNL     1      90.901  22.905 112.016  1.00  0.00    -0.003 C 
ATOM      9  C   UNL     1      89.572  22.809 112.132  1.00  0.00    -0.020 C 
BRANCH   9  10
ATOM     10  C   UNL     1      88.771  21.530 112.194  1.00  0.00    -0.010 CG0
ATOM     11  C   UNL     1      87.342  21.875 112.671  1.00  0.00     0.016 C 
ATOM     12  C   UNL     1      88.663  20.898 110.786  1.00  0.00     0.016 C 
ATOM     13  G   UNL     1      89.406  20.576 113.229  1.00  0.00     0.000 G0
ENDBRANCH   9  10
ENDBRANCH   3   8
TORSDOF 0
ENDMDL
