MODEL 1
REMARK VINA RESULT:    -7.008      0.000      0.000
REMARK INTER + INTRA:          -8.677
REMARK INTER:                  -8.442
REMARK INTRA:                  -0.235
REMARK UNBOUND:                -0.235
REMARK SMILES O=c1c(O)c(-c2ccc(O)c(O)c2)oc2cc(O)cc(O)c12
REMARK SMILES IDX 5 1 3 2 2 3 1 4 22 5 20 6 19 7 17 8 16 9 15 10 14 11 6 12
REMARK SMILES IDX 7 13 8 14 9 15 13 16 11 17 10 18 12 20 4 22 21 24 18 26
REMARK H PARENT 10 19 12 21 4 23 21 25 18 27
REMARK Flexibility Score: inf
ROOT
ATOM      1  C   UNL     1      20.312  47.307   6.474  1.00  0.00     0.180 A 
ATOM      2  C   UNL     1      19.374  46.384   5.981  1.00  0.00     0.208 A 
ATOM      3  C   UNL     1      18.337  45.951   6.822  1.00  0.00     0.238 A 
ATOM      4  O   UNL     1      17.469  45.166   6.359  1.00  0.00    -0.285 OA
ATOM      5  C   UNL     1      18.259  46.435   8.151  1.00  0.00     0.111 A 
ATOM      6  C   UNL     1      17.274  46.033   9.103  1.00  0.00     0.134 A 
ATOM      7  C   UNL     1      17.215  46.674  10.346  1.00  0.00     0.093 A 
ATOM      8  C   UNL     1      18.142  47.654  10.697  1.00  0.00     0.123 A 
ATOM      9  C   UNL     1      19.146  48.012   9.796  1.00  0.00     0.094 A 
ATOM     10  C   UNL     1      19.210  47.416   8.534  1.00  0.00     0.146 A 
ATOM     11  O   UNL     1      20.174  47.792   7.703  1.00  0.00    -0.452 OA
ENDROOT
BRANCH   1  12
ATOM     12  C   UNL     1      21.447  47.791   5.656  1.00  0.00     0.025 A 
ATOM     13  C   UNL     1      22.768  47.399   5.933  1.00  0.00     0.016 A 
ATOM     14  C   UNL     1      23.827  47.887   5.163  1.00  0.00     0.051 A 
ATOM     15  C   UNL     1      23.583  48.784   4.115  1.00  0.00     0.157 A 
ATOM     16  C   UNL     1      21.210  48.706   4.617  1.00  0.00     0.062 A 
ATOM     17  C   UNL     1      22.272  49.197   3.843  1.00  0.00     0.158 A 
BRANCH  15  18
ATOM     18  O   UNL     1      24.635  49.272   3.342  1.00  0.00    -0.504 OA
ATOM     19  H   UNL     1      24.477  49.676   2.427  1.00  0.00     0.293 HD
ENDBRANCH  15  18
BRANCH  17  20
ATOM     20  O   UNL     1      22.032  50.094   2.804  1.00  0.00    -0.504 OA
ATOM     21  H   UNL     1      22.790  50.575   2.334  1.00  0.00     0.293 HD
ENDBRANCH  17  20
ENDBRANCH   1  12
BRANCH   2  22
ATOM     22  O   UNL     1      19.457  45.936   4.660  1.00  0.00    -0.502 OA
ATOM     23  H   UNL     1      18.754  45.335   4.244  1.00  0.00     0.293 HD
ENDBRANCH   2  22
BRANCH   6  24
ATOM     24  O   UNL     1      16.357  45.001   8.889  1.00  0.00    -0.507 OA
ATOM     25  H   UNL     1      15.513  45.086   8.343  1.00  0.00     0.293 HD
ENDBRANCH   6  24
BRANCH   8  26
ATOM     26  O   UNL     1      18.062  48.259  11.949  1.00  0.00    -0.508 OA
ATOM     27  H   UNL     1      18.346  49.222  12.091  1.00  0.00     0.293 HD
ENDBRANCH   8  26
TORSDOF 6
ENDMDL
MODEL 2
REMARK VINA RESULT:    -6.817      2.402      7.704
REMARK INTER + INTRA:          -8.447
REMARK INTER:                  -8.203
REMARK INTRA:                  -0.245
REMARK UNBOUND:                -0.235
REMARK SMILES O=c1c(O)c(-c2ccc(O)c(O)c2)oc2cc(O)cc(O)c12
REMARK SMILES IDX 5 1 3 2 2 3 1 4 22 5 20 6 19 7 17 8 16 9 15 10 14 11 6 12
REMARK SMILES IDX 7 13 8 14 9 15 13 16 11 17 10 18 12 20 4 22 21 24 18 26
REMARK H PARENT 10 19 12 21 4 23 21 25 18 27
REMARK Flexibility Score: inf
ROOT
ATOM      1  C   UNL     1      21.188  48.617   4.758  1.00  0.00     0.180 A 
ATOM      2  C   UNL     1      20.749  49.948   4.653  1.00  0.00     0.208 A 
ATOM      3  C   UNL     1      21.536  50.872   3.947  1.00  0.00     0.238 A 
ATOM      4  O   UNL     1      21.112  52.049   3.810  1.00  0.00    -0.285 OA
ATOM      5  C   UNL     1      22.760  50.457   3.368  1.00  0.00     0.111 A 
ATOM      6  C   UNL     1      23.656  51.318   2.665  1.00  0.00     0.134 A 
ATOM      7  C   UNL     1      24.774  50.772   2.022  1.00  0.00     0.093 A 
ATOM      8  C   UNL     1      25.064  49.412   2.109  1.00  0.00     0.123 A 
ATOM      9  C   UNL     1      24.226  48.571   2.845  1.00  0.00     0.094 A 
ATOM     10  C   UNL     1      23.084  49.079   3.468  1.00  0.00     0.146 A 
ATOM     11  O   UNL     1      22.308  48.245   4.148  1.00  0.00    -0.452 OA
ENDROOT
BRANCH   1  12
ATOM     12  C   UNL     1      20.426  47.592   5.507  1.00  0.00     0.025 A 
ATOM     13  C   UNL     1      19.228  47.058   5.001  1.00  0.00     0.016 A 
ATOM     14  C   UNL     1      18.512  46.109   5.737  1.00  0.00     0.051 A 
ATOM     15  C   UNL     1      18.974  45.692   6.991  1.00  0.00     0.157 A 
ATOM     16  C   UNL     1      20.874  47.186   6.775  1.00  0.00     0.062 A 
ATOM     17  C   UNL     1      20.157  46.234   7.513  1.00  0.00     0.158 A 
BRANCH  15  18
ATOM     18  O   UNL     1      18.265  44.744   7.727  1.00  0.00    -0.504 OA
ATOM     19  H   UNL     1      18.391  44.648   8.727  1.00  0.00     0.293 HD
ENDBRANCH  15  18
BRANCH  17  20
ATOM     20  O   UNL     1      20.611  45.822   8.764  1.00  0.00    -0.504 OA
ATOM     21  H   UNL     1      21.592  45.867   9.013  1.00  0.00     0.293 HD
ENDBRANCH  17  20
ENDBRANCH   1  12
BRANCH   2  22
ATOM     22  O   UNL     1      19.528  50.331   5.214  1.00  0.00    -0.502 OA
ATOM     23  H   UNL     1      19.036  49.758   5.890  1.00  0.00     0.293 HD
ENDBRANCH   2  22
BRANCH   6  24
ATOM     24  O   UNL     1      23.510  52.705   2.592  1.00  0.00    -0.507 OA
ATOM     25  H   UNL     1      23.388  53.313   3.388  1.00  0.00     0.293 HD
ENDBRANCH   6  24
BRANCH   8  26
ATOM     26  O   UNL     1      26.193  48.906   1.470  1.00  0.00    -0.508 OA
ATOM     27  H   UNL     1      26.395  47.913   1.458  1.00  0.00     0.293 HD
ENDBRANCH   8  26
TORSDOF 6
ENDMDL
MODEL 3
REMARK VINA RESULT:    -6.813      1.619      7.144
REMARK INTER + INTRA:          -8.442
REMARK INTER:                  -8.268
REMARK INTRA:                  -0.174
REMARK UNBOUND:                -0.235
REMARK SMILES O=c1c(O)c(-c2ccc(O)c(O)c2)oc2cc(O)cc(O)c12
REMARK SMILES IDX 5 1 3 2 2 3 1 4 22 5 20 6 19 7 17 8 16 9 15 10 14 11 6 12
REMARK SMILES IDX 7 13 8 14 9 15 13 16 11 17 10 18 12 20 4 22 21 24 18 26
REMARK H PARENT 10 19 12 21 4 23 21 25 18 27
REMARK Flexibility Score: inf
ROOT
ATOM      1  C   UNL     1      20.653  47.450   7.339  1.00  0.00     0.180 A 
ATOM      2  C   UNL     1      21.890  47.428   8.005  1.00  0.00     0.208 A 
ATOM      3  C   UNL     1      22.990  48.075   7.421  1.00  0.00     0.238 A 
ATOM      4  O   UNL     1      24.081  48.098   8.047  1.00  0.00    -0.285 OA
ATOM      5  C   UNL     1      22.844  48.722   6.170  1.00  0.00     0.111 A 
ATOM      6  C   UNL     1      23.902  49.374   5.467  1.00  0.00     0.134 A 
ATOM      7  C   UNL     1      23.614  50.094   4.300  1.00  0.00     0.093 A 
ATOM      8  C   UNL     1      22.323  50.131   3.776  1.00  0.00     0.123 A 
ATOM      9  C   UNL     1      21.292  49.447   4.424  1.00  0.00     0.094 A 
ATOM     10  C   UNL     1      21.541  48.750   5.609  1.00  0.00     0.146 A 
ATOM     11  O   UNL     1      20.532  48.122   6.199  1.00  0.00    -0.452 OA
ENDROOT
BRANCH   1  12
ATOM     12  C   UNL     1      19.454  46.770   7.879  1.00  0.00     0.025 A 
ATOM     13  C   UNL     1      18.866  45.682   7.210  1.00  0.00     0.016 A 
ATOM     14  C   UNL     1      17.720  45.071   7.727  1.00  0.00     0.051 A 
ATOM     15  C   UNL     1      17.137  45.546   8.908  1.00  0.00     0.157 A 
ATOM     16  C   UNL     1      18.853  47.256   9.052  1.00  0.00     0.062 A 
ATOM     17  C   UNL     1      17.703  46.643   9.571  1.00  0.00     0.158 A 
BRANCH  15  18
ATOM     18  O   UNL     1      15.995  44.939   9.427  1.00  0.00    -0.504 OA
ATOM     19  H   UNL     1      15.581  45.247  10.298  1.00  0.00     0.293 HD
ENDBRANCH  15  18
BRANCH  17  20
ATOM     20  O   UNL     1      17.118  47.119  10.742  1.00  0.00    -0.504 OA
ATOM     21  H   UNL     1      16.700  46.490  11.419  1.00  0.00     0.293 HD
ENDBRANCH  17  20
ENDBRANCH   1  12
BRANCH   2  22
ATOM     22  O   UNL     1      22.006  46.802   9.249  1.00  0.00    -0.502 OA
ATOM     23  H   UNL     1      21.947  47.312  10.123  1.00  0.00     0.293 HD
ENDBRANCH   2  22
BRANCH   6  24
ATOM     24  O   UNL     1      25.244  49.324   5.853  1.00  0.00    -0.507 OA
ATOM     25  H   UNL     1      25.892  50.094   5.781  1.00  0.00     0.293 HD
ENDBRANCH   6  24
BRANCH   8  26
ATOM     26  O   UNL     1      22.076  50.843   2.606  1.00  0.00    -0.508 OA
ATOM     27  H   UNL     1      21.135  51.101   2.330  1.00  0.00     0.293 HD
ENDBRANCH   8  26
TORSDOF 6
ENDMDL
MODEL 4
REMARK VINA RESULT:    -6.587      3.203      4.346
REMARK INTER + INTRA:          -8.171
REMARK INTER:                  -7.848
REMARK INTRA:                  -0.323
REMARK UNBOUND:                -0.235
REMARK SMILES O=c1c(O)c(-c2ccc(O)c(O)c2)oc2cc(O)cc(O)c12
REMARK SMILES IDX 5 1 3 2 2 3 1 4 22 5 20 6 19 7 17 8 16 9 15 10 14 11 6 12
REMARK SMILES IDX 7 13 8 14 9 15 13 16 11 17 10 18 12 20 4 22 21 24 18 26
REMARK H PARENT 10 19 12 21 4 23 21 25 18 27
REMARK Flexibility Score: inf
ROOT
ATOM      1  C   UNL     1      22.364  47.232   7.768  1.00  0.00     0.180 A 
ATOM      2  C   UNL     1      22.203  47.025   6.387  1.00  0.00     0.208 A 
ATOM      3  C   UNL     1      20.938  46.664   5.895  1.00  0.00     0.238 A 
ATOM      4  O   UNL     1      20.787  46.532   4.653  1.00  0.00    -0.285 OA
ATOM      5  C   UNL     1      19.854  46.502   6.792  1.00  0.00     0.111 A 
ATOM      6  C   UNL     1      18.539  46.099   6.408  1.00  0.00     0.134 A 
ATOM      7  C   UNL     1      17.513  46.097   7.361  1.00  0.00     0.093 A 
ATOM      8  C   UNL     1      17.765  46.419   8.693  1.00  0.00     0.123 A 
ATOM      9  C   UNL     1      19.060  46.756   9.091  1.00  0.00     0.094 A 
ATOM     10  C   UNL     1      20.098  46.801   8.157  1.00  0.00     0.146 A 
ATOM     11  O   UNL     1      21.313  47.136   8.574  1.00  0.00    -0.452 OA
ENDROOT
BRANCH   1  12
ATOM     12  C   UNL     1      23.671  47.590   8.364  1.00  0.00     0.025 A 
ATOM     13  C   UNL     1      24.068  48.931   8.505  1.00  0.00     0.016 A 
ATOM     14  C   UNL     1      25.317  49.244   9.048  1.00  0.00     0.051 A 
ATOM     15  C   UNL     1      26.192  48.225   9.444  1.00  0.00     0.157 A 
ATOM     16  C   UNL     1      24.561  46.571   8.743  1.00  0.00     0.062 A 
ATOM     17  C   UNL     1      25.814  46.884   9.288  1.00  0.00     0.158 A 
BRANCH  15  18
ATOM     18  O   UNL     1      27.438  48.533   9.988  1.00  0.00    -0.504 OA
ATOM     19  H   UNL     1      27.538  48.811  10.956  1.00  0.00     0.293 HD
ENDBRANCH  15  18
BRANCH  17  20
ATOM     20  O   UNL     1      26.688  45.871   9.677  1.00  0.00    -0.504 OA
ATOM     21  H   UNL     1      27.692  46.009   9.678  1.00  0.00     0.293 HD
ENDBRANCH  17  20
ENDBRANCH   1  12
BRANCH   2  22
ATOM     22  O   UNL     1      23.281  47.211   5.518  1.00  0.00    -0.502 OA
ATOM     23  H   UNL     1      23.184  47.677   4.623  1.00  0.00     0.293 HD
ENDBRANCH   2  22
BRANCH   6  24
ATOM     24  O   UNL     1      18.197  45.671   5.123  1.00  0.00    -0.507 OA
ATOM     25  H   UNL     1      18.518  46.102   4.269  1.00  0.00     0.293 HD
ENDBRANCH   6  24
BRANCH   8  26
ATOM     26  O   UNL     1      16.724  46.391   9.617  1.00  0.00    -0.508 OA
ATOM     27  H   UNL     1      15.863  45.889   9.432  1.00  0.00     0.293 HD
ENDBRANCH   8  26
TORSDOF 6
ENDMDL
MODEL 5
REMARK VINA RESULT:    -6.523      4.380      7.601
REMARK INTER + INTRA:          -8.094
REMARK INTER:                  -7.810
REMARK INTRA:                  -0.284
REMARK UNBOUND:                -0.235
REMARK SMILES O=c1c(O)c(-c2ccc(O)c(O)c2)oc2cc(O)cc(O)c12
REMARK SMILES IDX 5 1 3 2 2 3 1 4 22 5 20 6 19 7 17 8 16 9 15 10 14 11 6 12
REMARK SMILES IDX 7 13 8 14 9 15 13 16 11 17 10 18 12 20 4 22 21 24 18 26
REMARK H PARENT 10 19 12 21 4 23 21 25 18 27
REMARK Flexibility Score: inf
ROOT
ATOM      1  C   UNL     1      17.464  49.131  12.231  1.00  0.00     0.180 A 
ATOM      2  C   UNL     1      18.665  49.412  12.905  1.00  0.00     0.208 A 
ATOM      3  C   UNL     1      18.611  49.908  14.217  1.00  0.00     0.238 A 
ATOM      4  O   UNL     1      19.690  50.107  14.834  1.00  0.00    -0.285 OA
ATOM      5  C   UNL     1      17.356  50.132  14.834  1.00  0.00     0.111 A 
ATOM      6  C   UNL     1      17.183  50.671  16.144  1.00  0.00     0.134 A 
ATOM      7  C   UNL     1      15.900  50.727  16.703  1.00  0.00     0.093 A 
ATOM      8  C   UNL     1      14.779  50.327  15.977  1.00  0.00     0.123 A 
ATOM      9  C   UNL     1      14.931  49.856  14.671  1.00  0.00     0.094 A 
ATOM     10  C   UNL     1      16.202  49.754  14.100  1.00  0.00     0.146 A 
ATOM     11  O   UNL     1      16.305  49.290  12.860  1.00  0.00    -0.452 OA
ENDROOT
BRANCH   1  12
ATOM     12  C   UNL     1      17.440  48.630  10.838  1.00  0.00     0.025 A 
ATOM     13  C   UNL     1      17.715  47.283  10.542  1.00  0.00     0.016 A 
ATOM     14  C   UNL     1      17.710  46.837   9.217  1.00  0.00     0.051 A 
ATOM     15  C   UNL     1      17.445  47.729   8.171  1.00  0.00     0.157 A 
ATOM     16  C   UNL     1      17.196  49.525   9.784  1.00  0.00     0.062 A 
ATOM     17  C   UNL     1      17.190  49.078   8.455  1.00  0.00     0.158 A 
BRANCH  15  18
ATOM     18  O   UNL     1      17.438  47.288   6.849  1.00  0.00    -0.504 OA
ATOM     19  H   UNL     1      17.042  46.392   6.593  1.00  0.00     0.293 HD
ENDBRANCH  15  18
BRANCH  17  20
ATOM     20  O   UNL     1      16.934  49.966   7.413  1.00  0.00    -0.504 OA
ATOM     21  H   UNL     1      16.799  50.956   7.581  1.00  0.00     0.293 HD
ENDBRANCH  17  20
ENDBRANCH   1  12
BRANCH   2  22
ATOM     22  O   UNL     1      19.892  49.163  12.285  1.00  0.00    -0.502 OA
ATOM     23  H   UNL     1      19.970  48.630  11.426  1.00  0.00     0.293 HD
ENDBRANCH   2  22
BRANCH   6  24
ATOM     24  O   UNL     1      18.224  51.183  16.922  1.00  0.00    -0.507 OA
ATOM     25  H   UNL     1      19.205  51.020  16.749  1.00  0.00     0.293 HD
ENDBRANCH   6  24
BRANCH   8  26
ATOM     26  O   UNL     1      13.516  50.412  16.558  1.00  0.00    -0.508 OA
ATOM     27  H   UNL     1      13.180  51.274  16.971  1.00  0.00     0.293 HD
ENDBRANCH   8  26
TORSDOF 6
ENDMDL
MODEL 6
REMARK VINA RESULT:    -6.366      3.632      5.423
REMARK INTER + INTRA:          -7.904
REMARK INTER:                  -7.811
REMARK INTRA:                  -0.093
REMARK UNBOUND:                -0.235
REMARK SMILES O=c1c(O)c(-c2ccc(O)c(O)c2)oc2cc(O)cc(O)c12
REMARK SMILES IDX 5 1 3 2 2 3 1 4 22 5 20 6 19 7 17 8 16 9 15 10 14 11 6 12
REMARK SMILES IDX 7 13 8 14 9 15 13 16 11 17 10 18 12 20 4 22 21 24 18 26
REMARK H PARENT 10 19 12 21 4 23 21 25 18 27
REMARK Flexibility Score: inf
ROOT
ATOM      1  C   UNL     1      22.317  47.471   8.682  1.00  0.00     0.180 A 
ATOM      2  C   UNL     1      21.175  47.732   9.459  1.00  0.00     0.208 A 
ATOM      3  C   UNL     1      19.906  47.556   8.885  1.00  0.00     0.238 A 
ATOM      4  O   UNL     1      18.888  47.740   9.601  1.00  0.00    -0.285 OA
ATOM      5  C   UNL     1      19.794  47.137   7.538  1.00  0.00     0.111 A 
ATOM      6  C   UNL     1      18.559  46.965   6.842  1.00  0.00     0.134 A 
ATOM      7  C   UNL     1      18.564  46.421   5.552  1.00  0.00     0.093 A 
ATOM      8  C   UNL     1      19.758  46.103   4.908  1.00  0.00     0.123 A 
ATOM      9  C   UNL     1      20.975  46.322   5.556  1.00  0.00     0.094 A 
ATOM     10  C   UNL     1      21.001  46.831   6.857  1.00  0.00     0.146 A 
ATOM     11  O   UNL     1      22.178  47.015   7.442  1.00  0.00    -0.452 OA
ENDROOT
BRANCH   1  12
ATOM     12  C   UNL     1      23.688  47.657   9.209  1.00  0.00     0.025 A 
ATOM     13  C   UNL     1      24.107  48.890   9.739  1.00  0.00     0.016 A 
ATOM     14  C   UNL     1      25.414  49.049  10.208  1.00  0.00     0.051 A 
ATOM     15  C   UNL     1      26.323  47.987  10.142  1.00  0.00     0.157 A 
ATOM     16  C   UNL     1      24.611  46.601   9.125  1.00  0.00     0.062 A 
ATOM     17  C   UNL     1      25.922  46.760   9.596  1.00  0.00     0.158 A 
BRANCH  15  18
ATOM     18  O   UNL     1      27.627  48.141  10.611  1.00  0.00    -0.504 OA
ATOM     19  H   UNL     1      28.427  47.887  10.043  1.00  0.00     0.293 HD
ENDBRANCH  15  18
BRANCH  17  20
ATOM     20  O   UNL     1      26.830  45.706   9.525  1.00  0.00    -0.504 OA
ATOM     21  H   UNL     1      26.696  44.932   8.884  1.00  0.00     0.293 HD
ENDBRANCH  17  20
ENDBRANCH   1  12
BRANCH   2  22
ATOM     22  O   UNL     1      21.308  48.125  10.793  1.00  0.00    -0.502 OA
ATOM     23  H   UNL     1      21.223  49.091  11.087  1.00  0.00     0.293 HD
ENDBRANCH   2  22
BRANCH   6  24
ATOM     24  O   UNL     1      17.315  47.336   7.358  1.00  0.00    -0.507 OA
ATOM     25  H   UNL     1      16.662  47.952   6.899  1.00  0.00     0.293 HD
ENDBRANCH   6  24
BRANCH   8  26
ATOM     26  O   UNL     1      19.726  45.577   3.619  1.00  0.00    -0.508 OA
ATOM     27  H   UNL     1      19.659  44.580   3.454  1.00  0.00     0.293 HD
ENDBRANCH   8  26
TORSDOF 6
ENDMDL
MODEL 7
REMARK VINA RESULT:    -6.350      1.612      2.316
REMARK INTER + INTRA:          -7.885
REMARK INTER:                  -7.584
REMARK INTRA:                  -0.301
REMARK UNBOUND:                -0.235
REMARK SMILES O=c1c(O)c(-c2ccc(O)c(O)c2)oc2cc(O)cc(O)c12
REMARK SMILES IDX 5 1 3 2 2 3 1 4 22 5 20 6 19 7 17 8 16 9 15 10 14 11 6 12
REMARK SMILES IDX 7 13 8 14 9 15 13 16 11 17 10 18 12 20 4 22 21 24 18 26
REMARK H PARENT 10 19 12 21 4 23 21 25 18 27
REMARK Flexibility Score: inf
ROOT
ATOM      1  C   UNL     1      21.495  48.196   4.896  1.00  0.00     0.180 A 
ATOM      2  C   UNL     1      20.738  47.125   4.390  1.00  0.00     0.208 A 
ATOM      3  C   UNL     1      19.923  46.393   5.268  1.00  0.00     0.238 A 
ATOM      4  O   UNL     1      19.207  45.469   4.801  1.00  0.00    -0.285 OA
ATOM      5  C   UNL     1      19.887  46.731   6.643  1.00  0.00     0.111 A 
ATOM      6  C   UNL     1      19.127  46.031   7.629  1.00  0.00     0.134 A 
ATOM      7  C   UNL     1      19.064  46.534   8.935  1.00  0.00     0.093 A 
ATOM      8  C   UNL     1      19.781  47.669   9.306  1.00  0.00     0.123 A 
ATOM      9  C   UNL     1      20.575  48.326   8.364  1.00  0.00     0.094 A 
ATOM     10  C   UNL     1      20.631  47.870   7.044  1.00  0.00     0.146 A 
ATOM     11  O   UNL     1      21.389  48.529   6.177  1.00  0.00    -0.452 OA
ENDROOT
BRANCH   1  12
ATOM     12  C   UNL     1      22.396  48.998   4.037  1.00  0.00     0.025 A 
ATOM     13  C   UNL     1      23.666  48.524   3.665  1.00  0.00     0.016 A 
ATOM     14  C   UNL     1      24.510  49.309   2.875  1.00  0.00     0.051 A 
ATOM     15  C   UNL     1      24.104  50.582   2.457  1.00  0.00     0.157 A 
ATOM     16  C   UNL     1      22.003  50.285   3.634  1.00  0.00     0.062 A 
ATOM     17  C   UNL     1      22.848  51.073   2.840  1.00  0.00     0.158 A 
BRANCH  15  18
ATOM     18  O   UNL     1      24.941  51.368   1.667  1.00  0.00    -0.504 OA
ATOM     19  H   UNL     1      24.615  52.227   1.242  1.00  0.00     0.293 HD
ENDBRANCH  15  18
BRANCH  17  20
ATOM     20  O   UNL     1      22.449  52.343   2.429  1.00  0.00    -0.504 OA
ATOM     21  H   UNL     1      21.470  52.590   2.345  1.00  0.00     0.293 HD
ENDBRANCH  17  20
ENDBRANCH   1  12
BRANCH   2  22
ATOM     22  O   UNL     1      20.773  46.822   3.027  1.00  0.00    -0.502 OA
ATOM     23  H   UNL     1      21.126  47.472   2.334  1.00  0.00     0.293 HD
ENDBRANCH   2  22
BRANCH   6  24
ATOM     24  O   UNL     1      18.446  44.836   7.387  1.00  0.00    -0.507 OA
ATOM     25  H   UNL     1      18.861  43.918   7.432  1.00  0.00     0.293 HD
ENDBRANCH   6  24
BRANCH   8  26
ATOM     26  O   UNL     1      19.707  48.132  10.617  1.00  0.00    -0.508 OA
ATOM     27  H   UNL     1      20.031  47.570  11.397  1.00  0.00     0.293 HD
ENDBRANCH   8  26
TORSDOF 6
ENDMDL
MODEL 8
REMARK VINA RESULT:    -6.345      2.525      4.775
REMARK INTER + INTRA:          -7.878
REMARK INTER:                  -7.561
REMARK INTRA:                  -0.317
REMARK UNBOUND:                -0.235
REMARK SMILES O=c1c(O)c(-c2ccc(O)c(O)c2)oc2cc(O)cc(O)c12
REMARK SMILES IDX 5 1 3 2 2 3 1 4 22 5 20 6 19 7 17 8 16 9 15 10 14 11 6 12
REMARK SMILES IDX 7 13 8 14 9 15 13 16 11 17 10 18 12 20 4 22 21 24 18 26
REMARK H PARENT 10 19 12 21 4 23 21 25 18 27
REMARK Flexibility Score: inf
ROOT
ATOM      1  C   UNL     1      23.181  48.800   4.407  1.00  0.00     0.180 A 
ATOM      2  C   UNL     1      23.756  48.671   5.683  1.00  0.00     0.208 A 
ATOM      3  C   UNL     1      23.060  47.963   6.675  1.00  0.00     0.238 A 
ATOM      4  O   UNL     1      23.603  47.805   7.799  1.00  0.00    -0.285 OA
ATOM      5  C   UNL     1      21.791  47.407   6.385  1.00  0.00     0.111 A 
ATOM      6  C   UNL     1      20.979  46.705   7.326  1.00  0.00     0.134 A 
ATOM      7  C   UNL     1      19.800  46.084   6.894  1.00  0.00     0.093 A 
ATOM      8  C   UNL     1      19.371  46.194   5.572  1.00  0.00     0.123 A 
ATOM      9  C   UNL     1      20.127  46.929   4.657  1.00  0.00     0.094 A 
ATOM     10  C   UNL     1      21.325  47.530   5.050  1.00  0.00     0.146 A 
ATOM     11  O   UNL     1      22.020  48.210   4.146  1.00  0.00    -0.452 OA
ENDROOT
BRANCH   1  12
ATOM     12  C   UNL     1      23.843  49.552   3.317  1.00  0.00     0.025 A 
ATOM     13  C   UNL     1      24.797  48.943   2.483  1.00  0.00     0.016 A 
ATOM     14  C   UNL     1      25.427  49.679   1.475  1.00  0.00     0.051 A 
ATOM     15  C   UNL     1      25.124  51.034   1.295  1.00  0.00     0.157 A 
ATOM     16  C   UNL     1      23.558  50.917   3.145  1.00  0.00     0.062 A 
ATOM     17  C   UNL     1      24.189  51.655   2.135  1.00  0.00     0.158 A 
BRANCH  15  18
ATOM     18  O   UNL     1      25.748  51.771   0.291  1.00  0.00    -0.504 OA
ATOM     19  H   UNL     1      25.238  52.098  -0.521  1.00  0.00     0.293 HD
ENDBRANCH  15  18
BRANCH  17  20
ATOM     20  O   UNL     1      23.894  53.006   1.958  1.00  0.00    -0.504 OA
ATOM     21  H   UNL     1      24.102  53.485   1.089  1.00  0.00     0.293 HD
ENDBRANCH  17  20
ENDBRANCH   1  12
BRANCH   2  22
ATOM     22  O   UNL     1      25.019  49.210   5.942  1.00  0.00    -0.502 OA
ATOM     23  H   UNL     1      25.800  48.642   6.250  1.00  0.00     0.293 HD
ENDBRANCH   2  22
BRANCH   6  24
ATOM     24  O   UNL     1      21.269  46.611   8.690  1.00  0.00    -0.507 OA
ATOM     25  H   UNL     1      20.820  47.155   9.412  1.00  0.00     0.293 HD
ENDBRANCH   6  24
BRANCH   8  26
ATOM     26  O   UNL     1      18.185  45.577   5.180  1.00  0.00    -0.508 OA
ATOM     27  H   UNL     1      18.067  45.200   4.247  1.00  0.00     0.293 HD
ENDBRANCH   8  26
TORSDOF 6
ENDMDL
MODEL 9
REMARK VINA RESULT:    -6.287      4.557      6.352
REMARK INTER + INTRA:          -7.808
REMARK INTER:                  -7.538
REMARK INTRA:                  -0.271
REMARK UNBOUND:                -0.235
REMARK SMILES O=c1c(O)c(-c2ccc(O)c(O)c2)oc2cc(O)cc(O)c12
REMARK SMILES IDX 5 1 3 2 2 3 1 4 22 5 20 6 19 7 17 8 16 9 15 10 14 11 6 12
REMARK SMILES IDX 7 13 8 14 9 15 13 16 11 17 10 18 12 20 4 22 21 24 18 26
REMARK H PARENT 10 19 12 21 4 23 21 25 18 27
REMARK Flexibility Score: inf
ROOT
ATOM      1  C   UNL     1      18.212  50.394   6.957  1.00  0.00     0.180 A 
ATOM      2  C   UNL     1      18.184  49.701   8.179  1.00  0.00     0.208 A 
ATOM      3  C   UNL     1      18.789  48.436   8.259  1.00  0.00     0.238 A 
ATOM      4  O   UNL     1      18.807  47.844   9.369  1.00  0.00    -0.285 OA
ATOM      5  C   UNL     1      19.400  47.874   7.113  1.00  0.00     0.111 A 
ATOM      6  C   UNL     1      20.008  46.582   7.069  1.00  0.00     0.134 A 
ATOM      7  C   UNL     1      20.697  46.182   5.918  1.00  0.00     0.093 A 
ATOM      8  C   UNL     1      20.746  46.996   4.788  1.00  0.00     0.123 A 
ATOM      9  C   UNL     1      20.104  48.237   4.798  1.00  0.00     0.094 A 
ATOM     10  C   UNL     1      19.439  48.679   5.945  1.00  0.00     0.146 A 
ATOM     11  O   UNL     1      18.850  49.868   5.918  1.00  0.00    -0.452 OA
ENDROOT
BRANCH   1  12
ATOM     12  C   UNL     1      17.575  51.719   6.788  1.00  0.00     0.025 A 
ATOM     13  C   UNL     1      18.169  52.887   7.298  1.00  0.00     0.016 A 
ATOM     14  C   UNL     1      17.538  54.124   7.148  1.00  0.00     0.051 A 
ATOM     15  C   UNL     1      16.300  54.212   6.500  1.00  0.00     0.157 A 
ATOM     16  C   UNL     1      16.323  51.810   6.158  1.00  0.00     0.062 A 
ATOM     17  C   UNL     1      15.689  53.052   6.006  1.00  0.00     0.158 A 
BRANCH  15  18
ATOM     18  O   UNL     1      15.667  55.445   6.346  1.00  0.00    -0.504 OA
ATOM     19  H   UNL     1      14.903  55.570   5.694  1.00  0.00     0.293 HD
ENDBRANCH  15  18
BRANCH  17  20
ATOM     20  O   UNL     1      14.454  53.140   5.368  1.00  0.00    -0.504 OA
ATOM     21  H   UNL     1      13.945  54.015   5.317  1.00  0.00     0.293 HD
ENDBRANCH  17  20
ENDBRANCH   1  12
BRANCH   2  22
ATOM     22  O   UNL     1      17.594  50.283   9.303  1.00  0.00    -0.502 OA
ATOM     23  H   UNL     1      16.973  49.771   9.919  1.00  0.00     0.293 HD
ENDBRANCH   2  22
BRANCH   6  24
ATOM     24  O   UNL     1      19.940  45.653   8.110  1.00  0.00    -0.507 OA
ATOM     25  H   UNL     1      20.021  44.654   7.995  1.00  0.00     0.293 HD
ENDBRANCH   6  24
BRANCH   8  26
ATOM     26  O   UNL     1      21.427  46.560   3.654  1.00  0.00    -0.508 OA
ATOM     27  H   UNL     1      21.049  46.694   2.724  1.00  0.00     0.293 HD
ENDBRANCH   8  26
TORSDOF 6
ENDMDL
