MODEL 1
REMARK VINA RESULT:    -4.265      0.000      0.000
REMARK INTER + INTRA:          -4.608
REMARK INTER:                  -4.514
REMARK INTRA:                  -0.095
REMARK UNBOUND:                -0.095
REMARK SMILES C=C(C)[C@H]1CC=C(C)C(=O)C1
REMARK SMILES IDX 8 1 7 2 6 3 5 4 4 5 11 6 9 7 10 8 2 9 1 10 3 11
REMARK H PARENT
REMARK Flexibility Score: inf
ROOT
ATOM      1  C   UNL     1     129.667 125.390  97.778  1.00  0.00     0.048 C 
ATOM      2  C   UNL     1     129.699 123.992  98.330  1.00  0.00    -0.012 C 
ATOM      3  C   UNL     1     128.552 123.384  98.678  1.00  0.00    -0.019 C 
ATOM      4  C   UNL     1     128.528 121.992  99.252  1.00  0.00     0.036 C 
ATOM      5  C   UNL     1     129.665 121.133  98.670  1.00  0.00     0.025 C 
ATOM      6  C   UNL     1     131.023 121.828  98.882  1.00  0.00     0.089 C 
ATOM      7  C   UNL     1     130.979 123.241  98.371  1.00  0.00     0.158 C 
ATOM      8  O   UNL     1     132.051 123.797  98.010  1.00  0.00    -0.295 OA
ENDROOT
BRANCH   5   9
ATOM      9  C   UNL     1     129.661 119.729  99.258  1.00  0.00    -0.077 C 
ATOM     10  C   UNL     1     130.502 118.797  98.782  1.00  0.00     0.008 C 
ATOM     11  C   UNL     1     128.726 119.349 100.380  1.00  0.00     0.039 C 
ENDBRANCH   5   9
TORSDOF 1
ENDMDL
MODEL 2
REMARK VINA RESULT:    -4.207      2.247      4.682
REMARK INTER + INTRA:          -4.547
REMARK INTER:                  -4.448
REMARK INTRA:                  -0.099
REMARK UNBOUND:                -0.095
REMARK SMILES C=C(C)[C@H]1CC=C(C)C(=O)C1
REMARK SMILES IDX 8 1 7 2 6 3 5 4 4 5 11 6 9 7 10 8 2 9 1 10 3 11
REMARK H PARENT
REMARK Flexibility Score: inf
ROOT
ATOM      1  C   UNL     1     132.621 118.139  98.886  1.00  0.00     0.048 C 
ATOM      2  C   UNL     1     131.665 119.287  99.062  1.00  0.00    -0.012 C 
ATOM      3  C   UNL     1     132.059 120.537  98.761  1.00  0.00    -0.019 C 
ATOM      4  C   UNL     1     131.149 121.724  98.936  1.00  0.00     0.036 C 
ATOM      5  C   UNL     1     129.680 121.338  98.687  1.00  0.00     0.025 C 
ATOM      6  C   UNL     1     129.277 120.157  99.588  1.00  0.00     0.089 C 
ATOM      7  C   UNL     1     130.256 119.024  99.446  1.00  0.00     0.158 C 
ATOM      8  O   UNL     1     129.876 117.849  99.694  1.00  0.00    -0.295 OA
ENDROOT
BRANCH   5   9
ATOM      9  C   UNL     1     128.750 122.527  98.879  1.00  0.00    -0.077 C 
ATOM     10  C   UNL     1     127.702 122.435  99.713  1.00  0.00     0.008 C 
ATOM     11  C   UNL     1     128.977 123.828  98.150  1.00  0.00     0.039 C 
ENDBRANCH   5   9
TORSDOF 1
ENDMDL
MODEL 3
REMARK VINA RESULT:    -4.187      2.068      4.734
REMARK INTER + INTRA:          -4.526
REMARK INTER:                  -4.439
REMARK INTRA:                  -0.087
REMARK UNBOUND:                -0.095
REMARK SMILES C=C(C)[C@H]1CC=C(C)C(=O)C1
REMARK SMILES IDX 8 1 7 2 6 3 5 4 4 5 11 6 9 7 10 8 2 9 1 10 3 11
REMARK H PARENT
REMARK Flexibility Score: inf
ROOT
ATOM      1  C   UNL     1     128.088 122.133  99.368  1.00  0.00     0.048 C 
ATOM      2  C   UNL     1     129.187 122.935  98.729  1.00  0.00    -0.012 C 
ATOM      3  C   UNL     1     128.897 124.092  98.108  1.00  0.00    -0.019 C 
ATOM      4  C   UNL     1     129.956 124.926  97.436  1.00  0.00     0.036 C 
ATOM      5  C   UNL     1     131.304 124.804  98.169  1.00  0.00     0.025 C 
ATOM      6  C   UNL     1     131.716 123.326  98.291  1.00  0.00     0.089 C 
ATOM      7  C   UNL     1     130.601 122.514  98.891  1.00  0.00     0.158 C 
ATOM      8  O   UNL     1     130.877 121.448  99.503  1.00  0.00    -0.295 OA
ENDROOT
BRANCH   5   9
ATOM      9  C   UNL     1     132.386 125.628  97.485  1.00  0.00    -0.077 C 
ATOM     10  C   UNL     1     132.823 126.766  98.049  1.00  0.00     0.008 C 
ATOM     11  C   UNL     1     132.993 125.195  96.174  1.00  0.00     0.039 C 
ENDBRANCH   5   9
TORSDOF 1
ENDMDL
MODEL 4
REMARK VINA RESULT:    -4.186     12.039     13.233
REMARK INTER + INTRA:          -4.525
REMARK INTER:                  -4.427
REMARK INTRA:                  -0.098
REMARK UNBOUND:                -0.095
REMARK SMILES C=C(C)[C@H]1CC=C(C)C(=O)C1
REMARK SMILES IDX 8 1 7 2 6 3 5 4 4 5 11 6 9 7 10 8 2 9 1 10 3 11
REMARK H PARENT
REMARK Flexibility Score: inf
ROOT
ATOM      1  C   UNL     1     117.932 126.546 108.633  1.00  0.00     0.048 C 
ATOM      2  C   UNL     1     119.106 126.461 107.699  1.00  0.00    -0.012 C 
ATOM      3  C   UNL     1     120.162 127.274 107.876  1.00  0.00    -0.019 C 
ATOM      4  C   UNL     1     121.357 127.244 106.960  1.00  0.00     0.036 C 
ATOM      5  C   UNL     1     121.607 125.822 106.424  1.00  0.00     0.025 C 
ATOM      6  C   UNL     1     120.338 125.274 105.746  1.00  0.00     0.089 C 
ATOM      7  C   UNL     1     119.153 125.399 106.664  1.00  0.00     0.158 C 
ATOM      8  O   UNL     1     118.179 124.612 106.520  1.00  0.00    -0.295 OA
ENDROOT
BRANCH   5   9
ATOM      9  C   UNL     1     122.801 125.784 105.480  1.00  0.00    -0.077 C 
ATOM     10  C   UNL     1     122.860 124.864 104.505  1.00  0.00     0.008 C 
ATOM     11  C   UNL     1     123.938 126.768 105.611  1.00  0.00     0.039 C 
ENDBRANCH   5   9
TORSDOF 1
ENDMDL
MODEL 5
REMARK VINA RESULT:    -4.168      1.481      4.169
REMARK INTER + INTRA:          -4.506
REMARK INTER:                  -4.415
REMARK INTRA:                  -0.091
REMARK UNBOUND:                -0.095
REMARK SMILES C=C(C)[C@H]1CC=C(C)C(=O)C1
REMARK SMILES IDX 8 1 7 2 6 3 5 4 4 5 11 6 9 7 10 8 2 9 1 10 3 11
REMARK H PARENT
REMARK Flexibility Score: inf
ROOT
ATOM      1  C   UNL     1     132.676 118.181  98.890  1.00  0.00     0.048 C 
ATOM      2  C   UNL     1     131.717 119.331  98.755  1.00  0.00    -0.012 C 
ATOM      3  C   UNL     1     130.394 119.097  98.717  1.00  0.00    -0.019 C 
ATOM      4  C   UNL     1     129.390 120.210  98.565  1.00  0.00     0.036 C 
ATOM      5  C   UNL     1     129.888 121.501  99.238  1.00  0.00     0.025 C 
ATOM      6  C   UNL     1     131.276 121.888  98.694  1.00  0.00     0.089 C 
ATOM      7  C   UNL     1     132.225 120.725  98.789  1.00  0.00     0.158 C 
ATOM      8  O   UNL     1     133.463 120.947  98.860  1.00  0.00    -0.295 OA
ENDROOT
BRANCH   5   9
ATOM      9  C   UNL     1     128.889 122.638  99.073  1.00  0.00    -0.077 C 
ATOM     10  C   UNL     1     127.737 122.627  99.762  1.00  0.00     0.008 C 
ATOM     11  C   UNL     1     129.161 123.794  98.143  1.00  0.00     0.039 C 
ENDBRANCH   5   9
TORSDOF 1
ENDMDL
MODEL 6
REMARK VINA RESULT:    -4.147     10.639     11.081
REMARK INTER + INTRA:          -4.484
REMARK INTER:                  -4.390
REMARK INTRA:                  -0.094
REMARK UNBOUND:                -0.095
REMARK SMILES C=C(C)[C@H]1CC=C(C)C(=O)C1
REMARK SMILES IDX 8 1 7 2 6 3 5 4 4 5 11 6 9 7 10 8 2 9 1 10 3 11
REMARK H PARENT
REMARK Flexibility Score: inf
ROOT
ATOM      1  C   UNL     1     126.891 126.890 107.392  1.00  0.00     0.048 C 
ATOM      2  C   UNL     1     128.212 126.649 108.067  1.00  0.00    -0.012 C 
ATOM      3  C   UNL     1     128.254 126.422 109.392  1.00  0.00    -0.019 C 
ATOM      4  C   UNL     1     129.551 126.193 110.122  1.00  0.00     0.036 C 
ATOM      5  C   UNL     1     130.574 125.475 109.222  1.00  0.00     0.025 C 
ATOM      6  C   UNL     1     130.773 126.256 107.910  1.00  0.00     0.089 C 
ATOM      7  C   UNL     1     129.449 126.536 107.255  1.00  0.00     0.158 C 
ATOM      8  O   UNL     1     129.405 126.712 106.008  1.00  0.00    -0.295 OA
ENDROOT
BRANCH   5   9
ATOM      9  C   UNL     1     131.895 125.256 109.945  1.00  0.00    -0.077 C 
ATOM     10  C   UNL     1     131.916 124.640 111.138  1.00  0.00     0.008 C 
ATOM     11  C   UNL     1     133.203 125.716 109.349  1.00  0.00     0.039 C 
ENDBRANCH   5   9
TORSDOF 1
ENDMDL
MODEL 7
REMARK VINA RESULT:    -4.137      1.595      4.295
REMARK INTER + INTRA:          -4.474
REMARK INTER:                  -4.378
REMARK INTRA:                  -0.096
REMARK UNBOUND:                -0.095
REMARK SMILES C=C(C)[C@H]1CC=C(C)C(=O)C1
REMARK SMILES IDX 8 1 7 2 6 3 5 4 4 5 11 6 9 7 10 8 2 9 1 10 3 11
REMARK H PARENT
REMARK Flexibility Score: inf
ROOT
ATOM      1  C   UNL     1     130.512 118.352  99.427  1.00  0.00     0.048 C 
ATOM      2  C   UNL     1     130.442 119.798  99.023  1.00  0.00    -0.012 C 
ATOM      3  C   UNL     1     129.248 120.405  98.913  1.00  0.00    -0.019 C 
ATOM      4  C   UNL     1     129.119 121.846  98.493  1.00  0.00     0.036 C 
ATOM      5  C   UNL     1     130.321 122.674  98.983  1.00  0.00     0.025 C 
ATOM      6  C   UNL     1     131.639 122.042  98.501  1.00  0.00     0.089 C 
ATOM      7  C   UNL     1     131.692 120.584  98.867  1.00  0.00     0.158 C 
ATOM      8  O   UNL     1     132.813 120.025  99.005  1.00  0.00    -0.295 OA
ENDROOT
BRANCH   5   9
ATOM      9  C   UNL     1     130.210 124.129  98.547  1.00  0.00    -0.077 C 
ATOM     10  C   UNL     1     131.181 125.001  98.861  1.00  0.00     0.008 C 
ATOM     11  C   UNL     1     129.023 124.625  97.759  1.00  0.00     0.039 C 
ENDBRANCH   5   9
TORSDOF 1
ENDMDL
MODEL 8
REMARK VINA RESULT:    -4.065     13.499     14.648
REMARK INTER + INTRA:          -4.397
REMARK INTER:                  -4.301
REMARK INTRA:                  -0.097
REMARK UNBOUND:                -0.095
REMARK SMILES C=C(C)[C@H]1CC=C(C)C(=O)C1
REMARK SMILES IDX 8 1 7 2 6 3 5 4 4 5 11 6 9 7 10 8 2 9 1 10 3 11
REMARK H PARENT
REMARK Flexibility Score: inf
ROOT
ATOM      1  C   UNL     1     122.220 126.933 106.390  1.00  0.00     0.048 C 
ATOM      2  C   UNL     1     120.868 126.498 106.882  1.00  0.00    -0.012 C 
ATOM      3  C   UNL     1     120.271 127.171 107.881  1.00  0.00    -0.019 C 
ATOM      4  C   UNL     1     118.926 126.768 108.424  1.00  0.00     0.036 C 
ATOM      5  C   UNL     1     118.042 126.159 107.320  1.00  0.00     0.025 C 
ATOM      6  C   UNL     1     118.771 124.988 106.637  1.00  0.00     0.089 C 
ATOM      7  C   UNL     1     120.141 125.409 106.183  1.00  0.00     0.158 C 
ATOM      8  O   UNL     1     120.685 124.800 105.223  1.00  0.00    -0.295 OA
ENDROOT
BRANCH   5   9
ATOM      9  C   UNL     1     116.687 125.730 107.864  1.00  0.00    -0.077 C 
ATOM     10  C   UNL     1     116.614 124.963 108.963  1.00  0.00     0.008 C 
ATOM     11  C   UNL     1     115.402 126.151 107.193  1.00  0.00     0.039 C 
ENDBRANCH   5   9
TORSDOF 1
ENDMDL
MODEL 9
REMARK VINA RESULT:    -4.025      1.460      2.444
REMARK INTER + INTRA:          -4.354
REMARK INTER:                  -4.257
REMARK INTRA:                  -0.098
REMARK UNBOUND:                -0.095
REMARK SMILES C=C(C)[C@H]1CC=C(C)C(=O)C1
REMARK SMILES IDX 8 1 7 2 6 3 5 4 4 5 11 6 9 7 10 8 2 9 1 10 3 11
REMARK H PARENT
REMARK Flexibility Score: inf
ROOT
ATOM      1  C   UNL     1     132.226 126.450  97.819  1.00  0.00     0.048 C 
ATOM      2  C   UNL     1     131.305 125.352  98.273  1.00  0.00    -0.012 C 
ATOM      3  C   UNL     1     130.116 125.183  97.668  1.00  0.00    -0.019 C 
ATOM      4  C   UNL     1     129.148 124.111  98.094  1.00  0.00     0.036 C 
ATOM      5  C   UNL     1     129.892 122.866  98.611  1.00  0.00     0.025 C 
ATOM      6  C   UNL     1     130.867 123.254  99.738  1.00  0.00     0.089 C 
ATOM      7  C   UNL     1     131.760 124.382  99.300  1.00  0.00     0.158 C 
ATOM      8  O   UNL     1     132.889 124.518  99.843  1.00  0.00    -0.295 OA
ENDROOT
BRANCH   5   9
ATOM      9  C   UNL     1     128.922 121.784  99.063  1.00  0.00    -0.077 C 
ATOM     10  C   UNL     1     127.722 122.121  99.563  1.00  0.00     0.008 C 
ATOM     11  C   UNL     1     129.274 120.320  98.962  1.00  0.00     0.039 C 
ENDBRANCH   5   9
TORSDOF 1
ENDMDL
