MODEL 1
REMARK VINA RESULT:    -3.606      0.000      0.000
REMARK INTER + INTRA:          -6.975
REMARK INTER:                  -5.714
REMARK INTRA:                  -1.262
REMARK UNBOUND:                -1.262
REMARK SMILES CCCCCCCCCCCC(=O)[O-]
REMARK SMILES IDX 7 1 8 2 9 3 10 4 11 5 12 6 13 7 14 8 6 9 5 10 4 11 3 12 2 13
REMARK SMILES IDX 1 14
REMARK H PARENT
REMARK Flexibility Score: inf
ROOT
ATOM      1  C   UNL     1      -6.963   1.767   0.197  1.00  0.00     0.000 C 
ENDROOT
BRANCH   1   2
ATOM      2  C   UNL     1      -6.001   2.062  -0.963  1.00  0.00     0.000 C 
BRANCH   2   3
ATOM      3  C   UNL     1      -5.303   3.424  -0.824  1.00  0.00     0.000 C 
BRANCH   3   4
ATOM      4  C   UNL     1      -3.769   3.307  -0.832  1.00  0.00     0.006 C 
BRANCH   4   5
ATOM      5  C   UNL     1      -3.213   2.894   0.537  1.00  0.00     0.053 C 
BRANCH   5   6
ATOM      6  C   UNL     1      -3.594   3.866   1.611  1.00  0.00     0.041 C 
ATOM      7  O   UNL     1      -4.320   3.497   2.572  1.00  0.00    -0.550 OA
ATOM      8  O   UNL     1      -3.121   5.172   1.568  1.00  0.00    -0.550 OA
ENDBRANCH   5   6
ENDBRANCH   4   5
ENDBRANCH   3   4
ENDBRANCH   2   3
ENDBRANCH   1   2
BRANCH   1   9
ATOM      9  C   UNL     1      -6.315   0.828   1.222  1.00  0.00     0.000 C 
BRANCH   9  10
ATOM     10  C   UNL     1      -5.222  -0.030   0.568  1.00  0.00    -0.000 C 
BRANCH  10  11
ATOM     11  C   UNL     1      -5.333  -1.521   0.934  1.00  0.00    -0.000 C 
BRANCH  11  12
ATOM     12  C   UNL     1      -6.768  -2.085   0.954  1.00  0.00    -0.000 C 
BRANCH  12  13
ATOM     13  C   UNL     1      -7.366  -2.386  -0.430  1.00  0.00    -0.003 C 
ATOM     14  C   UNL     1      -8.568  -1.502  -0.765  1.00  0.00     0.004 C 
ENDBRANCH  12  13
ENDBRANCH  11  12
ENDBRANCH  10  11
ENDBRANCH   9  10
ENDBRANCH   1   9
TORSDOF 10
ENDMDL
MODEL 2
REMARK VINA RESULT:    -3.544      2.908      5.378
REMARK INTER + INTRA:          -6.877
REMARK INTER:                  -5.465
REMARK INTRA:                  -1.412
REMARK UNBOUND:                -1.262
REMARK SMILES CCCCCCCCCCCC(=O)[O-]
REMARK SMILES IDX 7 1 8 2 9 3 10 4 11 5 12 6 13 7 14 8 6 9 5 10 4 11 3 12 2 13
REMARK SMILES IDX 1 14
REMARK H PARENT
REMARK Flexibility Score: inf
ROOT
ATOM      1  C   UNL     1      -6.268   2.801  -1.397  1.00  0.00     0.000 C 
ENDROOT
BRANCH   1   2
ATOM      2  C   UNL     1      -6.943   3.141  -0.060  1.00  0.00     0.000 C 
BRANCH   2   3
ATOM      3  C   UNL     1      -6.970   1.950   0.911  1.00  0.00     0.000 C 
BRANCH   3   4
ATOM      4  C   UNL     1      -6.689   0.609   0.212  1.00  0.00     0.006 C 
BRANCH   4   5
ATOM      5  C   UNL     1      -5.381  -0.033   0.693  1.00  0.00     0.053 C 
BRANCH   5   6
ATOM      6  C   UNL     1      -5.452  -1.529   0.673  1.00  0.00     0.041 C 
ATOM      7  O   UNL     1      -4.636  -2.193  -0.019  1.00  0.00    -0.550 OA
ATOM      8  O   UNL     1      -6.399  -2.191   1.444  1.00  0.00    -0.550 OA
ENDBRANCH   5   6
ENDBRANCH   4   5
ENDBRANCH   3   4
ENDBRANCH   2   3
ENDBRANCH   1   2
BRANCH   1   9
ATOM      9  C   UNL     1      -5.513   4.014  -1.954  1.00  0.00     0.000 C 
BRANCH   9  10
ATOM     10  C   UNL     1      -4.172   4.209  -1.230  1.00  0.00    -0.000 C 
BRANCH  10  11
ATOM     11  C   UNL     1      -3.507   2.879  -0.834  1.00  0.00    -0.000 C 
BRANCH  11  12
ATOM     12  C   UNL     1      -3.157   2.742   0.661  1.00  0.00    -0.000 C 
BRANCH  12  13
ATOM     13  C   UNL     1      -3.454   3.987   1.514  1.00  0.00    -0.003 C 
ATOM     14  C   UNL     1      -4.327   3.680   2.731  1.00  0.00     0.004 C 
ENDBRANCH  12  13
ENDBRANCH  11  12
ENDBRANCH  10  11
ENDBRANCH   9  10
ENDBRANCH   1   9
TORSDOF 10
ENDMDL
MODEL 3
REMARK VINA RESULT:    -3.517      0.966      2.278
REMARK INTER + INTRA:          -6.835
REMARK INTER:                  -5.669
REMARK INTRA:                  -1.166
REMARK UNBOUND:                -1.262
REMARK SMILES CCCCCCCCCCCC(=O)[O-]
REMARK SMILES IDX 7 1 8 2 9 3 10 4 11 5 12 6 13 7 14 8 6 9 5 10 4 11 3 12 2 13
REMARK SMILES IDX 1 14
REMARK H PARENT
REMARK Flexibility Score: inf
ROOT
ATOM      1  C   UNL     1      -6.127   3.599  -1.079  1.00  0.00     0.000 C 
ENDROOT
BRANCH   1   2
ATOM      2  C   UNL     1      -4.676   4.066  -0.890  1.00  0.00     0.000 C 
BRANCH   2   3
ATOM      3  C   UNL     1      -3.716   2.907  -0.576  1.00  0.00     0.000 C 
BRANCH   3   4
ATOM      4  C   UNL     1      -3.153   2.976   0.854  1.00  0.00     0.006 C 
BRANCH   4   5
ATOM      5  C   UNL     1      -4.243   3.274   1.892  1.00  0.00     0.053 C 
BRANCH   5   6
ATOM      6  C   UNL     1      -3.940   4.511   2.681  1.00  0.00     0.041 C 
ATOM      7  O   UNL     1      -3.494   5.538   2.104  1.00  0.00    -0.550 OA
ATOM      8  O   UNL     1      -4.180   4.540   4.049  1.00  0.00    -0.550 OA
ENDBRANCH   5   6
ENDBRANCH   4   5
ENDBRANCH   3   4
ENDBRANCH   2   3
ENDBRANCH   1   2
BRANCH   1   9
ATOM      9  C   UNL     1      -6.222   2.069  -1.026  1.00  0.00     0.000 C 
BRANCH   9  10
ATOM     10  C   UNL     1      -7.206   1.617   0.064  1.00  0.00    -0.000 C 
BRANCH  10  11
ATOM     11  C   UNL     1      -6.578   0.632   1.066  1.00  0.00    -0.000 C 
BRANCH  11  12
ATOM     12  C   UNL     1      -5.285  -0.057   0.583  1.00  0.00    -0.000 C 
BRANCH  12  13
ATOM     13  C   UNL     1      -5.296  -1.592   0.672  1.00  0.00    -0.003 C 
ATOM     14  C   UNL     1      -6.598  -2.210   0.160  1.00  0.00     0.004 C 
ENDBRANCH  12  13
ENDBRANCH  11  12
ENDBRANCH  10  11
ENDBRANCH   9  10
ENDBRANCH   1   9
TORSDOF 10
ENDMDL
MODEL 4
REMARK VINA RESULT:    -3.492      3.075      4.796
REMARK INTER + INTRA:          -6.796
REMARK INTER:                  -5.488
REMARK INTRA:                  -1.307
REMARK UNBOUND:                -1.262
REMARK SMILES CCCCCCCCCCCC(=O)[O-]
REMARK SMILES IDX 7 1 8 2 9 3 10 4 11 5 12 6 13 7 14 8 6 9 5 10 4 11 3 12 2 13
REMARK SMILES IDX 1 14
REMARK H PARENT
REMARK Flexibility Score: inf
ROOT
ATOM      1  C   UNL     1      -6.883   3.577  -0.716  1.00  0.00     0.000 C 
ENDROOT
BRANCH   1   2
ATOM      2  C   UNL     1      -5.915   4.688  -1.145  1.00  0.00     0.000 C 
BRANCH   2   3
ATOM      3  C   UNL     1      -5.205   4.378  -2.473  1.00  0.00     0.000 C 
BRANCH   3   4
ATOM      4  C   UNL     1      -3.676   4.514  -2.373  1.00  0.00     0.006 C 
BRANCH   4   5
ATOM      5  C   UNL     1      -3.050   5.002  -3.685  1.00  0.00     0.053 C 
BRANCH   5   6
ATOM      6  C   UNL     1      -2.088   4.003  -4.252  1.00  0.00     0.041 C 
ATOM      7  O   UNL     1      -1.954   3.889  -5.499  1.00  0.00    -0.550 OA
ATOM      8  O   UNL     1      -1.317   3.220  -3.403  1.00  0.00    -0.550 OA
ENDBRANCH   5   6
ENDBRANCH   4   5
ENDBRANCH   3   4
ENDBRANCH   2   3
ENDBRANCH   1   2
BRANCH   1   9
ATOM      9  C   UNL     1      -6.334   2.195  -1.095  1.00  0.00     0.000 C 
BRANCH   9  10
ATOM     10  C   UNL     1      -6.402   1.230   0.099  1.00  0.00    -0.000 C 
BRANCH  10  11
ATOM     11  C   UNL     1      -5.067   1.123   0.858  1.00  0.00    -0.000 C 
BRANCH  11  12
ATOM     12  C   UNL     1      -3.866   1.802   0.169  1.00  0.00    -0.000 C 
BRANCH  12  13
ATOM     13  C   UNL     1      -3.217   2.942   0.971  1.00  0.00    -0.003 C 
ATOM     14  C   UNL     1      -4.170   3.575   1.985  1.00  0.00     0.004 C 
ENDBRANCH  12  13
ENDBRANCH  11  12
ENDBRANCH  10  11
ENDBRANCH   9  10
ENDBRANCH   1   9
TORSDOF 10
ENDMDL
MODEL 5
REMARK VINA RESULT:    -3.480      3.140      5.747
REMARK INTER + INTRA:          -6.776
REMARK INTER:                  -5.610
REMARK INTRA:                  -1.166
REMARK UNBOUND:                -1.262
REMARK SMILES CCCCCCCCCCCC(=O)[O-]
REMARK SMILES IDX 7 1 8 2 9 3 10 4 11 5 12 6 13 7 14 8 6 9 5 10 4 11 3 12 2 13
REMARK SMILES IDX 1 14
REMARK H PARENT
REMARK Flexibility Score: inf
ROOT
ATOM      1  C   UNL     1      -4.871   2.647  -0.413  1.00  0.00     0.000 C 
ENDROOT
BRANCH   1   2
ATOM      2  C   UNL     1      -5.769   1.408  -0.293  1.00  0.00     0.000 C 
BRANCH   2   3
ATOM      3  C   UNL     1      -5.433   0.548   0.937  1.00  0.00     0.000 C 
BRANCH   3   4
ATOM      4  C   UNL     1      -5.155  -0.921   0.574  1.00  0.00     0.006 C 
BRANCH   4   5
ATOM      5  C   UNL     1      -6.308  -1.847   0.984  1.00  0.00     0.053 C 
BRANCH   5   6
ATOM      6  C   UNL     1      -7.228  -2.136  -0.162  1.00  0.00     0.041 C 
ATOM      7  O   UNL     1      -8.175  -1.349  -0.428  1.00  0.00    -0.550 OA
ATOM      8  O   UNL     1      -7.021  -3.257  -0.956  1.00  0.00    -0.550 OA
ENDBRANCH   5   6
ENDBRANCH   4   5
ENDBRANCH   3   4
ENDBRANCH   2   3
ENDBRANCH   1   2
BRANCH   1   9
ATOM      9  C   UNL     1      -3.425   2.317  -0.024  1.00  0.00     0.000 C 
BRANCH   9  10
ATOM     10  C   UNL     1      -3.016   3.060   1.257  1.00  0.00    -0.000 C 
BRANCH  10  11
ATOM     11  C   UNL     1      -4.020   4.154   1.661  1.00  0.00    -0.000 C 
BRANCH  11  12
ATOM     12  C   UNL     1      -4.531   4.070   3.113  1.00  0.00    -0.000 C 
BRANCH  12  13
ATOM     13  C   UNL     1      -5.840   3.285   3.296  1.00  0.00    -0.003 C 
ATOM     14  C   UNL     1      -6.974   3.803   2.411  1.00  0.00     0.004 C 
ENDBRANCH  12  13
ENDBRANCH  11  12
ENDBRANCH  10  11
ENDBRANCH   9  10
ENDBRANCH   1   9
TORSDOF 10
ENDMDL
MODEL 6
REMARK VINA RESULT:    -3.462      2.480      4.402
REMARK INTER + INTRA:          -6.748
REMARK INTER:                  -5.196
REMARK INTRA:                  -1.552
REMARK UNBOUND:                -1.262
REMARK SMILES CCCCCCCCCCCC(=O)[O-]
REMARK SMILES IDX 7 1 8 2 9 3 10 4 11 5 12 6 13 7 14 8 6 9 5 10 4 11 3 12 2 13
REMARK SMILES IDX 1 14
REMARK H PARENT
REMARK Flexibility Score: inf
ROOT
ATOM      1  C   UNL     1      -3.562   2.178   0.057  1.00  0.00     0.000 C 
ENDROOT
BRANCH   1   2
ATOM      2  C   UNL     1      -3.117   3.032   1.253  1.00  0.00     0.000 C 
BRANCH   2   3
ATOM      3  C   UNL     1      -3.549   4.503   1.125  1.00  0.00     0.000 C 
BRANCH   3   4
ATOM      4  C   UNL     1      -4.840   4.810   1.903  1.00  0.00     0.006 C 
BRANCH   4   5
ATOM      5  C   UNL     1      -4.926   4.023   3.216  1.00  0.00     0.053 C 
BRANCH   5   6
ATOM      6  C   UNL     1      -4.754   4.909   4.412  1.00  0.00     0.041 C 
ATOM      7  O   UNL     1      -4.092   5.977   4.319  1.00  0.00    -0.550 OA
ATOM      8  O   UNL     1      -5.351   4.573   5.620  1.00  0.00    -0.550 OA
ENDBRANCH   5   6
ENDBRANCH   4   5
ENDBRANCH   3   4
ENDBRANCH   2   3
ENDBRANCH   1   2
BRANCH   1   9
ATOM      9  C   UNL     1      -4.593   1.127   0.487  1.00  0.00     0.000 C 
BRANCH   9  10
ATOM     10  C   UNL     1      -6.024   1.616   0.215  1.00  0.00    -0.000 C 
BRANCH  10  11
ATOM     11  C   UNL     1      -6.157   2.359  -1.127  1.00  0.00    -0.000 C 
BRANCH  11  12
ATOM     12  C   UNL     1      -6.769   3.771  -1.035  1.00  0.00    -0.000 C 
BRANCH  12  13
ATOM     13  C   UNL     1      -6.257   4.771  -2.085  1.00  0.00    -0.003 C 
ATOM     14  C   UNL     1      -4.811   4.505  -2.505  1.00  0.00     0.004 C 
ENDBRANCH  12  13
ENDBRANCH  11  12
ENDBRANCH  10  11
ENDBRANCH   9  10
ENDBRANCH   1   9
TORSDOF 10
ENDMDL
MODEL 7
REMARK VINA RESULT:    -3.459      2.947      4.660
REMARK INTER + INTRA:          -6.743
REMARK INTER:                  -5.639
REMARK INTRA:                  -1.104
REMARK UNBOUND:                -1.262
REMARK SMILES CCCCCCCCCCCC(=O)[O-]
REMARK SMILES IDX 7 1 8 2 9 3 10 4 11 5 12 6 13 7 14 8 6 9 5 10 4 11 3 12 2 13
REMARK SMILES IDX 1 14
REMARK H PARENT
REMARK Flexibility Score: inf
ROOT
ATOM      1  C   UNL     1      -4.743   4.789   1.884  1.00  0.00     0.000 C 
ENDROOT
BRANCH   1   2
ATOM      2  C   UNL     1      -4.641   3.859   3.101  1.00  0.00     0.000 C 
BRANCH   2   3
ATOM      3  C   UNL     1      -5.967   3.739   3.870  1.00  0.00     0.000 C 
BRANCH   3   4
ATOM      4  C   UNL     1      -6.014   4.644   5.113  1.00  0.00     0.006 C 
BRANCH   4   5
ATOM      5  C   UNL     1      -4.620   5.135   5.525  1.00  0.00     0.053 C 
BRANCH   5   6
ATOM      6  C   UNL     1      -4.485   6.620   5.381  1.00  0.00     0.041 C 
ATOM      7  O   UNL     1      -5.151   7.392   6.121  1.00  0.00    -0.550 OA
ATOM      8  O   UNL     1      -3.601   7.152   4.451  1.00  0.00    -0.550 OA
ENDBRANCH   5   6
ENDBRANCH   4   5
ENDBRANCH   3   4
ENDBRANCH   2   3
ENDBRANCH   1   2
BRANCH   1   9
ATOM      9  C   UNL     1      -3.629   4.494   0.872  1.00  0.00     0.000 C 
BRANCH   9  10
ATOM     10  C   UNL     1      -3.068   3.077   1.069  1.00  0.00    -0.000 C 
BRANCH  10  11
ATOM     11  C   UNL     1      -3.550   2.087  -0.007  1.00  0.00    -0.000 C 
BRANCH  11  12
ATOM     12  C   UNL     1      -4.617   1.078   0.463  1.00  0.00    -0.000 C 
BRANCH  12  13
ATOM     13  C   UNL     1      -6.063   1.436   0.083  1.00  0.00    -0.003 C 
ATOM     14  C   UNL     1      -6.145   2.437  -1.070  1.00  0.00     0.004 C 
ENDBRANCH  12  13
ENDBRANCH  11  12
ENDBRANCH  10  11
ENDBRANCH   9  10
ENDBRANCH   1   9
TORSDOF 10
ENDMDL
MODEL 8
REMARK VINA RESULT:    -3.408      2.909      5.878
REMARK INTER + INTRA:          -6.661
REMARK INTER:                  -5.682
REMARK INTRA:                  -0.980
REMARK UNBOUND:                -1.262
REMARK SMILES CCCCCCCCCCCC(=O)[O-]
REMARK SMILES IDX 7 1 8 2 9 3 10 4 11 5 12 6 13 7 14 8 6 9 5 10 4 11 3 12 2 13
REMARK SMILES IDX 1 14
REMARK H PARENT
REMARK Flexibility Score: inf
ROOT
ATOM      1  C   UNL     1      -6.358   2.100   0.149  1.00  0.00     0.000 C 
ENDROOT
BRANCH   1   2
ATOM      2  C   UNL     1      -6.424   0.568   0.072  1.00  0.00     0.000 C 
BRANCH   2   3
ATOM      3  C   UNL     1      -5.265  -0.115   0.817  1.00  0.00     0.000 C 
BRANCH   3   4
ATOM      4  C   UNL     1      -5.356  -1.650   0.774  1.00  0.00     0.006 C 
BRANCH   4   5
ATOM      5  C   UNL     1      -6.769  -2.137   0.425  1.00  0.00     0.053 C 
BRANCH   5   6
ATOM      6  C   UNL     1      -7.544  -2.524   1.647  1.00  0.00     0.041 C 
ATOM      7  O   UNL     1      -7.814  -3.734   1.869  1.00  0.00    -0.550 OA
ATOM      8  O   UNL     1      -7.941  -1.553   2.557  1.00  0.00    -0.550 OA
ENDBRANCH   5   6
ENDBRANCH   4   5
ENDBRANCH   3   4
ENDBRANCH   2   3
ENDBRANCH   1   2
BRANCH   1   9
ATOM      9  C   UNL     1      -5.896   2.698  -1.185  1.00  0.00     0.000 C 
BRANCH   9  10
ATOM     10  C   UNL     1      -4.613   3.523  -1.004  1.00  0.00    -0.000 C 
BRANCH  10  11
ATOM     11  C   UNL     1      -3.425   2.680  -0.505  1.00  0.00    -0.000 C 
BRANCH  11  12
ATOM     12  C   UNL     1      -3.027   2.918   0.966  1.00  0.00    -0.000 C 
BRANCH  12  13
ATOM     13  C   UNL     1      -3.678   4.145   1.625  1.00  0.00    -0.003 C 
ATOM     14  C   UNL     1      -4.470   3.795   2.884  1.00  0.00     0.004 C 
ENDBRANCH  12  13
ENDBRANCH  11  12
ENDBRANCH  10  11
ENDBRANCH   9  10
ENDBRANCH   1   9
TORSDOF 10
ENDMDL
MODEL 9
REMARK VINA RESULT:    -3.340      1.795      2.887
REMARK INTER + INTRA:          -6.553
REMARK INTER:                  -5.262
REMARK INTRA:                  -1.291
REMARK UNBOUND:                -1.262
REMARK SMILES CCCCCCCCCCCC(=O)[O-]
REMARK SMILES IDX 7 1 8 2 9 3 10 4 11 5 12 6 13 7 14 8 6 9 5 10 4 11 3 12 2 13
REMARK SMILES IDX 1 14
REMARK H PARENT
REMARK Flexibility Score: inf
ROOT
ATOM      1  C   UNL     1      -5.755   4.183  -0.676  1.00  0.00     0.000 C 
ENDROOT
BRANCH   1   2
ATOM      2  C   UNL     1      -7.123   4.569  -0.096  1.00  0.00     0.000 C 
BRANCH   2   3
ATOM      3  C   UNL     1      -7.431   3.852   1.229  1.00  0.00     0.000 C 
BRANCH   3   4
ATOM      4  C   UNL     1      -6.681   4.469   2.423  1.00  0.00     0.006 C 
BRANCH   4   5
ATOM      5  C   UNL     1      -5.727   3.468   3.087  1.00  0.00     0.053 C 
BRANCH   5   6
ATOM      6  C   UNL     1      -4.376   4.065   3.337  1.00  0.00     0.041 C 
ATOM      7  O   UNL     1      -3.469   3.966   2.469  1.00  0.00    -0.550 OA
ATOM      8  O   UNL     1      -4.128   4.758   4.515  1.00  0.00    -0.550 OA
ENDBRANCH   5   6
ENDBRANCH   4   5
ENDBRANCH   3   4
ENDBRANCH   2   3
ENDBRANCH   1   2
BRANCH   1   9
ATOM      9  C   UNL     1      -5.676   2.674  -0.938  1.00  0.00     0.000 C 
BRANCH   9  10
ATOM     10  C   UNL     1      -4.447   2.060  -0.249  1.00  0.00    -0.000 C 
BRANCH  10  11
ATOM     11  C   UNL     1      -4.806   0.885   0.678  1.00  0.00    -0.000 C 
BRANCH  11  12
ATOM     12  C   UNL     1      -6.279   0.431   0.619  1.00  0.00    -0.000 C 
BRANCH  12  13
ATOM     13  C   UNL     1      -6.485  -1.083   0.454  1.00  0.00    -0.003 C 
ATOM     14  C   UNL     1      -5.173  -1.868   0.464  1.00  0.00     0.004 C 
ENDBRANCH  12  13
ENDBRANCH  11  12
ENDBRANCH  10  11
ENDBRANCH   9  10
ENDBRANCH   1   9
TORSDOF 10
ENDMDL
