MODEL 1
REMARK VINA RESULT:    -3.255      0.000      0.000
REMARK INTER + INTRA:          -3.838
REMARK INTER:                  -4.968
REMARK INTRA:                   1.130
REMARK UNBOUND:                 1.130
REMARK SMILES CC1=CCC[C@@H](C)C(=O)C[C@H](C(C)C)C(=O)C1
REMARK SMILES IDX 8 1 9 2 6 3 7 4 5 5 4 6 3 7 2 8 1 9 10 11 11 12 15 13 16 14
REMARK SMILES IDX 17 15 12 17 13 18 14 19
REMARK H PARENT
REMARK Flexibility Score: 70.00
ROOT
ATOM      1  C   UNL     1      18.127  -7.762  13.245  1.00  0.00     0.136 C 
ATOM      2  O   UNL     1      18.572  -6.686  12.875  1.00  0.00    -0.299 OA
ENDROOT
BRANCH   1   3
ATOM      3  C   UNL     1      18.383  -8.251  14.661  1.00  0.00     0.053 C 
ATOM      4  C   UNL     1      18.479  -9.784  14.743  1.00  0.00     0.016 C 
BRANCH   3   5
ATOM      5  C   UNL     1      17.336  -7.695  15.647  1.00  0.00     0.015 C 
BRANCH   5   6
ATOM      6  C   UNL     1      17.085  -6.181  15.498  1.00  0.00     0.028 C 
BRANCH   6   7
ATOM      7  C   UNL     1      15.607  -5.885  15.454  1.00  0.00    -0.028 C 
ATOM      8  C   UNL     1      14.858  -5.865  14.326  1.00  0.00    -0.070 CG0
ATOM      9  C   UNL     1      13.403  -5.491  14.449  1.00  0.00     0.039 C 
ATOM     10  G   UNL     1      15.416  -6.219  12.955  1.00  0.00     0.000 G0
ENDBRANCH   6   7
ENDBRANCH   5   6
ENDBRANCH   3   5
ENDBRANCH   1   3
BRANCH   1  11
ATOM     11  C   UNL     1      17.326  -8.594  12.272  1.00  0.00     0.087 C 
BRANCH  11  12
ATOM     12  C   UNL     1      15.863  -8.802  12.747  1.00  0.00     0.066 C 
BRANCH  12  13
ATOM     13  C   UNL     1      15.009  -7.577  12.453  1.00  0.00     0.140 C 
ATOM     14  O   UNL     1      13.939  -7.706  11.876  1.00  0.00    -0.299 OA
BRANCH  13  15
ATOM     15  C   UNL     1      15.424  -6.210  12.941  1.00  0.00     0.106 CG0
ATOM     16  G   UNL     1      14.868  -5.891  14.322  1.00  0.00     0.000 G0
ENDBRANCH  13  15
ENDBRANCH  12  13
BRANCH  12  17
ATOM     17  C   UNL     1      15.198 -10.093  12.166  1.00  0.00    -0.006 C 
ATOM     18  C   UNL     1      13.820 -10.349  12.797  1.00  0.00     0.008 C 
ATOM     19  C   UNL     1      16.070 -11.356  12.287  1.00  0.00     0.008 C 
ENDBRANCH  12  17
ENDBRANCH  11  12
ENDBRANCH   1  11
TORSDOF 1
ENDMDL
MODEL 2
REMARK VINA RESULT:    -2.316      2.034      5.340
REMARK INTER + INTRA:          -2.405
REMARK INTER:                  -2.634
REMARK INTRA:                   0.229
REMARK UNBOUND:                 1.130
REMARK SMILES CC1=CCC[C@@H](C)C(=O)C[C@H](C(C)C)C(=O)C1
REMARK SMILES IDX 8 1 9 2 6 3 7 4 5 5 4 6 3 7 2 8 1 9 10 11 11 12 15 13 16 14
REMARK SMILES IDX 17 15 12 17 13 18 14 19
REMARK H PARENT
REMARK Flexibility Score: 70.00
ROOT
ATOM      1  C   UNL     1      14.046  -5.473  14.213  1.00  0.00     0.136 C 
ATOM      2  O   UNL     1      13.031  -6.128  14.399  1.00  0.00    -0.299 OA
ENDROOT
BRANCH   1   3
ATOM      3  C   UNL     1      14.508  -5.159  12.800  1.00  0.00     0.053 C 
ATOM      4  C   UNL     1      13.802  -3.924  12.214  1.00  0.00     0.016 C 
BRANCH   3   5
ATOM      5  C   UNL     1      14.365  -6.385  11.875  1.00  0.00     0.015 C 
BRANCH   5   6
ATOM      6  C   UNL     1      15.103  -7.639  12.387  1.00  0.00     0.028 C 
BRANCH   6   7
ATOM      7  C   UNL     1      16.552  -7.615  11.973  1.00  0.00    -0.028 C 
ATOM      8  C   UNL     1      17.597  -7.523  12.830  1.00  0.00    -0.070 CG0
ATOM      9  C   UNL     1      18.985  -7.451  12.248  1.00  0.00     0.039 C 
ATOM     10  G   UNL     1      17.430  -7.509  14.343  1.00  0.00     0.000 G0
ENDBRANCH   6   7
ENDBRANCH   5   6
ENDBRANCH   3   5
ENDBRANCH   1   3
BRANCH   1  11
ATOM     11  C   UNL     1      14.831  -4.988  15.409  1.00  0.00     0.087 C 
BRANCH  11  12
ATOM     12  C   UNL     1      15.877  -6.031  15.884  1.00  0.00     0.066 C 
BRANCH  12  13
ATOM     13  C   UNL     1      17.018  -6.162  14.885  1.00  0.00     0.140 C 
ATOM     14  O   UNL     1      17.658  -5.172  14.559  1.00  0.00    -0.299 OA
BRANCH  13  15
ATOM     15  C   UNL     1      17.429  -7.513  14.353  1.00  0.00     0.106 CG0
ATOM     16  G   UNL     1      17.609  -7.513  12.842  1.00  0.00     0.000 G0
ENDBRANCH  13  15
ENDBRANCH  12  13
BRANCH  12  17
ATOM     17  C   UNL     1      16.428  -5.749  17.320  1.00  0.00    -0.006 C 
ATOM     18  C   UNL     1      16.485  -7.034  18.163  1.00  0.00     0.008 C 
ATOM     19  C   UNL     1      15.657  -4.658  18.084  1.00  0.00     0.008 C 
ENDBRANCH  12  17
ENDBRANCH  11  12
ENDBRANCH   1  11
TORSDOF 1
ENDMDL
MODEL 3
REMARK VINA RESULT:    -1.935      2.410      4.519
REMARK INTER + INTRA:          -1.824
REMARK INTER:                  -2.593
REMARK INTRA:                   0.769
REMARK UNBOUND:                 1.130
REMARK SMILES CC1=CCC[C@@H](C)C(=O)C[C@H](C(C)C)C(=O)C1
REMARK SMILES IDX 8 1 9 2 6 3 7 4 5 5 4 6 3 7 2 8 1 9 10 11 11 12 15 13 16 14
REMARK SMILES IDX 17 15 12 17 13 18 14 19
REMARK H PARENT
REMARK Flexibility Score: 70.00
ROOT
ATOM      1  C   UNL     1      14.107  -6.812  12.775  1.00  0.00     0.136 C 
ATOM      2  O   UNL     1      13.600  -7.899  13.014  1.00  0.00    -0.299 OA
ENDROOT
BRANCH   1   3
ATOM      3  C   UNL     1      13.373  -5.530  13.130  1.00  0.00     0.053 C 
ATOM      4  C   UNL     1      14.005  -4.292  12.473  1.00  0.00     0.016 C 
BRANCH   3   5
ATOM      5  C   UNL     1      13.245  -5.358  14.658  1.00  0.00     0.015 C 
BRANCH   5   6
ATOM      6  C   UNL     1      14.452  -4.651  15.307  1.00  0.00     0.028 C 
BRANCH   6   7
ATOM      7  C   UNL     1      14.961  -5.435  16.489  1.00  0.00    -0.028 C 
ATOM      8  C   UNL     1      16.183  -6.012  16.563  1.00  0.00    -0.070 CG0
ATOM      9  C   UNL     1      16.515  -6.814  17.796  1.00  0.00     0.039 C 
ATOM     10  G   UNL     1      17.234  -5.870  15.471  1.00  0.00     0.000 G0
ENDBRANCH   6   7
ENDBRANCH   5   6
ENDBRANCH   3   5
ENDBRANCH   1   3
BRANCH   1  11
ATOM     11  C   UNL     1      15.467  -6.769  12.120  1.00  0.00     0.087 C 
BRANCH  11  12
ATOM     12  C   UNL     1      16.484  -5.931  12.939  1.00  0.00     0.066 C 
BRANCH  12  13
ATOM     13  C   UNL     1      16.898  -6.655  14.211  1.00  0.00     0.140 C 
ATOM     14  O   UNL     1      17.021  -7.871  14.207  1.00  0.00    -0.299 OA
BRANCH  13  15
ATOM     15  C   UNL     1      17.242  -5.884  15.462  1.00  0.00     0.106 CG0
ATOM     16  G   UNL     1      16.171  -6.010  16.537  1.00  0.00     0.000 G0
ENDBRANCH  13  15
ENDBRANCH  12  13
BRANCH  12  17
ATOM     17  C   UNL     1      17.740  -5.499  12.114  1.00  0.00    -0.006 C 
ATOM     18  C   UNL     1      18.916  -6.466  12.330  1.00  0.00     0.008 C 
ATOM     19  C   UNL     1      18.198  -4.054  12.379  1.00  0.00     0.008 C 
ENDBRANCH  12  17
ENDBRANCH  11  12
ENDBRANCH   1  11
TORSDOF 1
ENDMDL
MODEL 4
REMARK VINA RESULT:    -1.838      2.032      4.630
REMARK INTER + INTRA:          -1.675
REMARK INTER:                  -4.454
REMARK INTRA:                   2.779
REMARK UNBOUND:                 1.130
REMARK SMILES CC1=CCC[C@@H](C)C(=O)C[C@H](C(C)C)C(=O)C1
REMARK SMILES IDX 8 1 9 2 6 3 7 4 5 5 4 6 3 7 2 8 1 9 10 11 11 12 15 13 16 14
REMARK SMILES IDX 17 15 12 17 13 18 14 19
REMARK H PARENT
REMARK Flexibility Score: 70.00
ROOT
ATOM      1  C   UNL     1      15.698  -5.759  12.234  1.00  0.00     0.136 C 
ATOM      2  O   UNL     1      16.015  -4.600  12.009  1.00  0.00    -0.299 OA
ENDROOT
BRANCH   1   3
ATOM      3  C   UNL     1      14.244  -6.119  12.492  1.00  0.00     0.053 C 
ATOM      4  C   UNL     1      13.831  -5.879  13.953  1.00  0.00     0.016 C 
BRANCH   3   5
ATOM      5  C   UNL     1      13.933  -7.562  12.044  1.00  0.00     0.015 C 
BRANCH   5   6
ATOM      6  C   UNL     1      13.407  -8.465  13.178  1.00  0.00     0.028 C 
BRANCH   6   7
ATOM      7  C   UNL     1      13.562  -9.921  12.820  1.00  0.00    -0.028 C 
ATOM      8  C   UNL     1      14.662 -10.460  12.244  1.00  0.00    -0.070 CG0
ATOM      9  C   UNL     1      14.632 -11.926  11.895  1.00  0.00     0.039 C 
ATOM     10  G   UNL     1      15.924  -9.659  11.955  1.00  0.00     0.000 G0
ENDBRANCH   6   7
ENDBRANCH   5   6
ENDBRANCH   3   5
ENDBRANCH   1   3
BRANCH   1  11
ATOM     11  C   UNL     1      16.773  -6.820  12.255  1.00  0.00     0.087 C 
BRANCH  11  12
ATOM     12  C   UNL     1      16.678  -7.723  13.513  1.00  0.00     0.066 C 
BRANCH  12  13
ATOM     13  C   UNL     1      16.702  -9.197  13.137  1.00  0.00     0.140 C 
ATOM     14  O   UNL     1      17.266 -10.002  13.863  1.00  0.00    -0.299 OA
BRANCH  13  15
ATOM     15  C   UNL     1      15.963  -9.696  11.918  1.00  0.00     0.106 CG0
ATOM     16  G   UNL     1      14.695 -10.456  12.278  1.00  0.00     0.000 G0
ENDBRANCH  13  15
ENDBRANCH  12  13
BRANCH  12  17
ATOM     17  C   UNL     1      17.770  -7.408  14.588  1.00  0.00    -0.006 C 
ATOM     18  C   UNL     1      18.188  -8.674  15.353  1.00  0.00     0.008 C 
ATOM     19  C   UNL     1      17.369  -6.305  15.584  1.00  0.00     0.008 C 
ENDBRANCH  12  17
ENDBRANCH  11  12
ENDBRANCH   1  11
TORSDOF 1
ENDMDL
MODEL 5
REMARK VINA RESULT:    -1.313      2.128      4.453
REMARK INTER + INTRA:          -0.874
REMARK INTER:                  -3.429
REMARK INTRA:                   2.554
REMARK UNBOUND:                 1.130
REMARK SMILES CC1=CCC[C@@H](C)C(=O)C[C@H](C(C)C)C(=O)C1
REMARK SMILES IDX 8 1 9 2 6 3 7 4 5 5 4 6 3 7 2 8 1 9 10 11 11 12 15 13 16 14
REMARK SMILES IDX 17 15 12 17 13 18 14 19
REMARK H PARENT
REMARK Flexibility Score: 70.00
ROOT
ATOM      1  C   UNL     1      15.185  -5.354  16.509  1.00  0.00     0.136 C 
ATOM      2  O   UNL     1      14.802  -4.271  16.927  1.00  0.00    -0.299 OA
ENDROOT
BRANCH   1   3
ATOM      3  C   UNL     1      16.178  -6.178  17.313  1.00  0.00     0.053 C 
ATOM      4  C   UNL     1      16.921  -5.337  18.364  1.00  0.00     0.016 C 
BRANCH   3   5
ATOM      5  C   UNL     1      17.158  -6.933  16.393  1.00  0.00     0.015 C 
BRANCH   5   6
ATOM      6  C   UNL     1      17.384  -6.250  15.029  1.00  0.00     0.028 C 
BRANCH   6   7
ATOM      7  C   UNL     1      17.751  -7.263  13.976  1.00  0.00    -0.028 C 
ATOM      8  C   UNL     1      16.933  -7.667  12.976  1.00  0.00    -0.070 CG0
ATOM      9  C   UNL     1      17.434  -8.736  12.038  1.00  0.00     0.039 C 
ATOM     10  G   UNL     1      15.547  -7.078  12.750  1.00  0.00     0.000 G0
ENDBRANCH   6   7
ENDBRANCH   5   6
ENDBRANCH   3   5
ENDBRANCH   1   3
BRANCH   1  11
ATOM     11  C   UNL     1      14.660  -5.853  15.184  1.00  0.00     0.087 C 
BRANCH  11  12
ATOM     12  C   UNL     1      14.950  -4.858  14.029  1.00  0.00     0.066 C 
BRANCH  12  13
ATOM     13  C   UNL     1      15.513  -5.576  12.811  1.00  0.00     0.140 C 
ATOM     14  O   UNL     1      16.024  -4.932  11.907  1.00  0.00    -0.299 OA
BRANCH  13  15
ATOM     15  C   UNL     1      15.527  -7.084  12.740  1.00  0.00     0.106 CG0
ATOM     16  G   UNL     1      16.917  -7.664  12.961  1.00  0.00     0.000 G0
ENDBRANCH  13  15
ENDBRANCH  12  13
BRANCH  12  17
ATOM     17  C   UNL     1      13.713  -3.986  13.634  1.00  0.00    -0.006 C 
ATOM     18  C   UNL     1      12.482  -4.337  14.486  1.00  0.00     0.008 C 
ATOM     19  C   UNL     1      13.350  -4.052  12.140  1.00  0.00     0.008 C 
ENDBRANCH  12  17
ENDBRANCH  11  12
ENDBRANCH   1  11
TORSDOF 1
ENDMDL
MODEL 6
REMARK VINA RESULT:    -0.604      1.904      3.661
REMARK INTER + INTRA:           0.208
REMARK INTER:                  -3.166
REMARK INTRA:                   3.374
REMARK UNBOUND:                 1.130
REMARK SMILES CC1=CCC[C@@H](C)C(=O)C[C@H](C(C)C)C(=O)C1
REMARK SMILES IDX 8 1 9 2 6 3 7 4 5 5 4 6 3 7 2 8 1 9 10 11 11 12 15 13 16 14
REMARK SMILES IDX 17 15 12 17 13 18 14 19
REMARK H PARENT
REMARK Flexibility Score: 70.00
ROOT
ATOM      1  C   UNL     1      17.335  -7.997  13.215  1.00  0.00     0.136 C 
ATOM      2  O   UNL     1      17.919  -7.473  14.153  1.00  0.00    -0.299 OA
ENDROOT
BRANCH   1   3
ATOM      3  C   UNL     1      16.627  -9.329  13.402  1.00  0.00     0.053 C 
ATOM      4  C   UNL     1      17.139 -10.405  12.430  1.00  0.00     0.016 C 
BRANCH   3   5
ATOM      5  C   UNL     1      15.096  -9.169  13.317  1.00  0.00     0.015 C 
BRANCH   5   6
ATOM      6  C   UNL     1      14.639  -8.050  12.359  1.00  0.00     0.028 C 
BRANCH   6   7
ATOM      7  C   UNL     1      13.828  -7.014  13.093  1.00  0.00    -0.028 C 
ATOM      8  C   UNL     1      14.350  -6.027  13.859  1.00  0.00    -0.070 CG0
ATOM      9  C   UNL     1      13.395  -5.106  14.575  1.00  0.00     0.039 C 
ATOM     10  G   UNL     1      15.848  -5.799  14.009  1.00  0.00     0.000 G0
ENDBRANCH   6   7
ENDBRANCH   5   6
ENDBRANCH   3   5
ENDBRANCH   1   3
BRANCH   1  11
ATOM     11  C   UNL     1      17.335  -7.302  11.875  1.00  0.00     0.087 C 
BRANCH  11  12
ATOM     12  C   UNL     1      17.574  -5.774  12.009  1.00  0.00     0.066 C 
BRANCH  12  13
ATOM     13  C   UNL     1      16.456  -5.109  12.799  1.00  0.00     0.140 C 
ATOM     14  O   UNL     1      15.993  -4.044  12.419  1.00  0.00    -0.299 OA
BRANCH  13  15
ATOM     15  C   UNL     1      15.850  -5.789  14.003  1.00  0.00     0.106 CG0
ATOM     16  G   UNL     1      14.353  -6.018  13.849  1.00  0.00     0.000 G0
ENDBRANCH  13  15
ENDBRANCH  12  13
BRANCH  12  17
ATOM     17  C   UNL     1      18.970  -5.414  12.613  1.00  0.00    -0.006 C 
ATOM     18  C   UNL     1      19.204  -3.894  12.622  1.00  0.00     0.008 C 
ATOM     19  C   UNL     1      20.152  -6.120  11.927  1.00  0.00     0.008 C 
ENDBRANCH  12  17
ENDBRANCH  11  12
ENDBRANCH   1  11
TORSDOF 1
ENDMDL
