MODEL 1
REMARK VINA RESULT:    -5.986      0.000      0.000
REMARK INTER + INTRA:          -7.535
REMARK INTER:                  -7.211
REMARK INTRA:                  -0.324
REMARK UNBOUND:                -0.324
REMARK SMILES O=c1c(O)c(-c2ccc(O)c(O)c2)oc2cc(O)cc(O)c12
REMARK SMILES IDX 5 1 3 2 2 3 1 4 22 5 20 6 19 7 17 8 16 9 15 10 14 11 6 12
REMARK SMILES IDX 7 13 8 14 9 15 13 16 11 17 10 18 12 20 4 22 21 24 18 26
REMARK H PARENT 10 19 12 21 4 23 21 25 18 27
REMARK Flexibility Score: inf
ROOT
ATOM      1  C   UNL     1    -120.243-100.569   1.810  1.00  0.00     0.180 A 
ATOM      2  C   UNL     1    -119.744-101.829   1.438  1.00  0.00     0.208 A 
ATOM      3  C   UNL     1    -118.440-101.921   0.924  1.00  0.00     0.238 A 
ATOM      4  O   UNL     1    -117.974-103.060   0.662  1.00  0.00    -0.285 OA
ATOM      5  C   UNL     1    -117.672-100.746   0.737  1.00  0.00     0.111 A 
ATOM      6  C   UNL     1    -116.357-100.716   0.182  1.00  0.00     0.134 A 
ATOM      7  C   UNL     1    -115.651 -99.507   0.142  1.00  0.00     0.093 A 
ATOM      8  C   UNL     1    -116.237 -98.316   0.579  1.00  0.00     0.123 A 
ATOM      9  C   UNL     1    -117.540 -98.326   1.071  1.00  0.00     0.094 A 
ATOM     10  C   UNL     1    -118.255 -99.523   1.158  1.00  0.00     0.146 A 
ATOM     11  O   UNL     1    -119.487 -99.490   1.653  1.00  0.00    -0.452 OA
ENDROOT
BRANCH   1  12
ATOM     12  C   UNL     1    -121.601-100.393   2.373  1.00  0.00     0.025 A 
ATOM     13  C   UNL     1    -122.713-100.167   1.544  1.00  0.00     0.016 A 
ATOM     14  C   UNL     1    -123.989-100.029   2.097  1.00  0.00     0.051 A 
ATOM     15  C   UNL     1    -124.175-100.126   3.481  1.00  0.00     0.157 A 
ATOM     16  C   UNL     1    -121.795-100.512   3.759  1.00  0.00     0.062 A 
ATOM     17  C   UNL     1    -123.071-100.373   4.316  1.00  0.00     0.158 A 
BRANCH  15  18
ATOM     18  O   UNL     1    -125.449 -99.985   4.030  1.00  0.00    -0.504 OA
ATOM     19  H   UNL     1    -126.121 -99.332   3.648  1.00  0.00     0.293 HD
ENDBRANCH  15  18
BRANCH  17  20
ATOM     20  O   UNL     1    -123.223-100.483   5.697  1.00  0.00    -0.504 OA
ATOM     21  H   UNL     1    -124.064-100.180   6.172  1.00  0.00     0.293 HD
ENDBRANCH  17  20
ENDBRANCH   1  12
BRANCH   2  22
ATOM     22  O   UNL     1    -120.546-102.967   1.558  1.00  0.00    -0.502 OA
ATOM     23  H   UNL     1    -121.275-103.047   2.257  1.00  0.00     0.293 HD
ENDBRANCH   2  22
BRANCH   6  24
ATOM     24  O   UNL     1    -115.711-101.829  -0.364  1.00  0.00    -0.507 OA
ATOM     25  H   UNL     1    -115.235-102.541   0.169  1.00  0.00     0.293 HD
ENDBRANCH   6  24
BRANCH   8  26
ATOM     26  O   UNL     1    -115.534 -97.115   0.521  1.00  0.00    -0.508 OA
ATOM     27  H   UNL     1    -115.117 -96.705   1.348  1.00  0.00     0.293 HD
ENDBRANCH   8  26
TORSDOF 6
ENDMDL
MODEL 2
REMARK VINA RESULT:    -5.599      3.442      6.265
REMARK INTER + INTRA:          -7.068
REMARK INTER:                  -6.881
REMARK INTRA:                  -0.188
REMARK UNBOUND:                -0.324
REMARK SMILES O=c1c(O)c(-c2ccc(O)c(O)c2)oc2cc(O)cc(O)c12
REMARK SMILES IDX 5 1 3 2 2 3 1 4 22 5 20 6 19 7 17 8 16 9 15 10 14 11 6 12
REMARK SMILES IDX 7 13 8 14 9 15 13 16 11 17 10 18 12 20 4 22 21 24 18 26
REMARK H PARENT 10 19 12 21 4 23 21 25 18 27
REMARK Flexibility Score: inf
ROOT
ATOM      1  C   UNL     1    -116.569 -98.102   1.203  1.00  0.00     0.180 A 
ATOM      2  C   UNL     1    -115.589 -98.354   0.227  1.00  0.00     0.208 A 
ATOM      3  C   UNL     1    -115.626 -99.567  -0.479  1.00  0.00     0.238 A 
ATOM      4  O   UNL     1    -114.790 -99.753  -1.401  1.00  0.00    -0.285 OA
ATOM      5  C   UNL     1    -116.609-100.536  -0.165  1.00  0.00     0.111 A 
ATOM      6  C   UNL     1    -116.713-101.818  -0.785  1.00  0.00     0.134 A 
ATOM      7  C   UNL     1    -117.791-102.654  -0.468  1.00  0.00     0.093 A 
ATOM      8  C   UNL     1    -118.733-102.281   0.495  1.00  0.00     0.123 A 
ATOM      9  C   UNL     1    -118.609-101.055   1.145  1.00  0.00     0.094 A 
ATOM     10  C   UNL     1    -117.566-100.184   0.822  1.00  0.00     0.146 A 
ATOM     11  O   UNL     1    -117.498 -99.017   1.453  1.00  0.00    -0.452 OA
ENDROOT
BRANCH   1  12
ATOM     12  C   UNL     1    -116.605 -96.842   1.979  1.00  0.00     0.025 A 
ATOM     13  C   UNL     1    -115.587 -96.515   2.891  1.00  0.00     0.016 A 
ATOM     14  C   UNL     1    -115.630 -95.308   3.594  1.00  0.00     0.051 A 
ATOM     15  C   UNL     1    -116.682 -94.407   3.388  1.00  0.00     0.157 A 
ATOM     16  C   UNL     1    -117.647 -95.926   1.760  1.00  0.00     0.062 A 
ATOM     17  C   UNL     1    -117.694 -94.717   2.463  1.00  0.00     0.158 A 
BRANCH  15  18
ATOM     18  O   UNL     1    -116.724 -93.204   4.093  1.00  0.00    -0.504 OA
ATOM     19  H   UNL     1    -115.948 -92.900   4.668  1.00  0.00     0.293 HD
ENDBRANCH  15  18
BRANCH  17  20
ATOM     20  O   UNL     1    -118.750 -93.838   2.229  1.00  0.00    -0.504 OA
ATOM     21  H   UNL     1    -119.226 -93.794   1.336  1.00  0.00     0.293 HD
ENDBRANCH  17  20
ENDBRANCH   1  12
BRANCH   2  22
ATOM     22  O   UNL     1    -114.581 -97.416  -0.014  1.00  0.00    -0.502 OA
ATOM     23  H   UNL     1    -114.124 -96.905   0.731  1.00  0.00     0.293 HD
ENDBRANCH   2  22
BRANCH   6  24
ATOM     24  O   UNL     1    -115.780-102.327  -1.693  1.00  0.00    -0.507 OA
ATOM     25  H   UNL     1    -114.792-102.126  -1.681  1.00  0.00     0.293 HD
ENDBRANCH   6  24
BRANCH   8  26
ATOM     26  O   UNL     1    -119.793-103.125   0.816  1.00  0.00    -0.508 OA
ATOM     27  H   UNL     1    -119.678-103.897   1.462  1.00  0.00     0.293 HD
ENDBRANCH   8  26
TORSDOF 6
ENDMDL
MODEL 3
REMARK VINA RESULT:    -5.429     13.454     14.548
REMARK INTER + INTRA:          -6.863
REMARK INTER:                  -6.681
REMARK INTRA:                  -0.183
REMARK UNBOUND:                -0.324
REMARK SMILES O=c1c(O)c(-c2ccc(O)c(O)c2)oc2cc(O)cc(O)c12
REMARK SMILES IDX 5 1 3 2 2 3 1 4 22 5 20 6 19 7 17 8 16 9 15 10 14 11 6 12
REMARK SMILES IDX 7 13 8 14 9 15 13 16 11 17 10 18 12 20 4 22 21 24 18 26
REMARK H PARENT 10 19 12 21 4 23 21 25 18 27
REMARK Flexibility Score: inf
ROOT
ATOM      1  C   UNL     1    -114.744 -98.016  15.015  1.00  0.00     0.180 A 
ATOM      2  C   UNL     1    -114.664 -98.930  16.080  1.00  0.00     0.208 A 
ATOM      3  C   UNL     1    -114.039-100.169  15.870  1.00  0.00     0.238 A 
ATOM      4  O   UNL     1    -113.906-100.950  16.848  1.00  0.00    -0.285 OA
ATOM      5  C   UNL     1    -113.549-100.503  14.584  1.00  0.00     0.111 A 
ATOM      6  C   UNL     1    -112.938-101.748  14.246  1.00  0.00     0.134 A 
ATOM      7  C   UNL     1    -112.395-101.926  12.967  1.00  0.00     0.093 A 
ATOM      8  C   UNL     1    -112.499-100.929  11.994  1.00  0.00     0.123 A 
ATOM      9  C   UNL     1    -113.142 -99.731  12.298  1.00  0.00     0.094 A 
ATOM     10  C   UNL     1    -113.660 -99.509  13.577  1.00  0.00     0.146 A 
ATOM     11  O   UNL     1    -114.246 -98.345  13.828  1.00  0.00    -0.452 OA
ENDROOT
BRANCH   1  12
ATOM     12  C   UNL     1    -115.375 -96.685  15.162  1.00  0.00     0.025 A 
ATOM     13  C   UNL     1    -114.840 -95.713  16.026  1.00  0.00     0.016 A 
ATOM     14  C   UNL     1    -115.440 -94.455  16.130  1.00  0.00     0.051 A 
ATOM     15  C   UNL     1    -116.571 -94.145  15.365  1.00  0.00     0.157 A 
ATOM     16  C   UNL     1    -116.496 -96.362  14.381  1.00  0.00     0.062 A 
ATOM     17  C   UNL     1    -117.099 -95.104  14.483  1.00  0.00     0.158 A 
BRANCH  15  18
ATOM     18  O   UNL     1    -117.168 -92.889  15.472  1.00  0.00    -0.504 OA
ATOM     19  H   UNL     1    -118.173 -92.774  15.417  1.00  0.00     0.293 HD
ENDBRANCH  15  18
BRANCH  17  20
ATOM     20  O   UNL     1    -118.219 -94.824  13.701  1.00  0.00    -0.504 OA
ATOM     21  H   UNL     1    -118.144 -94.387  12.790  1.00  0.00     0.293 HD
ENDBRANCH  17  20
ENDBRANCH   1  12
BRANCH   2  22
ATOM     22  O   UNL     1    -115.222 -98.612  17.322  1.00  0.00    -0.502 OA
ATOM     23  H   UNL     1    -114.669 -98.253  18.090  1.00  0.00     0.293 HD
ENDBRANCH   2  22
BRANCH   6  24
ATOM     24  O   UNL     1    -112.859-102.843  15.111  1.00  0.00    -0.507 OA
ATOM     25  H   UNL     1    -113.652-103.319  15.515  1.00  0.00     0.293 HD
ENDBRANCH   6  24
BRANCH   8  26
ATOM     26  O   UNL     1    -111.971-101.121  10.720  1.00  0.00    -0.508 OA
ATOM     27  H   UNL     1    -111.747-100.339  10.116  1.00  0.00     0.293 HD
ENDBRANCH   8  26
TORSDOF 6
ENDMDL
MODEL 4
REMARK VINA RESULT:    -5.382      4.551      7.369
REMARK INTER + INTRA:          -6.807
REMARK INTER:                  -6.495
REMARK INTRA:                  -0.312
REMARK UNBOUND:                -0.324
REMARK SMILES O=c1c(O)c(-c2ccc(O)c(O)c2)oc2cc(O)cc(O)c12
REMARK SMILES IDX 5 1 3 2 2 3 1 4 22 5 20 6 19 7 17 8 16 9 15 10 14 11 6 12
REMARK SMILES IDX 7 13 8 14 9 15 13 16 11 17 10 18 12 20 4 22 21 24 18 26
REMARK H PARENT 10 19 12 21 4 23 21 25 18 27
REMARK Flexibility Score: inf
ROOT
ATOM      1  C   UNL     1    -116.178 -97.358   1.696  1.00  0.00     0.180 A 
ATOM      2  C   UNL     1    -117.275 -96.480   1.634  1.00  0.00     0.208 A 
ATOM      3  C   UNL     1    -117.286 -95.344   2.459  1.00  0.00     0.238 A 
ATOM      4  O   UNL     1    -118.235 -94.525   2.343  1.00  0.00    -0.285 OA
ATOM      5  C   UNL     1    -116.228 -95.127   3.375  1.00  0.00     0.111 A 
ATOM      6  C   UNL     1    -116.158 -94.033   4.290  1.00  0.00     0.134 A 
ATOM      7  C   UNL     1    -115.012 -93.862   5.075  1.00  0.00     0.093 A 
ATOM      8  C   UNL     1    -113.961 -94.781   5.026  1.00  0.00     0.123 A 
ATOM      9  C   UNL     1    -114.044 -95.881   4.176  1.00  0.00     0.094 A 
ATOM     10  C   UNL     1    -115.158 -96.058   3.352  1.00  0.00     0.146 A 
ATOM     11  O   UNL     1    -115.185 -97.110   2.542  1.00  0.00    -0.452 OA
ENDROOT
BRANCH   1  12
ATOM     12  C   UNL     1    -116.086 -98.568   0.849  1.00  0.00     0.025 A 
ATOM     13  C   UNL     1    -115.332 -98.576  -0.337  1.00  0.00     0.016 A 
ATOM     14  C   UNL     1    -115.240 -99.738  -1.108  1.00  0.00     0.051 A 
ATOM     15  C   UNL     1    -115.890-100.910  -0.700  1.00  0.00     0.157 A 
ATOM     16  C   UNL     1    -116.718 -99.751   1.265  1.00  0.00     0.062 A 
ATOM     17  C   UNL     1    -116.629-100.916   0.495  1.00  0.00     0.158 A 
BRANCH  15  18
ATOM     18  O   UNL     1    -115.799-102.067  -1.473  1.00  0.00    -0.504 OA
ATOM     19  H   UNL     1    -116.311-102.167  -2.341  1.00  0.00     0.293 HD
ENDBRANCH  15  18
BRANCH  17  20
ATOM     20  O   UNL     1    -117.281-102.068   0.933  1.00  0.00    -0.504 OA
ATOM     21  H   UNL     1    -118.195-102.334   0.587  1.00  0.00     0.293 HD
ENDBRANCH  17  20
ENDBRANCH   1  12
BRANCH   2  22
ATOM     22  O   UNL     1    -118.346 -96.754   0.778  1.00  0.00    -0.502 OA
ATOM     23  H   UNL     1    -118.253 -96.737  -0.230  1.00  0.00     0.293 HD
ENDBRANCH   2  22
BRANCH   6  24
ATOM     24  O   UNL     1    -117.188 -93.107   4.485  1.00  0.00    -0.507 OA
ATOM     25  H   UNL     1    -118.077 -93.122   4.009  1.00  0.00     0.293 HD
ENDBRANCH   6  24
BRANCH   8  26
ATOM     26  O   UNL     1    -112.831 -94.612   5.823  1.00  0.00    -0.508 OA
ATOM     27  H   UNL     1    -112.558 -93.700   6.170  1.00  0.00     0.293 HD
ENDBRANCH   8  26
TORSDOF 6
ENDMDL
MODEL 5
REMARK VINA RESULT:    -5.138      2.590      6.176
REMARK INTER + INTRA:          -6.513
REMARK INTER:                  -6.184
REMARK INTRA:                  -0.329
REMARK UNBOUND:                -0.324
REMARK SMILES O=c1c(O)c(-c2ccc(O)c(O)c2)oc2cc(O)cc(O)c12
REMARK SMILES IDX 5 1 3 2 2 3 1 4 22 5 20 6 19 7 17 8 16 9 15 10 14 11 6 12
REMARK SMILES IDX 7 13 8 14 9 15 13 16 11 17 10 18 12 20 4 22 21 24 18 26
REMARK H PARENT 10 19 12 21 4 23 21 25 18 27
REMARK Flexibility Score: inf
ROOT
ATOM      1  C   UNL     1    -118.196 -97.927   1.075  1.00  0.00     0.180 A 
ATOM      2  C   UNL     1    -117.177 -98.866   0.839  1.00  0.00     0.208 A 
ATOM      3  C   UNL     1    -117.504-100.231   0.800  1.00  0.00     0.238 A 
ATOM      4  O   UNL     1    -116.601-101.059   0.514  1.00  0.00    -0.285 OA
ATOM      5  C   UNL     1    -118.835-100.645   1.052  1.00  0.00     0.111 A 
ATOM      6  C   UNL     1    -119.271-102.004   1.082  1.00  0.00     0.134 A 
ATOM      7  C   UNL     1    -120.633-102.289   1.237  1.00  0.00     0.093 A 
ATOM      8  C   UNL     1    -121.566-101.267   1.427  1.00  0.00     0.123 A 
ATOM      9  C   UNL     1    -121.143 -99.941   1.454  1.00  0.00     0.094 A 
ATOM     10  C   UNL     1    -119.796 -99.622   1.264  1.00  0.00     0.146 A 
ATOM     11  O   UNL     1    -119.440 -98.343   1.276  1.00  0.00    -0.452 OA
ENDROOT
BRANCH   1  12
ATOM     12  C   UNL     1    -117.932 -96.470   1.117  1.00  0.00     0.025 A 
ATOM     13  C   UNL     1    -117.919 -95.695  -0.056  1.00  0.00     0.016 A 
ATOM     14  C   UNL     1    -117.692 -94.318   0.011  1.00  0.00     0.051 A 
ATOM     15  C   UNL     1    -117.488 -93.694   1.248  1.00  0.00     0.157 A 
ATOM     16  C   UNL     1    -117.749 -95.838   2.357  1.00  0.00     0.062 A 
ATOM     17  C   UNL     1    -117.521 -94.459   2.427  1.00  0.00     0.158 A 
BRANCH  15  18
ATOM     18  O   UNL     1    -117.260 -92.320   1.312  1.00  0.00    -0.504 OA
ATOM     19  H   UNL     1    -116.322 -91.937   1.296  1.00  0.00     0.293 HD
ENDBRANCH  15  18
BRANCH  17  20
ATOM     20  O   UNL     1    -117.329 -93.867   3.675  1.00  0.00    -0.504 OA
ATOM     21  H   UNL     1    -116.525 -93.286   3.878  1.00  0.00     0.293 HD
ENDBRANCH  17  20
ENDBRANCH   1  12
BRANCH   2  22
ATOM     22  O   UNL     1    -115.856 -98.442   0.668  1.00  0.00    -0.502 OA
ATOM     23  H   UNL     1    -115.074 -99.086   0.670  1.00  0.00     0.293 HD
ENDBRANCH   2  22
BRANCH   6  24
ATOM     24  O   UNL     1    -118.413-103.104   0.991  1.00  0.00    -0.507 OA
ATOM     25  H   UNL     1    -118.497-103.950   1.534  1.00  0.00     0.293 HD
ENDBRANCH   6  24
BRANCH   8  26
ATOM     26  O   UNL     1    -122.917-101.561   1.597  1.00  0.00    -0.508 OA
ATOM     27  H   UNL     1    -123.349-101.558   2.513  1.00  0.00     0.293 HD
ENDBRANCH   8  26
TORSDOF 6
ENDMDL
MODEL 6
REMARK VINA RESULT:    -5.111      1.808      6.714
REMARK INTER + INTRA:          -6.480
REMARK INTER:                  -6.174
REMARK INTRA:                  -0.306
REMARK UNBOUND:                -0.324
REMARK SMILES O=c1c(O)c(-c2ccc(O)c(O)c2)oc2cc(O)cc(O)c12
REMARK SMILES IDX 5 1 3 2 2 3 1 4 22 5 20 6 19 7 17 8 16 9 15 10 14 11 6 12
REMARK SMILES IDX 7 13 8 14 9 15 13 16 11 17 10 18 12 20 4 22 21 24 18 26
REMARK H PARENT 10 19 12 21 4 23 21 25 18 27
REMARK Flexibility Score: inf
ROOT
ATOM      1  C   UNL     1    -117.407 -99.010   1.167  1.00  0.00     0.180 A 
ATOM      2  C   UNL     1    -117.141-100.354   0.850  1.00  0.00     0.208 A 
ATOM      3  C   UNL     1    -118.192-101.283   0.884  1.00  0.00     0.238 A 
ATOM      4  O   UNL     1    -117.961-102.468   0.526  1.00  0.00    -0.285 OA
ATOM      5  C   UNL     1    -119.485-100.871   1.288  1.00  0.00     0.111 A 
ATOM      6  C   UNL     1    -120.615-101.736   1.403  1.00  0.00     0.134 A 
ATOM      7  C   UNL     1    -121.870-101.197   1.710  1.00  0.00     0.093 A 
ATOM      8  C   UNL     1    -122.024 -99.833   1.970  1.00  0.00     0.123 A 
ATOM      9  C   UNL     1    -120.918 -98.989   1.914  1.00  0.00     0.094 A 
ATOM     10  C   UNL     1    -119.660 -99.492   1.573  1.00  0.00     0.146 A 
ATOM     11  O   UNL     1    -118.637 -98.648   1.511  1.00  0.00    -0.452 OA
ENDROOT
BRANCH   1  12
ATOM     12  C   UNL     1    -116.355 -97.969   1.140  1.00  0.00     0.025 A 
ATOM     13  C   UNL     1    -115.931 -97.389  -0.069  1.00  0.00     0.016 A 
ATOM     14  C   UNL     1    -114.953 -96.391  -0.067  1.00  0.00     0.051 A 
ATOM     15  C   UNL     1    -114.394 -95.949   1.139  1.00  0.00     0.157 A 
ATOM     16  C   UNL     1    -115.808 -97.509   2.348  1.00  0.00     0.062 A 
ATOM     17  C   UNL     1    -114.828 -96.510   2.353  1.00  0.00     0.158 A 
BRANCH  15  18
ATOM     18  O   UNL     1    -113.417 -94.955   1.137  1.00  0.00    -0.504 OA
ATOM     19  H   UNL     1    -112.944 -94.679   0.285  1.00  0.00     0.293 HD
ENDBRANCH  15  18
BRANCH  17  20
ATOM     20  O   UNL     1    -114.297 -96.088   3.571  1.00  0.00    -0.504 OA
ATOM     21  H   UNL     1    -114.202 -95.107   3.806  1.00  0.00     0.293 HD
ENDBRANCH  17  20
ENDBRANCH   1  12
BRANCH   2  22
ATOM     22  O   UNL     1    -115.841-100.755   0.528  1.00  0.00    -0.502 OA
ATOM     23  H   UNL     1    -115.036-100.160   0.676  1.00  0.00     0.293 HD
ENDBRANCH   2  22
BRANCH   6  24
ATOM     24  O   UNL     1    -120.557-103.125   1.252  1.00  0.00    -0.507 OA
ATOM     25  H   UNL     1    -121.276-103.769   1.542  1.00  0.00     0.293 HD
ENDBRANCH   6  24
BRANCH   8  26
ATOM     26  O   UNL     1    -123.274 -99.307   2.291  1.00  0.00    -0.508 OA
ATOM     27  H   UNL     1    -123.616 -99.299   3.245  1.00  0.00     0.293 HD
ENDBRANCH   8  26
TORSDOF 6
ENDMDL
MODEL 7
REMARK VINA RESULT:    -5.051      3.247      5.871
REMARK INTER + INTRA:          -6.408
REMARK INTER:                  -6.195
REMARK INTRA:                  -0.213
REMARK UNBOUND:                -0.324
REMARK SMILES O=c1c(O)c(-c2ccc(O)c(O)c2)oc2cc(O)cc(O)c12
REMARK SMILES IDX 5 1 3 2 2 3 1 4 22 5 20 6 19 7 17 8 16 9 15 10 14 11 6 12
REMARK SMILES IDX 7 13 8 14 9 15 13 16 11 17 10 18 12 20 4 22 21 24 18 26
REMARK H PARENT 10 19 12 21 4 23 21 25 18 27
REMARK Flexibility Score: inf
ROOT
ATOM      1  C   UNL     1    -118.070 -98.038   1.220  1.00  0.00     0.180 A 
ATOM      2  C   UNL     1    -118.912 -96.912   1.228  1.00  0.00     0.208 A 
ATOM      3  C   UNL     1    -118.394 -95.678   1.655  1.00  0.00     0.238 A 
ATOM      4  O   UNL     1    -119.132 -94.660   1.588  1.00  0.00    -0.285 OA
ATOM      5  C   UNL     1    -117.060 -95.596   2.121  1.00  0.00     0.111 A 
ATOM      6  C   UNL     1    -116.445 -94.408   2.618  1.00  0.00     0.134 A 
ATOM      7  C   UNL     1    -115.086 -94.421   2.953  1.00  0.00     0.093 A 
ATOM      8  C   UNL     1    -114.334 -95.596   2.869  1.00  0.00     0.123 A 
ATOM      9  C   UNL     1    -114.939 -96.774   2.436  1.00  0.00     0.094 A 
ATOM     10  C   UNL     1    -116.284 -96.783   2.059  1.00  0.00     0.146 A 
ATOM     11  O   UNL     1    -116.814 -97.923   1.633  1.00  0.00    -0.452 OA
ENDROOT
BRANCH   1  12
ATOM     12  C   UNL     1    -118.538 -99.370   0.771  1.00  0.00     0.025 A 
ATOM     13  C   UNL     1    -119.476-100.105   1.516  1.00  0.00     0.016 A 
ATOM     14  C   UNL     1    -119.920-101.349   1.059  1.00  0.00     0.051 A 
ATOM     15  C   UNL     1    -119.445-101.869  -0.151  1.00  0.00     0.157 A 
ATOM     16  C   UNL     1    -118.080 -99.885  -0.452  1.00  0.00     0.062 A 
ATOM     17  C   UNL     1    -118.523-101.130  -0.912  1.00  0.00     0.158 A 
BRANCH  15  18
ATOM     18  O   UNL     1    -119.889-103.111  -0.604  1.00  0.00    -0.504 OA
ATOM     19  H   UNL     1    -120.865-103.282  -0.809  1.00  0.00     0.293 HD
ENDBRANCH  15  18
BRANCH  17  20
ATOM     20  O   UNL     1    -118.036-101.616  -2.125  1.00  0.00    -0.504 OA
ATOM     21  H   UNL     1    -118.402-101.302  -3.016  1.00  0.00     0.293 HD
ENDBRANCH  17  20
ENDBRANCH   1  12
BRANCH   2  22
ATOM     22  O   UNL     1    -120.248 -97.031   0.837  1.00  0.00    -0.502 OA
ATOM     23  H   UNL     1    -121.016 -96.742   1.431  1.00  0.00     0.293 HD
ENDBRANCH   2  22
BRANCH   6  24
ATOM     24  O   UNL     1    -117.123 -93.203   2.827  1.00  0.00    -0.507 OA
ATOM     25  H   UNL     1    -117.624 -92.959   3.668  1.00  0.00     0.293 HD
ENDBRANCH   6  24
BRANCH   8  26
ATOM     26  O   UNL     1    -112.986 -95.604   3.220  1.00  0.00    -0.508 OA
ATOM     27  H   UNL     1    -112.637 -96.193   3.966  1.00  0.00     0.293 HD
ENDBRANCH   8  26
TORSDOF 6
ENDMDL
MODEL 8
REMARK VINA RESULT:    -4.913      4.174      6.206
REMARK INTER + INTRA:          -6.242
REMARK INTER:                  -5.920
REMARK INTRA:                  -0.322
REMARK UNBOUND:                -0.324
REMARK SMILES O=c1c(O)c(-c2ccc(O)c(O)c2)oc2cc(O)cc(O)c12
REMARK SMILES IDX 5 1 3 2 2 3 1 4 22 5 20 6 19 7 17 8 16 9 15 10 14 11 6 12
REMARK SMILES IDX 7 13 8 14 9 15 13 16 11 17 10 18 12 20 4 22 21 24 18 26
REMARK H PARENT 10 19 12 21 4 23 21 25 18 27
REMARK Flexibility Score: inf
ROOT
ATOM      1  C   UNL     1    -116.341 -98.233   0.803  1.00  0.00     0.180 A 
ATOM      2  C   UNL     1    -115.031 -97.979   0.359  1.00  0.00     0.208 A 
ATOM      3  C   UNL     1    -114.377 -96.816   0.796  1.00  0.00     0.238 A 
ATOM      4  O   UNL     1    -113.179 -96.634   0.454  1.00  0.00    -0.285 OA
ATOM      5  C   UNL     1    -115.058 -95.894   1.627  1.00  0.00     0.111 A 
ATOM      6  C   UNL     1    -114.508 -94.662   2.094  1.00  0.00     0.134 A 
ATOM      7  C   UNL     1    -115.236 -93.879   2.998  1.00  0.00     0.093 A 
ATOM      8  C   UNL     1    -116.521 -94.251   3.402  1.00  0.00     0.123 A 
ATOM      9  C   UNL     1    -117.087 -95.424   2.910  1.00  0.00     0.094 A 
ATOM     10  C   UNL     1    -116.370 -96.246   2.036  1.00  0.00     0.146 A 
ATOM     11  O   UNL     1    -116.941 -97.365   1.608  1.00  0.00    -0.452 OA
ENDROOT
BRANCH   1  12
ATOM     12  C   UNL     1    -117.091 -99.443   0.397  1.00  0.00     0.025 A 
ATOM     13  C   UNL     1    -117.844 -99.474  -0.789  1.00  0.00     0.016 A 
ATOM     14  C   UNL     1    -118.523-100.636  -1.164  1.00  0.00     0.051 A 
ATOM     15  C   UNL     1    -118.451-101.786  -0.366  1.00  0.00     0.157 A 
ATOM     16  C   UNL     1    -117.003-100.604   1.182  1.00  0.00     0.062 A 
ATOM     17  C   UNL     1    -117.684-101.769   0.811  1.00  0.00     0.158 A 
BRANCH  15  18
ATOM     18  O   UNL     1    -119.133-102.943  -0.741  1.00  0.00    -0.504 OA
ATOM     19  H   UNL     1    -120.043-103.169  -0.360  1.00  0.00     0.293 HD
ENDBRANCH  15  18
BRANCH  17  20
ATOM     20  O   UNL     1    -117.585-102.899   1.622  1.00  0.00    -0.504 OA
ATOM     21  H   UNL     1    -118.240-103.082   2.372  1.00  0.00     0.293 HD
ENDBRANCH  17  20
ENDBRANCH   1  12
BRANCH   2  22
ATOM     22  O   UNL     1    -114.404 -98.863  -0.523  1.00  0.00    -0.502 OA
ATOM     23  H   UNL     1    -113.506 -98.663  -0.947  1.00  0.00     0.293 HD
ENDBRANCH   2  22
BRANCH   6  24
ATOM     24  O   UNL     1    -113.273 -94.150   1.686  1.00  0.00    -0.507 OA
ATOM     25  H   UNL     1    -112.965 -93.200   1.826  1.00  0.00     0.293 HD
ENDBRANCH   6  24
BRANCH   8  26
ATOM     26  O   UNL     1    -117.245 -93.458   4.289  1.00  0.00    -0.508 OA
ATOM     27  H   UNL     1    -117.084 -93.499   5.289  1.00  0.00     0.293 HD
ENDBRANCH   8  26
TORSDOF 6
ENDMDL
