MODEL 1
REMARK VINA RESULT:    -3.983      0.000      0.000
REMARK INTER + INTRA:          -5.366
REMARK INTER:                  -4.915
REMARK INTRA:                  -0.451
REMARK UNBOUND:                -0.451
REMARK SMILES COC(=O)c1ccccc1C(=O)OC
REMARK SMILES IDX 5 1 6 2 7 3 8 4 9 5 10 6 3 7 4 8 2 9 1 10 11 11 12 12 13 13
REMARK SMILES IDX 14 14
REMARK H PARENT
REMARK Flexibility Score: inf
ROOT
ATOM      1  C   UNL     1     168.990 186.066  31.327  1.00  0.00     0.074 A 
ATOM      2  C   UNL     1     170.182 185.395  31.001  1.00  0.00     0.016 A 
ATOM      3  C   UNL     1     171.378 185.709  31.646  1.00  0.00     0.001 A 
ATOM      4  C   UNL     1     171.404 186.697  32.628  1.00  0.00     0.001 A 
ATOM      5  C   UNL     1     170.237 187.391  32.952  1.00  0.00     0.016 A 
ATOM      6  C   UNL     1     169.025 187.106  32.298  1.00  0.00     0.074 A 
ENDROOT
BRANCH   1   7
ATOM      7  C   UNL     1     167.738 185.603  30.686  1.00  0.00     0.338 C 
ATOM      8  O   UNL     1     166.959 184.821  31.298  1.00  0.00    -0.246 OA
BRANCH   7   9
ATOM      9  O   UNL     1     167.451 185.993  29.373  1.00  0.00    -0.465 OA
ATOM     10  C   UNL     1     167.692 187.311  28.895  1.00  0.00     0.282 C 
ENDBRANCH   7   9
ENDBRANCH   1   7
BRANCH   6  11
ATOM     11  C   UNL     1     167.854 187.958  32.611  1.00  0.00     0.338 C 
ATOM     12  O   UNL     1     167.666 189.036  31.985  1.00  0.00    -0.246 OA
BRANCH  11  13
ATOM     13  O   UNL     1     166.989 187.587  33.646  1.00  0.00    -0.465 OA
ATOM     14  C   UNL     1     165.609 187.315  33.432  1.00  0.00     0.282 C 
ENDBRANCH  11  13
ENDBRANCH   6  11
TORSDOF 4
ENDMDL
MODEL 2
REMARK VINA RESULT:    -3.954      0.156      3.503
REMARK INTER + INTRA:          -5.329
REMARK INTER:                  -4.874
REMARK INTRA:                  -0.455
REMARK UNBOUND:                -0.451
REMARK SMILES COC(=O)c1ccccc1C(=O)OC
REMARK SMILES IDX 5 1 6 2 7 3 8 4 9 5 10 6 3 7 4 8 2 9 1 10 11 11 12 12 13 13
REMARK SMILES IDX 14 14
REMARK H PARENT
REMARK Flexibility Score: inf
ROOT
ATOM      1  C   UNL     1     169.146 187.027  32.371  1.00  0.00     0.074 A 
ATOM      2  C   UNL     1     170.378 187.273  33.003  1.00  0.00     0.016 A 
ATOM      3  C   UNL     1     171.521 186.562  32.640  1.00  0.00     0.001 A 
ATOM      4  C   UNL     1     171.455 185.595  31.640  1.00  0.00     0.001 A 
ATOM      5  C   UNL     1     170.239 185.318  31.015  1.00  0.00     0.016 A 
ATOM      6  C   UNL     1     169.068 186.008  31.381  1.00  0.00     0.074 A 
ENDROOT
BRANCH   1   7
ATOM      7  C   UNL     1     168.001 187.897  32.725  1.00  0.00     0.338 C 
ATOM      8  O   UNL     1     167.822 188.992  32.124  1.00  0.00    -0.246 OA
BRANCH   7   9
ATOM      9  O   UNL     1     167.150 187.524  33.770  1.00  0.00    -0.465 OA
ATOM     10  C   UNL     1     165.759 187.292  33.582  1.00  0.00     0.282 C 
ENDBRANCH   7   9
ENDBRANCH   1   7
BRANCH   6  11
ATOM     11  C   UNL     1     167.793 185.584  30.757  1.00  0.00     0.338 C 
ATOM     12  O   UNL     1     166.997 184.832  31.383  1.00  0.00    -0.246 OA
BRANCH  11  13
ATOM     13  O   UNL     1     167.504 185.976  29.446  1.00  0.00    -0.465 OA
ATOM     14  C   UNL     1     167.715 187.303  28.979  1.00  0.00     0.282 C 
ENDBRANCH  11  13
ENDBRANCH   6  11
TORSDOF 4
ENDMDL
MODEL 3
REMARK VINA RESULT:    -3.866      0.659      1.541
REMARK INTER + INTRA:          -5.221
REMARK INTER:                  -4.870
REMARK INTRA:                  -0.351
REMARK UNBOUND:                -0.451
REMARK SMILES COC(=O)c1ccccc1C(=O)OC
REMARK SMILES IDX 5 1 6 2 7 3 8 4 9 5 10 6 3 7 4 8 2 9 1 10 11 11 12 12 13 13
REMARK SMILES IDX 14 14
REMARK H PARENT
REMARK Flexibility Score: inf
ROOT
ATOM      1  C   UNL     1     168.895 186.098  31.119  1.00  0.00     0.074 A 
ATOM      2  C   UNL     1     170.071 185.382  30.833  1.00  0.00     0.016 A 
ATOM      3  C   UNL     1     171.257 185.655  31.514  1.00  0.00     0.001 A 
ATOM      4  C   UNL     1     171.290 186.646  32.492  1.00  0.00     0.001 A 
ATOM      5  C   UNL     1     170.140 187.384  32.777  1.00  0.00     0.016 A 
ATOM      6  C   UNL     1     168.939 187.141  32.086  1.00  0.00     0.074 A 
ENDROOT
BRANCH   1   7
ATOM      7  C   UNL     1     167.648 185.678  30.441  1.00  0.00     0.338 C 
ATOM      8  O   UNL     1     167.431 186.008  29.242  1.00  0.00    -0.246 OA
BRANCH   7   9
ATOM      9  O   UNL     1     166.682 184.962  31.157  1.00  0.00    -0.465 OA
ATOM     10  C   UNL     1     166.972 184.294  32.378  1.00  0.00     0.282 C 
ENDBRANCH   7   9
ENDBRANCH   1   7
BRANCH   6  11
ATOM     11  C   UNL     1     167.791 188.037  32.359  1.00  0.00     0.338 C 
ATOM     12  O   UNL     1     167.527 188.989  31.575  1.00  0.00    -0.246 OA
BRANCH  11  13
ATOM     13  O   UNL     1     167.037 187.856  33.523  1.00  0.00    -0.465 OA
ATOM     14  C   UNL     1     165.633 187.627  33.498  1.00  0.00     0.282 C 
ENDBRANCH  11  13
ENDBRANCH   6  11
TORSDOF 4
ENDMDL
MODEL 4
REMARK VINA RESULT:    -3.846      0.679      3.264
REMARK INTER + INTRA:          -5.197
REMARK INTER:                  -4.848
REMARK INTRA:                  -0.349
REMARK UNBOUND:                -0.451
REMARK SMILES COC(=O)c1ccccc1C(=O)OC
REMARK SMILES IDX 5 1 6 2 7 3 8 4 9 5 10 6 3 7 4 8 2 9 1 10 11 11 12 12 13 13
REMARK SMILES IDX 14 14
REMARK H PARENT
REMARK Flexibility Score: inf
ROOT
ATOM      1  C   UNL     1     168.924 187.147  32.067  1.00  0.00     0.074 A 
ATOM      2  C   UNL     1     170.127 187.411  32.744  1.00  0.00     0.016 A 
ATOM      3  C   UNL     1     171.276 186.667  32.476  1.00  0.00     0.001 A 
ATOM      4  C   UNL     1     171.243 185.647  31.528  1.00  0.00     0.001 A 
ATOM      5  C   UNL     1     170.054 185.353  30.860  1.00  0.00     0.016 A 
ATOM      6  C   UNL     1     168.877 186.076  31.131  1.00  0.00     0.074 A 
ENDROOT
BRANCH   1   7
ATOM      7  C   UNL     1     167.776 188.049  32.317  1.00  0.00     0.338 C 
ATOM      8  O   UNL     1     167.478 188.948  31.484  1.00  0.00    -0.246 OA
BRANCH   7   9
ATOM      9  O   UNL     1     167.058 187.935  33.513  1.00  0.00    -0.465 OA
ATOM     10  C   UNL     1     165.697 187.524  33.554  1.00  0.00     0.282 C 
ENDBRANCH   7   9
ENDBRANCH   1   7
BRANCH   6  11
ATOM     11  C   UNL     1     167.628 185.635  30.469  1.00  0.00     0.338 C 
ATOM     12  O   UNL     1     167.392 185.957  29.273  1.00  0.00    -0.246 OA
BRANCH  11  13
ATOM     13  O   UNL     1     166.682 184.906  31.199  1.00  0.00    -0.465 OA
ATOM     14  C   UNL     1     166.998 184.246  32.419  1.00  0.00     0.282 C 
ENDBRANCH  11  13
ENDBRANCH   6  11
TORSDOF 4
ENDMDL
MODEL 5
REMARK VINA RESULT:    -3.762      1.567      1.843
REMARK INTER + INTRA:          -5.092
REMARK INTER:                  -4.708
REMARK INTRA:                  -0.385
REMARK UNBOUND:                -0.451
REMARK SMILES COC(=O)c1ccccc1C(=O)OC
REMARK SMILES IDX 5 1 6 2 7 3 8 4 9 5 10 6 3 7 4 8 2 9 1 10 11 11 12 12 13 13
REMARK SMILES IDX 14 14
REMARK H PARENT
REMARK Flexibility Score: inf
ROOT
ATOM      1  C   UNL     1     170.028 185.184  31.989  1.00  0.00     0.074 A 
ATOM      2  C   UNL     1     170.836 184.078  31.670  1.00  0.00     0.016 A 
ATOM      3  C   UNL     1     171.990 183.802  32.403  1.00  0.00     0.001 A 
ATOM      4  C   UNL     1     172.356 184.623  33.467  1.00  0.00     0.001 A 
ATOM      5  C   UNL     1     171.581 185.739  33.787  1.00  0.00     0.016 A 
ATOM      6  C   UNL     1     170.426 186.049  33.047  1.00  0.00     0.074 A 
ENDROOT
BRANCH   1   7
ATOM      7  C   UNL     1     168.759 185.351  31.244  1.00  0.00     0.338 C 
ATOM      8  O   UNL     1     167.674 184.931  31.731  1.00  0.00    -0.246 OA
BRANCH   7   9
ATOM      9  O   UNL     1     168.780 185.928  29.969  1.00  0.00    -0.465 OA
ATOM     10  C   UNL     1     167.888 186.965  29.582  1.00  0.00     0.282 C 
ENDBRANCH   7   9
ENDBRANCH   1   7
BRANCH   6  11
ATOM     11  C   UNL     1     169.717 187.309  33.369  1.00  0.00     0.338 C 
ATOM     12  O   UNL     1     170.118 188.406  32.892  1.00  0.00    -0.246 OA
BRANCH  11  13
ATOM     13  O   UNL     1     168.632 187.282  34.253  1.00  0.00    -0.465 OA
ATOM     14  C   UNL     1     167.354 187.807  33.913  1.00  0.00     0.282 C 
ENDBRANCH  11  13
ENDBRANCH   6  11
TORSDOF 4
ENDMDL
MODEL 6
REMARK VINA RESULT:    -3.554      3.071      4.407
REMARK INTER + INTRA:          -4.836
REMARK INTER:                  -4.341
REMARK INTRA:                  -0.495
REMARK UNBOUND:                -0.451
REMARK SMILES COC(=O)c1ccccc1C(=O)OC
REMARK SMILES IDX 5 1 6 2 7 3 8 4 9 5 10 6 3 7 4 8 2 9 1 10 11 11 12 12 13 13
REMARK SMILES IDX 14 14
REMARK H PARENT
REMARK Flexibility Score: inf
ROOT
ATOM      1  C   UNL     1     170.522 183.610  33.497  1.00  0.00     0.074 A 
ATOM      2  C   UNL     1     170.972 182.465  34.180  1.00  0.00     0.016 A 
ATOM      3  C   UNL     1     172.271 181.992  34.001  1.00  0.00     0.001 A 
ATOM      4  C   UNL     1     173.144 182.652  33.139  1.00  0.00     0.001 A 
ATOM      5  C   UNL     1     172.712 183.777  32.434  1.00  0.00     0.016 A 
ATOM      6  C   UNL     1     171.398 184.258  32.582  1.00  0.00     0.074 A 
ENDROOT
BRANCH   1   7
ATOM      7  C   UNL     1     169.171 184.122  33.821  1.00  0.00     0.338 C 
ATOM      8  O   UNL     1     168.147 183.588  33.314  1.00  0.00    -0.246 OA
BRANCH   7   9
ATOM      9  O   UNL     1     169.040 185.242  34.650  1.00  0.00    -0.465 OA
ATOM     10  C   UNL     1     168.387 186.434  34.232  1.00  0.00     0.282 C 
ENDBRANCH   7   9
ENDBRANCH   1   7
BRANCH   6  11
ATOM     11  C   UNL     1     170.974 185.385  31.719  1.00  0.00     0.338 C 
ATOM     12  O   UNL     1     171.261 186.572  32.035  1.00  0.00    -0.246 OA
BRANCH  11  13
ATOM     13  O   UNL     1     170.202 185.128  30.581  1.00  0.00    -0.465 OA
ATOM     14  C   UNL     1     168.908 185.686  30.390  1.00  0.00     0.282 C 
ENDBRANCH  11  13
ENDBRANCH   6  11
TORSDOF 4
ENDMDL
MODEL 7
REMARK VINA RESULT:    -3.538      2.859      4.653
REMARK INTER + INTRA:          -4.817
REMARK INTER:                  -4.401
REMARK INTRA:                  -0.416
REMARK UNBOUND:                -0.451
REMARK SMILES COC(=O)c1ccccc1C(=O)OC
REMARK SMILES IDX 5 1 6 2 7 3 8 4 9 5 10 6 3 7 4 8 2 9 1 10 11 11 12 12 13 13
REMARK SMILES IDX 14 14
REMARK H PARENT
REMARK Flexibility Score: inf
ROOT
ATOM      1  C   UNL     1     168.926 185.283  32.736  1.00  0.00     0.074 A 
ATOM      2  C   UNL     1     167.728 185.544  32.048  1.00  0.00     0.016 A 
ATOM      3  C   UNL     1     167.727 185.754  30.669  1.00  0.00     0.001 A 
ATOM      4  C   UNL     1     168.921 185.707  29.954  1.00  0.00     0.001 A 
ATOM      5  C   UNL     1     170.125 185.472  30.620  1.00  0.00     0.016 A 
ATOM      6  C   UNL     1     170.152 185.280  32.013  1.00  0.00     0.074 A 
ENDROOT
BRANCH   1   7
ATOM      7  C   UNL     1     168.839 184.957  34.178  1.00  0.00     0.338 C 
ATOM      8  O   UNL     1     168.383 183.842  34.553  1.00  0.00    -0.246 OA
BRANCH   7   9
ATOM      9  O   UNL     1     169.213 185.916  35.125  1.00  0.00    -0.465 OA
ATOM     10  C   UNL     1     168.834 187.283  35.023  1.00  0.00     0.282 C 
ENDBRANCH   7   9
ENDBRANCH   1   7
BRANCH   6  11
ATOM     11  C   UNL     1     171.474 185.150  32.667  1.00  0.00     0.338 C 
ATOM     12  O   UNL     1     171.989 186.134  33.265  1.00  0.00    -0.246 OA
BRANCH  11  13
ATOM     13  O   UNL     1     172.176 183.943  32.569  1.00  0.00    -0.465 OA
ATOM     14  C   UNL     1     171.573 182.682  32.833  1.00  0.00     0.282 C 
ENDBRANCH  11  13
ENDBRANCH   6  11
TORSDOF 4
ENDMDL
MODEL 8
REMARK VINA RESULT:    -3.526      2.996      4.032
REMARK INTER + INTRA:          -4.802
REMARK INTER:                  -4.571
REMARK INTRA:                  -0.231
REMARK UNBOUND:                -0.451
REMARK SMILES COC(=O)c1ccccc1C(=O)OC
REMARK SMILES IDX 5 1 6 2 7 3 8 4 9 5 10 6 3 7 4 8 2 9 1 10 11 11 12 12 13 13
REMARK SMILES IDX 14 14
REMARK H PARENT
REMARK Flexibility Score: inf
ROOT
ATOM      1  C   UNL     1     168.995 185.110  32.406  1.00  0.00     0.074 A 
ATOM      2  C   UNL     1     167.745 184.555  32.731  1.00  0.00     0.016 A 
ATOM      3  C   UNL     1     167.462 184.146  34.034  1.00  0.00     0.001 A 
ATOM      4  C   UNL     1     168.422 184.284  35.034  1.00  0.00     0.001 A 
ATOM      5  C   UNL     1     169.677 184.811  34.730  1.00  0.00     0.016 A 
ATOM      6  C   UNL     1     169.992 185.210  33.418  1.00  0.00     0.074 A 
ENDROOT
BRANCH   1   7
ATOM      7  C   UNL     1     169.187 185.629  31.032  1.00  0.00     0.338 C 
ATOM      8  O   UNL     1     169.942 185.025  30.222  1.00  0.00    -0.246 OA
BRANCH   7   9
ATOM      9  O   UNL     1     168.569 186.826  30.656  1.00  0.00    -0.465 OA
ATOM     10  C   UNL     1     167.794 186.949  29.470  1.00  0.00     0.282 C 
ENDBRANCH   7   9
ENDBRANCH   1   7
BRANCH   6  11
ATOM     11  C   UNL     1     171.378 185.653  33.144  1.00  0.00     0.338 C 
ATOM     12  O   UNL     1     171.612 186.848  32.814  1.00  0.00    -0.246 OA
BRANCH  11  13
ATOM     13  O   UNL     1     172.423 184.723  33.198  1.00  0.00    -0.465 OA
ATOM     14  C   UNL     1     172.513 183.620  32.305  1.00  0.00     0.282 C 
ENDBRANCH  11  13
ENDBRANCH   6  11
TORSDOF 4
ENDMDL
MODEL 9
REMARK VINA RESULT:    -3.500      2.913      3.785
REMARK INTER + INTRA:          -4.770
REMARK INTER:                  -4.288
REMARK INTRA:                  -0.482
REMARK UNBOUND:                -0.451
REMARK SMILES COC(=O)c1ccccc1C(=O)OC
REMARK SMILES IDX 5 1 6 2 7 3 8 4 9 5 10 6 3 7 4 8 2 9 1 10 11 11 12 12 13 13
REMARK SMILES IDX 14 14
REMARK H PARENT
REMARK Flexibility Score: inf
ROOT
ATOM      1  C   UNL     1     171.114 184.395  32.568  1.00  0.00     0.074 A 
ATOM      2  C   UNL     1     172.418 183.882  32.446  1.00  0.00     0.016 A 
ATOM      3  C   UNL     1     172.782 182.697  33.084  1.00  0.00     0.001 A 
ATOM      4  C   UNL     1     171.852 182.003  33.854  1.00  0.00     0.001 A 
ATOM      5  C   UNL     1     170.559 182.504  34.008  1.00  0.00     0.016 A 
ATOM      6  C   UNL     1     170.176 183.710  33.392  1.00  0.00     0.074 A 
ENDROOT
BRANCH   1   7
ATOM      7  C   UNL     1     170.764 185.594  31.773  1.00  0.00     0.338 C 
ATOM      8  O   UNL     1     170.998 186.749  32.222  1.00  0.00    -0.246 OA
BRANCH   7   9
ATOM      9  O   UNL     1     170.117 185.438  30.542  1.00  0.00    -0.465 OA
ATOM     10  C   UNL     1     168.763 185.818  30.333  1.00  0.00     0.282 C 
ENDBRANCH   7   9
ENDBRANCH   1   7
BRANCH   6  11
ATOM     11  C   UNL     1     168.826 184.240  33.690  1.00  0.00     0.338 C 
ATOM     12  O   UNL     1     167.808 183.735  33.143  1.00  0.00    -0.246 OA
BRANCH  11  13
ATOM     13  O   UNL     1     168.692 185.344  34.540  1.00  0.00    -0.465 OA
ATOM     14  C   UNL     1     167.983 186.518  34.164  1.00  0.00     0.282 C 
ENDBRANCH  11  13
ENDBRANCH   6  11
TORSDOF 4
ENDMDL
