MODEL 1
REMARK VINA RESULT:    -2.971      0.000      0.000
REMARK INTER + INTRA:          -3.450
REMARK INTER:                  -3.406
REMARK INTRA:                  -0.045
REMARK UNBOUND:                -0.045
REMARK SMILES CC(C)[C@@H]([NH3+])C(=O)[O-]
REMARK SMILES IDX 4 1 5 2 6 6 7 7 8 8 2 9 1 10 3 11
REMARK H PARENT 5 3 5 4 5 5
REMARK Flexibility Score: inf
ROOT
ATOM      1  C   UNL     1       6.731  -3.703  18.769  1.00  0.00     0.230 C 
ENDROOT
BRANCH   1   2
ATOM      2  N   UNL     1       7.914  -2.872  19.035  1.00  0.00    -0.350 N 
ATOM      3  H   UNL     1       7.645  -1.916  19.359  1.00  0.00     0.345 HD
ATOM      4  H   UNL     1       8.496  -2.791  18.170  1.00  0.00     0.345 HD
ATOM      5  H   UNL     1       8.497  -3.323  19.777  1.00  0.00     0.345 HD
ENDBRANCH   1   2
BRANCH   1   6
ATOM      6  C   UNL     1       5.920  -3.894  20.030  1.00  0.00     0.099 C 
ATOM      7  O   UNL     1       5.992  -3.047  20.959  1.00  0.00    -0.544 OA
ATOM      8  O   UNL     1       5.111  -5.013  20.189  1.00  0.00    -0.544 OA
ENDBRANCH   1   6
BRANCH   1   9
ATOM      9  C   UNL     1       5.883  -3.139  17.590  1.00  0.00     0.047 C 
ATOM     10  C   UNL     1       6.528  -1.879  16.990  1.00  0.00     0.014 C 
ATOM     11  C   UNL     1       5.607  -4.167  16.480  1.00  0.00     0.014 C 
ENDBRANCH   1   9
TORSDOF 3
ENDMDL
MODEL 2
REMARK VINA RESULT:    -2.819      8.907      9.607
REMARK INTER + INTRA:          -3.275
REMARK INTER:                  -3.200
REMARK INTRA:                  -0.076
REMARK UNBOUND:                -0.045
REMARK SMILES CC(C)[C@@H]([NH3+])C(=O)[O-]
REMARK SMILES IDX 4 1 5 2 6 6 7 7 8 8 2 9 1 10 3 11
REMARK H PARENT 5 3 5 4 5 5
REMARK Flexibility Score: inf
ROOT
ATOM      1  C   UNL     1      10.909  -9.594  22.632  1.00  0.00     0.230 C 
ENDROOT
BRANCH   1   2
ATOM      2  N   UNL     1      12.168  -9.897  21.937  1.00  0.00    -0.350 N 
ATOM      3  H   UNL     1      12.854  -9.114  22.028  1.00  0.00     0.345 HD
ATOM      4  H   UNL     1      11.983 -10.076  20.923  1.00  0.00     0.345 HD
ATOM      5  H   UNL     1      12.593 -10.761  22.346  1.00  0.00     0.345 HD
ENDBRANCH   1   2
BRANCH   1   6
ATOM      6  C   UNL     1      10.080 -10.846  22.803  1.00  0.00     0.099 C 
ATOM      7  O   UNL     1      10.537 -11.959  22.432  1.00  0.00    -0.544 OA
ATOM      8  O   UNL     1       8.801 -10.781  23.342  1.00  0.00    -0.544 OA
ENDBRANCH   1   6
BRANCH   1   9
ATOM      9  C   UNL     1      11.158  -8.852  23.980  1.00  0.00     0.047 C 
ATOM     10  C   UNL     1      11.773  -9.791  25.030  1.00  0.00     0.014 C 
ATOM     11  C   UNL     1      12.020  -7.585  23.838  1.00  0.00     0.014 C 
ENDBRANCH   1   9
TORSDOF 3
ENDMDL
MODEL 3
REMARK VINA RESULT:    -2.784      9.665     10.287
REMARK INTER + INTRA:          -3.235
REMARK INTER:                  -3.186
REMARK INTRA:                  -0.049
REMARK UNBOUND:                -0.045
REMARK SMILES CC(C)[C@@H]([NH3+])C(=O)[O-]
REMARK SMILES IDX 4 1 5 2 6 6 7 7 8 8 2 9 1 10 3 11
REMARK H PARENT 5 3 5 4 5 5
REMARK Flexibility Score: inf
ROOT
ATOM      1  C   UNL     1      14.241  -3.746  25.468  1.00  0.00     0.230 C 
ENDROOT
BRANCH   1   2
ATOM      2  N   UNL     1      14.373  -4.344  26.804  1.00  0.00    -0.350 N 
ATOM      3  H   UNL     1      14.229  -5.379  26.776  1.00  0.00     0.345 HD
ATOM      4  H   UNL     1      13.677  -3.918  27.458  1.00  0.00     0.345 HD
ATOM      5  H   UNL     1      15.330  -4.152  27.179  1.00  0.00     0.345 HD
ENDBRANCH   1   2
BRANCH   1   6
ATOM      6  C   UNL     1      13.843  -4.791  24.453  1.00  0.00     0.099 C 
ATOM      7  O   UNL     1      14.624  -5.744  24.192  1.00  0.00    -0.544 OA
ATOM      8  O   UNL     1      12.631  -4.699  23.780  1.00  0.00    -0.544 OA
ENDBRANCH   1   6
BRANCH   1   9
ATOM      9  C   UNL     1      13.277  -2.521  25.478  1.00  0.00     0.047 C 
ATOM     10  C   UNL     1      13.113  -1.950  26.895  1.00  0.00     0.014 C 
ATOM     11  C   UNL     1      13.690  -1.403  24.505  1.00  0.00     0.014 C 
ENDBRANCH   1   9
TORSDOF 3
ENDMDL
MODEL 4
REMARK VINA RESULT:    -2.771      9.283      9.982
REMARK INTER + INTRA:          -3.221
REMARK INTER:                  -3.173
REMARK INTRA:                  -0.048
REMARK UNBOUND:                -0.045
REMARK SMILES CC(C)[C@@H]([NH3+])C(=O)[O-]
REMARK SMILES IDX 4 1 5 2 6 6 7 7 8 8 2 9 1 10 3 11
REMARK H PARENT 5 3 5 4 5 5
REMARK Flexibility Score: inf
ROOT
ATOM      1  C   UNL     1      13.724  -6.609  24.645  1.00  0.00     0.230 C 
ENDROOT
BRANCH   1   2
ATOM      2  N   UNL     1      15.091  -7.077  24.912  1.00  0.00    -0.350 N 
ATOM      3  H   UNL     1      15.731  -6.868  24.112  1.00  0.00     0.345 HD
ATOM      4  H   UNL     1      15.089  -8.108  25.088  1.00  0.00     0.345 HD
ATOM      5  H   UNL     1      15.462  -6.603  25.767  1.00  0.00     0.345 HD
ENDBRANCH   1   2
BRANCH   1   6
ATOM      6  C   UNL     1      13.725  -5.140  24.288  1.00  0.00     0.099 C 
ATOM      7  O   UNL     1      12.675  -4.598  23.852  1.00  0.00    -0.544 OA
ATOM      8  O   UNL     1      14.883  -4.382  24.411  1.00  0.00    -0.544 OA
ENDBRANCH   1   6
BRANCH   1   9
ATOM      9  C   UNL     1      13.012  -7.487  23.571  1.00  0.00     0.047 C 
ATOM     10  C   UNL     1      13.924  -8.625  23.087  1.00  0.00     0.014 C 
ATOM     11  C   UNL     1      11.661  -8.055  24.036  1.00  0.00     0.014 C 
ENDBRANCH   1   9
TORSDOF 3
ENDMDL
MODEL 5
REMARK VINA RESULT:    -2.767      8.448      8.889
REMARK INTER + INTRA:          -3.216
REMARK INTER:                  -3.173
REMARK INTRA:                  -0.043
REMARK UNBOUND:                -0.045
REMARK SMILES CC(C)[C@@H]([NH3+])C(=O)[O-]
REMARK SMILES IDX 4 1 5 2 6 6 7 7 8 8 2 9 1 10 3 11
REMARK H PARENT 5 3 5 4 5 5
REMARK Flexibility Score: inf
ROOT
ATOM      1  C   UNL     1      13.557  -3.580  15.716  1.00  0.00     0.230 C 
ENDROOT
BRANCH   1   2
ATOM      2  N   UNL     1      13.389  -4.653  16.706  1.00  0.00    -0.350 N 
ATOM      3  H   UNL     1      13.558  -5.594  16.284  1.00  0.00     0.345 HD
ATOM      4  H   UNL     1      12.423  -4.624  17.106  1.00  0.00     0.345 HD
ATOM      5  H   UNL     1      14.068  -4.514  17.490  1.00  0.00     0.345 HD
ENDBRANCH   1   2
BRANCH   1   6
ATOM      6  C   UNL     1      14.418  -2.471  16.274  1.00  0.00     0.099 C 
ATOM      7  O   UNL     1      15.179  -2.696  17.251  1.00  0.00    -0.544 OA
ATOM      8  O   UNL     1      14.360  -1.190  15.736  1.00  0.00    -0.544 OA
ENDBRANCH   1   6
BRANCH   1   9
ATOM      9  C   UNL     1      14.089  -4.127  14.357  1.00  0.00     0.047 C 
ATOM     10  C   UNL     1      14.768  -5.494  14.532  1.00  0.00     0.014 C 
ATOM     11  C   UNL     1      13.013  -4.210  13.261  1.00  0.00     0.014 C 
ENDBRANCH   1   9
TORSDOF 3
ENDMDL
MODEL 6
REMARK VINA RESULT:    -2.713      1.861      2.431
REMARK INTER + INTRA:          -3.154
REMARK INTER:                  -3.109
REMARK INTRA:                  -0.046
REMARK UNBOUND:                -0.045
REMARK SMILES CC(C)[C@@H]([NH3+])C(=O)[O-]
REMARK SMILES IDX 4 1 5 2 6 6 7 7 8 8 2 9 1 10 3 11
REMARK H PARENT 5 3 5 4 5 5
REMARK Flexibility Score: inf
ROOT
ATOM      1  C   UNL     1       7.308  -2.279  18.670  1.00  0.00     0.230 C 
ENDROOT
BRANCH   1   2
ATOM      2  N   UNL     1       7.440  -1.889  20.080  1.00  0.00    -0.350 N 
ATOM      3  H   UNL     1       7.445  -2.724  20.710  1.00  0.00     0.345 HD
ATOM      4  H   UNL     1       6.652  -1.259  20.353  1.00  0.00     0.345 HD
ATOM      5  H   UNL     1       8.335  -1.366  20.214  1.00  0.00     0.345 HD
ENDBRANCH   1   2
BRANCH   1   6
ATOM      6  C   UNL     1       6.595  -3.606  18.548  1.00  0.00     0.099 C 
ATOM      7  O   UNL     1       6.345  -4.283  19.580  1.00  0.00    -0.544 OA
ATOM      8  O   UNL     1       6.235  -4.106  17.302  1.00  0.00    -0.544 OA
ENDBRANCH   1   6
BRANCH   1   9
ATOM      9  C   UNL     1       6.635  -1.158  17.821  1.00  0.00     0.047 C 
ATOM     10  C   UNL     1       6.390   0.106  18.661  1.00  0.00     0.014 C 
ATOM     11  C   UNL     1       7.412  -0.799  16.544  1.00  0.00     0.014 C 
ENDBRANCH   1   9
TORSDOF 3
ENDMDL
MODEL 7
REMARK VINA RESULT:    -2.704      8.953      9.363
REMARK INTER + INTRA:          -3.144
REMARK INTER:                  -3.109
REMARK INTRA:                  -0.034
REMARK UNBOUND:                -0.045
REMARK SMILES CC(C)[C@@H]([NH3+])C(=O)[O-]
REMARK SMILES IDX 4 1 5 2 6 6 7 7 8 8 2 9 1 10 3 11
REMARK H PARENT 5 3 5 4 5 5
REMARK Flexibility Score: inf
ROOT
ATOM      1  C   UNL     1      14.394  -4.209  15.742  1.00  0.00     0.230 C 
ENDROOT
BRANCH   1   2
ATOM      2  N   UNL     1      13.414  -4.693  16.724  1.00  0.00    -0.350 N 
ATOM      3  H   UNL     1      12.594  -4.049  16.796  1.00  0.00     0.345 HD
ATOM      4  H   UNL     1      13.864  -4.782  17.664  1.00  0.00     0.345 HD
ATOM      5  H   UNL     1      13.071  -5.638  16.438  1.00  0.00     0.345 HD
ENDBRANCH   1   2
BRANCH   1   6
ATOM      6  C   UNL     1      14.029  -4.673  14.351  1.00  0.00     0.099 C 
ATOM      7  O   UNL     1      14.851  -5.347  13.676  1.00  0.00    -0.544 OA
ATOM      8  O   UNL     1      12.799  -4.341  13.794  1.00  0.00    -0.544 OA
ENDBRANCH   1   6
BRANCH   1   9
ATOM      9  C   UNL     1      14.584  -2.664  15.828  1.00  0.00     0.047 C 
ATOM     10  C   UNL     1      15.340  -2.265  17.105  1.00  0.00     0.014 C 
ATOM     11  C   UNL     1      15.276  -2.057  14.596  1.00  0.00     0.014 C 
ENDBRANCH   1   9
TORSDOF 3
ENDMDL
MODEL 8
REMARK VINA RESULT:    -2.666      9.348     10.210
REMARK INTER + INTRA:          -3.100
REMARK INTER:                  -3.103
REMARK INTRA:                   0.003
REMARK UNBOUND:                -0.045
REMARK SMILES CC(C)[C@@H]([NH3+])C(=O)[O-]
REMARK SMILES IDX 4 1 5 2 6 6 7 7 8 8 2 9 1 10 3 11
REMARK H PARENT 5 3 5 4 5 5
REMARK Flexibility Score: inf
ROOT
ATOM      1  C   UNL     1      11.294 -10.132  22.883  1.00  0.00     0.230 C 
ENDROOT
BRANCH   1   2
ATOM      2  N   UNL     1      10.747  -9.479  21.686  1.00  0.00    -0.350 N 
ATOM      3  H   UNL     1      11.083  -9.940  20.810  1.00  0.00     0.345 HD
ATOM      4  H   UNL     1      11.022  -8.470  21.670  1.00  0.00     0.345 HD
ATOM      5  H   UNL     1       9.702  -9.529  21.708  1.00  0.00     0.345 HD
ENDBRANCH   1   2
BRANCH   1   6
ATOM      6  C   UNL     1      12.687 -10.653  22.615  1.00  0.00     0.099 C 
ATOM      7  O   UNL     1      13.546  -9.906  22.078  1.00  0.00    -0.544 OA
ATOM      8  O   UNL     1      13.026 -11.963  22.932  1.00  0.00    -0.544 OA
ENDBRANCH   1   6
BRANCH   1   9
ATOM      9  C   UNL     1      11.232  -9.198  24.129  1.00  0.00     0.047 C 
ATOM     10  C   UNL     1      12.029  -9.783  25.306  1.00  0.00     0.014 C 
ATOM     11  C   UNL     1      11.693  -7.758  23.846  1.00  0.00     0.014 C 
ENDBRANCH   1   9
TORSDOF 3
ENDMDL
MODEL 9
REMARK VINA RESULT:    -2.631     11.656     12.612
REMARK INTER + INTRA:          -3.061
REMARK INTER:                  -3.009
REMARK INTRA:                  -0.051
REMARK UNBOUND:                -0.045
REMARK SMILES CC(C)[C@@H]([NH3+])C(=O)[O-]
REMARK SMILES IDX 4 1 5 2 6 6 7 7 8 8 2 9 1 10 3 11
REMARK H PARENT 5 3 5 4 5 5
REMARK Flexibility Score: inf
ROOT
ATOM      1  C   UNL     1       9.812 -13.280  11.617  1.00  0.00     0.230 C 
ENDROOT
BRANCH   1   2
ATOM      2  N   UNL     1       8.484 -13.269  10.989  1.00  0.00    -0.350 N 
ATOM      3  H   UNL     1       7.875 -14.030  11.367  1.00  0.00     0.345 HD
ATOM      4  H   UNL     1       8.575 -13.386   9.954  1.00  0.00     0.345 HD
ATOM      5  H   UNL     1       8.019 -12.350  11.171  1.00  0.00     0.345 HD
ENDBRANCH   1   2
BRANCH   1   6
ATOM      6  C   UNL     1      10.558 -12.002  11.308  1.00  0.00     0.099 C 
ATOM      7  O   UNL     1      11.023 -11.808  10.154  1.00  0.00    -0.544 OA
ATOM      8  O   UNL     1      10.761 -11.044  12.295  1.00  0.00    -0.544 OA
ENDBRANCH   1   6
BRANCH   1   9
ATOM      9  C   UNL     1       9.726 -13.569  13.146  1.00  0.00     0.047 C 
ATOM     10  C   UNL     1       8.315 -13.290  13.688  1.00  0.00     0.014 C 
ATOM     11  C   UNL     1      10.165 -14.992  13.531  1.00  0.00     0.014 C 
ENDBRANCH   1   9
TORSDOF 3
ENDMDL
