MODEL 1
REMARK VINA RESULT:    -3.030      0.000      0.000
REMARK INTER + INTRA:          -4.064
REMARK INTER:                  -3.916
REMARK INTRA:                  -0.148
REMARK UNBOUND:                -0.148
REMARK SMILES C=CC(=O)CCCCC
REMARK SMILES IDX 6 1 7 2 8 3 9 4 5 5 3 6 4 7 2 8 1 9
REMARK H PARENT
REMARK Flexibility Score: inf
ROOT
ATOM      1  C   UNL     1      61.337  16.803  -0.711  1.00  0.00     0.008 C 
ENDROOT
BRANCH   1   2
ATOM      2  C   UNL     1      60.939  17.647   0.504  1.00  0.00     0.000 C 
BRANCH   2   3
ATOM      3  C   UNL     1      60.188  18.913   0.073  1.00  0.00    -0.003 C 
ATOM      4  C   UNL     1      60.352  20.028   1.102  1.00  0.00     0.004 C 
ENDBRANCH   2   3
ENDBRANCH   1   2
BRANCH   1   5
ATOM      5  C   UNL     1      62.342  15.716  -0.321  1.00  0.00     0.080 C 
BRANCH   5   6
ATOM      6  C   UNL     1      63.438  15.619  -1.341  1.00  0.00     0.155 C 
ATOM      7  O   UNL     1      64.581  16.074  -1.065  1.00  0.00    -0.295 OA
BRANCH   6   8
ATOM      8  C   UNL     1      63.186  14.954  -2.635  1.00  0.00     0.039 C 
ATOM      9  C   UNL     1      63.532  15.501  -3.798  1.00  0.00     0.012 C 
ENDBRANCH   6   8
ENDBRANCH   5   6
ENDBRANCH   1   5
TORSDOF 5
ENDMDL
MODEL 2
REMARK VINA RESULT:    -3.012      1.422      1.733
REMARK INTER + INTRA:          -4.040
REMARK INTER:                  -3.729
REMARK INTRA:                  -0.311
REMARK UNBOUND:                -0.148
REMARK SMILES C=CC(=O)CCCCC
REMARK SMILES IDX 6 1 7 2 8 3 9 4 5 5 3 6 4 7 2 8 1 9
REMARK H PARENT
REMARK Flexibility Score: inf
ROOT
ATOM      1  C   UNL     1      63.223  16.367  -0.086  1.00  0.00     0.008 C 
ENDROOT
BRANCH   1   2
ATOM      2  C   UNL     1      61.881  16.597   0.617  1.00  0.00     0.000 C 
BRANCH   2   3
ATOM      3  C   UNL     1      60.861  17.228  -0.337  1.00  0.00    -0.003 C 
ATOM      4  C   UNL     1      60.650  18.706  -0.019  1.00  0.00     0.004 C 
ENDBRANCH   2   3
ENDBRANCH   1   2
BRANCH   1   5
ATOM      5  C   UNL     1      63.548  14.873  -0.177  1.00  0.00     0.080 C 
BRANCH   5   6
ATOM      6  C   UNL     1      63.369  14.379  -1.583  1.00  0.00     0.155 C 
ATOM      7  O   UNL     1      63.490  13.148  -1.825  1.00  0.00    -0.295 OA
BRANCH   6   8
ATOM      8  C   UNL     1      63.008  15.325  -2.657  1.00  0.00     0.039 C 
ATOM      9  C   UNL     1      63.730  15.451  -3.769  1.00  0.00     0.012 C 
ENDBRANCH   6   8
ENDBRANCH   5   6
ENDBRANCH   1   5
TORSDOF 5
ENDMDL
MODEL 3
REMARK VINA RESULT:    -3.011      2.925      4.096
REMARK INTER + INTRA:          -4.040
REMARK INTER:                  -3.496
REMARK INTRA:                  -0.543
REMARK UNBOUND:                -0.148
REMARK SMILES C=CC(=O)CCCCC
REMARK SMILES IDX 6 1 7 2 8 3 9 4 5 5 3 6 4 7 2 8 1 9
REMARK H PARENT
REMARK Flexibility Score: inf
ROOT
ATOM      1  C   UNL     1      62.006  14.512  -0.163  1.00  0.00     0.008 C 
ENDROOT
BRANCH   1   2
ATOM      2  C   UNL     1      62.054  15.222  -1.520  1.00  0.00     0.000 C 
BRANCH   2   3
ATOM      3  C   UNL     1      62.987  14.489  -2.491  1.00  0.00    -0.003 C 
ATOM      4  C   UNL     1      63.429  15.405  -3.629  1.00  0.00     0.004 C 
ENDBRANCH   2   3
ENDBRANCH   1   2
BRANCH   1   5
ATOM      5  C   UNL     1      63.383  14.510   0.507  1.00  0.00     0.080 C 
BRANCH   5   6
ATOM      6  C   UNL     1      63.808  15.910   0.845  1.00  0.00     0.155 C 
ATOM      7  O   UNL     1      63.055  16.629   1.556  1.00  0.00    -0.295 OA
BRANCH   6   8
ATOM      8  C   UNL     1      65.116  16.416   0.384  1.00  0.00     0.039 C 
ATOM      9  C   UNL     1      65.301  16.908  -0.839  1.00  0.00     0.012 C 
ENDBRANCH   6   8
ENDBRANCH   5   6
ENDBRANCH   1   5
TORSDOF 5
ENDMDL
MODEL 4
REMARK VINA RESULT:    -2.902      1.949      5.156
REMARK INTER + INTRA:          -3.898
REMARK INTER:                  -3.785
REMARK INTRA:                  -0.113
REMARK UNBOUND:                -0.148
REMARK SMILES C=CC(=O)CCCCC
REMARK SMILES IDX 6 1 7 2 8 3 9 4 5 5 3 6 4 7 2 8 1 9
REMARK H PARENT
REMARK Flexibility Score: inf
ROOT
ATOM      1  C   UNL     1      61.635  16.049  -1.029  1.00  0.00     0.008 C 
ENDROOT
BRANCH   1   2
ATOM      2  C   UNL     1      63.041  15.515  -1.325  1.00  0.00     0.000 C 
BRANCH   2   3
ATOM      3  C   UNL     1      63.051  14.675  -2.607  1.00  0.00    -0.003 C 
ATOM      4  C   UNL     1      63.497  15.506  -3.807  1.00  0.00     0.004 C 
ENDBRANCH   2   3
ENDBRANCH   1   2
BRANCH   1   5
ATOM      5  C   UNL     1      61.654  17.021   0.155  1.00  0.00     0.080 C 
BRANCH   5   6
ATOM      6  C   UNL     1      60.327  17.709   0.293  1.00  0.00     0.155 C 
ATOM      7  O   UNL     1      59.320  17.042   0.655  1.00  0.00    -0.295 OA
BRANCH   6   8
ATOM      8  C   UNL     1      60.220  19.161   0.051  1.00  0.00     0.039 C 
ATOM      9  C   UNL     1      60.371  20.060   1.021  1.00  0.00     0.012 C 
ENDBRANCH   6   8
ENDBRANCH   5   6
ENDBRANCH   1   5
TORSDOF 5
ENDMDL
MODEL 5
REMARK VINA RESULT:    -2.736      2.827      3.443
REMARK INTER + INTRA:          -3.683
REMARK INTER:                  -3.108
REMARK INTRA:                  -0.576
REMARK UNBOUND:                -0.148
REMARK SMILES C=CC(=O)CCCCC
REMARK SMILES IDX 6 1 7 2 8 3 9 4 5 5 3 6 4 7 2 8 1 9
REMARK H PARENT
REMARK Flexibility Score: inf
ROOT
ATOM      1  C   UNL     1      62.430  15.372   0.865  1.00  0.00     0.008 C 
ENDROOT
BRANCH   1   2
ATOM      2  C   UNL     1      63.287  16.571   0.445  1.00  0.00     0.000 C 
BRANCH   2   3
ATOM      3  C   UNL     1      64.758  16.167   0.287  1.00  0.00    -0.003 C 
ATOM      4  C   UNL     1      65.415  16.921  -0.866  1.00  0.00     0.004 C 
ENDBRANCH   2   3
ENDBRANCH   1   2
BRANCH   1   5
ATOM      5  C   UNL     1      62.900  14.090   0.171  1.00  0.00     0.080 C 
BRANCH   5   6
ATOM      6  C   UNL     1      62.273  13.965  -1.187  1.00  0.00     0.155 C 
ATOM      7  O   UNL     1      61.026  13.799  -1.279  1.00  0.00    -0.295 OA
BRANCH   6   8
ATOM      8  C   UNL     1      63.107  14.083  -2.399  1.00  0.00     0.039 C 
ATOM      9  C   UNL     1      63.155  15.196  -3.128  1.00  0.00     0.012 C 
ENDBRANCH   6   8
ENDBRANCH   5   6
ENDBRANCH   1   5
TORSDOF 5
ENDMDL
MODEL 6
REMARK VINA RESULT:    -2.697      2.267      3.815
REMARK INTER + INTRA:          -3.634
REMARK INTER:                  -3.269
REMARK INTRA:                  -0.364
REMARK UNBOUND:                -0.148
REMARK SMILES C=CC(=O)CCCCC
REMARK SMILES IDX 6 1 7 2 8 3 9 4 5 5 3 6 4 7 2 8 1 9
REMARK H PARENT
REMARK Flexibility Score: inf
ROOT
ATOM      1  C   UNL     1      61.434  14.323  -0.233  1.00  0.00     0.008 C 
ENDROOT
BRANCH   1   2
ATOM      2  C   UNL     1      59.989  14.230  -0.734  1.00  0.00     0.000 C 
BRANCH   2   3
ATOM      3  C   UNL     1      59.654  12.805  -1.188  1.00  0.00    -0.003 C 
ATOM      4  C   UNL     1      60.813  12.188  -1.967  1.00  0.00     0.004 C 
ENDBRANCH   2   3
ENDBRANCH   1   2
BRANCH   1   5
ATOM      5  C   UNL     1      62.031  15.703  -0.525  1.00  0.00     0.080 C 
BRANCH   5   6
ATOM      6  C   UNL     1      63.256  15.577  -1.382  1.00  0.00     0.155 C 
ATOM      7  O   UNL     1      64.354  16.035  -0.962  1.00  0.00    -0.295 OA
BRANCH   6   8
ATOM      8  C   UNL     1      63.180  14.882  -2.682  1.00  0.00     0.039 C 
ATOM      9  C   UNL     1      63.492  15.479  -3.831  1.00  0.00     0.012 C 
ENDBRANCH   6   8
ENDBRANCH   5   6
ENDBRANCH   1   5
TORSDOF 5
ENDMDL
MODEL 7
REMARK VINA RESULT:    -2.694      2.854      3.494
REMARK INTER + INTRA:          -3.629
REMARK INTER:                  -3.439
REMARK INTRA:                  -0.190
REMARK UNBOUND:                -0.148
REMARK SMILES C=CC(=O)CCCCC
REMARK SMILES IDX 6 1 7 2 8 3 9 4 5 5 3 6 4 7 2 8 1 9
REMARK H PARENT
REMARK Flexibility Score: inf
ROOT
ATOM      1  C   UNL     1      65.005  16.198  -0.268  1.00  0.00     0.008 C 
ENDROOT
BRANCH   1   2
ATOM      2  C   UNL     1      65.253  15.820   1.197  1.00  0.00     0.000 C 
BRANCH   2   3
ATOM      3  C   UNL     1      65.488  17.069   2.054  1.00  0.00    -0.003 C 
ATOM      4  C   UNL     1      64.337  17.291   3.031  1.00  0.00     0.004 C 
ENDBRANCH   2   3
ENDBRANCH   1   2
BRANCH   1   5
ATOM      5  C   UNL     1      63.522  16.069  -0.626  1.00  0.00     0.080 C 
BRANCH   5   6
ATOM      6  C   UNL     1      63.230  14.705  -1.181  1.00  0.00     0.155 C 
ATOM      7  O   UNL     1      63.111  13.729  -0.391  1.00  0.00    -0.295 OA
BRANCH   6   8
ATOM      8  C   UNL     1      63.038  14.524  -2.633  1.00  0.00     0.039 C 
ATOM      9  C   UNL     1      63.458  15.419  -3.525  1.00  0.00     0.012 C 
ENDBRANCH   6   8
ENDBRANCH   5   6
ENDBRANCH   1   5
TORSDOF 5
ENDMDL
MODEL 8
REMARK VINA RESULT:    -2.678      2.701      4.656
REMARK INTER + INTRA:          -3.609
REMARK INTER:                  -3.209
REMARK INTRA:                  -0.400
REMARK UNBOUND:                -0.148
REMARK SMILES C=CC(=O)CCCCC
REMARK SMILES IDX 6 1 7 2 8 3 9 4 5 5 3 6 4 7 2 8 1 9
REMARK H PARENT
REMARK Flexibility Score: inf
ROOT
ATOM      1  C   UNL     1      63.164  15.513  -2.111  1.00  0.00     0.008 C 
ENDROOT
BRANCH   1   2
ATOM      2  C   UNL     1      63.277  13.985  -2.142  1.00  0.00     0.000 C 
BRANCH   2   3
ATOM      3  C   UNL     1      62.180  13.335  -1.291  1.00  0.00    -0.003 C 
ATOM      4  C   UNL     1      61.324  12.386  -2.126  1.00  0.00     0.004 C 
ENDBRANCH   2   3
ENDBRANCH   1   2
BRANCH   1   5
ATOM      5  C   UNL     1      63.236  16.041  -0.675  1.00  0.00     0.080 C 
BRANCH   5   6
ATOM      6  C   UNL     1      64.663  16.255  -0.263  1.00  0.00     0.155 C 
ATOM      7  O   UNL     1      65.409  16.980  -0.974  1.00  0.00    -0.295 OA
BRANCH   6   8
ATOM      8  C   UNL     1      65.167  15.657   0.989  1.00  0.00     0.039 C 
ATOM      9  C   UNL     1      64.394  14.935   1.798  1.00  0.00     0.012 C 
ENDBRANCH   6   8
ENDBRANCH   5   6
ENDBRANCH   1   5
TORSDOF 5
ENDMDL
MODEL 9
REMARK VINA RESULT:    -2.645      1.898      4.217
REMARK INTER + INTRA:          -3.567
REMARK INTER:                  -3.007
REMARK INTRA:                  -0.560
REMARK UNBOUND:                -0.148
REMARK SMILES C=CC(=O)CCCCC
REMARK SMILES IDX 6 1 7 2 8 3 9 4 5 5 3 6 4 7 2 8 1 9
REMARK H PARENT
REMARK Flexibility Score: inf
ROOT
ATOM      1  C   UNL     1      63.165  13.562  -1.846  1.00  0.00     0.008 C 
ENDROOT
BRANCH   1   2
ATOM      2  C   UNL     1      61.788  12.915  -2.027  1.00  0.00     0.000 C 
BRANCH   2   3
ATOM      3  C   UNL     1      61.002  12.917  -0.712  1.00  0.00    -0.003 C 
ATOM      4  C   UNL     1      59.614  13.524  -0.900  1.00  0.00     0.004 C 
ENDBRANCH   2   3
ENDBRANCH   1   2
BRANCH   1   5
ATOM      5  C   UNL     1      63.125  15.051  -2.202  1.00  0.00     0.080 C 
BRANCH   5   6
ATOM      6  C   UNL     1      63.506  15.887  -1.015  1.00  0.00     0.155 C 
ATOM      7  O   UNL     1      64.719  16.180  -0.830  1.00  0.00    -0.295 OA
BRANCH   6   8
ATOM      8  C   UNL     1      62.462  16.397  -0.105  1.00  0.00     0.039 C 
ATOM      9  C   UNL     1      61.269  16.796  -0.540  1.00  0.00     0.012 C 
ENDBRANCH   6   8
ENDBRANCH   5   6
ENDBRANCH   1   5
TORSDOF 5
ENDMDL
