MODEL 1
REMARK VINA RESULT:    -3.504      0.000      0.000
REMARK INTER + INTRA:          -9.771
REMARK INTER:                  -6.781
REMARK INTRA:                  -2.990
REMARK UNBOUND:                -2.990
REMARK SMILES CCCCCCCCCCCCCCCCCC(=O)[O-]
REMARK SMILES IDX 10 1 11 2 12 3 13 4 14 5 15 6 16 7 17 8 18 9 19 10 20 11
REMARK SMILES IDX 9 12 8 13 7 14 6 15 5 16 4 17 3 18 2 19 1 20
REMARK H PARENT
REMARK Flexibility Score: inf
ROOT
ATOM      1  C   UNL     1     -14.125  -9.367  26.671  1.00  0.00     0.000 C 
ENDROOT
BRANCH   1   2
ATOM      2  C   UNL     1     -13.179  -8.241  27.126  1.00  0.00     0.000 C 
BRANCH   2   3
ATOM      3  C   UNL     1     -11.713  -8.491  26.730  1.00  0.00     0.000 C 
BRANCH   3   4
ATOM      4  C   UNL     1     -11.541  -9.789  25.925  1.00  0.00     0.000 C 
BRANCH   4   5
ATOM      5  C   UNL     1     -10.583 -10.782  26.610  1.00  0.00     0.000 C 
BRANCH   5   6
ATOM      6  C   UNL     1     -11.234 -11.463  27.833  1.00  0.00     0.000 C 
BRANCH   6   7
ATOM      7  C   UNL     1     -10.646 -11.001  29.178  1.00  0.00     0.006 C 
BRANCH   7   8
ATOM      8  C   UNL     1     -11.634 -10.174  30.008  1.00  0.00     0.053 C 
BRANCH   8   9
ATOM      9  C   UNL     1     -12.794 -11.017  30.433  1.00  0.00     0.041 C 
ATOM     10  O   UNL     1     -13.913 -10.885  29.871  1.00  0.00    -0.550 OA
ATOM     11  O   UNL     1     -12.653 -11.916  31.483  1.00  0.00    -0.550 OA
ENDBRANCH   8   9
ENDBRANCH   7   8
ENDBRANCH   6   7
ENDBRANCH   5   6
ENDBRANCH   4   5
ENDBRANCH   3   4
ENDBRANCH   2   3
ENDBRANCH   1   2
BRANCH   1  12
ATOM     12  C   UNL     1     -15.432  -8.897  26.004  1.00  0.00     0.000 C 
BRANCH  12  13
ATOM     13  C   UNL     1     -15.629  -7.374  26.078  1.00  0.00    -0.000 C 
BRANCH  13  14
ATOM     14  C   UNL     1     -15.553  -6.694  24.699  1.00  0.00    -0.000 C 
BRANCH  14  15
ATOM     15  C   UNL     1     -14.245  -5.926  24.416  1.00  0.00    -0.000 C 
BRANCH  15  16
ATOM     16  C   UNL     1     -13.112  -6.766  23.793  1.00  0.00    -0.000 C 
BRANCH  16  17
ATOM     17  C   UNL     1     -13.543  -7.665  22.620  1.00  0.00    -0.000 C 
BRANCH  17  18
ATOM     18  C   UNL     1     -13.048  -9.114  22.768  1.00  0.00    -0.000 C 
BRANCH  18  19
ATOM     19  C   UNL     1     -14.199 -10.132  22.774  1.00  0.00    -0.003 C 
ATOM     20  C   UNL     1     -13.842 -11.419  23.516  1.00  0.00     0.004 C 
ENDBRANCH  18  19
ENDBRANCH  17  18
ENDBRANCH  16  17
ENDBRANCH  15  16
ENDBRANCH  14  15
ENDBRANCH  13  14
ENDBRANCH  12  13
ENDBRANCH   1  12
TORSDOF 16
ENDMDL
MODEL 2
REMARK VINA RESULT:    -3.493      3.407      4.943
REMARK INTER + INTRA:          -9.751
REMARK INTER:                  -6.487
REMARK INTRA:                  -3.264
REMARK UNBOUND:                -2.990
REMARK SMILES CCCCCCCCCCCCCCCCCC(=O)[O-]
REMARK SMILES IDX 10 1 11 2 12 3 13 4 14 5 15 6 16 7 17 8 18 9 19 10 20 11
REMARK SMILES IDX 9 12 8 13 7 14 6 15 5 16 4 17 3 18 2 19 1 20
REMARK H PARENT
REMARK Flexibility Score: inf
ROOT
ATOM      1  C   UNL     1     -11.695  -9.828  29.084  1.00  0.00     0.000 C 
ENDROOT
BRANCH   1   2
ATOM      2  C   UNL     1     -13.059 -10.524  29.242  1.00  0.00     0.000 C 
BRANCH   2   3
ATOM      3  C   UNL     1     -13.315 -11.596  28.168  1.00  0.00     0.000 C 
BRANCH   3   4
ATOM      4  C   UNL     1     -12.022 -12.301  27.730  1.00  0.00     0.000 C 
BRANCH   4   5
ATOM      5  C   UNL     1     -11.858 -12.330  26.199  1.00  0.00     0.000 C 
BRANCH   5   6
ATOM      6  C   UNL     1     -10.435 -11.924  25.761  1.00  0.00     0.000 C 
BRANCH   6   7
ATOM      7  C   UNL     1     -10.247 -11.895  24.234  1.00  0.00     0.006 C 
BRANCH   7   8
ATOM      8  C   UNL     1     -11.536 -12.214  23.468  1.00  0.00     0.053 C 
BRANCH   8   9
ATOM      9  C   UNL     1     -11.392 -13.500  22.718  1.00  0.00     0.041 C 
ATOM     10  O   UNL     1     -10.249 -13.983  22.501  1.00  0.00    -0.550 OA
ATOM     11  O   UNL     1     -12.517 -14.142  22.214  1.00  0.00    -0.550 OA
ENDBRANCH   8   9
ENDBRANCH   7   8
ENDBRANCH   6   7
ENDBRANCH   5   6
ENDBRANCH   4   5
ENDBRANCH   3   4
ENDBRANCH   2   3
ENDBRANCH   1   2
BRANCH   1  12
ATOM     12  C   UNL     1     -11.727  -8.481  28.338  1.00  0.00     0.000 C 
BRANCH  12  13
ATOM     13  C   UNL     1     -11.236  -8.587  26.885  1.00  0.00    -0.000 C 
BRANCH  13  14
ATOM     14  C   UNL     1     -12.384  -8.537  25.860  1.00  0.00    -0.000 C 
BRANCH  14  15
ATOM     15  C   UNL     1     -13.751  -8.105  26.427  1.00  0.00    -0.000 C 
BRANCH  15  16
ATOM     16  C   UNL     1     -14.948  -8.977  25.996  1.00  0.00    -0.000 C 
BRANCH  16  17
ATOM     17  C   UNL     1     -14.600 -10.110  25.013  1.00  0.00    -0.000 C 
BRANCH  17  18
ATOM     18  C   UNL     1     -15.535 -11.324  25.150  1.00  0.00    -0.000 C 
BRANCH  18  19
ATOM     19  C   UNL     1     -15.111 -12.498  24.255  1.00  0.00    -0.003 C 
ATOM     20  C   UNL     1     -15.043 -13.822  25.014  1.00  0.00     0.004 C 
ENDBRANCH  18  19
ENDBRANCH  17  18
ENDBRANCH  16  17
ENDBRANCH  15  16
ENDBRANCH  14  15
ENDBRANCH  13  14
ENDBRANCH  12  13
ENDBRANCH   1  12
TORSDOF 16
ENDMDL
MODEL 3
REMARK VINA RESULT:    -3.469      3.120      5.686
REMARK INTER + INTRA:          -9.704
REMARK INTER:                  -6.933
REMARK INTRA:                  -2.771
REMARK UNBOUND:                -2.990
REMARK SMILES CCCCCCCCCCCCCCCCCC(=O)[O-]
REMARK SMILES IDX 10 1 11 2 12 3 13 4 14 5 15 6 16 7 17 8 18 9 19 10 20 11
REMARK SMILES IDX 9 12 8 13 7 14 6 15 5 16 4 17 3 18 2 19 1 20
REMARK H PARENT
REMARK Flexibility Score: inf
ROOT
ATOM      1  C   UNL     1     -13.527 -11.532  29.120  1.00  0.00     0.000 C 
ENDROOT
BRANCH   1   2
ATOM      2  C   UNL     1     -12.035 -11.727  29.443  1.00  0.00     0.000 C 
BRANCH   2   3
ATOM      3  C   UNL     1     -11.132 -10.674  28.775  1.00  0.00     0.000 C 
BRANCH   3   4
ATOM      4  C   UNL     1     -11.592  -9.239  29.075  1.00  0.00     0.000 C 
BRANCH   4   5
ATOM      5  C   UNL     1     -11.552  -8.337  27.828  1.00  0.00     0.000 C 
BRANCH   5   6
ATOM      6  C   UNL     1     -11.316  -9.146  26.535  1.00  0.00     0.000 C 
BRANCH   6   7
ATOM      7  C   UNL     1     -12.430  -8.970  25.488  1.00  0.00     0.006 C 
BRANCH   7   8
ATOM      8  C   UNL     1     -13.427  -7.866  25.858  1.00  0.00     0.053 C 
BRANCH   8   9
ATOM      9  C   UNL     1     -14.786  -8.445  26.092  1.00  0.00     0.041 C 
ATOM     10  O   UNL     1     -15.438  -8.132  27.123  1.00  0.00    -0.550 OA
ATOM     11  O   UNL     1     -15.312  -9.369  25.198  1.00  0.00    -0.550 OA
ENDBRANCH   8   9
ENDBRANCH   7   8
ENDBRANCH   6   7
ENDBRANCH   5   6
ENDBRANCH   4   5
ENDBRANCH   3   4
ENDBRANCH   2   3
ENDBRANCH   1   2
BRANCH   1  12
ATOM     12  C   UNL     1     -13.900 -11.672  27.632  1.00  0.00     0.000 C 
BRANCH  12  13
ATOM     13  C   UNL     1     -13.269 -12.908  26.969  1.00  0.00    -0.000 C 
BRANCH  13  14
ATOM     14  C   UNL     1     -12.887 -12.667  25.497  1.00  0.00    -0.000 C 
BRANCH  14  15
ATOM     15  C   UNL     1     -11.424 -12.998  25.135  1.00  0.00    -0.000 C 
BRANCH  15  16
ATOM     16  C   UNL     1     -10.513 -13.342  26.331  1.00  0.00    -0.000 C 
BRANCH  16  17
ATOM     17  C   UNL     1     -10.167 -14.836  26.470  1.00  0.00    -0.000 C 
BRANCH  17  18
ATOM     18  C   UNL     1     -10.715 -15.684  25.310  1.00  0.00    -0.000 C 
BRANCH  18  19
ATOM     19  C   UNL     1     -11.557 -16.874  25.797  1.00  0.00    -0.003 C 
ATOM     20  C   UNL     1     -13.030 -16.516  25.982  1.00  0.00     0.004 C 
ENDBRANCH  18  19
ENDBRANCH  17  18
ENDBRANCH  16  17
ENDBRANCH  15  16
ENDBRANCH  14  15
ENDBRANCH  13  14
ENDBRANCH  12  13
ENDBRANCH   1  12
TORSDOF 16
ENDMDL
MODEL 4
REMARK VINA RESULT:    -3.468      2.685      4.520
REMARK INTER + INTRA:          -9.701
REMARK INTER:                  -7.388
REMARK INTRA:                  -2.314
REMARK UNBOUND:                -2.990
REMARK SMILES CCCCCCCCCCCCCCCCCC(=O)[O-]
REMARK SMILES IDX 10 1 11 2 12 3 13 4 14 5 15 6 16 7 17 8 18 9 19 10 20 11
REMARK SMILES IDX 9 12 8 13 7 14 6 15 5 16 4 17 3 18 2 19 1 20
REMARK H PARENT
REMARK Flexibility Score: inf
ROOT
ATOM      1  C   UNL     1     -11.599  -8.072  28.577  1.00  0.00     0.000 C 
ENDROOT
BRANCH   1   2
ATOM      2  C   UNL     1     -11.511  -8.994  29.806  1.00  0.00     0.000 C 
BRANCH   2   3
ATOM      3  C   UNL     1     -11.605 -10.488  29.445  1.00  0.00     0.000 C 
BRANCH   3   4
ATOM      4  C   UNL     1     -12.992 -11.073  29.748  1.00  0.00     0.000 C 
BRANCH   4   5
ATOM      5  C   UNL     1     -13.755 -11.470  28.470  1.00  0.00     0.000 C 
BRANCH   5   6
ATOM      6  C   UNL     1     -12.874 -12.284  27.500  1.00  0.00     0.000 C 
BRANCH   6   7
ATOM      7  C   UNL     1     -13.360 -12.236  26.040  1.00  0.00     0.006 C 
BRANCH   7   8
ATOM      8  C   UNL     1     -14.346 -13.361  25.704  1.00  0.00     0.053 C 
BRANCH   8   9
ATOM      9  C   UNL     1     -13.609 -14.600  25.307  1.00  0.00     0.041 C 
ATOM     10  O   UNL     1     -14.176 -15.724  25.378  1.00  0.00    -0.550 OA
ATOM     11  O   UNL     1     -12.282 -14.523  24.906  1.00  0.00    -0.550 OA
ENDBRANCH   8   9
ENDBRANCH   7   8
ENDBRANCH   6   7
ENDBRANCH   5   6
ENDBRANCH   4   5
ENDBRANCH   3   4
ENDBRANCH   2   3
ENDBRANCH   1   2
BRANCH   1  12
ATOM     12  C   UNL     1     -11.253  -8.735  27.231  1.00  0.00     0.000 C 
BRANCH  12  13
ATOM     13  C   UNL     1     -12.365  -8.576  26.180  1.00  0.00    -0.000 C 
BRANCH  13  14
ATOM     14  C   UNL     1     -13.733  -8.243  26.804  1.00  0.00    -0.000 C 
BRANCH  14  15
ATOM     15  C   UNL     1     -14.948  -8.883  26.102  1.00  0.00    -0.000 C 
BRANCH  15  16
ATOM     16  C   UNL     1     -15.702  -7.962  25.123  1.00  0.00    -0.000 C 
BRANCH  16  17
ATOM     17  C   UNL     1     -15.852  -6.504  25.593  1.00  0.00    -0.000 C 
BRANCH  17  18
ATOM     18  C   UNL     1     -15.109  -5.507  24.686  1.00  0.00    -0.000 C 
BRANCH  18  19
ATOM     19  C   UNL     1     -14.202  -6.207  23.662  1.00  0.00    -0.003 C 
ATOM     20  C   UNL     1     -14.402  -5.681  22.242  1.00  0.00     0.004 C 
ENDBRANCH  18  19
ENDBRANCH  17  18
ENDBRANCH  16  17
ENDBRANCH  15  16
ENDBRANCH  14  15
ENDBRANCH  13  14
ENDBRANCH  12  13
ENDBRANCH   1  12
TORSDOF 16
ENDMDL
MODEL 5
REMARK VINA RESULT:    -3.431      3.278      5.567
REMARK INTER + INTRA:          -9.630
REMARK INTER:                  -6.500
REMARK INTRA:                  -3.130
REMARK UNBOUND:                -2.990
REMARK SMILES CCCCCCCCCCCCCCCCCC(=O)[O-]
REMARK SMILES IDX 10 1 11 2 12 3 13 4 14 5 15 6 16 7 17 8 18 9 19 10 20 11
REMARK SMILES IDX 9 12 8 13 7 14 6 15 5 16 4 17 3 18 2 19 1 20
REMARK H PARENT
REMARK Flexibility Score: inf
ROOT
ATOM      1  C   UNL     1     -13.871 -11.773  25.624  1.00  0.00     0.000 C 
ENDROOT
BRANCH   1   2
ATOM      2  C   UNL     1     -13.493 -12.396  26.980  1.00  0.00     0.000 C 
BRANCH   2   3
ATOM      3  C   UNL     1     -11.978 -12.365  27.255  1.00  0.00     0.000 C 
BRANCH   3   4
ATOM      4  C   UNL     1     -11.531 -11.044  27.898  1.00  0.00     0.000 C 
BRANCH   4   5
ATOM      5  C   UNL     1     -10.790 -10.128  26.906  1.00  0.00     0.000 C 
BRANCH   5   6
ATOM      6  C   UNL     1     -11.297  -8.672  26.974  1.00  0.00     0.000 C 
BRANCH   6   7
ATOM      7  C   UNL     1     -12.410  -8.361  25.957  1.00  0.00     0.006 C 
BRANCH   7   8
ATOM      8  C   UNL     1     -13.787  -8.201  26.612  1.00  0.00     0.053 C 
BRANCH   8   9
ATOM      9  C   UNL     1     -14.821  -7.874  25.582  1.00  0.00     0.041 C 
ATOM     10  O   UNL     1     -14.808  -8.457  24.464  1.00  0.00    -0.550 OA
ATOM     11  O   UNL     1     -15.769  -6.891  25.834  1.00  0.00    -0.550 OA
ENDBRANCH   8   9
ENDBRANCH   7   8
ENDBRANCH   6   7
ENDBRANCH   5   6
ENDBRANCH   4   5
ENDBRANCH   3   4
ENDBRANCH   2   3
ENDBRANCH   1   2
BRANCH   1  12
ATOM     12  C   UNL     1     -13.998 -12.770  24.457  1.00  0.00     0.000 C 
BRANCH  12  13
ATOM     13  C   UNL     1     -13.078 -12.426  23.272  1.00  0.00    -0.000 C 
BRANCH  13  14
ATOM     14  C   UNL     1     -11.975 -11.419  23.646  1.00  0.00    -0.000 C 
BRANCH  14  15
ATOM     15  C   UNL     1     -10.559 -12.016  23.781  1.00  0.00    -0.000 C 
BRANCH  15  16
ATOM     16  C   UNL     1     -10.455 -13.530  23.503  1.00  0.00    -0.000 C 
BRANCH  16  17
ATOM     17  C   UNL     1     -10.452 -14.418  24.760  1.00  0.00    -0.000 C 
BRANCH  17  18
ATOM     18  C   UNL     1     -11.511 -15.533  24.703  1.00  0.00    -0.000 C 
BRANCH  18  19
ATOM     19  C   UNL     1     -12.061 -15.895  26.091  1.00  0.00    -0.003 C 
ATOM     20  C   UNL     1     -13.563 -16.174  26.075  1.00  0.00     0.004 C 
ENDBRANCH  18  19
ENDBRANCH  17  18
ENDBRANCH  16  17
ENDBRANCH  15  16
ENDBRANCH  14  15
ENDBRANCH  13  14
ENDBRANCH  12  13
ENDBRANCH   1  12
TORSDOF 16
ENDMDL
MODEL 6
REMARK VINA RESULT:    -3.427      2.294      3.702
REMARK INTER + INTRA:          -9.623
REMARK INTER:                  -6.682
REMARK INTRA:                  -2.941
REMARK UNBOUND:                -2.990
REMARK SMILES CCCCCCCCCCCCCCCCCC(=O)[O-]
REMARK SMILES IDX 10 1 11 2 12 3 13 4 14 5 15 6 16 7 17 8 18 9 19 10 20 11
REMARK SMILES IDX 9 12 8 13 7 14 6 15 5 16 4 17 3 18 2 19 1 20
REMARK H PARENT
REMARK Flexibility Score: inf
ROOT
ATOM      1  C   UNL     1     -12.519  -8.216  26.242  1.00  0.00     0.000 C 
ENDROOT
BRANCH   1   2
ATOM      2  C   UNL     1     -11.372  -8.665  27.164  1.00  0.00     0.000 C 
BRANCH   2   3
ATOM      3  C   UNL     1     -11.557  -8.208  28.622  1.00  0.00     0.000 C 
BRANCH   3   4
ATOM      4  C   UNL     1     -11.615  -9.391  29.601  1.00  0.00     0.000 C 
BRANCH   4   5
ATOM      5  C   UNL     1     -11.565 -10.752  28.880  1.00  0.00     0.000 C 
BRANCH   5   6
ATOM      6  C   UNL     1     -12.925 -11.479  28.922  1.00  0.00     0.000 C 
BRANCH   6   7
ATOM      7  C   UNL     1     -13.103 -12.515  27.798  1.00  0.00     0.006 C 
BRANCH   7   8
ATOM      8  C   UNL     1     -11.908 -12.566  26.840  1.00  0.00     0.053 C 
BRANCH   8   9
ATOM      9  C   UNL     1     -12.336 -12.206  25.452  1.00  0.00     0.041 C 
ATOM     10  O   UNL     1     -11.720 -11.314  24.811  1.00  0.00    -0.550 OA
ATOM     11  O   UNL     1     -13.444 -12.821  24.884  1.00  0.00    -0.550 OA
ENDBRANCH   8   9
ENDBRANCH   7   8
ENDBRANCH   6   7
ENDBRANCH   5   6
ENDBRANCH   4   5
ENDBRANCH   3   4
ENDBRANCH   2   3
ENDBRANCH   1   2
BRANCH   1  12
ATOM     12  C   UNL     1     -13.934  -8.372  26.830  1.00  0.00     0.000 C 
BRANCH  12  13
ATOM     13  C   UNL     1     -14.694  -9.579  26.253  1.00  0.00    -0.000 C 
BRANCH  13  14
ATOM     14  C   UNL     1     -15.409  -9.256  24.928  1.00  0.00    -0.000 C 
BRANCH  14  15
ATOM     15  C   UNL     1     -14.648  -9.670  23.653  1.00  0.00    -0.000 C 
BRANCH  15  16
ATOM     16  C   UNL     1     -14.546  -8.581  22.565  1.00  0.00    -0.000 C 
BRANCH  16  17
ATOM     17  C   UNL     1     -13.523  -7.469  22.858  1.00  0.00    -0.000 C 
BRANCH  17  18
ATOM     18  C   UNL     1     -14.167  -6.073  22.927  1.00  0.00    -0.000 C 
BRANCH  18  19
ATOM     19  C   UNL     1     -14.295  -5.555  24.368  1.00  0.00    -0.003 C 
ATOM     20  C   UNL     1     -15.736  -5.575  24.875  1.00  0.00     0.004 C 
ENDBRANCH  18  19
ENDBRANCH  17  18
ENDBRANCH  16  17
ENDBRANCH  15  16
ENDBRANCH  14  15
ENDBRANCH  13  14
ENDBRANCH  12  13
ENDBRANCH   1  12
TORSDOF 16
ENDMDL
MODEL 7
REMARK VINA RESULT:    -3.397      2.436      3.728
REMARK INTER + INTRA:          -9.565
REMARK INTER:                  -6.413
REMARK INTRA:                  -3.152
REMARK UNBOUND:                -2.990
REMARK SMILES CCCCCCCCCCCCCCCCCC(=O)[O-]
REMARK SMILES IDX 10 1 11 2 12 3 13 4 14 5 15 6 16 7 17 8 18 9 19 10 20 11
REMARK SMILES IDX 9 12 8 13 7 14 6 15 5 16 4 17 3 18 2 19 1 20
REMARK H PARENT
REMARK Flexibility Score: inf
ROOT
ATOM      1  C   UNL     1     -14.703  -9.357  26.797  1.00  0.00     0.000 C 
ENDROOT
BRANCH   1   2
ATOM      2  C   UNL     1     -13.678  -8.227  27.007  1.00  0.00     0.000 C 
BRANCH   2   3
ATOM      3  C   UNL     1     -12.349  -8.724  27.603  1.00  0.00     0.000 C 
BRANCH   3   4
ATOM      4  C   UNL     1     -11.270  -8.929  26.528  1.00  0.00     0.000 C 
BRANCH   4   5
ATOM      5  C   UNL     1     -10.970 -10.418  26.274  1.00  0.00     0.000 C 
BRANCH   5   6
ATOM      6  C   UNL     1     -11.487 -11.317  27.417  1.00  0.00     0.000 C 
BRANCH   6   7
ATOM      7  C   UNL     1     -12.469 -12.405  26.947  1.00  0.00     0.006 C 
BRANCH   7   8
ATOM      8  C   UNL     1     -12.067 -13.031  25.607  1.00  0.00     0.053 C 
BRANCH   8   9
ATOM      9  C   UNL     1     -11.308 -14.301  25.831  1.00  0.00     0.041 C 
ATOM     10  O   UNL     1     -10.048 -14.296  25.820  1.00  0.00    -0.550 OA
ATOM     11  O   UNL     1     -11.990 -15.498  26.004  1.00  0.00    -0.550 OA
ENDBRANCH   8   9
ENDBRANCH   7   8
ENDBRANCH   6   7
ENDBRANCH   5   6
ENDBRANCH   4   5
ENDBRANCH   3   4
ENDBRANCH   2   3
ENDBRANCH   1   2
BRANCH   1  12
ATOM     12  C   UNL     1     -15.268  -9.474  25.369  1.00  0.00     0.000 C 
BRANCH  12  13
ATOM     13  C   UNL     1     -14.972 -10.836  24.717  1.00  0.00    -0.000 C 
BRANCH  13  14
ATOM     14  C   UNL     1     -14.100 -10.717  23.454  1.00  0.00    -0.000 C 
BRANCH  14  15
ATOM     15  C   UNL     1     -13.146  -9.505  23.426  1.00  0.00    -0.000 C 
BRANCH  15  16
ATOM     16  C   UNL     1     -13.170  -8.679  22.125  1.00  0.00    -0.000 C 
BRANCH  16  17
ATOM     17  C   UNL     1     -13.202  -7.153  22.328  1.00  0.00    -0.000 C 
BRANCH  17  18
ATOM     18  C   UNL     1     -13.001  -6.745  23.798  1.00  0.00    -0.000 C 
BRANCH  18  19
ATOM     19  C   UNL     1     -14.138  -5.853  24.322  1.00  0.00    -0.003 C 
ATOM     20  C   UNL     1     -15.433  -6.025  23.530  1.00  0.00     0.004 C 
ENDBRANCH  18  19
ENDBRANCH  17  18
ENDBRANCH  16  17
ENDBRANCH  15  16
ENDBRANCH  14  15
ENDBRANCH  13  14
ENDBRANCH  12  13
ENDBRANCH   1  12
TORSDOF 16
ENDMDL
MODEL 8
REMARK VINA RESULT:    -3.396      2.446      3.494
REMARK INTER + INTRA:          -9.563
REMARK INTER:                  -6.674
REMARK INTRA:                  -2.889
REMARK UNBOUND:                -2.990
REMARK SMILES CCCCCCCCCCCCCCCCCC(=O)[O-]
REMARK SMILES IDX 10 1 11 2 12 3 13 4 14 5 15 6 16 7 17 8 18 9 19 10 20 11
REMARK SMILES IDX 9 12 8 13 7 14 6 15 5 16 4 17 3 18 2 19 1 20
REMARK H PARENT
REMARK Flexibility Score: inf
ROOT
ATOM      1  C   UNL     1     -11.250  -8.590  26.865  1.00  0.00     0.000 C 
ENDROOT
BRANCH   1   2
ATOM      2  C   UNL     1     -11.641  -8.273  28.320  1.00  0.00     0.000 C 
BRANCH   2   3
ATOM      3  C   UNL     1     -11.662  -9.520  29.223  1.00  0.00     0.000 C 
BRANCH   3   4
ATOM      4  C   UNL     1     -11.237 -10.790  28.470  1.00  0.00     0.000 C 
BRANCH   4   5
ATOM      5  C   UNL     1     -12.311 -11.892  28.523  1.00  0.00     0.000 C 
BRANCH   5   6
ATOM      6  C   UNL     1     -13.656 -11.418  27.931  1.00  0.00     0.000 C 
BRANCH   6   7
ATOM      7  C   UNL     1     -13.736 -11.559  26.400  1.00  0.00     0.006 C 
BRANCH   7   8
ATOM      8  C   UNL     1     -12.945 -12.760  25.870  1.00  0.00     0.053 C 
BRANCH   8   9
ATOM      9  C   UNL     1     -12.071 -12.347  24.729  1.00  0.00     0.041 C 
ATOM     10  O   UNL     1     -11.119 -11.545  24.919  1.00  0.00    -0.550 OA
ATOM     11  O   UNL     1     -12.337 -12.809  23.446  1.00  0.00    -0.550 OA
ENDBRANCH   8   9
ENDBRANCH   7   8
ENDBRANCH   6   7
ENDBRANCH   5   6
ENDBRANCH   4   5
ENDBRANCH   3   4
ENDBRANCH   2   3
ENDBRANCH   1   2
BRANCH   1  12
ATOM     12  C   UNL     1     -12.305  -8.222  25.806  1.00  0.00     0.000 C 
BRANCH  12  13
ATOM     13  C   UNL     1     -13.686  -7.920  26.414  1.00  0.00    -0.000 C 
BRANCH  13  14
ATOM     14  C   UNL     1     -14.687  -7.371  25.381  1.00  0.00    -0.000 C 
BRANCH  14  15
ATOM     15  C   UNL     1     -14.184  -6.172  24.552  1.00  0.00    -0.000 C 
BRANCH  15  16
ATOM     16  C   UNL     1     -14.334  -6.319  23.025  1.00  0.00    -0.000 C 
BRANCH  16  17
ATOM     17  C   UNL     1     -13.061  -6.779  22.291  1.00  0.00    -0.000 C 
BRANCH  17  18
ATOM     18  C   UNL     1     -13.232  -8.143  21.601  1.00  0.00    -0.000 C 
BRANCH  18  19
ATOM     19  C   UNL     1     -13.117  -9.319  22.583  1.00  0.00    -0.003 C 
ATOM     20  C   UNL     1     -14.439 -10.062  22.769  1.00  0.00     0.004 C 
ENDBRANCH  18  19
ENDBRANCH  17  18
ENDBRANCH  16  17
ENDBRANCH  15  16
ENDBRANCH  14  15
ENDBRANCH  13  14
ENDBRANCH  12  13
ENDBRANCH   1  12
TORSDOF 16
ENDMDL
MODEL 9
REMARK VINA RESULT:    -3.370      3.446      6.327
REMARK INTER + INTRA:          -9.511
REMARK INTER:                  -6.770
REMARK INTRA:                  -2.741
REMARK UNBOUND:                -2.990
REMARK SMILES CCCCCCCCCCCCCCCCCC(=O)[O-]
REMARK SMILES IDX 10 1 11 2 12 3 13 4 14 5 15 6 16 7 17 8 18 9 19 10 20 11
REMARK SMILES IDX 9 12 8 13 7 14 6 15 5 16 4 17 3 18 2 19 1 20
REMARK H PARENT
REMARK Flexibility Score: inf
ROOT
ATOM      1  C   UNL     1     -10.634 -12.580  26.782  1.00  0.00     0.000 C 
ENDROOT
BRANCH   1   2
ATOM      2  C   UNL     1     -11.502 -12.660  28.051  1.00  0.00     0.000 C 
BRANCH   2   3
ATOM      3  C   UNL     1     -12.822 -11.878  27.927  1.00  0.00     0.000 C 
BRANCH   3   4
ATOM      4  C   UNL     1     -12.918 -10.734  28.948  1.00  0.00     0.000 C 
BRANCH   4   5
ATOM      5  C   UNL     1     -11.621  -9.908  29.030  1.00  0.00     0.000 C 
BRANCH   5   6
ATOM      6  C   UNL     1     -11.714  -8.602  28.213  1.00  0.00     0.000 C 
BRANCH   6   7
ATOM      7  C   UNL     1     -11.250  -8.756  26.753  1.00  0.00     0.006 C 
BRANCH   7   8
ATOM      8  C   UNL     1     -12.187  -8.066  25.755  1.00  0.00     0.053 C 
BRANCH   8   9
ATOM      9  C   UNL     1     -13.572  -8.618  25.871  1.00  0.00     0.041 C 
ATOM     10  O   UNL     1     -13.852  -9.739  25.368  1.00  0.00    -0.550 OA
ATOM     11  O   UNL     1     -14.568  -7.875  26.492  1.00  0.00    -0.550 OA
ENDBRANCH   8   9
ENDBRANCH   7   8
ENDBRANCH   6   7
ENDBRANCH   5   6
ENDBRANCH   4   5
ENDBRANCH   3   4
ENDBRANCH   2   3
ENDBRANCH   1   2
BRANCH   1  12
ATOM     12  C   UNL     1     -11.395 -12.236  25.487  1.00  0.00     0.000 C 
BRANCH  12  13
ATOM     13  C   UNL     1     -11.533 -13.437  24.536  1.00  0.00    -0.000 C 
BRANCH  13  14
ATOM     14  C   UNL     1     -13.000 -13.798  24.238  1.00  0.00    -0.000 C 
BRANCH  14  15
ATOM     15  C   UNL     1     -13.804 -14.326  25.443  1.00  0.00    -0.000 C 
BRANCH  15  16
ATOM     16  C   UNL     1     -13.619 -15.825  25.750  1.00  0.00    -0.000 C 
BRANCH  16  17
ATOM     17  C   UNL     1     -12.619 -16.134  26.880  1.00  0.00    -0.000 C 
BRANCH  17  18
ATOM     18  C   UNL     1     -11.627 -17.249  26.507  1.00  0.00    -0.000 C 
BRANCH  18  19
ATOM     19  C   UNL     1     -10.566 -16.780  25.499  1.00  0.00    -0.003 C 
ATOM     20  C   UNL     1      -9.402 -16.049  26.167  1.00  0.00     0.004 C 
ENDBRANCH  18  19
ENDBRANCH  17  18
ENDBRANCH  16  17
ENDBRANCH  15  16
ENDBRANCH  14  15
ENDBRANCH  13  14
ENDBRANCH  12  13
ENDBRANCH   1  12
TORSDOF 16
ENDMDL
