MODEL 1
REMARK VINA RESULT:    -4.096      0.000      0.000
REMARK INTER + INTRA:          -4.462
REMARK INTER:                  -4.336
REMARK INTRA:                  -0.126
REMARK UNBOUND:                -0.126
REMARK SMILES C=C(C)[C@@H]1CC=C(C)CC1
REMARK SMILES IDX 8 1 7 2 6 3 5 4 4 5 10 6 9 7 2 8 1 9 3 10
REMARK H PARENT
REMARK Flexibility Score: inf
ROOT
ATOM      1  C   UNL     1      29.831   7.294  28.373  1.00  0.00     0.039 C 
ATOM      2  C   UNL     1      30.327   7.842  29.683  1.00  0.00    -0.077 C 
ATOM      3  C   UNL     1      30.142   9.151  29.958  1.00  0.00    -0.027 C 
ATOM      4  C   UNL     1      30.554   9.783  31.265  1.00  0.00     0.035 C 
ATOM      5  C   UNL     1      31.655   8.977  31.978  1.00  0.00     0.018 C 
ATOM      6  C   UNL     1      31.270   7.489  32.020  1.00  0.00     0.013 C 
ATOM      7  C   UNL     1      31.135   6.939  30.595  1.00  0.00     0.031 C 
ENDROOT
BRANCH   5   8
ATOM      8  C   UNL     1      31.942   9.526  33.367  1.00  0.00    -0.077 C 
ATOM      9  C   UNL     1      31.312   9.049  34.456  1.00  0.00     0.008 C 
ATOM     10  C   UNL     1      32.968  10.618  33.511  1.00  0.00     0.039 C 
ENDBRANCH   5   8
TORSDOF 1
ENDMDL
MODEL 2
REMARK VINA RESULT:    -4.081      1.257      2.226
REMARK INTER + INTRA:          -4.446
REMARK INTER:                  -4.314
REMARK INTRA:                  -0.131
REMARK UNBOUND:                -0.126
REMARK SMILES C=C(C)[C@@H]1CC=C(C)CC1
REMARK SMILES IDX 8 1 7 2 6 3 5 4 4 5 10 6 9 7 2 8 1 9 3 10
REMARK H PARENT
REMARK Flexibility Score: inf
ROOT
ATOM      1  C   UNL     1      28.955   9.679  27.630  1.00  0.00     0.039 C 
ATOM      2  C   UNL     1      29.677   9.406  28.921  1.00  0.00    -0.077 C 
ATOM      3  C   UNL     1      30.239   8.193  29.115  1.00  0.00    -0.027 C 
ATOM      4  C   UNL     1      31.029   7.841  30.351  1.00  0.00     0.035 C 
ATOM      5  C   UNL     1      30.668   8.741  31.547  1.00  0.00     0.018 C 
ATOM      6  C   UNL     1      30.682  10.216  31.114  1.00  0.00     0.013 C 
ATOM      7  C   UNL     1      29.637  10.454  30.018  1.00  0.00     0.031 C 
ENDROOT
BRANCH   5   8
ATOM      8  C   UNL     1      31.586   8.491  32.734  1.00  0.00    -0.077 C 
ATOM      9  C   UNL     1      31.772   7.255  33.232  1.00  0.00     0.008 C 
ATOM     10  C   UNL     1      32.307   9.664  33.344  1.00  0.00     0.039 C 
ENDBRANCH   5   8
TORSDOF 1
ENDMDL
MODEL 3
REMARK VINA RESULT:    -4.054      0.820      1.789
REMARK INTER + INTRA:          -4.417
REMARK INTER:                  -4.290
REMARK INTRA:                  -0.126
REMARK UNBOUND:                -0.126
REMARK SMILES C=C(C)[C@@H]1CC=C(C)CC1
REMARK SMILES IDX 8 1 7 2 6 3 5 4 4 5 10 6 9 7 2 8 1 9 3 10
REMARK H PARENT
REMARK Flexibility Score: inf
ROOT
ATOM      1  C   UNL     1      29.882   7.838  28.888  1.00  0.00     0.039 C 
ATOM      2  C   UNL     1      30.442   8.406  30.163  1.00  0.00    -0.077 C 
ATOM      3  C   UNL     1      31.010   7.572  31.060  1.00  0.00    -0.027 C 
ATOM      4  C   UNL     1      31.646   8.051  32.342  1.00  0.00     0.035 C 
ATOM      5  C   UNL     1      31.110   9.427  32.777  1.00  0.00     0.018 C 
ATOM      6  C   UNL     1      31.135  10.398  31.586  1.00  0.00     0.013 C 
ATOM      7  C   UNL     1      30.232   9.879  30.462  1.00  0.00     0.031 C 
ENDROOT
BRANCH   5   8
ATOM      8  C   UNL     1      31.876   9.976  33.971  1.00  0.00    -0.077 C 
ATOM      9  C   UNL     1      31.469   9.748  35.233  1.00  0.00     0.008 C 
ATOM     10  C   UNL     1      33.125  10.778  33.717  1.00  0.00     0.039 C 
ENDBRANCH   5   8
TORSDOF 1
ENDMDL
MODEL 4
REMARK VINA RESULT:    -4.040      1.646      3.136
REMARK INTER + INTRA:          -4.402
REMARK INTER:                  -4.269
REMARK INTRA:                  -0.133
REMARK UNBOUND:                -0.126
REMARK SMILES C=C(C)[C@@H]1CC=C(C)CC1
REMARK SMILES IDX 8 1 7 2 6 3 5 4 4 5 10 6 9 7 2 8 1 9 3 10
REMARK H PARENT
REMARK Flexibility Score: inf
ROOT
ATOM      1  C   UNL     1      30.907   8.029  30.385  1.00  0.00     0.039 C 
ATOM      2  C   UNL     1      31.088   8.142  31.873  1.00  0.00    -0.077 C 
ATOM      3  C   UNL     1      31.068   7.019  32.624  1.00  0.00    -0.027 C 
ATOM      4  C   UNL     1      31.294   7.023  34.115  1.00  0.00     0.035 C 
ATOM      5  C   UNL     1      30.992   8.394  34.745  1.00  0.00     0.018 C 
ATOM      6  C   UNL     1      31.685   9.504  33.938  1.00  0.00     0.013 C 
ATOM      7  C   UNL     1      31.153   9.522  32.501  1.00  0.00     0.031 C 
ENDROOT
BRANCH   5   8
ATOM      8  C   UNL     1      31.383   8.435  36.215  1.00  0.00    -0.077 C 
ATOM      9  C   UNL     1      31.305   7.342  36.994  1.00  0.00     0.008 C 
ATOM     10  C   UNL     1      31.879   9.735  36.790  1.00  0.00     0.039 C 
ENDBRANCH   5   8
TORSDOF 1
ENDMDL
MODEL 5
REMARK VINA RESULT:    -4.032      2.108      5.666
REMARK INTER + INTRA:          -4.394
REMARK INTER:                  -4.264
REMARK INTRA:                  -0.129
REMARK UNBOUND:                -0.126
REMARK SMILES C=C(C)[C@@H]1CC=C(C)CC1
REMARK SMILES IDX 8 1 7 2 6 3 5 4 4 5 10 6 9 7 2 8 1 9 3 10
REMARK H PARENT
REMARK Flexibility Score: inf
ROOT
ATOM      1  C   UNL     1      31.209   7.438  31.707  1.00  0.00     0.039 C 
ATOM      2  C   UNL     1      31.020   7.423  30.215  1.00  0.00    -0.077 C 
ATOM      3  C   UNL     1      30.205   8.338  29.647  1.00  0.00    -0.027 C 
ATOM      4  C   UNL     1      29.992   8.439  28.157  1.00  0.00     0.035 C 
ATOM      5  C   UNL     1      30.317   7.120  27.434  1.00  0.00     0.018 C 
ATOM      6  C   UNL     1      31.680   6.587  27.904  1.00  0.00     0.013 C 
ATOM      7  C   UNL     1      31.644   6.299  29.409  1.00  0.00     0.031 C 
ENDROOT
BRANCH   5   8
ATOM      8  C   UNL     1      30.264   7.280  25.922  1.00  0.00    -0.077 C 
ATOM      9  C   UNL     1      30.592   8.441  25.326  1.00  0.00     0.008 C 
ATOM     10  C   UNL     1      29.847   6.098  25.087  1.00  0.00     0.039 C 
ENDBRANCH   5   8
TORSDOF 1
ENDMDL
MODEL 6
REMARK VINA RESULT:    -4.015      2.205      4.760
REMARK INTER + INTRA:          -4.376
REMARK INTER:                  -4.246
REMARK INTRA:                  -0.130
REMARK UNBOUND:                -0.126
REMARK SMILES C=C(C)[C@@H]1CC=C(C)CC1
REMARK SMILES IDX 8 1 7 2 6 3 5 4 4 5 10 6 9 7 2 8 1 9 3 10
REMARK H PARENT
REMARK Flexibility Score: inf
ROOT
ATOM      1  C   UNL     1      30.872   5.875  37.115  1.00  0.00     0.039 C 
ATOM      2  C   UNL     1      31.092   6.900  36.037  1.00  0.00    -0.077 C 
ATOM      3  C   UNL     1      31.245   6.487  34.760  1.00  0.00    -0.027 C 
ATOM      4  C   UNL     1      31.417   7.439  33.602  1.00  0.00     0.035 C 
ATOM      5  C   UNL     1      31.947   8.812  34.053  1.00  0.00     0.018 C 
ATOM      6  C   UNL     1      31.130   9.320  35.252  1.00  0.00     0.013 C 
ATOM      7  C   UNL     1      31.269   8.354  36.434  1.00  0.00     0.031 C 
ENDROOT
BRANCH   5   8
ATOM      8  C   UNL     1      31.956   9.814  32.909  1.00  0.00    -0.077 C 
ATOM      9  C   UNL     1      31.080   9.727  31.892  1.00  0.00     0.008 C 
ATOM     10  C   UNL     1      32.965  10.932  32.939  1.00  0.00     0.039 C 
ENDBRANCH   5   8
TORSDOF 1
ENDMDL
MODEL 7
REMARK VINA RESULT:    -3.996      2.665      6.023
REMARK INTER + INTRA:          -4.355
REMARK INTER:                  -4.222
REMARK INTRA:                  -0.133
REMARK UNBOUND:                -0.126
REMARK SMILES C=C(C)[C@@H]1CC=C(C)CC1
REMARK SMILES IDX 8 1 7 2 6 3 5 4 4 5 10 6 9 7 2 8 1 9 3 10
REMARK H PARENT
REMARK Flexibility Score: inf
ROOT
ATOM      1  C   UNL     1      30.542   8.541  39.457  1.00  0.00     0.039 C 
ATOM      2  C   UNL     1      30.883   8.477  37.993  1.00  0.00    -0.077 C 
ATOM      3  C   UNL     1      31.295   9.600  37.366  1.00  0.00    -0.027 C 
ATOM      4  C   UNL     1      31.710   9.627  35.916  1.00  0.00     0.035 C 
ATOM      5  C   UNL     1      31.109   8.456  35.118  1.00  0.00     0.018 C 
ATOM      6  C   UNL     1      31.330   7.138  35.876  1.00  0.00     0.013 C 
ATOM      7  C   UNL     1      30.625   7.187  37.237  1.00  0.00     0.031 C 
ENDROOT
BRANCH   5   8
ATOM      8  C   UNL     1      31.667   8.395  33.704  1.00  0.00    -0.077 C 
ATOM      9  C   UNL     1      32.142   9.492  33.087  1.00  0.00     0.008 C 
ATOM     10  C   UNL     1      31.693   7.065  32.998  1.00  0.00     0.039 C 
ENDBRANCH   5   8
TORSDOF 1
ENDMDL
MODEL 8
REMARK VINA RESULT:    -3.954      1.027      4.381
REMARK INTER + INTRA:          -4.311
REMARK INTER:                  -4.182
REMARK INTRA:                  -0.129
REMARK UNBOUND:                -0.126
REMARK SMILES C=C(C)[C@@H]1CC=C(C)CC1
REMARK SMILES IDX 8 1 7 2 6 3 5 4 4 5 10 6 9 7 2 8 1 9 3 10
REMARK H PARENT
REMARK Flexibility Score: inf
ROOT
ATOM      1  C   UNL     1      31.418   9.197  35.878  1.00  0.00     0.039 C 
ATOM      2  C   UNL     1      31.343   8.721  34.454  1.00  0.00    -0.077 C 
ATOM      3  C   UNL     1      31.200   9.630  33.465  1.00  0.00    -0.027 C 
ATOM      4  C   UNL     1      31.168   9.258  32.003  1.00  0.00     0.035 C 
ATOM      5  C   UNL     1      30.758   7.791  31.786  1.00  0.00     0.018 C 
ATOM      6  C   UNL     1      31.575   6.877  32.715  1.00  0.00     0.013 C 
ATOM      7  C   UNL     1      31.295   7.229  34.181  1.00  0.00     0.031 C 
ENDROOT
BRANCH   5   8
ATOM      8  C   UNL     1      30.894   7.379  30.328  1.00  0.00    -0.077 C 
ATOM      9  C   UNL     1      31.559   6.267  29.970  1.00  0.00     0.008 C 
ATOM     10  C   UNL     1      30.249   8.242  29.275  1.00  0.00     0.039 C 
ENDBRANCH   5   8
TORSDOF 1
ENDMDL
MODEL 9
REMARK VINA RESULT:    -3.920      1.111      4.656
REMARK INTER + INTRA:          -4.275
REMARK INTER:                  -4.149
REMARK INTRA:                  -0.127
REMARK UNBOUND:                -0.126
REMARK SMILES C=C(C)[C@@H]1CC=C(C)CC1
REMARK SMILES IDX 8 1 7 2 6 3 5 4 4 5 10 6 9 7 2 8 1 9 3 10
REMARK H PARENT
REMARK Flexibility Score: inf
ROOT
ATOM      1  C   UNL     1      31.692   9.960  34.282  1.00  0.00     0.039 C 
ATOM      2  C   UNL     1      31.400   9.161  33.042  1.00  0.00    -0.077 C 
ATOM      3  C   UNL     1      31.549   7.819  33.075  1.00  0.00    -0.027 C 
ATOM      4  C   UNL     1      31.230   6.926  31.902  1.00  0.00     0.035 C 
ATOM      5  C   UNL     1      31.270   7.688  30.565  1.00  0.00     0.018 C 
ATOM      6  C   UNL     1      30.464   8.992  30.682  1.00  0.00     0.013 C 
ATOM      7  C   UNL     1      31.078   9.898  31.756  1.00  0.00     0.031 C 
ENDROOT
BRANCH   5   8
ATOM      8  C   UNL     1      30.784   6.824  29.411  1.00  0.00    -0.077 C 
ATOM      9  C   UNL     1      31.551   6.597  28.330  1.00  0.00     0.008 C 
ATOM     10  C   UNL     1      29.414   6.205  29.505  1.00  0.00     0.039 C 
ENDBRANCH   5   8
TORSDOF 1
ENDMDL
