MODEL 1
REMARK VINA RESULT:    -4.195      0.000      0.000
REMARK INTER + INTRA:          -4.424
REMARK INTER:                  -5.176
REMARK INTRA:                   0.752
REMARK UNBOUND:                 0.752
REMARK SMILES CC1=CC=CC(C)(C)CC1=O
REMARK SMILES IDX 1 1 2 2 3 3 10 4 11 5 9 6 4 8 5 9 6 10 7 11 8 12
REMARK H PARENT
REMARK Flexibility Score: 80.00
ROOT
ATOM      1  C   UNL     1      13.975 -37.050 -28.584  1.00  0.00     0.048 C 
ATOM      2  C   UNL     1      13.267 -36.237 -29.642  1.00  0.00    -0.008 C 
ATOM      3  C   UNL     1      12.986 -36.845 -30.815  1.00  0.00     0.007 C 
ENDROOT
BRANCH   2   4
ATOM      4  C   UNL     1      12.870 -34.853 -29.278  1.00  0.00     0.159 C 
ATOM      5  O   UNL     1      12.947 -34.495 -28.071  1.00  0.00    -0.295 OA
BRANCH   4   6
ATOM      6  C   UNL     1      12.389 -33.842 -30.275  1.00  0.00     0.091 CG0
ATOM      7  G   UNL     1      11.118 -34.287 -31.030  1.00  0.00     0.000 G0
ENDBRANCH   4   6
ENDBRANCH   2   4
BRANCH   3   8
ATOM      8  C   UNL     1      12.287 -36.323 -32.013  1.00  0.00    -0.003 C 
ATOM      9  C   UNL     1      11.484 -35.257 -32.126  1.00  0.00    -0.020 C 
BRANCH   9  10
ATOM     10  C   UNL     1      11.117 -34.290 -31.026  1.00  0.00    -0.010 CG0
ATOM     11  C   UNL     1      10.057 -34.928 -30.097  1.00  0.00     0.016 C 
ATOM     12  C   UNL     1      10.489 -33.034 -31.673  1.00  0.00     0.016 C 
ATOM     13  G   UNL     1      12.390 -33.856 -30.267  1.00  0.00     0.000 G0
ENDBRANCH   9  10
ENDBRANCH   3   8
TORSDOF 0
ENDMDL
MODEL 2
REMARK VINA RESULT:    -4.109      1.555      2.571
REMARK INTER + INTRA:          -4.318
REMARK INTER:                  -5.080
REMARK INTRA:                   0.762
REMARK UNBOUND:                 0.752
REMARK SMILES CC1=CC=CC(C)(C)CC1=O
REMARK SMILES IDX 1 1 2 2 3 3 10 4 11 5 9 6 4 8 5 9 6 10 7 11 8 12
REMARK H PARENT
REMARK Flexibility Score: 80.00
ROOT
ATOM      1  C   UNL     1      13.728 -36.844 -28.715  1.00  0.00     0.048 C 
ATOM      2  C   UNL     1      12.780 -35.716 -29.049  1.00  0.00    -0.008 C 
ATOM      3  C   UNL     1      12.827 -34.610 -28.275  1.00  0.00     0.007 C 
ENDROOT
BRANCH   2   4
ATOM      4  C   UNL     1      11.924 -35.886 -30.249  1.00  0.00     0.159 C 
ATOM      5  O   UNL     1      12.154 -36.849 -31.031  1.00  0.00    -0.295 OA
BRANCH   4   6
ATOM      6  C   UNL     1      10.781 -34.976 -30.584  1.00  0.00     0.091 CG0
ATOM      7  G   UNL     1      11.206 -33.501 -30.758  1.00  0.00     0.000 G0
ENDBRANCH   4   6
ENDBRANCH   2   4
BRANCH   3   8
ATOM      8  C   UNL     1      12.054 -33.349 -28.370  1.00  0.00    -0.003 C 
ATOM      9  C   UNL     1      11.371 -32.854 -29.410  1.00  0.00    -0.020 C 
BRANCH   9  10
ATOM     10  C   UNL     1      11.201 -33.502 -30.763  1.00  0.00    -0.010 CG0
ATOM     11  C   UNL     1      12.500 -33.345 -31.589  1.00  0.00     0.016 C 
ATOM     12  C   UNL     1      10.067 -32.768 -31.514  1.00  0.00     0.016 C 
ATOM     13  G   UNL     1      10.783 -34.978 -30.586  1.00  0.00     0.000 G0
ENDBRANCH   9  10
ENDBRANCH   3   8
TORSDOF 0
ENDMDL
MODEL 3
REMARK VINA RESULT:    -3.842      1.580      2.866
REMARK INTER + INTRA:          -3.989
REMARK INTER:                  -4.748
REMARK INTRA:                   0.759
REMARK UNBOUND:                 0.752
REMARK SMILES CC1=CC=CC(C)(C)CC1=O
REMARK SMILES IDX 1 1 2 2 3 3 10 4 11 5 9 6 4 8 5 9 6 10 7 11 8 12
REMARK H PARENT
REMARK Flexibility Score: 80.00
ROOT
ATOM      1  C   UNL     1      13.636 -33.372 -26.857  1.00  0.00     0.048 C 
ATOM      2  C   UNL     1      12.834 -33.717 -28.089  1.00  0.00    -0.008 C 
ATOM      3  C   UNL     1      12.035 -32.758 -28.605  1.00  0.00     0.007 C 
ENDROOT
BRANCH   2   4
ATOM      4  C   UNL     1      13.048 -35.062 -28.680  1.00  0.00     0.159 C 
ATOM      5  O   UNL     1      13.996 -35.774 -28.247  1.00  0.00    -0.295 OA
BRANCH   4   6
ATOM      6  C   UNL     1      12.186 -35.636 -29.763  1.00  0.00     0.091 CG0
ATOM      7  G   UNL     1      12.160 -34.772 -31.043  1.00  0.00     0.000 G0
ENDBRANCH   4   6
ENDBRANCH   2   4
BRANCH   3   8
ATOM      8  C   UNL     1      11.163 -32.789 -29.803  1.00  0.00    -0.003 C 
ATOM      9  C   UNL     1      11.199 -33.619 -30.853  1.00  0.00    -0.020 C 
BRANCH   9  10
ATOM     10  C   UNL     1      12.153 -34.774 -31.052  1.00  0.00    -0.010 CG0
ATOM     11  C   UNL     1      13.545 -34.242 -31.464  1.00  0.00     0.016 C 
ATOM     12  C   UNL     1      11.617 -35.653 -32.205  1.00  0.00     0.016 C 
ATOM     13  G   UNL     1      12.200 -35.637 -29.771  1.00  0.00     0.000 G0
ENDBRANCH   9  10
ENDBRANCH   3   8
TORSDOF 0
ENDMDL
MODEL 4
REMARK VINA RESULT:    -3.616      1.332      2.185
REMARK INTER + INTRA:          -3.709
REMARK INTER:                  -4.438
REMARK INTRA:                   0.728
REMARK UNBOUND:                 0.752
REMARK SMILES CC1=CC=CC(C)(C)CC1=O
REMARK SMILES IDX 1 1 2 2 3 3 10 4 11 5 9 6 4 8 5 9 6 10 7 11 8 12
REMARK H PARENT
REMARK Flexibility Score: 80.00
ROOT
ATOM      1  C   UNL     1      12.495 -37.724 -31.502  1.00  0.00     0.048 C 
ATOM      2  C   UNL     1      12.448 -36.241 -31.219  1.00  0.00    -0.008 C 
ATOM      3  C   UNL     1      11.827 -35.451 -32.122  1.00  0.00     0.007 C 
ENDROOT
BRANCH   2   4
ATOM      4  C   UNL     1      13.023 -35.780 -29.931  1.00  0.00     0.159 C 
ATOM      5  O   UNL     1      13.316 -36.637 -29.053  1.00  0.00    -0.295 OA
BRANCH   4   6
ATOM      6  C   UNL     1      13.291 -34.340 -29.614  1.00  0.00     0.091 CG0
ATOM      7  G   UNL     1      12.023 -33.459 -29.660  1.00  0.00     0.000 G0
ENDBRANCH   4   6
ENDBRANCH   2   4
BRANCH   3   8
ATOM      8  C   UNL     1      11.599 -33.987 -32.108  1.00  0.00    -0.003 C 
ATOM      9  C   UNL     1      11.663 -33.132 -31.079  1.00  0.00    -0.020 C 
BRANCH   9  10
ATOM     10  C   UNL     1      12.021 -33.471 -29.651  1.00  0.00    -0.010 CG0
ATOM     11  C   UNL     1      10.808 -34.119 -28.943  1.00  0.00     0.016 C 
ATOM     12  C   UNL     1      12.359 -32.157 -28.911  1.00  0.00     0.016 C 
ATOM     13  G   UNL     1      13.275 -34.372 -29.629  1.00  0.00     0.000 G0
ENDBRANCH   9  10
ENDBRANCH   3   8
TORSDOF 0
ENDMDL
MODEL 5
REMARK VINA RESULT:    -3.602      1.595      3.180
REMARK INTER + INTRA:          -3.692
REMARK INTER:                  -4.453
REMARK INTRA:                   0.760
REMARK UNBOUND:                 0.752
REMARK SMILES CC1=CC=CC(C)(C)CC1=O
REMARK SMILES IDX 1 1 2 2 3 3 10 4 11 5 9 6 4 8 5 9 6 10 7 11 8 12
REMARK H PARENT
REMARK Flexibility Score: 80.00
ROOT
ATOM      1  C   UNL     1      12.279 -32.082 -28.750  1.00  0.00     0.048 C 
ATOM      2  C   UNL     1      12.399 -33.266 -29.681  1.00  0.00    -0.008 C 
ATOM      3  C   UNL     1      13.278 -33.173 -30.701  1.00  0.00     0.007 C 
ENDROOT
BRANCH   2   4
ATOM      4  C   UNL     1      11.593 -34.468 -29.353  1.00  0.00     0.159 C 
ATOM      5  O   UNL     1      10.988 -34.513 -28.246  1.00  0.00    -0.295 OA
BRANCH   4   6
ATOM      6  C   UNL     1      11.443 -35.640 -30.275  1.00  0.00     0.091 CG0
ATOM      7  G   UNL     1      12.792 -36.274 -30.679  1.00  0.00     0.000 G0
ENDBRANCH   4   6
ENDBRANCH   2   4
BRANCH   3   8
ATOM      8  C   UNL     1      13.632 -34.163 -31.746  1.00  0.00    -0.003 C 
ATOM      9  C   UNL     1      13.446 -35.489 -31.751  1.00  0.00    -0.020 C 
BRANCH   9  10
ATOM     10  C   UNL     1      12.782 -36.306 -30.667  1.00  0.00    -0.010 CG0
ATOM     11  C   UNL     1      13.748 -36.476 -29.470  1.00  0.00     0.016 C 
ATOM     12  C   UNL     1      12.476 -37.710 -31.236  1.00  0.00     0.016 C 
ATOM     13  G   UNL     1      11.444 -35.648 -30.264  1.00  0.00     0.000 G0
ENDBRANCH   9  10
ENDBRANCH   3   8
TORSDOF 0
ENDMDL
MODEL 6
REMARK VINA RESULT:    -3.461      1.682      3.618
REMARK INTER + INTRA:          -3.518
REMARK INTER:                  -4.277
REMARK INTRA:                   0.759
REMARK UNBOUND:                 0.752
REMARK SMILES CC1=CC=CC(C)(C)CC1=O
REMARK SMILES IDX 1 1 2 2 3 3 10 4 11 5 9 6 4 8 5 9 6 10 7 11 8 12
REMARK H PARENT
REMARK Flexibility Score: 80.00
ROOT
ATOM      1  C   UNL     1      11.730 -32.376 -33.233  1.00  0.00     0.048 C 
ATOM      2  C   UNL     1      11.775 -33.310 -32.046  1.00  0.00    -0.008 C 
ATOM      3  C   UNL     1      10.649 -33.992 -31.743  1.00  0.00     0.007 C 
ENDROOT
BRANCH   2   4
ATOM      4  C   UNL     1      13.079 -33.459 -31.353  1.00  0.00     0.159 C 
ATOM      5  O   UNL     1      14.114 -32.977 -31.891  1.00  0.00    -0.295 OA
BRANCH   4   6
ATOM      6  C   UNL     1      13.238 -34.145 -30.030  1.00  0.00     0.091 CG0
ATOM      7  G   UNL     1      12.792 -35.624 -30.052  1.00  0.00     0.000 G0
ENDBRANCH   4   6
ENDBRANCH   2   4
BRANCH   3   8
ATOM      8  C   UNL     1      10.398 -34.985 -30.672  1.00  0.00    -0.003 C 
ATOM      9  C   UNL     1      11.277 -35.694 -29.954  1.00  0.00    -0.020 C 
BRANCH   9  10
ATOM     10  C   UNL     1      12.783 -35.623 -30.055  1.00  0.00    -0.010 CG0
ATOM     11  C   UNL     1      13.263 -36.380 -31.315  1.00  0.00     0.016 C 
ATOM     12  C   UNL     1      13.386 -36.325 -28.817  1.00  0.00     0.016 C 
ATOM     13  G   UNL     1      13.236 -34.146 -30.039  1.00  0.00     0.000 G0
ENDBRANCH   9  10
ENDBRANCH   3   8
TORSDOF 0
ENDMDL
MODEL 7
REMARK VINA RESULT:    -3.281      1.895      3.962
REMARK INTER + INTRA:          -3.297
REMARK INTER:                  -4.317
REMARK INTRA:                   1.020
REMARK UNBOUND:                 0.752
REMARK SMILES CC1=CC=CC(C)(C)CC1=O
REMARK SMILES IDX 1 1 2 2 3 3 10 4 11 5 9 6 4 8 5 9 6 10 7 11 8 12
REMARK H PARENT
REMARK Flexibility Score: 80.00
ROOT
ATOM      1  C   UNL     1       9.930 -32.399 -31.845  1.00  0.00     0.048 C 
ATOM      2  C   UNL     1      10.756 -33.237 -30.899  1.00  0.00    -0.008 C 
ATOM      3  C   UNL     1      11.372 -32.604 -29.877  1.00  0.00     0.007 C 
ENDROOT
BRANCH   2   4
ATOM      4  C   UNL     1      10.763 -34.704 -31.126  1.00  0.00     0.159 C 
ATOM      5  O   UNL     1      10.344 -35.152 -32.229  1.00  0.00    -0.295 OA
BRANCH   4   6
ATOM      6  C   UNL     1      11.257 -35.695 -30.115  1.00  0.00     0.091 CG0
ATOM      7  G   UNL     1      12.736 -35.483 -29.726  1.00  0.00     0.000 G0
ENDBRANCH   4   6
ENDBRANCH   2   4
BRANCH   3   8
ATOM      8  C   UNL     1      12.214 -33.153 -28.788  1.00  0.00    -0.003 C 
ATOM      9  C   UNL     1      12.785 -34.360 -28.687  1.00  0.00    -0.020 C 
BRANCH   9  10
ATOM     10  C   UNL     1      12.722 -35.470 -29.709  1.00  0.00    -0.010 CG0
ATOM     11  C   UNL     1      13.382 -36.748 -29.140  1.00  0.00     0.016 C 
ATOM     12  C   UNL     1      13.529 -35.031 -30.953  1.00  0.00     0.016 C 
ATOM     13  G   UNL     1      11.257 -35.698 -30.142  1.00  0.00     0.000 G0
ENDBRANCH   9  10
ENDBRANCH   3   8
TORSDOF 0
ENDMDL
MODEL 8
REMARK VINA RESULT:    -3.238      2.289      3.171
REMARK INTER + INTRA:          -3.243
REMARK INTER:                  -3.995
REMARK INTRA:                   0.751
REMARK UNBOUND:                 0.752
REMARK SMILES CC1=CC=CC(C)(C)CC1=O
REMARK SMILES IDX 1 1 2 2 3 3 10 4 11 5 9 6 4 8 5 9 6 10 7 11 8 12
REMARK H PARENT
REMARK Flexibility Score: 80.00
ROOT
ATOM      1  C   UNL     1      13.629 -31.538 -28.758  1.00  0.00     0.048 C 
ATOM      2  C   UNL     1      12.697 -32.552 -29.377  1.00  0.00    -0.008 C 
ATOM      3  C   UNL     1      11.621 -32.935 -28.656  1.00  0.00     0.007 C 
ENDROOT
BRANCH   2   4
ATOM      4  C   UNL     1      13.000 -32.992 -30.762  1.00  0.00     0.159 C 
ATOM      5  O   UNL     1      13.862 -32.356 -31.428  1.00  0.00    -0.295 OA
BRANCH   4   6
ATOM      6  C   UNL     1      12.343 -34.169 -31.418  1.00  0.00     0.091 CG0
ATOM      7  G   UNL     1      10.808 -34.033 -31.517  1.00  0.00     0.000 G0
ENDBRANCH   4   6
ENDBRANCH   2   4
BRANCH   3   8
ATOM      8  C   UNL     1      10.530 -33.878 -29.002  1.00  0.00    -0.003 C 
ATOM      9  C   UNL     1      10.160 -34.337 -30.204  1.00  0.00    -0.020 C 
BRANCH   9  10
ATOM     10  C   UNL     1      10.808 -34.010 -31.528  1.00  0.00    -0.010 CG0
ATOM     11  C   UNL     1      10.379 -32.598 -31.991  1.00  0.00     0.016 C 
ATOM     12  C   UNL     1      10.308 -35.028 -32.578  1.00  0.00     0.016 C 
ATOM     13  G   UNL     1      12.341 -34.157 -31.408  1.00  0.00     0.000 G0
ENDBRANCH   9  10
ENDBRANCH   3   8
TORSDOF 0
ENDMDL
MODEL 9
REMARK VINA RESULT:    -3.192      1.478      2.300
REMARK INTER + INTRA:          -3.186
REMARK INTER:                  -4.254
REMARK INTRA:                   1.067
REMARK UNBOUND:                 0.752
REMARK SMILES CC1=CC=CC(C)(C)CC1=O
REMARK SMILES IDX 1 1 2 2 3 3 10 4 11 5 9 6 4 8 5 9 6 10 7 11 8 12
REMARK H PARENT
REMARK Flexibility Score: 80.00
ROOT
ATOM      1  C   UNL     1      12.716 -33.595 -27.068  1.00  0.00     0.048 C 
ATOM      2  C   UNL     1      12.281 -34.248 -28.358  1.00  0.00    -0.008 C 
ATOM      3  C   UNL     1      12.939 -35.360 -28.750  1.00  0.00     0.007 C 
ENDROOT
BRANCH   2   4
ATOM      4  C   UNL     1      11.112 -33.655 -29.056  1.00  0.00     0.159 C 
ATOM      5  O   UNL     1      10.735 -32.495 -28.734  1.00  0.00    -0.295 OA
BRANCH   4   6
ATOM      6  C   UNL     1      10.353 -34.357 -30.140  1.00  0.00     0.091 CG0
ATOM      7  G   UNL     1      11.232 -34.734 -31.354  1.00  0.00     0.000 G0
ENDBRANCH   4   6
ENDBRANCH   2   4
BRANCH   3   8
ATOM      8  C   UNL     1      12.727 -36.224 -29.935  1.00  0.00    -0.003 C 
ATOM      9  C   UNL     1      11.998 -35.987 -31.033  1.00  0.00    -0.020 C 
BRANCH   9  10
ATOM     10  C   UNL     1      11.221 -34.729 -31.341  1.00  0.00    -0.010 CG0
ATOM     11  C   UNL     1      10.407 -34.918 -32.642  1.00  0.00     0.016 C 
ATOM     12  C   UNL     1      12.230 -33.580 -31.572  1.00  0.00     0.016 C 
ATOM     13  G   UNL     1      10.335 -34.356 -30.132  1.00  0.00     0.000 G0
ENDBRANCH   9  10
ENDBRANCH   3   8
TORSDOF 0
ENDMDL
