MODEL 1
REMARK VINA RESULT:    -2.193      0.000      0.000
REMARK INTER + INTRA:          -2.193
REMARK INTER:                  -2.193
REMARK INTRA:                   0.000
REMARK UNBOUND:                 0.000
REMARK SMILES CC(=O)[O-]
REMARK SMILES IDX 1 1 2 2 3 3 4 4
REMARK H PARENT
REMARK Flexibility Score: inf
ROOT
ATOM      1  C   UNL     1      22.792 -20.306 -40.954  1.00  0.00     0.063 C 
ATOM      2  C   UNL     1      22.571 -21.565 -40.187  1.00  0.00     0.038 C 
ATOM      3  O   UNL     1      23.382 -22.521 -40.295  1.00  0.00    -0.550 OA
ATOM      4  O   UNL     1      21.499 -21.666 -39.310  1.00  0.00    -0.550 OA
ENDROOT
TORSDOF 0
ENDMDL
MODEL 2
REMARK VINA RESULT:    -2.040      1.403      2.019
REMARK INTER + INTRA:          -2.040
REMARK INTER:                  -2.040
REMARK INTRA:                   0.000
REMARK UNBOUND:                 0.000
REMARK SMILES CC(=O)[O-]
REMARK SMILES IDX 1 1 2 2 3 3 4 4
REMARK H PARENT
REMARK Flexibility Score: inf
ROOT
ATOM      1  C   UNL     1      23.226 -22.420 -40.794  1.00  0.00     0.063 C 
ATOM      2  C   UNL     1      22.407 -21.282 -40.288  1.00  0.00     0.038 C 
ATOM      3  O   UNL     1      21.522 -21.479 -39.417  1.00  0.00    -0.550 OA
ATOM      4  O   UNL     1      22.656 -19.991 -40.739  1.00  0.00    -0.550 OA
ENDROOT
TORSDOF 0
ENDMDL
MODEL 3
REMARK VINA RESULT:    -2.011      7.415      8.148
REMARK INTER + INTRA:          -2.011
REMARK INTER:                  -2.011
REMARK INTRA:                   0.000
REMARK UNBOUND:                 0.000
REMARK SMILES CC(=O)[O-]
REMARK SMILES IDX 1 1 2 2 3 3 4 4
REMARK H PARENT
REMARK Flexibility Score: inf
ROOT
ATOM      1  C   UNL     1      14.081 -22.538 -39.350  1.00  0.00     0.063 C 
ATOM      2  C   UNL     1      14.791 -21.227 -39.370  1.00  0.00     0.038 C 
ATOM      3  O   UNL     1      14.189 -20.177 -39.029  1.00  0.00    -0.550 OA
ATOM      4  O   UNL     1      16.136 -21.169 -39.714  1.00  0.00    -0.550 OA
ENDROOT
TORSDOF 0
ENDMDL
MODEL 4
REMARK VINA RESULT:    -1.957      7.415      7.920
REMARK INTER + INTRA:          -1.957
REMARK INTER:                  -1.957
REMARK INTRA:                   0.000
REMARK UNBOUND:                 0.000
REMARK SMILES CC(=O)[O-]
REMARK SMILES IDX 1 1 2 2 3 3 4 4
REMARK H PARENT
REMARK Flexibility Score: inf
ROOT
ATOM      1  C   UNL     1      14.182 -20.387 -38.616  1.00  0.00     0.063 C 
ATOM      2  C   UNL     1      14.836 -21.393 -39.500  1.00  0.00     0.038 C 
ATOM      3  O   UNL     1      15.981 -21.170 -39.972  1.00  0.00    -0.550 OA
ATOM      4  O   UNL     1      14.206 -22.603 -39.763  1.00  0.00    -0.550 OA
ENDROOT
TORSDOF 0
ENDMDL
MODEL 5
REMARK VINA RESULT:    -1.956      6.924      7.441
REMARK INTER + INTRA:          -1.956
REMARK INTER:                  -1.956
REMARK INTRA:                   0.000
REMARK UNBOUND:                 0.000
REMARK SMILES CC(=O)[O-]
REMARK SMILES IDX 1 1 2 2 3 3 4 4
REMARK H PARENT
REMARK Flexibility Score: inf
ROOT
ATOM      1  C   UNL     1      21.662 -25.947 -33.601  1.00  0.00     0.063 C 
ATOM      2  C   UNL     1      20.851 -26.076 -34.846  1.00  0.00     0.038 C 
ATOM      3  O   UNL     1      21.289 -25.623 -35.935  1.00  0.00    -0.550 OA
ATOM      4  O   UNL     1      19.634 -26.744 -34.817  1.00  0.00    -0.550 OA
ENDROOT
TORSDOF 0
ENDMDL
MODEL 6
REMARK VINA RESULT:    -1.937      6.907      7.444
REMARK INTER + INTRA:          -1.937
REMARK INTER:                  -1.937
REMARK INTRA:                   0.000
REMARK UNBOUND:                 0.000
REMARK SMILES CC(=O)[O-]
REMARK SMILES IDX 1 1 2 2 3 3 4 4
REMARK H PARENT
REMARK Flexibility Score: inf
ROOT
ATOM      1  C   UNL     1      19.745 -26.513 -34.451  1.00  0.00     0.063 C 
ATOM      2  C   UNL     1      21.096 -26.008 -34.826  1.00  0.00     0.038 C 
ATOM      3  O   UNL     1      21.287 -25.493 -35.958  1.00  0.00    -0.550 OA
ATOM      4  O   UNL     1      22.137 -26.057 -33.907  1.00  0.00    -0.550 OA
ENDROOT
TORSDOF 0
ENDMDL
MODEL 7
REMARK VINA RESULT:    -1.930      7.604      8.238
REMARK INTER + INTRA:          -1.930
REMARK INTER:                  -1.930
REMARK INTRA:                   0.000
REMARK UNBOUND:                 0.000
REMARK SMILES CC(=O)[O-]
REMARK SMILES IDX 1 1 2 2 3 3 4 4
REMARK H PARENT
REMARK Flexibility Score: inf
ROOT
ATOM      1  C   UNL     1      15.106 -21.143 -39.835  1.00  0.00     0.063 C 
ATOM      2  C   UNL     1      14.529 -22.254 -39.026  1.00  0.00     0.038 C 
ATOM      3  O   UNL     1      13.298 -22.506 -39.085  1.00  0.00    -0.550 OA
ATOM      4  O   UNL     1      15.358 -23.050 -38.245  1.00  0.00    -0.550 OA
ENDROOT
TORSDOF 0
ENDMDL
MODEL 8
REMARK VINA RESULT:    -1.889     14.806     15.201
REMARK INTER + INTRA:          -1.889
REMARK INTER:                  -1.889
REMARK INTRA:                   0.000
REMARK UNBOUND:                 0.000
REMARK SMILES CC(=O)[O-]
REMARK SMILES IDX 1 1 2 2 3 3 4 4
REMARK H PARENT
REMARK Flexibility Score: inf
ROOT
ATOM      1  C   UNL     1      23.951 -17.926 -24.928  1.00  0.00     0.063 C 
ATOM      2  C   UNL     1      23.321 -16.960 -25.872  1.00  0.00     0.038 C 
ATOM      3  O   UNL     1      22.929 -17.345 -27.004  1.00  0.00    -0.550 OA
ATOM      4  O   UNL     1      23.116 -15.641 -25.484  1.00  0.00    -0.550 OA
ENDROOT
TORSDOF 0
ENDMDL
MODEL 9
REMARK VINA RESULT:    -1.817     15.690     15.796
REMARK INTER + INTRA:          -1.817
REMARK INTER:                  -1.817
REMARK INTRA:                   0.000
REMARK UNBOUND:                 0.000
REMARK SMILES CC(=O)[O-]
REMARK SMILES IDX 1 1 2 2 3 3 4 4
REMARK H PARENT
REMARK Flexibility Score: inf
ROOT
ATOM      1  C   UNL     1      22.656 -15.828 -25.348  1.00  0.00     0.063 C 
ATOM      2  C   UNL     1      22.744 -17.284 -25.042  1.00  0.00     0.038 C 
ATOM      3  O   UNL     1      21.702 -17.989 -25.017  1.00  0.00    -0.550 OA
ATOM      4  O   UNL     1      23.983 -17.879 -24.837  1.00  0.00    -0.550 OA
ENDROOT
TORSDOF 0
ENDMDL
