MODEL 1
REMARK VINA RESULT:    -5.238      0.000      0.000
REMARK INTER + INTRA:          -9.503
REMARK INTER:                  -8.606
REMARK INTRA:                  -0.897
REMARK UNBOUND:                -0.897
REMARK SMILES CCCCCCCCCCCCCC
REMARK SMILES IDX 7 1 6 2 5 3 4 4 3 5 2 6 1 7 8 8 9 9 10 10 11 11 12 12 13 13
REMARK SMILES IDX 14 14
REMARK H PARENT
REMARK Flexibility Score: inf
ROOT
ATOM      1  C   UNL     1      15.313  18.900  18.427  1.00  0.00    -0.000 C 
ENDROOT
BRANCH   1   2
ATOM      2  C   UNL     1      16.424  18.673  19.463  1.00  0.00    -0.000 C 
BRANCH   2   3
ATOM      3  C   UNL     1      17.782  19.227  19.006  1.00  0.00    -0.000 C 
BRANCH   3   4
ATOM      4  C   UNL     1      18.652  19.707  20.178  1.00  0.00    -0.000 C 
BRANCH   4   5
ATOM      5  C   UNL     1      20.013  19.001  20.178  1.00  0.00    -0.000 C 
BRANCH   5   6
ATOM      6  C   UNL     1      20.943  19.599  21.239  1.00  0.00    -0.003 C 
ATOM      7  C   UNL     1      20.806  21.118  21.300  1.00  0.00     0.004 C 
ENDBRANCH   5   6
ENDBRANCH   4   5
ENDBRANCH   3   4
ENDBRANCH   2   3
ENDBRANCH   1   2
BRANCH   1   8
ATOM      8  C   UNL     1      13.944  18.510  18.996  1.00  0.00    -0.000 C 
BRANCH   8   9
ATOM      9  C   UNL     1      12.858  19.498  18.544  1.00  0.00    -0.000 C 
BRANCH   9  10
ATOM     10  C   UNL     1      13.441  20.794  17.961  1.00  0.00    -0.000 C 
BRANCH  10  11
ATOM     11  C   UNL     1      12.815  21.167  16.607  1.00  0.00    -0.000 C 
BRANCH  11  12
ATOM     12  C   UNL     1      12.420  19.934  15.778  1.00  0.00    -0.000 C 
BRANCH  12  13
ATOM     13  C   UNL     1      13.499  19.538  14.759  1.00  0.00    -0.003 C 
ATOM     14  C   UNL     1      14.181  18.233  15.160  1.00  0.00     0.004 C 
ENDBRANCH  12  13
ENDBRANCH  11  12
ENDBRANCH  10  11
ENDBRANCH   9  10
ENDBRANCH   8   9
ENDBRANCH   1   8
TORSDOF 11
ENDMDL
MODEL 2
REMARK VINA RESULT:    -5.204      1.631      2.610
REMARK INTER + INTRA:          -9.448
REMARK INTER:                  -8.855
REMARK INTRA:                  -0.593
REMARK UNBOUND:                -0.897
REMARK SMILES CCCCCCCCCCCCCC
REMARK SMILES IDX 7 1 6 2 5 3 4 4 3 5 2 6 1 7 8 8 9 9 10 10 11 11 12 12 13 13
REMARK SMILES IDX 14 14
REMARK H PARENT
REMARK Flexibility Score: inf
ROOT
ATOM      1  C   UNL     1      15.379  18.882  18.562  1.00  0.00    -0.000 C 
ENDROOT
BRANCH   1   2
ATOM      2  C   UNL     1      16.570  18.566  19.478  1.00  0.00    -0.000 C 
BRANCH   2   3
ATOM      3  C   UNL     1      17.862  19.269  19.033  1.00  0.00    -0.000 C 
BRANCH   3   4
ATOM      4  C   UNL     1      18.698  19.779  20.217  1.00  0.00    -0.000 C 
BRANCH   4   5
ATOM      5  C   UNL     1      20.081  19.117  20.239  1.00  0.00    -0.000 C 
BRANCH   5   6
ATOM      6  C   UNL     1      20.979  19.753  21.306  1.00  0.00    -0.003 C 
ATOM      7  C   UNL     1      20.814  21.270  21.331  1.00  0.00     0.004 C 
ENDBRANCH   5   6
ENDBRANCH   4   5
ENDBRANCH   3   4
ENDBRANCH   2   3
ENDBRANCH   1   2
BRANCH   1   8
ATOM      8  C   UNL     1      14.090  18.249  19.099  1.00  0.00    -0.000 C 
BRANCH   8   9
ATOM      9  C   UNL     1      12.925  19.249  19.056  1.00  0.00    -0.000 C 
BRANCH   9  10
ATOM     10  C   UNL     1      12.900  20.074  17.761  1.00  0.00    -0.000 C 
BRANCH  10  11
ATOM     11  C   UNL     1      12.446  21.526  17.992  1.00  0.00    -0.000 C 
BRANCH  11  12
ATOM     12  C   UNL     1      11.505  21.664  19.200  1.00  0.00    -0.000 C 
BRANCH  12  13
ATOM     13  C   UNL     1      10.094  22.119  18.799  1.00  0.00    -0.003 C 
ATOM     14  C   UNL     1       9.251  20.939  18.324  1.00  0.00     0.004 C 
ENDBRANCH  12  13
ENDBRANCH  11  12
ENDBRANCH  10  11
ENDBRANCH   9  10
ENDBRANCH   8   9
ENDBRANCH   1   8
TORSDOF 11
ENDMDL
MODEL 3
REMARK VINA RESULT:    -5.202      1.515      7.524
REMARK INTER + INTRA:          -9.445
REMARK INTER:                  -8.843
REMARK INTRA:                  -0.601
REMARK UNBOUND:                -0.897
REMARK SMILES CCCCCCCCCCCCCC
REMARK SMILES IDX 7 1 6 2 5 3 4 4 3 5 2 6 1 7 8 8 9 9 10 10 11 11 12 12 13 13
REMARK SMILES IDX 14 14
REMARK H PARENT
REMARK Flexibility Score: inf
ROOT
ATOM      1  C   UNL     1      13.982  18.516  19.184  1.00  0.00    -0.000 C 
ENDROOT
BRANCH   1   2
ATOM      2  C   UNL     1      12.843  19.364  18.599  1.00  0.00    -0.000 C 
BRANCH   2   3
ATOM      3  C   UNL     1      13.351  20.609  17.858  1.00  0.00    -0.000 C 
BRANCH   3   4
ATOM      4  C   UNL     1      12.245  21.323  17.066  1.00  0.00    -0.000 C 
BRANCH   4   5
ATOM      5  C   UNL     1      10.857  20.922  17.579  1.00  0.00    -0.000 C 
BRANCH   5   6
ATOM      6  C   UNL     1      10.212  22.065  18.371  1.00  0.00    -0.003 C 
ATOM      7  C   UNL     1      10.167  21.744  19.862  1.00  0.00     0.004 C 
ENDBRANCH   5   6
ENDBRANCH   4   5
ENDBRANCH   3   4
ENDBRANCH   2   3
ENDBRANCH   1   2
BRANCH   1   8
ATOM      8  C   UNL     1      15.313  18.829  18.489  1.00  0.00    -0.000 C 
BRANCH   8   9
ATOM      9  C   UNL     1      16.499  18.586  19.434  1.00  0.00    -0.000 C 
BRANCH   9  10
ATOM     10  C   UNL     1      17.780  19.295  18.970  1.00  0.00    -0.000 C 
BRANCH  10  11
ATOM     11  C   UNL     1      18.675  19.728  20.144  1.00  0.00    -0.000 C 
BRANCH  11  12
ATOM     12  C   UNL     1      19.962  18.893  20.244  1.00  0.00    -0.000 C 
BRANCH  12  13
ATOM     13  C   UNL     1      20.912  19.402  21.338  1.00  0.00    -0.003 C 
ATOM     14  C   UNL     1      21.943  20.370  20.765  1.00  0.00     0.004 C 
ENDBRANCH  12  13
ENDBRANCH  11  12
ENDBRANCH  10  11
ENDBRANCH   9  10
ENDBRANCH   8   9
ENDBRANCH   1   8
TORSDOF 11
ENDMDL
MODEL 4
REMARK VINA RESULT:    -5.163      1.607      7.467
REMARK INTER + INTRA:          -9.380
REMARK INTER:                  -8.815
REMARK INTRA:                  -0.565
REMARK UNBOUND:                -0.897
REMARK SMILES CCCCCCCCCCCCCC
REMARK SMILES IDX 7 1 6 2 5 3 4 4 3 5 2 6 1 7 8 8 9 9 10 10 11 11 12 12 13 13
REMARK SMILES IDX 14 14
REMARK H PARENT
REMARK Flexibility Score: inf
ROOT
ATOM      1  C   UNL     1      15.373  18.813  18.512  1.00  0.00    -0.000 C 
ENDROOT
BRANCH   1   2
ATOM      2  C   UNL     1      14.101  18.173  19.089  1.00  0.00    -0.000 C 
BRANCH   2   3
ATOM      3  C   UNL     1      12.935  19.168  19.199  1.00  0.00    -0.000 C 
BRANCH   3   4
ATOM      4  C   UNL     1      12.837  20.105  17.986  1.00  0.00    -0.000 C 
BRANCH   4   5
ATOM      5  C   UNL     1      12.053  21.375  18.334  1.00  0.00    -0.000 C 
BRANCH   5   6
ATOM      6  C   UNL     1      11.384  21.250  19.708  1.00  0.00    -0.003 C 
ATOM      7  C   UNL     1       9.956  21.787  19.677  1.00  0.00     0.004 C 
ENDBRANCH   5   6
ENDBRANCH   4   5
ENDBRANCH   3   4
ENDBRANCH   2   3
ENDBRANCH   1   2
BRANCH   1   8
ATOM      8  C   UNL     1      16.547  18.679  19.488  1.00  0.00    -0.000 C 
BRANCH   8   9
ATOM      9  C   UNL     1      17.827  19.290  18.898  1.00  0.00    -0.000 C 
BRANCH   9  10
ATOM     10  C   UNL     1      18.975  19.359  19.918  1.00  0.00    -0.000 C 
BRANCH  10  11
ATOM     11  C   UNL     1      18.805  20.512  20.921  1.00  0.00    -0.000 C 
BRANCH  11  12
ATOM     12  C   UNL     1      20.134  20.926  21.575  1.00  0.00    -0.000 C 
BRANCH  12  13
ATOM     13  C   UNL     1      21.241  19.882  21.374  1.00  0.00    -0.003 C 
ATOM     14  C   UNL     1      22.397  20.455  20.558  1.00  0.00     0.004 C 
ENDBRANCH  12  13
ENDBRANCH  11  12
ENDBRANCH  10  11
ENDBRANCH   9  10
ENDBRANCH   8   9
ENDBRANCH   1   8
TORSDOF 11
ENDMDL
MODEL 5
REMARK VINA RESULT:    -5.135      3.075      5.199
REMARK INTER + INTRA:          -9.334
REMARK INTER:                  -7.842
REMARK INTRA:                  -1.492
REMARK UNBOUND:                -0.897
REMARK SMILES CCCCCCCCCCCCCC
REMARK SMILES IDX 7 1 6 2 5 3 4 4 3 5 2 6 1 7 8 8 9 9 10 10 11 11 12 12 13 13
REMARK SMILES IDX 14 14
REMARK H PARENT
REMARK Flexibility Score: inf
ROOT
ATOM      1  C   UNL     1      12.262  20.120  15.988  1.00  0.00    -0.000 C 
ENDROOT
BRANCH   1   2
ATOM      2  C   UNL     1      13.055  19.680  14.748  1.00  0.00    -0.000 C 
BRANCH   2   3
ATOM      3  C   UNL     1      14.249  18.778  15.098  1.00  0.00    -0.000 C 
BRANCH   3   4
ATOM      4  C   UNL     1      14.209  18.278  16.549  1.00  0.00    -0.000 C 
BRANCH   4   5
ATOM      5  C   UNL     1      15.530  18.574  17.269  1.00  0.00    -0.000 C 
BRANCH   5   6
ATOM      6  C   UNL     1      15.295  18.853  18.758  1.00  0.00    -0.003 C 
ATOM      7  C   UNL     1      13.988  18.226  19.236  1.00  0.00     0.004 C 
ENDBRANCH   5   6
ENDBRANCH   4   5
ENDBRANCH   3   4
ENDBRANCH   2   3
ENDBRANCH   1   2
BRANCH   1   8
ATOM      8  C   UNL     1      12.721  21.500  16.473  1.00  0.00    -0.000 C 
BRANCH   8   9
ATOM      9  C   UNL     1      12.860  21.529  18.002  1.00  0.00    -0.000 C 
BRANCH   9  10
ATOM     10  C   UNL     1      11.623  22.116  18.698  1.00  0.00    -0.000 C 
BRANCH  10  11
ATOM     11  C   UNL     1      11.008  21.151  19.725  1.00  0.00    -0.000 C 
BRANCH  11  12
ATOM     12  C   UNL     1       9.470  21.183  19.719  1.00  0.00    -0.000 C 
BRANCH  12  13
ATOM     13  C   UNL     1       8.886  21.166  18.300  1.00  0.00    -0.003 C 
ATOM     14  C   UNL     1       8.998  19.778  17.675  1.00  0.00     0.004 C 
ENDBRANCH  12  13
ENDBRANCH  11  12
ENDBRANCH  10  11
ENDBRANCH   9  10
ENDBRANCH   8   9
ENDBRANCH   1   8
TORSDOF 11
ENDMDL
MODEL 6
REMARK VINA RESULT:    -5.074      2.121      3.391
REMARK INTER + INTRA:          -9.234
REMARK INTER:                  -8.530
REMARK INTRA:                  -0.704
REMARK UNBOUND:                -0.897
REMARK SMILES CCCCCCCCCCCCCC
REMARK SMILES IDX 7 1 6 2 5 3 4 4 3 5 2 6 1 7 8 8 9 9 10 10 11 11 12 12 13 13
REMARK SMILES IDX 14 14
REMARK H PARENT
REMARK Flexibility Score: inf
ROOT
ATOM      1  C   UNL     1      13.014  19.215  18.950  1.00  0.00    -0.000 C 
ENDROOT
BRANCH   1   2
ATOM      2  C   UNL     1      14.144  18.183  18.822  1.00  0.00    -0.000 C 
BRANCH   2   3
ATOM      3  C   UNL     1      15.482  18.818  18.411  1.00  0.00    -0.000 C 
BRANCH   3   4
ATOM      4  C   UNL     1      16.553  18.707  19.506  1.00  0.00    -0.000 C 
BRANCH   4   5
ATOM      5  C   UNL     1      17.896  19.263  19.020  1.00  0.00    -0.000 C 
BRANCH   5   6
ATOM      6  C   UNL     1      18.761  19.723  20.199  1.00  0.00    -0.003 C 
ATOM      7  C   UNL     1      20.089  18.973  20.234  1.00  0.00     0.004 C 
ENDBRANCH   5   6
ENDBRANCH   4   5
ENDBRANCH   3   4
ENDBRANCH   2   3
ENDBRANCH   1   2
BRANCH   1   8
ATOM      8  C   UNL     1      12.816  19.979  17.636  1.00  0.00    -0.000 C 
BRANCH   8   9
ATOM      9  C   UNL     1      12.900  21.496  17.862  1.00  0.00    -0.000 C 
BRANCH   9  10
ATOM     10  C   UNL     1      11.524  22.136  18.102  1.00  0.00    -0.000 C 
BRANCH  10  11
ATOM     11  C   UNL     1      10.996  21.888  19.525  1.00  0.00    -0.000 C 
BRANCH  11  12
ATOM     12  C   UNL     1       9.612  21.219  19.534  1.00  0.00    -0.000 C 
BRANCH  12  13
ATOM     13  C   UNL     1       8.995  21.123  18.131  1.00  0.00    -0.003 C 
ATOM     14  C   UNL     1       9.052  19.693  17.602  1.00  0.00     0.004 C 
ENDBRANCH  12  13
ENDBRANCH  11  12
ENDBRANCH  10  11
ENDBRANCH   9  10
ENDBRANCH   8   9
ENDBRANCH   1   8
TORSDOF 11
ENDMDL
MODEL 7
REMARK VINA RESULT:    -4.986      0.507      7.177
REMARK INTER + INTRA:          -9.089
REMARK INTER:                  -8.354
REMARK INTRA:                  -0.735
REMARK UNBOUND:                -0.897
REMARK SMILES CCCCCCCCCCCCCC
REMARK SMILES IDX 7 1 6 2 5 3 4 4 3 5 2 6 1 7 8 8 9 9 10 10 11 11 12 12 13 13
REMARK SMILES IDX 14 14
REMARK H PARENT
REMARK Flexibility Score: inf
ROOT
ATOM      1  C   UNL     1      13.948  18.569  19.330  1.00  0.00    -0.000 C 
ENDROOT
BRANCH   1   2
ATOM      2  C   UNL     1      12.779  19.308  18.661  1.00  0.00    -0.000 C 
BRANCH   2   3
ATOM      3  C   UNL     1      13.220  20.601  17.959  1.00  0.00    -0.000 C 
BRANCH   3   4
ATOM      4  C   UNL     1      12.262  21.024  16.835  1.00  0.00    -0.000 C 
BRANCH   4   5
ATOM      5  C   UNL     1      12.976  21.033  15.478  1.00  0.00    -0.000 C 
BRANCH   5   6
ATOM      6  C   UNL     1      12.818  19.685  14.765  1.00  0.00    -0.003 C 
ATOM      7  C   UNL     1      14.007  18.770  15.044  1.00  0.00     0.004 C 
ENDBRANCH   5   6
ENDBRANCH   4   5
ENDBRANCH   3   4
ENDBRANCH   2   3
ENDBRANCH   1   2
BRANCH   1   8
ATOM      8  C   UNL     1      15.260  18.823  18.579  1.00  0.00    -0.000 C 
BRANCH   8   9
ATOM      9  C   UNL     1      16.473  18.542  19.479  1.00  0.00    -0.000 C 
BRANCH   9  10
ATOM     10  C   UNL     1      17.741  19.271  19.007  1.00  0.00    -0.000 C 
BRANCH  10  11
ATOM     11  C   UNL     1      18.626  19.734  20.176  1.00  0.00    -0.000 C 
BRANCH  11  12
ATOM     12  C   UNL     1      20.027  19.101  20.144  1.00  0.00    -0.000 C 
BRANCH  12  13
ATOM     13  C   UNL     1      21.000  19.771  21.125  1.00  0.00    -0.003 C 
ATOM     14  C   UNL     1      20.303  20.863  21.932  1.00  0.00     0.004 C 
ENDBRANCH  12  13
ENDBRANCH  11  12
ENDBRANCH  10  11
ENDBRANCH   9  10
ENDBRANCH   8   9
ENDBRANCH   1   8
TORSDOF 11
ENDMDL
MODEL 8
REMARK VINA RESULT:    -4.945      2.531      6.770
REMARK INTER + INTRA:          -9.023
REMARK INTER:                  -7.411
REMARK INTRA:                  -1.612
REMARK UNBOUND:                -0.897
REMARK SMILES CCCCCCCCCCCCCC
REMARK SMILES IDX 7 1 6 2 5 3 4 4 3 5 2 6 1 7 8 8 9 9 10 10 11 11 12 12 13 13
REMARK SMILES IDX 14 14
REMARK H PARENT
REMARK Flexibility Score: inf
ROOT
ATOM      1  C   UNL     1      12.541  21.486  16.177  1.00  0.00    -0.000 C 
ENDROOT
BRANCH   1   2
ATOM      2  C   UNL     1      13.263  21.696  17.517  1.00  0.00    -0.000 C 
BRANCH   2   3
ATOM      3  C   UNL     1      12.292  21.815  18.701  1.00  0.00    -0.000 C 
BRANCH   3   4
ATOM      4  C   UNL     1      11.514  20.518  18.965  1.00  0.00    -0.000 C 
BRANCH   4   5
ATOM      5  C   UNL     1      10.066  20.817  19.370  1.00  0.00    -0.000 C 
BRANCH   5   6
ATOM      6  C   UNL     1       9.135  20.777  18.154  1.00  0.00    -0.003 C 
ATOM      7  C   UNL     1       9.468  19.598  17.243  1.00  0.00     0.004 C 
ENDBRANCH   5   6
ENDBRANCH   4   5
ENDBRANCH   3   4
ENDBRANCH   2   3
ENDBRANCH   1   2
BRANCH   1   8
ATOM      8  C   UNL     1      13.432  20.728  15.186  1.00  0.00    -0.000 C 
BRANCH   8   9
ATOM      9  C   UNL     1      13.010  19.255  15.079  1.00  0.00    -0.000 C 
BRANCH   9  10
ATOM     10  C   UNL     1      14.175  18.286  15.335  1.00  0.00    -0.000 C 
BRANCH  10  11
ATOM     11  C   UNL     1      14.943  18.612  16.626  1.00  0.00    -0.000 C 
BRANCH  11  12
ATOM     12  C   UNL     1      14.166  18.215  17.892  1.00  0.00    -0.000 C 
BRANCH  12  13
ATOM     13  C   UNL     1      14.888  18.630  19.182  1.00  0.00    -0.003 C 
ATOM     14  C   UNL     1      16.381  18.829  18.937  1.00  0.00     0.004 C 
ENDBRANCH  12  13
ENDBRANCH  11  12
ENDBRANCH  10  11
ENDBRANCH   9  10
ENDBRANCH   8   9
ENDBRANCH   1   8
TORSDOF 11
ENDMDL
MODEL 9
REMARK VINA RESULT:    -4.780     15.066     17.278
REMARK INTER + INTRA:          -8.751
REMARK INTER:                  -7.260
REMARK INTRA:                  -1.492
REMARK UNBOUND:                -0.897
REMARK SMILES CCCCCCCCCCCCCC
REMARK SMILES IDX 7 1 6 2 5 3 4 4 3 5 2 6 1 7 8 8 9 9 10 10 11 11 12 12 13 13
REMARK SMILES IDX 14 14
REMARK H PARENT
REMARK Flexibility Score: inf
ROOT
ATOM      1  C   UNL     1      20.236  15.554   4.601  1.00  0.00    -0.000 C 
ENDROOT
BRANCH   1   2
ATOM      2  C   UNL     1      18.903  14.800   4.717  1.00  0.00    -0.000 C 
BRANCH   2   3
ATOM      3  C   UNL     1      19.007  13.339   4.252  1.00  0.00    -0.000 C 
BRANCH   3   4
ATOM      4  C   UNL     1      19.740  13.194   2.910  1.00  0.00    -0.000 C 
BRANCH   4   5
ATOM      5  C   UNL     1      20.903  12.201   3.023  1.00  0.00    -0.000 C 
BRANCH   5   6
ATOM      6  C   UNL     1      22.173  12.764   2.375  1.00  0.00    -0.003 C 
ATOM      7  C   UNL     1      23.426  12.164   3.005  1.00  0.00     0.004 C 
ENDBRANCH   5   6
ENDBRANCH   4   5
ENDBRANCH   3   4
ENDBRANCH   2   3
ENDBRANCH   1   2
BRANCH   1   8
ATOM      8  C   UNL     1      20.009  17.008   4.171  1.00  0.00    -0.000 C 
BRANCH   8   9
ATOM      9  C   UNL     1      21.146  17.499   3.263  1.00  0.00    -0.000 C 
BRANCH   9  10
ATOM     10  C   UNL     1      21.828  16.354   2.498  1.00  0.00    -0.000 C 
BRANCH  10  11
ATOM     11  C   UNL     1      23.363  16.428   2.568  1.00  0.00    -0.000 C 
BRANCH  11  12
ATOM     12  C   UNL     1      23.900  16.208   3.991  1.00  0.00    -0.000 C 
BRANCH  12  13
ATOM     13  C   UNL     1      24.882  17.305   4.427  1.00  0.00    -0.003 C 
ATOM     14  C   UNL     1      24.148  18.469   5.088  1.00  0.00     0.004 C 
ENDBRANCH  12  13
ENDBRANCH  11  12
ENDBRANCH  10  11
ENDBRANCH   9  10
ENDBRANCH   8   9
ENDBRANCH   1   8
TORSDOF 11
ENDMDL
