MODEL 1
REMARK VINA RESULT:    -4.286      0.000      0.000
REMARK INTER + INTRA:          -8.872
REMARK INTER:                  -7.544
REMARK INTRA:                  -1.328
REMARK UNBOUND:                -1.328
REMARK SMILES CCCCCCCCCCCCCCC(=O)[O-]
REMARK SMILES IDX 9 1 10 2 11 3 12 4 13 5 14 6 15 7 16 8 17 9 8 10 7 11 6 12
REMARK SMILES IDX 5 13 4 14 3 15 2 16 1 17
REMARK H PARENT
REMARK Flexibility Score: inf
ROOT
ATOM      1  C   UNL     1      -1.993  28.655  57.288  1.00  0.00     0.000 C 
ENDROOT
BRANCH   1   2
ATOM      2  C   UNL     1      -2.391  29.885  58.123  1.00  0.00     0.000 C 
BRANCH   2   3
ATOM      3  C   UNL     1      -3.441  30.762  57.418  1.00  0.00     0.000 C 
BRANCH   3   4
ATOM      4  C   UNL     1      -4.539  29.931  56.733  1.00  0.00     0.000 C 
BRANCH   4   5
ATOM      5  C   UNL     1      -5.820  30.744  56.465  1.00  0.00     0.006 C 
BRANCH   5   6
ATOM      6  C   UNL     1      -5.964  31.243  55.019  1.00  0.00     0.053 C 
BRANCH   6   7
ATOM      7  C   UNL     1      -7.342  31.759  54.738  1.00  0.00     0.041 C 
ATOM      8  O   UNL     1      -7.554  32.492  53.736  1.00  0.00    -0.550 OA
ATOM      9  O   UNL     1      -8.387  31.455  55.602  1.00  0.00    -0.550 OA
ENDBRANCH   6   7
ENDBRANCH   5   6
ENDBRANCH   4   5
ENDBRANCH   3   4
ENDBRANCH   2   3
ENDBRANCH   1   2
BRANCH   1  10
ATOM     10  C   UNL     1      -2.080  27.345  58.088  1.00  0.00     0.000 C 
BRANCH  10  11
ATOM     11  C   UNL     1      -2.903  27.493  59.379  1.00  0.00    -0.000 C 
BRANCH  11  12
ATOM     12  C   UNL     1      -3.997  26.421  59.507  1.00  0.00    -0.000 C 
BRANCH  12  13
ATOM     13  C   UNL     1      -4.597  26.018  58.151  1.00  0.00    -0.000 C 
BRANCH  13  14
ATOM     14  C   UNL     1      -5.932  26.737  57.908  1.00  0.00    -0.000 C 
BRANCH  14  15
ATOM     15  C   UNL     1      -7.155  25.857  58.226  1.00  0.00    -0.000 C 
BRANCH  15  16
ATOM     16  C   UNL     1      -8.003  26.334  59.419  1.00  0.00    -0.003 C 
ATOM     17  C   UNL     1      -7.437  25.894  60.768  1.00  0.00     0.004 C 
ENDBRANCH  15  16
ENDBRANCH  14  15
ENDBRANCH  13  14
ENDBRANCH  12  13
ENDBRANCH  11  12
ENDBRANCH  10  11
ENDBRANCH   1  10
TORSDOF 13
ENDMDL
MODEL 2
REMARK VINA RESULT:    -4.241      3.421      5.740
REMARK INTER + INTRA:          -8.793
REMARK INTER:                  -6.382
REMARK INTRA:                  -2.411
REMARK UNBOUND:                -1.328
REMARK SMILES CCCCCCCCCCCCCCC(=O)[O-]
REMARK SMILES IDX 9 1 10 2 11 3 12 4 13 5 14 6 15 7 16 8 17 9 8 10 7 11 6 12
REMARK SMILES IDX 5 13 4 14 3 15 2 16 1 17
REMARK H PARENT
REMARK Flexibility Score: inf
ROOT
ATOM      1  C   UNL     1      -1.847  25.889  55.181  1.00  0.00     0.000 C 
ENDROOT
BRANCH   1   2
ATOM      2  C   UNL     1      -3.015  24.920  54.927  1.00  0.00     0.000 C 
BRANCH   2   3
ATOM      3  C   UNL     1      -2.832  23.573  55.648  1.00  0.00     0.000 C 
BRANCH   3   4
ATOM      4  C   UNL     1      -4.163  22.990  56.154  1.00  0.00     0.000 C 
BRANCH   4   5
ATOM      5  C   UNL     1      -5.308  24.021  56.139  1.00  0.00     0.006 C 
BRANCH   5   6
ATOM      6  C   UNL     1      -6.178  24.022  57.405  1.00  0.00     0.053 C 
BRANCH   6   7
ATOM      7  C   UNL     1      -7.584  24.451  57.119  1.00  0.00     0.041 C 
ATOM      8  O   UNL     1      -8.056  25.484  57.663  1.00  0.00    -0.550 OA
ATOM      9  O   UNL     1      -8.385  23.690  56.275  1.00  0.00    -0.550 OA
ENDBRANCH   6   7
ENDBRANCH   5   6
ENDBRANCH   4   5
ENDBRANCH   3   4
ENDBRANCH   2   3
ENDBRANCH   1   2
BRANCH   1  10
ATOM     10  C   UNL     1      -1.282  25.773  56.606  1.00  0.00     0.000 C 
BRANCH  10  11
ATOM     11  C   UNL     1      -1.835  26.853  57.551  1.00  0.00    -0.000 C 
BRANCH  11  12
ATOM     12  C   UNL     1      -2.816  26.283  58.588  1.00  0.00    -0.000 C 
BRANCH  12  13
ATOM     13  C   UNL     1      -4.238  26.846  58.435  1.00  0.00    -0.000 C 
BRANCH  13  14
ATOM     14  C   UNL     1      -4.282  27.936  57.354  1.00  0.00    -0.000 C 
BRANCH  14  15
ATOM     15  C   UNL     1      -5.268  27.614  56.216  1.00  0.00    -0.000 C 
BRANCH  15  16
ATOM     16  C   UNL     1      -5.077  28.450  54.938  1.00  0.00    -0.003 C 
ATOM     17  C   UNL     1      -3.703  29.115  54.859  1.00  0.00     0.004 C 
ENDBRANCH  15  16
ENDBRANCH  14  15
ENDBRANCH  13  14
ENDBRANCH  12  13
ENDBRANCH  11  12
ENDBRANCH  10  11
ENDBRANCH   1  10
TORSDOF 13
ENDMDL
MODEL 3
REMARK VINA RESULT:    -4.176      1.878      2.602
REMARK INTER + INTRA:          -8.677
REMARK INTER:                  -7.611
REMARK INTRA:                  -1.067
REMARK UNBOUND:                -1.328
REMARK SMILES CCCCCCCCCCCCCCC(=O)[O-]
REMARK SMILES IDX 9 1 10 2 11 3 12 4 13 5 14 6 15 7 16 8 17 9 8 10 7 11 6 12
REMARK SMILES IDX 5 13 4 14 3 15 2 16 1 17
REMARK H PARENT
REMARK Flexibility Score: inf
ROOT
ATOM      1  C   UNL     1      -5.638  27.132  55.119  1.00  0.00     0.000 C 
ENDROOT
BRANCH   1   2
ATOM      2  C   UNL     1      -5.123  28.091  56.206  1.00  0.00     0.000 C 
BRANCH   2   3
ATOM      3  C   UNL     1      -4.229  29.205  55.635  1.00  0.00     0.000 C 
BRANCH   3   4
ATOM      4  C   UNL     1      -4.134  30.422  56.570  1.00  0.00     0.000 C 
BRANCH   4   5
ATOM      5  C   UNL     1      -5.324  31.389  56.411  1.00  0.00     0.006 C 
BRANCH   5   6
ATOM      6  C   UNL     1      -5.734  31.657  54.955  1.00  0.00     0.053 C 
BRANCH   6   7
ATOM      7  C   UNL     1      -7.206  31.903  54.823  1.00  0.00     0.041 C 
ATOM      8  O   UNL     1      -7.670  32.431  53.778  1.00  0.00    -0.550 OA
ATOM      9  O   UNL     1      -8.061  31.578  55.868  1.00  0.00    -0.550 OA
ENDBRANCH   6   7
ENDBRANCH   5   6
ENDBRANCH   4   5
ENDBRANCH   3   4
ENDBRANCH   2   3
ENDBRANCH   1   2
BRANCH   1  10
ATOM     10  C   UNL     1      -5.426  25.654  55.486  1.00  0.00     0.000 C 
BRANCH  10  11
ATOM     11  C   UNL     1      -5.193  25.445  56.991  1.00  0.00    -0.000 C 
BRANCH  11  12
ATOM     12  C   UNL     1      -6.161  24.420  57.603  1.00  0.00    -0.000 C 
BRANCH  12  13
ATOM     13  C   UNL     1      -7.596  24.957  57.728  1.00  0.00    -0.000 C 
BRANCH  13  14
ATOM     14  C   UNL     1      -7.622  26.270  58.523  1.00  0.00    -0.000 C 
BRANCH  14  15
ATOM     15  C   UNL     1      -8.225  26.107  59.930  1.00  0.00    -0.000 C 
BRANCH  15  16
ATOM     16  C   UNL     1      -7.198  25.860  61.050  1.00  0.00    -0.003 C 
ATOM     17  C   UNL     1      -7.827  25.831  62.442  1.00  0.00     0.004 C 
ENDBRANCH  15  16
ENDBRANCH  14  15
ENDBRANCH  13  14
ENDBRANCH  12  13
ENDBRANCH  11  12
ENDBRANCH  10  11
ENDBRANCH   1  10
TORSDOF 13
ENDMDL
MODEL 4
REMARK VINA RESULT:    -4.116      3.137      5.622
REMARK INTER + INTRA:          -8.572
REMARK INTER:                  -6.370
REMARK INTRA:                  -2.202
REMARK UNBOUND:                -1.328
REMARK SMILES CCCCCCCCCCCCCCC(=O)[O-]
REMARK SMILES IDX 9 1 10 2 11 3 12 4 13 5 14 6 15 7 16 8 17 9 8 10 7 11 6 12
REMARK SMILES IDX 5 13 4 14 3 15 2 16 1 17
REMARK H PARENT
REMARK Flexibility Score: inf
ROOT
ATOM      1  C   UNL     1      -1.620  26.593  56.774  1.00  0.00     0.000 C 
ENDROOT
BRANCH   1   2
ATOM      2  C   UNL     1      -2.610  25.605  57.416  1.00  0.00     0.000 C 
BRANCH   2   3
ATOM      3  C   UNL     1      -2.964  25.982  58.865  1.00  0.00     0.000 C 
BRANCH   3   4
ATOM      4  C   UNL     1      -4.337  26.665  58.978  1.00  0.00     0.000 C 
BRANCH   4   5
ATOM      5  C   UNL     1      -5.466  25.841  58.329  1.00  0.00     0.006 C 
BRANCH   5   6
ATOM      6  C   UNL     1      -6.782  26.609  58.134  1.00  0.00     0.053 C 
BRANCH   6   7
ATOM      7  C   UNL     1      -7.869  26.095  59.027  1.00  0.00     0.041 C 
ATOM      8  O   UNL     1      -7.767  26.202  60.278  1.00  0.00    -0.550 OA
ATOM      9  O   UNL     1      -8.981  25.469  58.479  1.00  0.00    -0.550 OA
ENDBRANCH   6   7
ENDBRANCH   5   6
ENDBRANCH   4   5
ENDBRANCH   3   4
ENDBRANCH   2   3
ENDBRANCH   1   2
BRANCH   1  10
ATOM     10  C   UNL     1      -2.160  27.210  55.474  1.00  0.00     0.000 C 
BRANCH  10  11
ATOM     11  C   UNL     1      -3.695  27.307  55.458  1.00  0.00    -0.000 C 
BRANCH  11  12
ATOM     12  C   UNL     1      -4.193  28.740  55.208  1.00  0.00    -0.000 C 
BRANCH  12  13
ATOM     13  C   UNL     1      -3.261  29.807  55.804  1.00  0.00    -0.000 C 
BRANCH  13  14
ATOM     14  C   UNL     1      -3.839  30.371  57.110  1.00  0.00    -0.000 C 
BRANCH  14  15
ATOM     15  C   UNL     1      -3.027  29.962  58.352  1.00  0.00    -0.000 C 
BRANCH  15  16
ATOM     16  C   UNL     1      -1.499  29.994  58.165  1.00  0.00    -0.003 C 
ATOM     17  C   UNL     1      -0.750  29.186  59.224  1.00  0.00     0.004 C 
ENDBRANCH  15  16
ENDBRANCH  14  15
ENDBRANCH  13  14
ENDBRANCH  12  13
ENDBRANCH  11  12
ENDBRANCH  10  11
ENDBRANCH   1  10
TORSDOF 13
ENDMDL
MODEL 5
REMARK VINA RESULT:    -4.114      1.379      2.268
REMARK INTER + INTRA:          -8.569
REMARK INTER:                  -6.720
REMARK INTRA:                  -1.850
REMARK UNBOUND:                -1.328
REMARK SMILES CCCCCCCCCCCCCCC(=O)[O-]
REMARK SMILES IDX 9 1 10 2 11 3 12 4 13 5 14 6 15 7 16 8 17 9 8 10 7 11 6 12
REMARK SMILES IDX 5 13 4 14 3 15 2 16 1 17
REMARK H PARENT
REMARK Flexibility Score: inf
ROOT
ATOM      1  C   UNL     1      -2.398  28.518  56.868  1.00  0.00     0.000 C 
ENDROOT
BRANCH   1   2
ATOM      2  C   UNL     1      -2.683  29.830  57.620  1.00  0.00     0.000 C 
BRANCH   2   3
ATOM      3  C   UNL     1      -4.074  30.404  57.299  1.00  0.00     0.000 C 
BRANCH   3   4
ATOM      4  C   UNL     1      -4.859  29.528  56.308  1.00  0.00     0.000 C 
BRANCH   4   5
ATOM      5  C   UNL     1      -5.210  30.273  55.005  1.00  0.00     0.006 C 
BRANCH   5   6
ATOM      6  C   UNL     1      -5.640  31.734  55.205  1.00  0.00     0.053 C 
BRANCH   6   7
ATOM      7  C   UNL     1      -7.128  31.894  55.137  1.00  0.00     0.041 C 
ATOM      8  O   UNL     1      -7.842  31.630  56.141  1.00  0.00    -0.550 OA
ATOM      9  O   UNL     1      -7.730  32.305  53.954  1.00  0.00    -0.550 OA
ENDBRANCH   6   7
ENDBRANCH   5   6
ENDBRANCH   4   5
ENDBRANCH   3   4
ENDBRANCH   2   3
ENDBRANCH   1   2
BRANCH   1  10
ATOM     10  C   UNL     1      -1.870  27.409  57.794  1.00  0.00     0.000 C 
BRANCH  10  11
ATOM     11  C   UNL     1      -2.617  27.355  59.137  1.00  0.00    -0.000 C 
BRANCH  11  12
ATOM     12  C   UNL     1      -3.494  26.100  59.275  1.00  0.00    -0.000 C 
BRANCH  12  13
ATOM     13  C   UNL     1      -4.937  26.327  58.797  1.00  0.00    -0.000 C 
BRANCH  13  14
ATOM     14  C   UNL     1      -5.469  25.091  58.056  1.00  0.00    -0.000 C 
BRANCH  14  15
ATOM     15  C   UNL     1      -4.609  24.707  56.838  1.00  0.00    -0.000 C 
BRANCH  15  16
ATOM     16  C   UNL     1      -4.616  25.734  55.691  1.00  0.00    -0.003 C 
ATOM     17  C   UNL     1      -6.024  26.162  55.281  1.00  0.00     0.004 C 
ENDBRANCH  15  16
ENDBRANCH  14  15
ENDBRANCH  13  14
ENDBRANCH  12  13
ENDBRANCH  11  12
ENDBRANCH  10  11
ENDBRANCH   1  10
TORSDOF 13
ENDMDL
MODEL 6
REMARK VINA RESULT:    -4.106      3.409      6.225
REMARK INTER + INTRA:          -8.555
REMARK INTER:                  -6.198
REMARK INTRA:                  -2.357
REMARK UNBOUND:                -1.328
REMARK SMILES CCCCCCCCCCCCCCC(=O)[O-]
REMARK SMILES IDX 9 1 10 2 11 3 12 4 13 5 14 6 15 7 16 8 17 9 8 10 7 11 6 12
REMARK SMILES IDX 5 13 4 14 3 15 2 16 1 17
REMARK H PARENT
REMARK Flexibility Score: inf
ROOT
ATOM      1  C   UNL     1      -4.373  26.643  54.389  1.00  0.00     0.000 C 
ENDROOT
BRANCH   1   2
ATOM      2  C   UNL     1      -5.406  25.507  54.490  1.00  0.00     0.000 C 
BRANCH   2   3
ATOM      3  C   UNL     1      -4.768  24.163  54.880  1.00  0.00     0.000 C 
BRANCH   3   4
ATOM      4  C   UNL     1      -4.299  24.136  56.345  1.00  0.00     0.000 C 
BRANCH   4   5
ATOM      5  C   UNL     1      -5.343  23.515  57.293  1.00  0.00     0.006 C 
BRANCH   5   6
ATOM      6  C   UNL     1      -6.197  24.539  58.056  1.00  0.00     0.053 C 
BRANCH   6   7
ATOM      7  C   UNL     1      -7.590  24.624  57.511  1.00  0.00     0.041 C 
ATOM      8  O   UNL     1      -7.946  23.880  56.560  1.00  0.00    -0.550 OA
ATOM      9  O   UNL     1      -8.485  25.549  58.034  1.00  0.00    -0.550 OA
ENDBRANCH   6   7
ENDBRANCH   5   6
ENDBRANCH   4   5
ENDBRANCH   3   4
ENDBRANCH   2   3
ENDBRANCH   1   2
BRANCH   1  10
ATOM     10  C   UNL     1      -4.907  27.978  54.934  1.00  0.00     0.000 C 
BRANCH  10  11
ATOM     11  C   UNL     1      -5.241  27.914  56.434  1.00  0.00    -0.000 C 
BRANCH  11  12
ATOM     12  C   UNL     1      -4.045  28.289  57.323  1.00  0.00    -0.000 C 
BRANCH  12  13
ATOM     13  C   UNL     1      -3.580  27.130  58.217  1.00  0.00    -0.000 C 
BRANCH  13  14
ATOM     14  C   UNL     1      -2.094  26.818  57.982  1.00  0.00    -0.000 C 
BRANCH  14  15
ATOM     15  C   UNL     1      -1.536  27.485  56.711  1.00  0.00    -0.000 C 
BRANCH  15  16
ATOM     16  C   UNL     1      -0.822  26.528  55.739  1.00  0.00    -0.003 C 
ATOM     17  C   UNL     1      -0.847  25.074  56.206  1.00  0.00     0.004 C 
ENDBRANCH  15  16
ENDBRANCH  14  15
ENDBRANCH  13  14
ENDBRANCH  12  13
ENDBRANCH  11  12
ENDBRANCH  10  11
ENDBRANCH   1  10
TORSDOF 13
ENDMDL
MODEL 7
REMARK VINA RESULT:    -4.095      2.892      5.470
REMARK INTER + INTRA:          -8.535
REMARK INTER:                  -6.826
REMARK INTRA:                  -1.709
REMARK UNBOUND:                -1.328
REMARK SMILES CCCCCCCCCCCCCCC(=O)[O-]
REMARK SMILES IDX 9 1 10 2 11 3 12 4 13 5 14 6 15 7 16 8 17 9 8 10 7 11 6 12
REMARK SMILES IDX 5 13 4 14 3 15 2 16 1 17
REMARK H PARENT
REMARK Flexibility Score: inf
ROOT
ATOM      1  C   UNL     1      -1.854  27.703  58.418  1.00  0.00     0.000 C 
ENDROOT
BRANCH   1   2
ATOM      2  C   UNL     1      -2.708  26.454  58.135  1.00  0.00     0.000 C 
BRANCH   2   3
ATOM      3  C   UNL     1      -3.865  26.291  59.135  1.00  0.00     0.000 C 
BRANCH   3   4
ATOM      4  C   UNL     1      -5.239  26.550  58.493  1.00  0.00     0.000 C 
BRANCH   4   5
ATOM      5  C   UNL     1      -6.392  25.881  59.266  1.00  0.00     0.006 C 
BRANCH   5   6
ATOM      6  C   UNL     1      -7.623  25.550  58.409  1.00  0.00     0.053 C 
BRANCH   6   7
ATOM      7  C   UNL     1      -7.274  24.684  57.237  1.00  0.00     0.041 C 
ATOM      8  O   UNL     1      -6.775  23.542  57.418  1.00  0.00    -0.550 OA
ATOM      9  O   UNL     1      -7.471  25.152  55.944  1.00  0.00    -0.550 OA
ENDBRANCH   6   7
ENDBRANCH   5   6
ENDBRANCH   4   5
ENDBRANCH   3   4
ENDBRANCH   2   3
ENDBRANCH   1   2
BRANCH   1  10
ATOM     10  C   UNL     1      -2.346  28.490  59.644  1.00  0.00     0.000 C 
BRANCH  10  11
ATOM     11  C   UNL     1      -2.657  29.960  59.316  1.00  0.00    -0.000 C 
BRANCH  11  12
ATOM     12  C   UNL     1      -2.509  30.276  57.819  1.00  0.00    -0.000 C 
BRANCH  12  13
ATOM     13  C   UNL     1      -3.862  30.464  57.114  1.00  0.00    -0.000 C 
BRANCH  13  14
ATOM     14  C   UNL     1      -3.669  30.665  55.604  1.00  0.00    -0.000 C 
BRANCH  14  15
ATOM     15  C   UNL     1      -3.805  29.357  54.802  1.00  0.00    -0.000 C 
BRANCH  15  16
ATOM     16  C   UNL     1      -4.798  28.338  55.391  1.00  0.00    -0.003 C 
ATOM     17  C   UNL     1      -4.562  26.915  54.888  1.00  0.00     0.004 C 
ENDBRANCH  15  16
ENDBRANCH  14  15
ENDBRANCH  13  14
ENDBRANCH  12  13
ENDBRANCH  11  12
ENDBRANCH  10  11
ENDBRANCH   1  10
TORSDOF 13
ENDMDL
MODEL 8
REMARK VINA RESULT:    -4.087      1.465      4.064
REMARK INTER + INTRA:          -8.521
REMARK INTER:                  -6.792
REMARK INTRA:                  -1.729
REMARK UNBOUND:                -1.328
REMARK SMILES CCCCCCCCCCCCCCC(=O)[O-]
REMARK SMILES IDX 9 1 10 2 11 3 12 4 13 5 14 6 15 7 16 8 17 9 8 10 7 11 6 12
REMARK SMILES IDX 5 13 4 14 3 15 2 16 1 17
REMARK H PARENT
REMARK Flexibility Score: inf
ROOT
ATOM      1  C   UNL     1      -4.687  26.432  56.556  1.00  0.00     0.000 C 
ENDROOT
BRANCH   1   2
ATOM      2  C   UNL     1      -4.914  27.734  55.767  1.00  0.00     0.000 C 
BRANCH   2   3
ATOM      3  C   UNL     1      -5.407  28.887  56.659  1.00  0.00     0.000 C 
BRANCH   3   4
ATOM      4  C   UNL     1      -4.533  30.146  56.531  1.00  0.00     0.000 C 
BRANCH   4   5
ATOM      5  C   UNL     1      -5.319  31.363  56.005  1.00  0.00     0.006 C 
BRANCH   5   6
ATOM      6  C   UNL     1      -6.090  31.107  54.701  1.00  0.00     0.053 C 
BRANCH   6   7
ATOM      7  C   UNL     1      -7.422  31.792  54.694  1.00  0.00     0.041 C 
ATOM      8  O   UNL     1      -8.339  31.406  55.467  1.00  0.00    -0.550 OA
ATOM      9  O   UNL     1      -7.662  32.837  53.810  1.00  0.00    -0.550 OA
ENDBRANCH   6   7
ENDBRANCH   5   6
ENDBRANCH   4   5
ENDBRANCH   3   4
ENDBRANCH   2   3
ENDBRANCH   1   2
BRANCH   1  10
ATOM     10  C   UNL     1      -5.294  26.483  57.968  1.00  0.00     0.000 C 
BRANCH  10  11
ATOM     11  C   UNL     1      -4.359  25.891  59.036  1.00  0.00    -0.000 C 
BRANCH  11  12
ATOM     12  C   UNL     1      -2.907  26.370  58.879  1.00  0.00    -0.000 C 
BRANCH  12  13
ATOM     13  C   UNL     1      -2.715  27.837  59.294  1.00  0.00    -0.000 C 
BRANCH  13  14
ATOM     14  C   UNL     1      -1.578  28.488  58.493  1.00  0.00    -0.000 C 
BRANCH  14  15
ATOM     15  C   UNL     1      -1.588  28.091  57.005  1.00  0.00    -0.000 C 
BRANCH  15  16
ATOM     16  C   UNL     1      -1.045  29.165  56.045  1.00  0.00    -0.003 C 
ATOM     17  C   UNL     1      -1.150  30.580  56.611  1.00  0.00     0.004 C 
ENDBRANCH  15  16
ENDBRANCH  14  15
ENDBRANCH  13  14
ENDBRANCH  12  13
ENDBRANCH  11  12
ENDBRANCH  10  11
ENDBRANCH   1  10
TORSDOF 13
ENDMDL
MODEL 9
REMARK VINA RESULT:    -4.041      1.396      1.921
REMARK INTER + INTRA:          -8.440
REMARK INTER:                  -7.119
REMARK INTRA:                  -1.321
REMARK UNBOUND:                -1.328
REMARK SMILES CCCCCCCCCCCCCCC(=O)[O-]
REMARK SMILES IDX 9 1 10 2 11 3 12 4 13 5 14 6 15 7 16 8 17 9 8 10 7 11 6 12
REMARK SMILES IDX 5 13 4 14 3 15 2 16 1 17
REMARK H PARENT
REMARK Flexibility Score: inf
ROOT
ATOM      1  C   UNL     1      -2.830  27.254  57.964  1.00  0.00     0.000 C 
ENDROOT
BRANCH   1   2
ATOM      2  C   UNL     1      -3.879  28.326  57.621  1.00  0.00     0.000 C 
BRANCH   2   3
ATOM      3  C   UNL     1      -3.246  29.687  57.288  1.00  0.00     0.000 C 
BRANCH   3   4
ATOM      4  C   UNL     1      -4.288  30.734  56.860  1.00  0.00     0.000 C 
BRANCH   4   5
ATOM      5  C   UNL     1      -5.535  30.102  56.212  1.00  0.00     0.006 C 
BRANCH   5   6
ATOM      6  C   UNL     1      -5.919  30.706  54.853  1.00  0.00     0.053 C 
BRANCH   6   7
ATOM      7  C   UNL     1      -7.139  31.570  54.948  1.00  0.00     0.041 C 
ATOM      8  O   UNL     1      -7.463  32.321  53.990  1.00  0.00    -0.550 OA
ATOM      9  O   UNL     1      -7.903  31.569  56.109  1.00  0.00    -0.550 OA
ENDBRANCH   6   7
ENDBRANCH   5   6
ENDBRANCH   4   5
ENDBRANCH   3   4
ENDBRANCH   2   3
ENDBRANCH   1   2
BRANCH   1  10
ATOM     10  C   UNL     1      -3.147  25.891  57.328  1.00  0.00     0.000 C 
BRANCH  10  11
ATOM     11  C   UNL     1      -3.918  26.020  56.004  1.00  0.00    -0.000 C 
BRANCH  11  12
ATOM     12  C   UNL     1      -5.088  25.028  55.902  1.00  0.00    -0.000 C 
BRANCH  12  13
ATOM     13  C   UNL     1      -5.072  23.972  57.018  1.00  0.00    -0.000 C 
BRANCH  13  14
ATOM     14  C   UNL     1      -6.322  24.091  57.902  1.00  0.00    -0.000 C 
BRANCH  14  15
ATOM     15  C   UNL     1      -7.228  25.271  57.505  1.00  0.00    -0.000 C 
BRANCH  15  16
ATOM     16  C   UNL     1      -7.201  26.463  58.478  1.00  0.00    -0.003 C 
ATOM     17  C   UNL     1      -7.954  26.191  59.779  1.00  0.00     0.004 C 
ENDBRANCH  15  16
ENDBRANCH  14  15
ENDBRANCH  13  14
ENDBRANCH  12  13
ENDBRANCH  11  12
ENDBRANCH  10  11
ENDBRANCH   1  10
TORSDOF 13
ENDMDL
