MODEL 1
REMARK VINA RESULT:    -3.506      0.000      0.000
REMARK INTER + INTRA:          -4.551
REMARK INTER:                  -4.326
REMARK INTRA:                  -0.225
REMARK UNBOUND:                -0.225
REMARK SMILES CCCCCC(=O)[O-]
REMARK SMILES IDX 4 1 5 2 6 3 7 4 8 5 3 6 2 7 1 8
REMARK H PARENT
REMARK Flexibility Score: inf
ROOT
ATOM      1  C   UNL     1       2.849  55.246  15.737  1.00  0.00     0.006 C 
ENDROOT
BRANCH   1   2
ATOM      2  C   UNL     1       4.336  55.121  16.106  1.00  0.00     0.053 C 
BRANCH   2   3
ATOM      3  C   UNL     1       4.822  56.302  16.889  1.00  0.00     0.041 C 
ATOM      4  O   UNL     1       5.916  56.851  16.596  1.00  0.00    -0.550 OA
ATOM      5  O   UNL     1       4.049  56.817  17.923  1.00  0.00    -0.550 OA
ENDBRANCH   2   3
ENDBRANCH   1   2
BRANCH   1   6
ATOM      6  C   UNL     1       1.916  54.338  16.558  1.00  0.00     0.000 C 
BRANCH   6   7
ATOM      7  C   UNL     1       0.923  55.131  17.421  1.00  0.00    -0.003 C 
ATOM      8  C   UNL     1       0.701  56.532  16.858  1.00  0.00     0.004 C 
ENDBRANCH   6   7
ENDBRANCH   1   6
TORSDOF 4
ENDMDL
MODEL 2
REMARK VINA RESULT:    -3.469      1.647      2.291
REMARK INTER + INTRA:          -4.505
REMARK INTER:                  -4.360
REMARK INTRA:                  -0.145
REMARK UNBOUND:                -0.225
REMARK SMILES CCCCCC(=O)[O-]
REMARK SMILES IDX 4 1 5 2 6 3 7 4 8 5 3 6 2 7 1 8
REMARK H PARENT
REMARK Flexibility Score: inf
ROOT
ATOM      1  C   UNL     1       3.069  57.136  18.189  1.00  0.00     0.006 C 
ENDROOT
BRANCH   1   2
ATOM      2  C   UNL     1       3.339  55.787  17.503  1.00  0.00     0.053 C 
BRANCH   2   3
ATOM      3  C   UNL     1       4.445  55.880  16.497  1.00  0.00     0.041 C 
ATOM      4  O   UNL     1       5.317  56.783  16.596  1.00  0.00    -0.550 OA
ATOM      5  O   UNL     1       4.530  54.950  15.468  1.00  0.00    -0.550 OA
ENDBRANCH   2   3
ENDBRANCH   1   2
BRANCH   1   6
ATOM      6  C   UNL     1       1.649  57.685  17.968  1.00  0.00     0.000 C 
BRANCH   6   7
ATOM      7  C   UNL     1       0.809  56.803  17.034  1.00  0.00    -0.003 C 
ATOM      8  C   UNL     1      -0.497  56.382  17.703  1.00  0.00     0.004 C 
ENDBRANCH   6   7
ENDBRANCH   1   6
TORSDOF 4
ENDMDL
MODEL 3
REMARK VINA RESULT:    -3.452      2.403      3.585
REMARK INTER + INTRA:          -4.485
REMARK INTER:                  -4.443
REMARK INTRA:                  -0.042
REMARK UNBOUND:                -0.225
REMARK SMILES CCCCCC(=O)[O-]
REMARK SMILES IDX 4 1 5 2 6 3 7 4 8 5 3 6 2 7 1 8
REMARK H PARENT
REMARK Flexibility Score: inf
ROOT
ATOM      1  C   UNL     1       6.120  56.783  16.812  1.00  0.00     0.006 C 
ENDROOT
BRANCH   1   2
ATOM      2  C   UNL     1       6.948  56.896  18.103  1.00  0.00     0.053 C 
BRANCH   2   3
ATOM      3  C   UNL     1       7.735  58.169  18.156  1.00  0.00     0.041 C 
ATOM      4  O   UNL     1       8.558  58.443  17.243  1.00  0.00    -0.550 OA
ATOM      5  O   UNL     1       7.535  59.068  19.196  1.00  0.00    -0.550 OA
ENDBRANCH   2   3
ENDBRANCH   1   2
BRANCH   1   6
ATOM      6  C   UNL     1       4.706  56.211  17.016  1.00  0.00     0.000 C 
BRANCH   6   7
ATOM      7  C   UNL     1       4.273  55.274  15.879  1.00  0.00    -0.003 C 
ATOM      8  C   UNL     1       2.752  55.214  15.765  1.00  0.00     0.004 C 
ENDBRANCH   6   7
ENDBRANCH   1   6
TORSDOF 4
ENDMDL
MODEL 4
REMARK VINA RESULT:    -3.367      1.851      3.282
REMARK INTER + INTRA:          -4.380
REMARK INTER:                  -4.138
REMARK INTRA:                  -0.242
REMARK UNBOUND:                -0.225
REMARK SMILES CCCCCC(=O)[O-]
REMARK SMILES IDX 4 1 5 2 6 3 7 4 8 5 3 6 2 7 1 8
REMARK H PARENT
REMARK Flexibility Score: inf
ROOT
ATOM      1  C   UNL     1       1.815  54.991  16.600  1.00  0.00     0.006 C 
ENDROOT
BRANCH   1   2
ATOM      2  C   UNL     1       1.098  56.309  16.936  1.00  0.00     0.053 C 
BRANCH   2   3
ATOM      3  C   UNL     1       1.762  57.036  18.065  1.00  0.00     0.041 C 
ATOM      4  O   UNL     1       1.838  58.293  18.051  1.00  0.00    -0.550 OA
ATOM      5  O   UNL     1       2.267  56.328  19.148  1.00  0.00    -0.550 OA
ENDBRANCH   2   3
ENDBRANCH   1   2
BRANCH   1   6
ATOM      6  C   UNL     1       2.963  55.137  15.585  1.00  0.00     0.000 C 
BRANCH   6   7
ATOM      7  C   UNL     1       4.344  54.883  16.208  1.00  0.00    -0.003 C 
ATOM      8  C   UNL     1       5.013  56.194  16.613  1.00  0.00     0.004 C 
ENDBRANCH   6   7
ENDBRANCH   1   6
TORSDOF 4
ENDMDL
MODEL 5
REMARK VINA RESULT:    -3.364      5.739      7.339
REMARK INTER + INTRA:          -4.375
REMARK INTER:                  -4.243
REMARK INTRA:                  -0.132
REMARK UNBOUND:                -0.225
REMARK SMILES CCCCCC(=O)[O-]
REMARK SMILES IDX 4 1 5 2 6 3 7 4 8 5 3 6 2 7 1 8
REMARK H PARENT
REMARK Flexibility Score: inf
ROOT
ATOM      1  C   UNL     1       9.331  58.329  17.205  1.00  0.00     0.006 C 
ENDROOT
BRANCH   1   2
ATOM      2  C   UNL     1      10.089  59.351  16.341  1.00  0.00     0.053 C 
BRANCH   2   3
ATOM      3  C   UNL     1      11.124  60.094  17.129  1.00  0.00     0.041 C 
ATOM      4  O   UNL     1      11.301  61.326  16.939  1.00  0.00    -0.550 OA
ATOM      5  O   UNL     1      11.871  59.432  18.096  1.00  0.00    -0.550 OA
ENDBRANCH   2   3
ENDBRANCH   1   2
BRANCH   1   6
ATOM      6  C   UNL     1       8.381  58.958  18.240  1.00  0.00     0.000 C 
BRANCH   6   7
ATOM      7  C   UNL     1       7.264  58.002  18.680  1.00  0.00    -0.003 C 
ATOM      8  C   UNL     1       6.873  57.055  17.549  1.00  0.00     0.004 C 
ENDBRANCH   6   7
ENDBRANCH   1   6
TORSDOF 4
ENDMDL
MODEL 6
REMARK VINA RESULT:    -3.361      4.788      6.495
REMARK INTER + INTRA:          -4.372
REMARK INTER:                  -4.295
REMARK INTRA:                  -0.077
REMARK UNBOUND:                -0.225
REMARK SMILES CCCCCC(=O)[O-]
REMARK SMILES IDX 4 1 5 2 6 3 7 4 8 5 3 6 2 7 1 8
REMARK H PARENT
REMARK Flexibility Score: inf
ROOT
ATOM      1  C   UNL     1      -1.279  56.113  18.104  1.00  0.00     0.006 C 
ENDROOT
BRANCH   1   2
ATOM      2  C   UNL     1      -2.740  55.799  17.741  1.00  0.00     0.053 C 
BRANCH   2   3
ATOM      3  C   UNL     1      -3.668  56.904  18.141  1.00  0.00     0.041 C 
ATOM      4  O   UNL     1      -3.800  57.918  17.406  1.00  0.00    -0.550 OA
ATOM      5  O   UNL     1      -4.411  56.801  19.311  1.00  0.00    -0.550 OA
ENDBRANCH   2   3
ENDBRANCH   1   2
BRANCH   1   6
ATOM      6  C   UNL     1      -0.500  56.855  17.004  1.00  0.00     0.000 C 
BRANCH   6   7
ATOM      7  C   UNL     1       1.015  56.872  17.257  1.00  0.00    -0.003 C 
ATOM      8  C   UNL     1       1.718  55.780  16.454  1.00  0.00     0.004 C 
ENDBRANCH   6   7
ENDBRANCH   1   6
TORSDOF 4
ENDMDL
MODEL 7
REMARK VINA RESULT:    -3.342      1.852      2.756
REMARK INTER + INTRA:          -4.349
REMARK INTER:                  -4.082
REMARK INTRA:                  -0.266
REMARK UNBOUND:                -0.225
REMARK SMILES CCCCCC(=O)[O-]
REMARK SMILES IDX 4 1 5 2 6 3 7 4 8 5 3 6 2 7 1 8
REMARK H PARENT
REMARK Flexibility Score: inf
ROOT
ATOM      1  C   UNL     1       0.945  56.333  16.894  1.00  0.00     0.006 C 
ENDROOT
BRANCH   1   2
ATOM      2  C   UNL     1       1.461  57.464  17.800  1.00  0.00     0.053 C 
BRANCH   2   3
ATOM      3  C   UNL     1       2.556  56.998  18.710  1.00  0.00     0.041 C 
ATOM      4  O   UNL     1       3.708  57.498  18.623  1.00  0.00    -0.550 OA
ATOM      5  O   UNL     1       2.295  56.033  19.676  1.00  0.00    -0.550 OA
ENDBRANCH   2   3
ENDBRANCH   1   2
BRANCH   1   6
ATOM      6  C   UNL     1       2.054  55.508  16.217  1.00  0.00     0.000 C 
BRANCH   6   7
ATOM      7  C   UNL     1       1.973  54.013  16.554  1.00  0.00    -0.003 C 
ATOM      8  C   UNL     1       0.703  53.694  17.340  1.00  0.00     0.004 C 
ENDBRANCH   6   7
ENDBRANCH   1   6
TORSDOF 4
ENDMDL
MODEL 8
REMARK VINA RESULT:    -3.316      3.274      4.763
REMARK INTER + INTRA:          -4.317
REMARK INTER:                  -4.088
REMARK INTRA:                  -0.228
REMARK UNBOUND:                -0.225
REMARK SMILES CCCCCC(=O)[O-]
REMARK SMILES IDX 4 1 5 2 6 3 7 4 8 5 3 6 2 7 1 8
REMARK H PARENT
REMARK Flexibility Score: inf
ROOT
ATOM      1  C   UNL     1       0.016  55.597  17.916  1.00  0.00     0.006 C 
ENDROOT
BRANCH   1   2
ATOM      2  C   UNL     1      -0.249  56.073  19.354  1.00  0.00     0.053 C 
BRANCH   2   3
ATOM      3  C   UNL     1       0.317  55.130  20.371  1.00  0.00     0.041 C 
ATOM      4  O   UNL     1      -0.422  54.266  20.913  1.00  0.00    -0.550 OA
ATOM      5  O   UNL     1       1.666  55.184  20.695  1.00  0.00    -0.550 OA
ENDBRANCH   2   3
ENDBRANCH   1   2
BRANCH   1   6
ATOM      6  C   UNL     1       1.149  56.353  17.199  1.00  0.00     0.000 C 
BRANCH   6   7
ATOM      7  C   UNL     1       1.602  57.608  17.960  1.00  0.00    -0.003 C 
ATOM      8  C   UNL     1       3.066  57.500  18.375  1.00  0.00     0.004 C 
ENDBRANCH   6   7
ENDBRANCH   1   6
TORSDOF 4
ENDMDL
MODEL 9
REMARK VINA RESULT:    -3.251      2.806      4.286
REMARK INTER + INTRA:          -4.236
REMARK INTER:                  -3.987
REMARK INTRA:                  -0.249
REMARK UNBOUND:                -0.225
REMARK SMILES CCCCCC(=O)[O-]
REMARK SMILES IDX 4 1 5 2 6 3 7 4 8 5 3 6 2 7 1 8
REMARK H PARENT
REMARK Flexibility Score: inf
ROOT
ATOM      1  C   UNL     1      -0.466  56.007  19.508  1.00  0.00     0.006 C 
ENDROOT
BRANCH   1   2
ATOM      2  C   UNL     1       0.116  54.903  20.405  1.00  0.00     0.053 C 
BRANCH   2   3
ATOM      3  C   UNL     1       1.613  54.867  20.350  1.00  0.00     0.041 C 
ATOM      4  O   UNL     1       2.271  55.939  20.294  1.00  0.00    -0.550 OA
ATOM      5  O   UNL     1       2.282  53.649  20.392  1.00  0.00    -0.550 OA
ENDBRANCH   2   3
ENDBRANCH   1   2
BRANCH   1   6
ATOM      6  C   UNL     1      -0.478  55.663  18.008  1.00  0.00     0.000 C 
BRANCH   6   7
ATOM      7  C   UNL     1       0.407  56.601  17.175  1.00  0.00    -0.003 C 
ATOM      8  C   UNL     1       1.621  55.861  16.618  1.00  0.00     0.004 C 
ENDBRANCH   6   7
ENDBRANCH   1   6
TORSDOF 4
ENDMDL
