MODEL 1
REMARK VINA RESULT:    -6.835      0.000      0.000
REMARK INTER + INTRA:          -8.469
REMARK INTER:                  -8.234
REMARK INTRA:                  -0.235
REMARK UNBOUND:                -0.235
REMARK SMILES O=c1c(O)c(-c2ccc(O)c(O)c2)oc2cc(O)cc(O)c12
REMARK SMILES IDX 5 1 3 2 2 3 1 4 22 5 20 6 19 7 17 8 16 9 15 10 14 11 6 12
REMARK SMILES IDX 7 13 8 14 9 15 13 16 11 17 10 18 12 20 4 22 21 24 18 26
REMARK H PARENT 10 19 12 21 4 23 21 25 18 27
REMARK Flexibility Score: inf
ROOT
ATOM      1  C   UNL     1      12.213   1.952   9.428  1.00  0.00     0.180 A 
ATOM      2  C   UNL     1      12.651   0.733   8.874  1.00  0.00     0.208 A 
ATOM      3  C   UNL     1      13.755   0.084   9.449  1.00  0.00     0.238 A 
ATOM      4  O   UNL     1      14.163  -1.002   8.955  1.00  0.00    -0.285 OA
ATOM      5  C   UNL     1      14.386   0.649  10.576  1.00  0.00     0.111 A 
ATOM      6  C   UNL     1      15.500   0.056  11.218  1.00  0.00     0.134 A 
ATOM      7  C   UNL     1      16.067   0.676  12.341  1.00  0.00     0.093 A 
ATOM      8  C   UNL     1      15.544   1.874  12.834  1.00  0.00     0.123 A 
ATOM      9  C   UNL     1      14.443   2.464  12.205  1.00  0.00     0.094 A 
ATOM     10  C   UNL     1      13.865   1.862  11.083  1.00  0.00     0.146 A 
ATOM     11  O   UNL     1      12.824   2.447  10.501  1.00  0.00    -0.452 OA
ENDROOT
BRANCH   1  12
ATOM     12  C   UNL     1      11.070   2.705   8.866  1.00  0.00     0.025 A 
ATOM     13  C   UNL     1      11.212   3.353   7.628  1.00  0.00     0.016 A 
ATOM     14  C   UNL     1      10.139   4.052   7.068  1.00  0.00     0.051 A 
ATOM     15  C   UNL     1       8.907   4.103   7.727  1.00  0.00     0.157 A 
ATOM     16  C   UNL     1       9.824   2.739   9.517  1.00  0.00     0.062 A 
ATOM     17  C   UNL     1       8.745   3.439   8.955  1.00  0.00     0.158 A 
BRANCH  15  18
ATOM     18  O   UNL     1       7.856   4.810   7.146  1.00  0.00    -0.504 OA
ATOM     19  H   UNL     1       6.901   4.475   7.176  1.00  0.00     0.293 HD
ENDBRANCH  15  18
BRANCH  17  20
ATOM     20  O   UNL     1       7.515   3.473   9.610  1.00  0.00    -0.504 OA
ATOM     21  H   UNL     1       6.810   4.163   9.381  1.00  0.00     0.293 HD
ENDBRANCH  17  20
ENDBRANCH   1  12
BRANCH   2  22
ATOM     22  O   UNL     1      11.978   0.169   7.787  1.00  0.00    -0.502 OA
ATOM     23  H   UNL     1      12.450  -0.081   6.928  1.00  0.00     0.293 HD
ENDBRANCH   2  22
BRANCH   6  24
ATOM     24  O   UNL     1      16.046  -1.141  10.750  1.00  0.00    -0.507 OA
ATOM     25  H   UNL     1      15.792  -1.525   9.848  1.00  0.00     0.293 HD
ENDBRANCH   6  24
BRANCH   8  26
ATOM     26  O   UNL     1      16.125   2.468  13.953  1.00  0.00    -0.508 OA
ATOM     27  H   UNL     1      16.070   2.037  14.869  1.00  0.00     0.293 HD
ENDBRANCH   8  26
TORSDOF 6
ENDMDL
MODEL 2
REMARK VINA RESULT:    -6.697      1.268      1.853
REMARK INTER + INTRA:          -8.302
REMARK INTER:                  -7.970
REMARK INTRA:                  -0.332
REMARK UNBOUND:                -0.235
REMARK SMILES O=c1c(O)c(-c2ccc(O)c(O)c2)oc2cc(O)cc(O)c12
REMARK SMILES IDX 5 1 3 2 2 3 1 4 22 5 20 6 19 7 17 8 16 9 15 10 14 11 6 12
REMARK SMILES IDX 7 13 8 14 9 15 13 16 11 17 10 18 12 20 4 22 21 24 18 26
REMARK H PARENT 10 19 12 21 4 23 21 25 18 27
REMARK Flexibility Score: inf
ROOT
ATOM      1  C   UNL     1      12.388   1.607   9.727  1.00  0.00     0.180 A 
ATOM      2  C   UNL     1      12.470   0.232   9.434  1.00  0.00     0.208 A 
ATOM      3  C   UNL     1      13.317  -0.577  10.208  1.00  0.00     0.238 A 
ATOM      4  O   UNL     1      13.407  -1.807   9.946  1.00  0.00    -0.285 OA
ATOM      5  C   UNL     1      14.046  -0.007  11.270  1.00  0.00     0.111 A 
ATOM      6  C   UNL     1      14.917  -0.754  12.101  1.00  0.00     0.134 A 
ATOM      7  C   UNL     1      15.602  -0.113  13.144  1.00  0.00     0.093 A 
ATOM      8  C   UNL     1      15.433   1.254  13.374  1.00  0.00     0.123 A 
ATOM      9  C   UNL     1      14.574   1.997  12.557  1.00  0.00     0.094 A 
ATOM     10  C   UNL     1      13.884   1.378  11.511  1.00  0.00     0.146 A 
ATOM     11  O   UNL     1      13.080   2.108  10.747  1.00  0.00    -0.452 OA
ENDROOT
BRANCH   1  12
ATOM     12  C   UNL     1      11.534   2.528   8.944  1.00  0.00     0.025 A 
ATOM     13  C   UNL     1      10.230   2.805   9.388  1.00  0.00     0.016 A 
ATOM     14  C   UNL     1       9.413   3.688   8.676  1.00  0.00     0.051 A 
ATOM     15  C   UNL     1       9.889   4.318   7.523  1.00  0.00     0.157 A 
ATOM     16  C   UNL     1      12.018   3.180   7.796  1.00  0.00     0.062 A 
ATOM     17  C   UNL     1      11.199   4.068   7.082  1.00  0.00     0.158 A 
BRANCH  15  18
ATOM     18  O   UNL     1       9.050   5.192   6.833  1.00  0.00    -0.504 OA
ATOM     19  H   UNL     1       8.049   5.207   6.983  1.00  0.00     0.293 HD
ENDBRANCH  15  18
BRANCH  17  20
ATOM     20  O   UNL     1      11.685   4.704   5.941  1.00  0.00    -0.504 OA
ATOM     21  H   UNL     1      12.369   4.263   5.336  1.00  0.00     0.293 HD
ENDBRANCH  17  20
ENDBRANCH   1  12
BRANCH   2  22
ATOM     22  O   UNL     1      11.699  -0.318   8.406  1.00  0.00    -0.502 OA
ATOM     23  H   UNL     1      10.832   0.099   8.096  1.00  0.00     0.293 HD
ENDBRANCH   2  22
BRANCH   6  24
ATOM     24  O   UNL     1      15.106  -2.121  11.897  1.00  0.00    -0.507 OA
ATOM     25  H   UNL     1      15.955  -2.485  11.482  1.00  0.00     0.293 HD
ENDBRANCH   6  24
BRANCH   8  26
ATOM     26  O   UNL     1      16.124   1.864  14.419  1.00  0.00    -0.508 OA
ATOM     27  H   UNL     1      16.257   1.398  15.310  1.00  0.00     0.293 HD
ENDBRANCH   8  26
TORSDOF 6
ENDMDL
MODEL 3
REMARK VINA RESULT:    -5.865      1.411      2.989
REMARK INTER + INTRA:          -7.300
REMARK INTER:                  -7.243
REMARK INTRA:                  -0.057
REMARK UNBOUND:                -0.235
REMARK SMILES O=c1c(O)c(-c2ccc(O)c(O)c2)oc2cc(O)cc(O)c12
REMARK SMILES IDX 5 1 3 2 2 3 1 4 22 5 20 6 19 7 17 8 16 9 15 10 14 11 6 12
REMARK SMILES IDX 7 13 8 14 9 15 13 16 11 17 10 18 12 20 4 22 21 24 18 26
REMARK H PARENT 10 19 12 21 4 23 21 25 18 27
REMARK Flexibility Score: inf
ROOT
ATOM      1  C   UNL     1      11.986   2.128   9.179  1.00  0.00     0.180 A 
ATOM      2  C   UNL     1      12.400   2.253  10.519  1.00  0.00     0.208 A 
ATOM      3  C   UNL     1      13.506   1.508  10.960  1.00  0.00     0.238 A 
ATOM      4  O   UNL     1      13.878   1.603  12.160  1.00  0.00    -0.285 OA
ATOM      5  C   UNL     1      14.190   0.674  10.053  1.00  0.00     0.111 A 
ATOM      6  C   UNL     1      15.315  -0.105  10.416  1.00  0.00     0.134 A 
ATOM      7  C   UNL     1      15.947  -0.905   9.452  1.00  0.00     0.093 A 
ATOM      8  C   UNL     1      15.477  -0.942   8.137  1.00  0.00     0.123 A 
ATOM      9  C   UNL     1      14.366  -0.175   7.773  1.00  0.00     0.094 A 
ATOM     10  C   UNL     1      13.722   0.628   8.719  1.00  0.00     0.146 A 
ATOM     11  O   UNL     1      12.665   1.341   8.348  1.00  0.00    -0.452 OA
ENDROOT
BRANCH   1  12
ATOM     12  C   UNL     1      10.818   2.864   8.645  1.00  0.00     0.025 A 
ATOM     13  C   UNL     1      10.950   3.596   7.454  1.00  0.00     0.016 A 
ATOM     14  C   UNL     1       9.855   4.282   6.920  1.00  0.00     0.051 A 
ATOM     15  C   UNL     1       8.612   4.234   7.557  1.00  0.00     0.157 A 
ATOM     16  C   UNL     1       9.561   2.801   9.273  1.00  0.00     0.062 A 
ATOM     17  C   UNL     1       8.461   3.487   8.737  1.00  0.00     0.158 A 
BRANCH  15  18
ATOM     18  O   UNL     1       7.539   4.930   7.002  1.00  0.00    -0.504 OA
ATOM     19  H   UNL     1       6.704   5.144   7.534  1.00  0.00     0.293 HD
ENDBRANCH  15  18
BRANCH  17  20
ATOM     20  O   UNL     1       7.221   3.423   9.370  1.00  0.00    -0.504 OA
ATOM     21  H   UNL     1       6.354   3.497   8.850  1.00  0.00     0.293 HD
ENDBRANCH  17  20
ENDBRANCH   1  12
BRANCH   2  22
ATOM     22  O   UNL     1      11.735   3.125  11.385  1.00  0.00    -0.502 OA
ATOM     23  H   UNL     1      11.488   4.069  11.120  1.00  0.00     0.293 HD
ENDBRANCH   2  22
BRANCH   6  24
ATOM     24  O   UNL     1      15.809  -0.090  11.721  1.00  0.00    -0.507 OA
ATOM     25  H   UNL     1      15.672  -0.871  12.351  1.00  0.00     0.293 HD
ENDBRANCH   6  24
BRANCH   8  26
ATOM     26  O   UNL     1      16.125  -1.744   7.199  1.00  0.00    -0.508 OA
ATOM     27  H   UNL     1      15.648  -2.078   6.369  1.00  0.00     0.293 HD
ENDBRANCH   8  26
TORSDOF 6
ENDMDL
MODEL 4
REMARK VINA RESULT:    -5.761      1.723      3.282
REMARK INTER + INTRA:          -7.175
REMARK INTER:                  -6.843
REMARK INTRA:                  -0.332
REMARK UNBOUND:                -0.235
REMARK SMILES O=c1c(O)c(-c2ccc(O)c(O)c2)oc2cc(O)cc(O)c12
REMARK SMILES IDX 5 1 3 2 2 3 1 4 22 5 20 6 19 7 17 8 16 9 15 10 14 11 6 12
REMARK SMILES IDX 7 13 8 14 9 15 13 16 11 17 10 18 12 20 4 22 21 24 18 26
REMARK H PARENT 10 19 12 21 4 23 21 25 18 27
REMARK Flexibility Score: inf
ROOT
ATOM      1  C   UNL     1      12.438   1.388   9.834  1.00  0.00     0.180 A 
ATOM      2  C   UNL     1      13.308   1.776  10.872  1.00  0.00     0.208 A 
ATOM      3  C   UNL     1      14.107   0.800  11.489  1.00  0.00     0.238 A 
ATOM      4  O   UNL     1      14.880   1.135  12.426  1.00  0.00    -0.285 OA
ATOM      5  C   UNL     1      14.041  -0.536  11.046  1.00  0.00     0.111 A 
ATOM      6  C   UNL     1      14.816  -1.578  11.611  1.00  0.00     0.134 A 
ATOM      7  C   UNL     1      14.699  -2.883  11.108  1.00  0.00     0.093 A 
ATOM      8  C   UNL     1      13.826  -3.165  10.055  1.00  0.00     0.123 A 
ATOM      9  C   UNL     1      13.058  -2.140   9.493  1.00  0.00     0.094 A 
ATOM     10  C   UNL     1      13.159  -0.834   9.981  1.00  0.00     0.146 A 
ATOM     11  O   UNL     1      12.414   0.119   9.433  1.00  0.00    -0.452 OA
ENDROOT
BRANCH   1  12
ATOM     12  C   UNL     1      11.551   2.354   9.149  1.00  0.00     0.025 A 
ATOM     13  C   UNL     1      11.993   2.983   7.974  1.00  0.00     0.016 A 
ATOM     14  C   UNL     1      11.164   3.883   7.298  1.00  0.00     0.051 A 
ATOM     15  C   UNL     1       9.878   4.155   7.776  1.00  0.00     0.157 A 
ATOM     16  C   UNL     1      10.250   2.613   9.616  1.00  0.00     0.062 A 
ATOM     17  C   UNL     1       9.416   3.515   8.938  1.00  0.00     0.158 A 
BRANCH  15  18
ATOM     18  O   UNL     1       9.075   5.059   7.082  1.00  0.00    -0.504 OA
ATOM     19  H   UNL     1       8.305   4.756   6.499  1.00  0.00     0.293 HD
ENDBRANCH  15  18
BRANCH  17  20
ATOM     20  O   UNL     1       8.130   3.771   9.411  1.00  0.00    -0.504 OA
ATOM     21  H   UNL     1       7.783   4.717   9.521  1.00  0.00     0.293 HD
ENDBRANCH  17  20
ENDBRANCH   1  12
BRANCH   2  22
ATOM     22  O   UNL     1      13.391   3.116  11.259  1.00  0.00    -0.502 OA
ATOM     23  H   UNL     1      12.576   3.711  11.332  1.00  0.00     0.293 HD
ENDBRANCH   2  22
BRANCH   6  24
ATOM     24  O   UNL     1      15.697  -1.328  12.664  1.00  0.00    -0.507 OA
ATOM     25  H   UNL     1      15.435  -0.748  13.451  1.00  0.00     0.293 HD
ENDBRANCH   6  24
BRANCH   8  26
ATOM     26  O   UNL     1      13.731  -4.469   9.573  1.00  0.00    -0.508 OA
ATOM     27  H   UNL     1      14.167  -4.744   8.700  1.00  0.00     0.293 HD
ENDBRANCH   8  26
TORSDOF 6
ENDMDL
MODEL 5
REMARK VINA RESULT:    -5.142      1.864      7.111
REMARK INTER + INTRA:          -6.429
REMARK INTER:                  -6.155
REMARK INTRA:                  -0.274
REMARK UNBOUND:                -0.235
REMARK SMILES O=c1c(O)c(-c2ccc(O)c(O)c2)oc2cc(O)cc(O)c12
REMARK SMILES IDX 5 1 3 2 2 3 1 4 22 5 20 6 19 7 17 8 16 9 15 10 14 11 6 12
REMARK SMILES IDX 7 13 8 14 9 15 13 16 11 17 10 18 12 20 4 22 21 24 18 26
REMARK H PARENT 10 19 12 21 4 23 21 25 18 27
REMARK Flexibility Score: inf
ROOT
ATOM      1  C   UNL     1      11.450   1.680   8.954  1.00  0.00     0.180 A 
ATOM      2  C   UNL     1      11.996   2.489   7.939  1.00  0.00     0.208 A 
ATOM      3  C   UNL     1      11.147   3.359   7.236  1.00  0.00     0.238 A 
ATOM      4  O   UNL     1      11.623   4.080   6.317  1.00  0.00    -0.285 OA
ATOM      5  C   UNL     1       9.780   3.423   7.573  1.00  0.00     0.111 A 
ATOM      6  C   UNL     1       8.860   4.277   6.917  1.00  0.00     0.134 A 
ATOM      7  C   UNL     1       7.516   4.288   7.316  1.00  0.00     0.093 A 
ATOM      8  C   UNL     1       7.074   3.467   8.356  1.00  0.00     0.123 A 
ATOM      9  C   UNL     1       7.978   2.622   9.008  1.00  0.00     0.094 A 
ATOM     10  C   UNL     1       9.321   2.594   8.623  1.00  0.00     0.146 A 
ATOM     11  O   UNL     1      10.157   1.778   9.255  1.00  0.00    -0.452 OA
ENDROOT
BRANCH   1  12
ATOM     12  C   UNL     1      12.275   0.723   9.726  1.00  0.00     0.025 A 
ATOM     13  C   UNL     1      12.240  -0.641   9.396  1.00  0.00     0.016 A 
ATOM     14  C   UNL     1      13.027  -1.559  10.098  1.00  0.00     0.051 A 
ATOM     15  C   UNL     1      13.869  -1.127  11.127  1.00  0.00     0.157 A 
ATOM     16  C   UNL     1      13.139   1.158  10.747  1.00  0.00     0.062 A 
ATOM     17  C   UNL     1      13.930   0.238  11.451  1.00  0.00     0.158 A 
BRANCH  15  18
ATOM     18  O   UNL     1      14.640  -2.066  11.810  1.00  0.00    -0.504 OA
ATOM     19  H   UNL     1      15.275  -2.692  11.330  1.00  0.00     0.293 HD
ENDBRANCH  15  18
BRANCH  17  20
ATOM     20  O   UNL     1      14.779   0.677  12.466  1.00  0.00    -0.504 OA
ATOM     21  H   UNL     1      14.735   1.625  12.823  1.00  0.00     0.293 HD
ENDBRANCH  17  20
ENDBRANCH   1  12
BRANCH   2  22
ATOM     22  O   UNL     1      13.363   2.443   7.658  1.00  0.00    -0.502 OA
ATOM     23  H   UNL     1      13.928   3.279   7.575  1.00  0.00     0.293 HD
ENDBRANCH   2  22
BRANCH   6  24
ATOM     24  O   UNL     1       9.270   5.110   5.875  1.00  0.00    -0.507 OA
ATOM     25  H   UNL     1       9.175   4.836   4.905  1.00  0.00     0.293 HD
ENDBRANCH   6  24
BRANCH   8  26
ATOM     26  O   UNL     1       5.733   3.499   8.734  1.00  0.00    -0.508 OA
ATOM     27  H   UNL     1       5.208   4.367   8.750  1.00  0.00     0.293 HD
ENDBRANCH   8  26
TORSDOF 6
ENDMDL
MODEL 6
REMARK VINA RESULT:    -4.679      2.109      7.509
REMARK INTER + INTRA:          -5.871
REMARK INTER:                  -5.568
REMARK INTRA:                  -0.303
REMARK UNBOUND:                -0.235
REMARK SMILES O=c1c(O)c(-c2ccc(O)c(O)c2)oc2cc(O)cc(O)c12
REMARK SMILES IDX 5 1 3 2 2 3 1 4 22 5 20 6 19 7 17 8 16 9 15 10 14 11 6 12
REMARK SMILES IDX 7 13 8 14 9 15 13 16 11 17 10 18 12 20 4 22 21 24 18 26
REMARK H PARENT 10 19 12 21 4 23 21 25 18 27
REMARK Flexibility Score: inf
ROOT
ATOM      1  C   UNL     1      10.586   2.786   8.484  1.00  0.00     0.180 A 
ATOM      2  C   UNL     1      10.506   3.907   7.635  1.00  0.00     0.208 A 
ATOM      3  C   UNL     1       9.275   4.219   7.036  1.00  0.00     0.238 A 
ATOM      4  O   UNL     1       9.195   5.213   6.265  1.00  0.00    -0.285 OA
ATOM      5  C   UNL     1       8.145   3.423   7.312  1.00  0.00     0.111 A 
ATOM      6  C   UNL     1       6.868   3.672   6.753  1.00  0.00     0.134 A 
ATOM      7  C   UNL     1       5.790   2.838   7.084  1.00  0.00     0.093 A 
ATOM      8  C   UNL     1       5.962   1.764   7.960  1.00  0.00     0.123 A 
ATOM      9  C   UNL     1       7.221   1.513   8.515  1.00  0.00     0.094 A 
ATOM     10  C   UNL     1       8.308   2.332   8.197  1.00  0.00     0.146 A 
ATOM     11  O   UNL     1       9.494   2.067   8.733  1.00  0.00    -0.452 OA
ENDROOT
BRANCH   1  12
ATOM     12  C   UNL     1      11.852   2.382   9.136  1.00  0.00     0.025 A 
ATOM     13  C   UNL     1      12.801   1.650   8.405  1.00  0.00     0.016 A 
ATOM     14  C   UNL     1      14.012   1.276   8.995  1.00  0.00     0.051 A 
ATOM     15  C   UNL     1      14.299   1.639  10.314  1.00  0.00     0.157 A 
ATOM     16  C   UNL     1      12.151   2.764  10.456  1.00  0.00     0.062 A 
ATOM     17  C   UNL     1      13.367   2.391  11.048  1.00  0.00     0.158 A 
BRANCH  15  18
ATOM     18  O   UNL     1      15.514   1.250  10.875  1.00  0.00    -0.504 OA
ATOM     19  H   UNL     1      15.589   0.453  11.496  1.00  0.00     0.293 HD
ENDBRANCH  15  18
BRANCH  17  20
ATOM     20  O   UNL     1      13.652   2.769  12.359  1.00  0.00    -0.504 OA
ATOM     21  H   UNL     1      13.078   3.442  12.855  1.00  0.00     0.293 HD
ENDBRANCH  17  20
ENDBRANCH   1  12
BRANCH   2  22
ATOM     22  O   UNL     1      11.630   4.709   7.417  1.00  0.00    -0.502 OA
ATOM     23  H   UNL     1      11.585   5.574   6.894  1.00  0.00     0.293 HD
ENDBRANCH   2  22
BRANCH   6  24
ATOM     24  O   UNL     1       6.663   4.738   5.875  1.00  0.00    -0.507 OA
ATOM     25  H   UNL     1       6.944   4.688   4.903  1.00  0.00     0.293 HD
ENDBRANCH   6  24
BRANCH   8  26
ATOM     26  O   UNL     1       4.873   0.952   8.273  1.00  0.00    -0.508 OA
ATOM     27  H   UNL     1       4.020   1.338   8.662  1.00  0.00     0.293 HD
ENDBRANCH   8  26
TORSDOF 6
ENDMDL
MODEL 7
REMARK VINA RESULT:    -4.631      3.849      4.519
REMARK INTER + INTRA:          -5.814
REMARK INTER:                  -5.527
REMARK INTRA:                  -0.287
REMARK UNBOUND:                -0.235
REMARK SMILES O=c1c(O)c(-c2ccc(O)c(O)c2)oc2cc(O)cc(O)c12
REMARK SMILES IDX 5 1 3 2 2 3 1 4 22 5 20 6 19 7 17 8 16 9 15 10 14 11 6 12
REMARK SMILES IDX 7 13 8 14 9 15 13 16 11 17 10 18 12 20 4 22 21 24 18 26
REMARK H PARENT 10 19 12 21 4 23 21 25 18 27
REMARK Flexibility Score: inf
ROOT
ATOM      1  C   UNL     1      13.072  -1.337  10.253  1.00  0.00     0.180 A 
ATOM      2  C   UNL     1      13.770  -2.226  11.093  1.00  0.00     0.208 A 
ATOM      3  C   UNL     1      14.553  -1.702  12.134  1.00  0.00     0.238 A 
ATOM      4  O   UNL     1      15.191  -2.488  12.885  1.00  0.00    -0.285 OA
ATOM      5  C   UNL     1      14.606  -0.307  12.332  1.00  0.00     0.111 A 
ATOM      6  C   UNL     1      15.366   0.300  13.361  1.00  0.00     0.134 A 
ATOM      7  C   UNL     1      15.361   1.696  13.498  1.00  0.00     0.093 A 
ATOM      8  C   UNL     1      14.613   2.494  12.630  1.00  0.00     0.123 A 
ATOM      9  C   UNL     1      13.860   1.900  11.612  1.00  0.00     0.094 A 
ATOM     10  C   UNL     1      13.853   0.511  11.458  1.00  0.00     0.146 A 
ATOM     11  O   UNL     1      13.134  -0.027  10.479  1.00  0.00    -0.452 OA
ENDROOT
BRANCH   1  12
ATOM     12  C   UNL     1      12.243  -1.810   9.122  1.00  0.00     0.025 A 
ATOM     13  C   UNL     1      12.867  -2.213   7.930  1.00  0.00     0.016 A 
ATOM     14  C   UNL     1      12.105  -2.684   6.857  1.00  0.00     0.051 A 
ATOM     15  C   UNL     1      10.714  -2.774   6.963  1.00  0.00     0.157 A 
ATOM     16  C   UNL     1      10.845  -1.922   9.234  1.00  0.00     0.062 A 
ATOM     17  C   UNL     1      10.080  -2.396   8.158  1.00  0.00     0.158 A 
BRANCH  15  18
ATOM     18  O   UNL     1       9.980  -3.245   5.875  1.00  0.00    -0.504 OA
ATOM     19  H   UNL     1      10.271  -3.082   4.919  1.00  0.00     0.293 HD
ENDBRANCH  15  18
BRANCH  17  20
ATOM     20  O   UNL     1       8.695  -2.497   8.276  1.00  0.00    -0.504 OA
ATOM     21  H   UNL     1       8.072  -2.123   7.569  1.00  0.00     0.293 HD
ENDBRANCH  17  20
ENDBRANCH   1  12
BRANCH   2  22
ATOM     22  O   UNL     1      13.661  -3.606  10.907  1.00  0.00    -0.502 OA
ATOM     23  H   UNL     1      14.398  -4.248  11.169  1.00  0.00     0.293 HD
ENDBRANCH   2  22
BRANCH   6  24
ATOM     24  O   UNL     1      16.124  -0.470  14.245  1.00  0.00    -0.507 OA
ATOM     25  H   UNL     1      17.097  -0.263  14.432  1.00  0.00     0.293 HD
ENDBRANCH   6  24
BRANCH   8  26
ATOM     26  O   UNL     1      14.624   3.879  12.789  1.00  0.00    -0.508 OA
ATOM     27  H   UNL     1      15.466   4.374  13.060  1.00  0.00     0.293 HD
ENDBRANCH   8  26
TORSDOF 6
ENDMDL
MODEL 8
REMARK VINA RESULT:    -4.517      3.780      6.821
REMARK INTER + INTRA:          -5.676
REMARK INTER:                  -5.438
REMARK INTRA:                  -0.238
REMARK UNBOUND:                -0.235
REMARK SMILES O=c1c(O)c(-c2ccc(O)c(O)c2)oc2cc(O)cc(O)c12
REMARK SMILES IDX 5 1 3 2 2 3 1 4 22 5 20 6 19 7 17 8 16 9 15 10 14 11 6 12
REMARK SMILES IDX 7 13 8 14 9 15 13 16 11 17 10 18 12 20 4 22 21 24 18 26
REMARK H PARENT 10 19 12 21 4 23 21 25 18 27
REMARK Flexibility Score: inf
ROOT
ATOM      1  C   UNL     1      13.831  -0.829  10.254  1.00  0.00     0.180 A 
ATOM      2  C   UNL     1      14.638  -1.251   9.180  1.00  0.00     0.208 A 
ATOM      3  C   UNL     1      14.030  -1.876   8.080  1.00  0.00     0.238 A 
ATOM      4  O   UNL     1      14.744  -2.269   7.117  1.00  0.00    -0.285 OA
ATOM      5  C   UNL     1      12.631  -2.048   8.061  1.00  0.00     0.111 A 
ATOM      6  C   UNL     1      11.941  -2.663   6.988  1.00  0.00     0.134 A 
ATOM      7  C   UNL     1      10.544  -2.790   7.041  1.00  0.00     0.093 A 
ATOM      8  C   UNL     1       9.827  -2.314   8.141  1.00  0.00     0.123 A 
ATOM      9  C   UNL     1      10.503  -1.705   9.203  1.00  0.00     0.094 A 
ATOM     10  C   UNL     1      11.894  -1.571   9.170  1.00  0.00     0.146 A 
ATOM     11  O   UNL     1      12.511  -0.995  10.195  1.00  0.00    -0.452 OA
ENDROOT
BRANCH   1  12
ATOM     12  C   UNL     1      14.399  -0.181  11.458  1.00  0.00     0.025 A 
ATOM     13  C   UNL     1      15.142  -0.949  12.369  1.00  0.00     0.016 A 
ATOM     14  C   UNL     1      15.706  -0.353  13.501  1.00  0.00     0.051 A 
ATOM     15  C   UNL     1      15.549   1.017  13.731  1.00  0.00     0.157 A 
ATOM     16  C   UNL     1      14.261   1.201  11.680  1.00  0.00     0.062 A 
ATOM     17  C   UNL     1      14.828   1.800  12.815  1.00  0.00     0.158 A 
BRANCH  15  18
ATOM     18  O   UNL     1      16.121   1.582  14.870  1.00  0.00    -0.504 OA
ATOM     19  H   UNL     1      16.293   2.577  14.948  1.00  0.00     0.293 HD
ENDBRANCH  15  18
BRANCH  17  20
ATOM     20  O   UNL     1      14.680   3.169  13.031  1.00  0.00    -0.504 OA
ATOM     21  H   UNL     1      15.101   3.630  13.829  1.00  0.00     0.293 HD
ENDBRANCH  17  20
ENDBRANCH   1  12
BRANCH   2  22
ATOM     22  O   UNL     1      16.016  -1.025   9.201  1.00  0.00    -0.502 OA
ATOM     23  H   UNL     1      16.568  -0.964   8.355  1.00  0.00     0.293 HD
ENDBRANCH   2  22
BRANCH   6  24
ATOM     24  O   UNL     1      12.629  -3.148   5.875  1.00  0.00    -0.507 OA
ATOM     25  H   UNL     1      12.427  -4.059   5.480  1.00  0.00     0.293 HD
ENDBRANCH   6  24
BRANCH   8  26
ATOM     26  O   UNL     1       8.440  -2.450   8.167  1.00  0.00    -0.508 OA
ATOM     27  H   UNL     1       7.878  -2.006   8.884  1.00  0.00     0.293 HD
ENDBRANCH   8  26
TORSDOF 6
ENDMDL
