MODEL 1
REMARK VINA RESULT:    -2.554      0.000      0.000
REMARK INTER + INTRA:          -2.554
REMARK INTER:                  -2.554
REMARK INTRA:                   0.000
REMARK UNBOUND:                 0.000
REMARK SMILES CC(=O)[O-]
REMARK SMILES IDX 1 1 2 2 3 3 4 4
REMARK H PARENT
REMARK Flexibility Score: inf
ROOT
ATOM      1  C   UNL     1      12.564  25.190  53.199  1.00  0.00     0.063 C 
ATOM      2  C   UNL     1      13.513  26.095  52.490  1.00  0.00     0.038 C 
ATOM      3  O   UNL     1      14.746  26.035  52.736  1.00  0.00    -0.550 OA
ATOM      4  O   UNL     1      13.035  27.044  51.596  1.00  0.00    -0.550 OA
ENDROOT
TORSDOF 0
ENDMDL
MODEL 2
REMARK VINA RESULT:    -2.542      1.985      2.212
REMARK INTER + INTRA:          -2.542
REMARK INTER:                  -2.542
REMARK INTRA:                   0.000
REMARK UNBOUND:                 0.000
REMARK SMILES CC(=O)[O-]
REMARK SMILES IDX 1 1 2 2 3 3 4 4
REMARK H PARENT
REMARK Flexibility Score: inf
ROOT
ATOM      1  C   UNL     1      13.922  25.920  52.876  1.00  0.00     0.063 C 
ATOM      2  C   UNL     1      12.526  25.433  53.068  1.00  0.00     0.038 C 
ATOM      3  O   UNL     1      12.265  24.206  52.967  1.00  0.00    -0.550 OA
ATOM      4  O   UNL     1      11.499  26.339  53.306  1.00  0.00    -0.550 OA
ENDROOT
TORSDOF 0
ENDMDL
MODEL 3
REMARK VINA RESULT:    -2.457      1.364      1.762
REMARK INTER + INTRA:          -2.457
REMARK INTER:                  -2.457
REMARK INTRA:                   0.000
REMARK UNBOUND:                 0.000
REMARK SMILES CC(=O)[O-]
REMARK SMILES IDX 1 1 2 2 3 3 4 4
REMARK H PARENT
REMARK Flexibility Score: inf
ROOT
ATOM      1  C   UNL     1      12.889  26.799  51.468  1.00  0.00     0.063 C 
ATOM      2  C   UNL     1      13.475  25.978  52.565  1.00  0.00     0.038 C 
ATOM      3  O   UNL     1      14.722  25.955  52.738  1.00  0.00    -0.550 OA
ATOM      4  O   UNL     1      12.653  25.195  53.365  1.00  0.00    -0.550 OA
ENDROOT
TORSDOF 0
ENDMDL
MODEL 4
REMARK VINA RESULT:    -2.444      1.419      2.018
REMARK INTER + INTRA:          -2.444
REMARK INTER:                  -2.444
REMARK INTRA:                   0.000
REMARK UNBOUND:                 0.000
REMARK SMILES CC(=O)[O-]
REMARK SMILES IDX 1 1 2 2 3 3 4 4
REMARK H PARENT
REMARK Flexibility Score: inf
ROOT
ATOM      1  C   UNL     1      12.647  26.776  51.469  1.00  0.00     0.063 C 
ATOM      2  C   UNL     1      13.270  26.013  52.589  1.00  0.00     0.038 C 
ATOM      3  O   UNL     1      12.546  25.376  53.398  1.00  0.00    -0.550 OA
ATOM      4  O   UNL     1      14.646  26.047  52.774  1.00  0.00    -0.550 OA
ENDROOT
TORSDOF 0
ENDMDL
MODEL 5
REMARK VINA RESULT:    -2.367      0.638      1.696
REMARK INTER + INTRA:          -2.367
REMARK INTER:                  -2.367
REMARK INTRA:                   0.000
REMARK UNBOUND:                 0.000
REMARK SMILES CC(=O)[O-]
REMARK SMILES IDX 1 1 2 2 3 3 4 4
REMARK H PARENT
REMARK Flexibility Score: inf
ROOT
ATOM      1  C   UNL     1      12.033  25.494  52.378  1.00  0.00     0.063 C 
ATOM      2  C   UNL     1      13.281  26.266  52.115  1.00  0.00     0.038 C 
ATOM      3  O   UNL     1      13.310  27.125  51.195  1.00  0.00    -0.550 OA
ATOM      4  O   UNL     1      14.431  26.001  52.848  1.00  0.00    -0.550 OA
ENDROOT
TORSDOF 0
ENDMDL
MODEL 6
REMARK VINA RESULT:    -2.351     13.717     14.105
REMARK INTER + INTRA:          -2.351
REMARK INTER:                  -2.351
REMARK INTRA:                   0.000
REMARK UNBOUND:                 0.000
REMARK SMILES CC(=O)[O-]
REMARK SMILES IDX 1 1 2 2 3 3 4 4
REMARK H PARENT
REMARK Flexibility Score: inf
ROOT
ATOM      1  C   UNL     1       1.775  21.639  43.482  1.00  0.00     0.063 C 
ATOM      2  C   UNL     1       2.761  22.413  44.289  1.00  0.00     0.038 C 
ATOM      3  O   UNL     1       3.723  22.993  43.721  1.00  0.00    -0.550 OA
ATOM      4  O   UNL     1       2.652  22.451  45.673  1.00  0.00    -0.550 OA
ENDROOT
TORSDOF 0
ENDMDL
MODEL 7
REMARK VINA RESULT:    -2.311     14.062     14.631
REMARK INTER + INTRA:          -2.311
REMARK INTER:                  -2.311
REMARK INTRA:                   0.000
REMARK UNBOUND:                 0.000
REMARK SMILES CC(=O)[O-]
REMARK SMILES IDX 1 1 2 2 3 3 4 4
REMARK H PARENT
REMARK Flexibility Score: inf
ROOT
ATOM      1  C   UNL     1       2.695  22.567  45.219  1.00  0.00     0.063 C 
ATOM      2  C   UNL     1       2.398  22.292  43.784  1.00  0.00     0.038 C 
ATOM      3  O   UNL     1       1.511  21.455  43.472  1.00  0.00    -0.550 OA
ATOM      4  O   UNL     1       3.136  22.918  42.788  1.00  0.00    -0.550 OA
ENDROOT
TORSDOF 0
ENDMDL
MODEL 8
REMARK VINA RESULT:    -2.204     13.821     13.975
REMARK INTER + INTRA:          -2.204
REMARK INTER:                  -2.204
REMARK INTRA:                   0.000
REMARK UNBOUND:                 0.000
REMARK SMILES CC(=O)[O-]
REMARK SMILES IDX 1 1 2 2 3 3 4 4
REMARK H PARENT
REMARK Flexibility Score: inf
ROOT
ATOM      1  C   UNL     1       2.516  22.628  45.239  1.00  0.00     0.063 C 
ATOM      2  C   UNL     1       1.787  23.927  45.296  1.00  0.00     0.038 C 
ATOM      3  O   UNL     1       0.866  24.097  46.138  1.00  0.00    -0.550 OA
ATOM      4  O   UNL     1       2.083  24.933  44.386  1.00  0.00    -0.550 OA
ENDROOT
TORSDOF 0
ENDMDL
MODEL 9
REMARK VINA RESULT:    -2.072     13.436     13.569
REMARK INTER + INTRA:          -2.072
REMARK INTER:                  -2.072
REMARK INTRA:                   0.000
REMARK UNBOUND:                 0.000
REMARK SMILES CC(=O)[O-]
REMARK SMILES IDX 1 1 2 2 3 3 4 4
REMARK H PARENT
REMARK Flexibility Score: inf
ROOT
ATOM      1  C   UNL     1       2.675  22.527  45.305  1.00  0.00     0.063 C 
ATOM      2  C   UNL     1       2.953  23.607  44.316  1.00  0.00     0.038 C 
ATOM      3  O   UNL     1       3.878  23.469  43.473  1.00  0.00    -0.550 OA
ATOM      4  O   UNL     1       2.229  24.792  44.357  1.00  0.00    -0.550 OA
ENDROOT
TORSDOF 0
ENDMDL
