MODEL 1
REMARK VINA RESULT:    -4.447      0.000      0.000
REMARK INTER + INTRA:          -4.577
REMARK INTER:                  -4.577
REMARK INTRA:                   0.000
REMARK UNBOUND:                 0.000
REMARK SMILES Cc1cccc(O)c1C
REMARK SMILES IDX 1 1 2 2 8 3 6 4 5 5 4 6 3 7 9 8 7 9
REMARK H PARENT 7 10
REMARK Flexibility Score: inf
ROOT
ATOM      1  C   UNL     1      13.039  -0.969 -15.227  1.00  0.00     0.045 C 
ATOM      2  C   UNL     1      14.043  -0.569 -14.177  1.00  0.00    -0.045 A 
ATOM      3  C   UNL     1      13.654  -0.327 -12.834  1.00  0.00    -0.006 A 
ATOM      4  C   UNL     1      14.630   0.067 -11.893  1.00  0.00     0.118 A 
ATOM      5  C   UNL     1      15.973   0.176 -12.277  1.00  0.00     0.046 A 
ATOM      6  C   UNL     1      16.354  -0.093 -13.590  1.00  0.00     0.004 A 
ATOM      7  C   UNL     1      15.398  -0.462 -14.534  1.00  0.00     0.004 A 
ATOM      8  C   UNL     1      12.205  -0.433 -12.421  1.00  0.00     0.048 C 
ENDROOT
BRANCH   4   9
ATOM      9  O   UNL     1      14.268   0.351 -10.575  1.00  0.00    -0.508 OA
ATOM     10  H   UNL     1      14.634   1.159 -10.085  1.00  0.00     0.293 HD
ENDBRANCH   4   9
TORSDOF 1
ENDMDL
MODEL 2
REMARK VINA RESULT:    -4.420     20.098     21.592
REMARK INTER + INTRA:          -4.549
REMARK INTER:                  -4.549
REMARK INTRA:                   0.000
REMARK UNBOUND:                 0.000
REMARK SMILES Cc1cccc(O)c1C
REMARK SMILES IDX 1 1 2 2 8 3 6 4 5 5 4 6 3 7 9 8 7 9
REMARK H PARENT 7 10
REMARK Flexibility Score: inf
ROOT
ATOM      1  C   UNL     1      29.934  15.534 -14.451  1.00  0.00     0.045 C 
ATOM      2  C   UNL     1      29.576  14.648 -15.615  1.00  0.00    -0.045 A 
ATOM      3  C   UNL     1      29.621  15.125 -16.951  1.00  0.00    -0.006 A 
ATOM      4  C   UNL     1      29.255  14.260 -18.006  1.00  0.00     0.118 A 
ATOM      5  C   UNL     1      28.893  12.935 -17.734  1.00  0.00     0.046 A 
ATOM      6  C   UNL     1      28.880  12.462 -16.423  1.00  0.00     0.004 A 
ATOM      7  C   UNL     1      29.219  13.311 -15.370  1.00  0.00     0.004 A 
ATOM      8  C   UNL     1      30.000  16.557 -17.245  1.00  0.00     0.048 C 
ENDROOT
BRANCH   4   9
ATOM      9  O   UNL     1      29.250  14.716 -19.325  1.00  0.00    -0.508 OA
ATOM     10  H   UNL     1      28.510  15.311 -19.680  1.00  0.00     0.293 HD
ENDBRANCH   4   9
TORSDOF 1
ENDMDL
MODEL 3
REMARK VINA RESULT:    -4.302     19.656     21.005
REMARK INTER + INTRA:          -4.428
REMARK INTER:                  -4.428
REMARK INTRA:                   0.000
REMARK UNBOUND:                 0.000
REMARK SMILES Cc1cccc(O)c1C
REMARK SMILES IDX 1 1 2 2 8 3 6 4 5 5 4 6 3 7 9 8 7 9
REMARK H PARENT 7 10
REMARK Flexibility Score: inf
ROOT
ATOM      1  C   UNL     1      29.247  13.387 -18.323  1.00  0.00     0.045 C 
ATOM      2  C   UNL     1      29.169  13.533 -16.826  1.00  0.00    -0.045 A 
ATOM      3  C   UNL     1      29.552  14.736 -16.178  1.00  0.00    -0.006 A 
ATOM      4  C   UNL     1      29.480  14.814 -14.769  1.00  0.00     0.118 A 
ATOM      5  C   UNL     1      28.997  13.728 -14.029  1.00  0.00     0.046 A 
ATOM      6  C   UNL     1      28.593  12.560 -14.673  1.00  0.00     0.004 A 
ATOM      7  C   UNL     1      28.678  12.462 -16.061  1.00  0.00     0.004 A 
ATOM      8  C   UNL     1      30.084  15.904 -16.973  1.00  0.00     0.048 C 
ENDROOT
BRANCH   4   9
ATOM      9  O   UNL     1      29.890  15.971 -14.104  1.00  0.00    -0.508 OA
ATOM     10  H   UNL     1      29.988  16.856 -14.586  1.00  0.00     0.293 HD
ENDBRANCH   4   9
TORSDOF 1
ENDMDL
MODEL 4
REMARK VINA RESULT:    -4.229      0.921      2.614
REMARK INTER + INTRA:          -4.352
REMARK INTER:                  -4.352
REMARK INTRA:                   0.000
REMARK UNBOUND:                 0.000
REMARK SMILES Cc1cccc(O)c1C
REMARK SMILES IDX 1 1 2 2 8 3 6 4 5 5 4 6 3 7 9 8 7 9
REMARK H PARENT 7 10
REMARK Flexibility Score: inf
ROOT
ATOM      1  C   UNL     1      15.749  -0.640 -15.650  1.00  0.00     0.045 C 
ATOM      2  C   UNL     1      14.727  -0.572 -14.546  1.00  0.00    -0.045 A 
ATOM      3  C   UNL     1      15.089  -0.211 -13.222  1.00  0.00    -0.006 A 
ATOM      4  C   UNL     1      14.096  -0.183 -12.218  1.00  0.00     0.118 A 
ATOM      5  C   UNL     1      12.763  -0.469 -12.540  1.00  0.00     0.046 A 
ATOM      6  C   UNL     1      12.408  -0.793 -13.848  1.00  0.00     0.004 A 
ATOM      7  C   UNL     1      13.381  -0.844 -14.845  1.00  0.00     0.004 A 
ATOM      8  C   UNL     1      16.527   0.087 -12.871  1.00  0.00     0.048 C 
ENDROOT
BRANCH   4   9
ATOM      9  O   UNL     1      14.433   0.128 -10.900  1.00  0.00    -0.508 OA
ATOM     10  H   UNL     1      13.728   0.220 -10.178  1.00  0.00     0.293 HD
ENDBRANCH   4   9
TORSDOF 1
ENDMDL
MODEL 5
REMARK VINA RESULT:    -4.210     20.450     21.868
REMARK INTER + INTRA:          -4.333
REMARK INTER:                  -4.333
REMARK INTRA:                   0.000
REMARK UNBOUND:                 0.000
REMARK SMILES Cc1cccc(O)c1C
REMARK SMILES IDX 1 1 2 2 8 3 6 4 5 5 4 6 3 7 9 8 7 9
REMARK H PARENT 7 10
REMARK Flexibility Score: inf
ROOT
ATOM      1  C   UNL     1      29.449  13.449 -14.081  1.00  0.00     0.045 C 
ATOM      2  C   UNL     1      29.619  14.449 -15.195  1.00  0.00    -0.045 A 
ATOM      3  C   UNL     1      29.293  14.125 -16.538  1.00  0.00    -0.006 A 
ATOM      4  C   UNL     1      29.491  15.091 -17.549  1.00  0.00     0.118 A 
ATOM      5  C   UNL     1      29.966  16.367 -17.218  1.00  0.00     0.046 A 
ATOM      6  C   UNL     1      30.256  16.690 -15.894  1.00  0.00     0.004 A 
ATOM      7  C   UNL     1      30.084  15.739 -14.889  1.00  0.00     0.004 A 
ATOM      8  C   UNL     1      28.791  12.747 -16.898  1.00  0.00     0.048 C 
ENDROOT
BRANCH   4   9
ATOM      9  O   UNL     1      29.217  14.785 -18.883  1.00  0.00    -0.508 OA
ATOM     10  H   UNL     1      28.349  14.342 -19.160  1.00  0.00     0.293 HD
ENDBRANCH   4   9
TORSDOF 1
ENDMDL
MODEL 6
REMARK VINA RESULT:    -4.146     19.723     21.104
REMARK INTER + INTRA:          -4.267
REMARK INTER:                  -4.267
REMARK INTRA:                   0.000
REMARK UNBOUND:                 0.000
REMARK SMILES Cc1cccc(O)c1C
REMARK SMILES IDX 1 1 2 2 8 3 6 4 5 5 4 6 3 7 9 8 7 9
REMARK H PARENT 7 10
REMARK Flexibility Score: inf
ROOT
ATOM      1  C   UNL     1      28.794  11.466 -15.817  1.00  0.00     0.045 C 
ATOM      2  C   UNL     1      29.171  12.898 -16.095  1.00  0.00    -0.045 A 
ATOM      3  C   UNL     1      29.659  13.748 -15.070  1.00  0.00    -0.006 A 
ATOM      4  C   UNL     1      29.979  15.089 -15.379  1.00  0.00     0.118 A 
ATOM      5  C   UNL     1      29.852  15.556 -16.693  1.00  0.00     0.046 A 
ATOM      6  C   UNL     1      29.402  14.708 -17.702  1.00  0.00     0.004 A 
ATOM      7  C   UNL     1      29.063  13.388 -17.407  1.00  0.00     0.004 A 
ATOM      8  C   UNL     1      29.786  13.249 -13.650  1.00  0.00     0.048 C 
ENDROOT
BRANCH   4   9
ATOM      9  O   UNL     1      30.422  15.958 -14.380  1.00  0.00    -0.508 OA
ATOM     10  H   UNL     1      30.849  15.616 -13.528  1.00  0.00     0.293 HD
ENDBRANCH   4   9
TORSDOF 1
ENDMDL
MODEL 7
REMARK VINA RESULT:    -4.141     19.337     20.206
REMARK INTER + INTRA:          -4.262
REMARK INTER:                  -4.262
REMARK INTRA:                   0.000
REMARK UNBOUND:                 0.000
REMARK SMILES Cc1cccc(O)c1C
REMARK SMILES IDX 1 1 2 2 8 3 6 4 5 5 4 6 3 7 9 8 7 9
REMARK H PARENT 7 10
REMARK Flexibility Score: inf
ROOT
ATOM      1  C   UNL     1      30.479   9.421 -16.481  1.00  0.00     0.045 C 
ATOM      2  C   UNL     1      29.899  10.806 -16.600  1.00  0.00    -0.045 A 
ATOM      3  C   UNL     1      30.102  11.597 -17.761  1.00  0.00    -0.006 A 
ATOM      4  C   UNL     1      29.554  12.898 -17.813  1.00  0.00     0.118 A 
ATOM      5  C   UNL     1      28.786  13.381 -16.746  1.00  0.00     0.046 A 
ATOM      6  C   UNL     1      28.564  12.588 -15.622  1.00  0.00     0.004 A 
ATOM      7  C   UNL     1      29.116  11.310 -15.548  1.00  0.00     0.004 A 
ATOM      8  C   UNL     1      30.939  11.083 -18.907  1.00  0.00     0.048 C 
ENDROOT
BRANCH   4   9
ATOM      9  O   UNL     1      29.774  13.713 -18.925  1.00  0.00    -0.508 OA
ATOM     10  H   UNL     1      30.668  14.159 -19.090  1.00  0.00     0.293 HD
ENDBRANCH   4   9
TORSDOF 1
ENDMDL
MODEL 8
REMARK VINA RESULT:    -4.054      8.763      9.200
REMARK INTER + INTRA:          -4.172
REMARK INTER:                  -4.172
REMARK INTRA:                   0.000
REMARK UNBOUND:                 0.000
REMARK SMILES Cc1cccc(O)c1C
REMARK SMILES IDX 1 1 2 2 8 3 6 4 5 5 4 6 3 7 9 8 7 9
REMARK H PARENT 7 10
REMARK Flexibility Score: inf
ROOT
ATOM      1  C   UNL     1      10.896   6.484 -14.109  1.00  0.00     0.045 C 
ATOM      2  C   UNL     1      11.394   7.191 -15.342  1.00  0.00    -0.045 A 
ATOM      3  C   UNL     1      11.824   6.471 -16.487  1.00  0.00    -0.006 A 
ATOM      4  C   UNL     1      12.302   7.181 -17.610  1.00  0.00     0.118 A 
ATOM      5  C   UNL     1      12.310   8.582 -17.605  1.00  0.00     0.046 A 
ATOM      6  C   UNL     1      11.858   9.285 -16.490  1.00  0.00     0.004 A 
ATOM      7  C   UNL     1      11.402   8.596 -15.366  1.00  0.00     0.004 A 
ATOM      8  C   UNL     1      11.826   4.961 -16.490  1.00  0.00     0.048 C 
ENDROOT
BRANCH   4   9
ATOM      9  O   UNL     1      12.770   6.496 -18.733  1.00  0.00    -0.508 OA
ATOM     10  H   UNL     1      12.137   6.105 -19.421  1.00  0.00     0.293 HD
ENDBRANCH   4   9
TORSDOF 1
ENDMDL
MODEL 9
REMARK VINA RESULT:    -3.964     19.036     20.158
REMARK INTER + INTRA:          -4.080
REMARK INTER:                  -4.080
REMARK INTRA:                   0.000
REMARK UNBOUND:                 0.000
REMARK SMILES Cc1cccc(O)c1C
REMARK SMILES IDX 1 1 2 2 8 3 6 4 5 5 4 6 3 7 9 8 7 9
REMARK H PARENT 7 10
REMARK Flexibility Score: inf
ROOT
ATOM      1  C   UNL     1      29.281  10.647 -14.820  1.00  0.00     0.045 C 
ATOM      2  C   UNL     1      29.761  10.880 -16.229  1.00  0.00    -0.045 A 
ATOM      3  C   UNL     1      29.628  12.145 -16.857  1.00  0.00    -0.006 A 
ATOM      4  C   UNL     1      30.075  12.305 -18.188  1.00  0.00     0.118 A 
ATOM      5  C   UNL     1      30.678  11.235 -18.860  1.00  0.00     0.046 A 
ATOM      6  C   UNL     1      30.834  10.004 -18.227  1.00  0.00     0.004 A 
ATOM      7  C   UNL     1      30.379   9.825 -16.922  1.00  0.00     0.004 A 
ATOM      8  C   UNL     1      28.967  13.297 -16.138  1.00  0.00     0.048 C 
ENDROOT
BRANCH   4   9
ATOM      9  O   UNL     1      29.918  13.527 -18.844  1.00  0.00    -0.508 OA
ATOM     10  H   UNL     1      30.613  13.876 -19.493  1.00  0.00     0.293 HD
ENDBRANCH   4   9
TORSDOF 1
ENDMDL
