MODEL 1
REMARK VINA RESULT:    -5.185      0.000      0.000
REMARK INTER + INTRA:          -9.696
REMARK INTER:                  -7.913
REMARK INTRA:                  -1.783
REMARK UNBOUND:                -1.783
REMARK SMILES OC[C@H]1O[C@@H](O[C@]2(CO)O[C@H](CO)[C@@H](O)[C@H]2O)[C@@H](O)[C@@H](O)[C@H]1O
REMARK SMILES IDX 6 1 5 2 3 3 22 4 4 5 20 6 18 7 2 8 1 9 23 11 21 13 19 15
REMARK SMILES IDX 7 17 16 18 10 19 14 20 11 21 8 22 9 23 17 25 15 27 12 29
REMARK SMILES IDX 13 30
REMARK H PARENT 1 10 23 12 21 14 19 16 9 24 17 26 15 28 13 31
REMARK Flexibility Score: inf
ROOT
ATOM      1  O   UNL     1      31.596  32.465  22.498  1.00  0.00    -0.313 OA
ENDROOT
BRANCH   1   2
ATOM      2  C   UNL     1      31.194  32.113  23.817  1.00  0.00     0.285 C 
ATOM      3  C   UNL     1      30.380  34.275  24.471  1.00  0.00     0.178 C 
ATOM      4  C   UNL     1      31.569  34.479  25.445  1.00  0.00     0.177 C 
ATOM      5  O   UNL     1      30.082  32.901  24.228  1.00  0.00    -0.341 OA
ATOM      6  C   UNL     1      32.800  33.667  25.026  1.00  0.00     0.179 C 
ATOM      7  C   UNL     1      32.379  32.210  24.799  1.00  0.00     0.202 C 
BRANCH   3   8
ATOM      8  C   UNL     1      30.459  35.112  23.176  1.00  0.00     0.191 C 
BRANCH   8   9
ATOM      9  O   UNL     1      30.227  36.466  23.461  1.00  0.00    -0.394 OA
ATOM     10  H   UNL     1      31.010  36.795  23.971  1.00  0.00     0.210 HD
ENDBRANCH   8   9
ENDBRANCH   3   8
BRANCH   4  11
ATOM     11  O   UNL     1      31.889  35.843  25.556  1.00  0.00    -0.387 OA
ATOM     12  H   UNL     1      31.361  36.202  26.316  1.00  0.00     0.211 HD
ENDBRANCH   4  11
BRANCH   6  13
ATOM     13  O   UNL     1      33.381  34.216  23.870  1.00  0.00    -0.387 OA
ATOM     14  H   UNL     1      33.981  33.523  23.490  1.00  0.00     0.211 HD
ENDBRANCH   6  13
BRANCH   7  15
ATOM     15  O   UNL     1      33.460  31.453  24.321  1.00  0.00    -0.385 OA
ATOM     16  H   UNL     1      33.087  30.589  24.005  1.00  0.00     0.211 HD
ENDBRANCH   7  15
ENDBRANCH   1   2
BRANCH   1  17
ATOM     17  C   UNL     1      31.450  31.438  21.516  1.00  0.00     0.224 C 
ATOM     18  C   UNL     1      31.076  30.067  22.126  1.00  0.00     0.208 C 
ATOM     19  O   UNL     1      30.360  31.819  20.702  1.00  0.00    -0.337 OA
ATOM     20  C   UNL     1      30.146  29.453  21.103  1.00  0.00     0.180 C 
ATOM     21  C   UNL     1      29.643  30.664  20.313  1.00  0.00     0.179 C 
BRANCH  17  22
ATOM     22  C   UNL     1      32.705  31.375  20.604  1.00  0.00     0.225 C 
BRANCH  22  23
ATOM     23  O   UNL     1      33.877  31.467  21.371  1.00  0.00    -0.391 OA
ATOM     24  H   UNL     1      33.771  30.842  22.134  1.00  0.00     0.210 HD
ENDBRANCH  22  23
ENDBRANCH  17  22
BRANCH  18  25
ATOM     25  O   UNL     1      32.199  29.254  22.369  1.00  0.00    -0.385 OA
ATOM     26  H   UNL     1      32.489  29.447  23.297  1.00  0.00     0.211 HD
ENDBRANCH  18  25
BRANCH  20  27
ATOM     27  O   UNL     1      30.836  28.582  20.239  1.00  0.00    -0.387 OA
ATOM     28  H   UNL     1      31.627  28.247  20.737  1.00  0.00     0.211 HD
ENDBRANCH  20  27
BRANCH  21  29
ATOM     29  C   UNL     1      28.142  30.900  20.535  1.00  0.00     0.191 C 
BRANCH  29  30
ATOM     30  O   UNL     1      27.932  31.721  21.653  1.00  0.00    -0.394 OA
ATOM     31  H   UNL     1      27.144  31.354  22.131  1.00  0.00     0.210 HD
ENDBRANCH  29  30
ENDBRANCH  21  29
ENDBRANCH   1  17
TORSDOF 13
ENDMDL
MODEL 2
REMARK VINA RESULT:    -5.136      1.485      5.601
REMARK INTER + INTRA:          -9.621
REMARK INTER:                  -7.923
REMARK INTRA:                  -1.698
REMARK UNBOUND:                -1.783
REMARK SMILES OC[C@H]1O[C@@H](O[C@]2(CO)O[C@H](CO)[C@@H](O)[C@H]2O)[C@@H](O)[C@@H](O)[C@H]1O
REMARK SMILES IDX 6 1 5 2 3 3 22 4 4 5 20 6 18 7 2 8 1 9 23 11 21 13 19 15
REMARK SMILES IDX 7 17 16 18 10 19 14 20 11 21 8 22 9 23 17 25 15 27 12 29
REMARK SMILES IDX 13 30
REMARK H PARENT 1 10 23 12 21 14 19 16 9 24 17 26 15 28 13 31
REMARK Flexibility Score: inf
ROOT
ATOM      1  O   UNL     1      31.372  30.798  22.175  1.00  0.00    -0.313 OA
ENDROOT
BRANCH   1   2
ATOM      2  C   UNL     1      31.295  31.291  20.842  1.00  0.00     0.285 C 
ATOM      3  C   UNL     1      29.544  29.832  20.084  1.00  0.00     0.178 C 
ATOM      4  C   UNL     1      30.529  29.043  19.184  1.00  0.00     0.177 C 
ATOM      5  O   UNL     1      29.967  31.171  20.341  1.00  0.00    -0.341 OA
ATOM      6  C   UNL     1      31.969  29.123  19.701  1.00  0.00     0.179 C 
ATOM      7  C   UNL     1      32.330  30.595  19.936  1.00  0.00     0.202 C 
BRANCH   3   8
ATOM      8  C   UNL     1      29.100  29.085  21.361  1.00  0.00     0.191 C 
BRANCH   8   9
ATOM      9  O   UNL     1      28.296  27.987  21.023  1.00  0.00    -0.394 OA
ATOM     10  H   UNL     1      28.821  27.423  20.400  1.00  0.00     0.210 HD
ENDBRANCH   8   9
ENDBRANCH   3   8
BRANCH   4  11
ATOM     11  O   UNL     1      30.121  27.703  19.061  1.00  0.00    -0.387 OA
ATOM     12  H   UNL     1      29.142  27.683  19.230  1.00  0.00     0.211 HD
ENDBRANCH   4  11
BRANCH   6  13
ATOM     13  O   UNL     1      32.113  28.369  20.878  1.00  0.00    -0.387 OA
ATOM     14  H   UNL     1      32.967  28.649  21.300  1.00  0.00     0.211 HD
ENDBRANCH   6  13
BRANCH   7  15
ATOM     15  O   UNL     1      33.610  30.706  20.500  1.00  0.00    -0.385 OA
ATOM     16  H   UNL     1      33.774  31.673  20.653  1.00  0.00     0.211 HD
ENDBRANCH   7  15
ENDBRANCH   1   2
BRANCH   1  17
ATOM     17  C   UNL     1      31.734  31.762  23.165  1.00  0.00     0.224 C 
ATOM     18  C   UNL     1      32.215  33.102  22.559  1.00  0.00     0.208 C 
ATOM     19  O   UNL     1      30.554  32.055  23.884  1.00  0.00    -0.337 OA
ATOM     20  C   UNL     1      31.694  34.146  23.522  1.00  0.00     0.180 C 
ATOM     21  C   UNL     1      30.554  33.422  24.243  1.00  0.00     0.179 C 
BRANCH  17  22
ATOM     22  C   UNL     1      32.748  31.153  24.172  1.00  0.00     0.225 C 
BRANCH  22  23
ATOM     23  O   UNL     1      33.742  30.431  23.494  1.00  0.00    -0.391 OA
ATOM     24  H   UNL     1      33.903  29.604  24.019  1.00  0.00     0.210 HD
ENDBRANCH  22  23
ENDBRANCH  17  22
BRANCH  18  25
ATOM     25  O   UNL     1      33.614  33.166  22.421  1.00  0.00    -0.385 OA
ATOM     26  H   UNL     1      33.984  32.420  22.959  1.00  0.00     0.211 HD
ENDBRANCH  18  25
BRANCH  20  27
ATOM     27  O   UNL     1      32.678  34.520  24.455  1.00  0.00    -0.387 OA
ATOM     28  H   UNL     1      33.247  35.206  24.017  1.00  0.00     0.211 HD
ENDBRANCH  20  27
BRANCH  21  29
ATOM     29  C   UNL     1      29.189  34.036  23.902  1.00  0.00     0.191 C 
BRANCH  29  30
ATOM     30  O   UNL     1      29.335  35.370  23.496  1.00  0.00    -0.394 OA
ATOM     31  H   UNL     1      30.187  35.694  23.888  1.00  0.00     0.210 HD
ENDBRANCH  29  30
ENDBRANCH  21  29
ENDBRANCH   1  17
TORSDOF 13
ENDMDL
MODEL 3
REMARK VINA RESULT:    -5.092      1.301      2.735
REMARK INTER + INTRA:          -9.554
REMARK INTER:                  -8.041
REMARK INTRA:                  -1.513
REMARK UNBOUND:                -1.783
REMARK SMILES OC[C@H]1O[C@@H](O[C@]2(CO)O[C@H](CO)[C@@H](O)[C@H]2O)[C@@H](O)[C@@H](O)[C@H]1O
REMARK SMILES IDX 6 1 5 2 3 3 22 4 4 5 20 6 18 7 2 8 1 9 23 11 21 13 19 15
REMARK SMILES IDX 7 17 16 18 10 19 14 20 11 21 8 22 9 23 17 25 15 27 12 29
REMARK SMILES IDX 13 30
REMARK H PARENT 1 10 23 12 21 14 19 16 9 24 17 26 15 28 13 31
REMARK Flexibility Score: inf
ROOT
ATOM      1  O   UNL     1      31.458  32.259  23.208  1.00  0.00    -0.313 OA
ENDROOT
BRANCH   1   2
ATOM      2  C   UNL     1      31.254  32.213  24.616  1.00  0.00     0.285 C 
ATOM      3  C   UNL     1      30.489  34.473  24.883  1.00  0.00     0.178 C 
ATOM      4  C   UNL     1      31.798  34.879  25.608  1.00  0.00     0.177 C 
ATOM      5  O   UNL     1      30.192  33.082  24.996  1.00  0.00    -0.341 OA
ATOM      6  C   UNL     1      32.977  33.985  25.208  1.00  0.00     0.179 C 
ATOM      7  C   UNL     1      32.563  32.517  25.372  1.00  0.00     0.202 C 
BRANCH   3   8
ATOM      8  C   UNL     1      30.365  34.999  23.436  1.00  0.00     0.191 C 
BRANCH   8   9
ATOM      9  O   UNL     1      30.195  36.392  23.442  1.00  0.00    -0.394 OA
ATOM     10  H   UNL     1      31.098  36.795  23.365  1.00  0.00     0.210 HD
ENDBRANCH   8   9
ENDBRANCH   3   8
BRANCH   4  11
ATOM     11  O   UNL     1      32.097  36.231  25.366  1.00  0.00    -0.387 OA
ATOM     12  H   UNL     1      31.818  36.737  26.173  1.00  0.00     0.211 HD
ENDBRANCH   4  11
BRANCH   6  13
ATOM     13  O   UNL     1      33.376  34.257  23.888  1.00  0.00    -0.387 OA
ATOM     14  H   UNL     1      34.029  35.003  23.930  1.00  0.00     0.211 HD
ENDBRANCH   6  13
BRANCH   7  15
ATOM     15  O   UNL     1      33.583  31.664  24.926  1.00  0.00    -0.385 OA
ATOM     16  H   UNL     1      34.180  31.499  25.702  1.00  0.00     0.211 HD
ENDBRANCH   7  15
ENDBRANCH   1   2
BRANCH   1  17
ATOM     17  C   UNL     1      31.234  31.030  22.515  1.00  0.00     0.224 C 
ATOM     18  C   UNL     1      32.277  30.762  21.405  1.00  0.00     0.208 C 
ATOM     19  O   UNL     1      31.400  30.001  23.469  1.00  0.00    -0.337 OA
ATOM     20  C   UNL     1      32.476  29.263  21.443  1.00  0.00     0.180 C 
ATOM     21  C   UNL     1      31.998  28.881  22.847  1.00  0.00     0.179 C 
BRANCH  17  22
ATOM     22  C   UNL     1      29.770  30.952  22.005  1.00  0.00     0.225 C 
BRANCH  22  23
ATOM     23  O   UNL     1      29.082  32.140  22.297  1.00  0.00    -0.391 OA
ATOM     24  H   UNL     1      28.611  31.995  23.158  1.00  0.00     0.210 HD
ENDBRANCH  22  23
ENDBRANCH  17  22
BRANCH  18  25
ATOM     25  O   UNL     1      31.848  31.202  20.139  1.00  0.00    -0.385 OA
ATOM     26  H   UNL     1      32.327  30.647  19.471  1.00  0.00     0.211 HD
ENDBRANCH  18  25
BRANCH  20  27
ATOM     27  O   UNL     1      31.677  28.614  20.483  1.00  0.00    -0.387 OA
ATOM     28  H   UNL     1      30.780  28.490  20.889  1.00  0.00     0.211 HD
ENDBRANCH  20  27
BRANCH  21  29
ATOM     29  C   UNL     1      33.156  28.375  23.719  1.00  0.00     0.191 C 
BRANCH  29  30
ATOM     30  O   UNL     1      33.089  28.937  25.002  1.00  0.00    -0.394 OA
ATOM     31  H   UNL     1      33.994  29.291  25.204  1.00  0.00     0.210 HD
ENDBRANCH  29  30
ENDBRANCH  21  29
ENDBRANCH   1  17
TORSDOF 13
ENDMDL
MODEL 4
REMARK VINA RESULT:    -4.961      2.658      6.753
REMARK INTER + INTRA:          -9.355
REMARK INTER:                  -7.689
REMARK INTRA:                  -1.666
REMARK UNBOUND:                -1.783
REMARK SMILES OC[C@H]1O[C@@H](O[C@]2(CO)O[C@H](CO)[C@@H](O)[C@H]2O)[C@@H](O)[C@@H](O)[C@H]1O
REMARK SMILES IDX 6 1 5 2 3 3 22 4 4 5 20 6 18 7 2 8 1 9 23 11 21 13 19 15
REMARK SMILES IDX 7 17 16 18 10 19 14 20 11 21 8 22 9 23 17 25 15 27 12 29
REMARK SMILES IDX 13 30
REMARK H PARENT 1 10 23 12 21 14 19 16 9 24 17 26 15 28 13 31
REMARK Flexibility Score: inf
ROOT
ATOM      1  O   UNL     1      31.187  29.247  19.855  1.00  0.00    -0.313 OA
ENDROOT
BRANCH   1   2
ATOM      2  C   UNL     1      31.259  29.875  18.579  1.00  0.00     0.285 C 
ATOM      3  C   UNL     1      30.972  27.895  17.252  1.00  0.00     0.178 C 
ATOM      4  C   UNL     1      32.449  27.941  16.782  1.00  0.00     0.177 C 
ATOM      5  O   UNL     1      30.462  29.173  17.631  1.00  0.00    -0.341 OA
ATOM      6  C   UNL     1      33.349  28.667  17.787  1.00  0.00     0.179 C 
ATOM      7  C   UNL     1      32.723  30.027  18.122  1.00  0.00     0.202 C 
BRANCH   3   8
ATOM      8  C   UNL     1      30.662  26.792  18.288  1.00  0.00     0.191 C 
BRANCH   8   9
ATOM      9  O   UNL     1      29.406  27.016  18.871  1.00  0.00    -0.394 OA
ATOM     10  H   UNL     1      29.521  27.742  19.538  1.00  0.00     0.210 HD
ENDBRANCH   8   9
ENDBRANCH   3   8
BRANCH   4  11
ATOM     11  O   UNL     1      32.929  26.644  16.533  1.00  0.00    -0.387 OA
ATOM     12  H   UNL     1      32.399  26.280  15.776  1.00  0.00     0.211 HD
ENDBRANCH   4  11
BRANCH   6  13
ATOM     13  O   UNL     1      33.523  27.889  18.944  1.00  0.00    -0.387 OA
ATOM     14  H   UNL     1      34.318  27.314  18.791  1.00  0.00     0.211 HD
ENDBRANCH   6  13
BRANCH   7  15
ATOM     15  O   UNL     1      33.469  30.684  19.113  1.00  0.00    -0.385 OA
ATOM     16  H   UNL     1      33.528  30.064  19.886  1.00  0.00     0.211 HD
ENDBRANCH   7  15
ENDBRANCH   1   2
BRANCH   1  17
ATOM     17  C   UNL     1      30.665  30.056  20.909  1.00  0.00     0.224 C 
ATOM     18  C   UNL     1      31.467  29.928  22.226  1.00  0.00     0.208 C 
ATOM     19  O   UNL     1      30.809  31.397  20.488  1.00  0.00    -0.337 OA
ATOM     20  C   UNL     1      31.427  31.320  22.816  1.00  0.00     0.180 C 
ATOM     21  C   UNL     1      31.116  32.206  21.606  1.00  0.00     0.179 C 
BRANCH  17  22
ATOM     22  C   UNL     1      29.146  29.793  21.096  1.00  0.00     0.225 C 
BRANCH  22  23
ATOM     23  O   UNL     1      28.897  28.419  21.236  1.00  0.00    -0.391 OA
ATOM     24  H   UNL     1      29.317  27.971  20.457  1.00  0.00     0.210 HD
ENDBRANCH  22  23
ENDBRANCH  17  22
BRANCH  18  25
ATOM     25  O   UNL     1      30.925  28.970  23.102  1.00  0.00    -0.385 OA
ATOM     26  H   UNL     1      30.026  28.744  22.750  1.00  0.00     0.211 HD
ENDBRANCH  18  25
BRANCH  20  27
ATOM     27  O   UNL     1      30.397  31.445  23.767  1.00  0.00    -0.387 OA
ATOM     28  H   UNL     1      29.805  32.179  23.457  1.00  0.00     0.211 HD
ENDBRANCH  20  27
BRANCH  21  29
ATOM     29  C   UNL     1      32.298  33.122  21.259  1.00  0.00     0.191 C 
BRANCH  29  30
ATOM     30  O   UNL     1      32.343  34.221  22.129  1.00  0.00    -0.394 OA
ATOM     31  H   UNL     1      31.958  33.916  22.991  1.00  0.00     0.210 HD
ENDBRANCH  29  30
ENDBRANCH  21  29
ENDBRANCH   1  17
TORSDOF 13
ENDMDL
MODEL 5
REMARK VINA RESULT:    -4.953      1.979      6.002
REMARK INTER + INTRA:          -9.343
REMARK INTER:                  -7.645
REMARK INTRA:                  -1.698
REMARK UNBOUND:                -1.783
REMARK SMILES OC[C@H]1O[C@@H](O[C@]2(CO)O[C@H](CO)[C@@H](O)[C@H]2O)[C@@H](O)[C@@H](O)[C@H]1O
REMARK SMILES IDX 6 1 5 2 3 3 22 4 4 5 20 6 18 7 2 8 1 9 23 11 21 13 19 15
REMARK SMILES IDX 7 17 16 18 10 19 14 20 11 21 8 22 9 23 17 25 15 27 12 29
REMARK SMILES IDX 13 30
REMARK H PARENT 1 10 23 12 21 14 19 16 9 24 17 26 15 28 13 31
REMARK Flexibility Score: inf
ROOT
ATOM      1  O   UNL     1      31.314  31.071  21.456  1.00  0.00    -0.313 OA
ENDROOT
BRANCH   1   2
ATOM      2  C   UNL     1      31.138  31.230  20.053  1.00  0.00     0.285 C 
ATOM      3  C   UNL     1      29.406  29.590  19.780  1.00  0.00     0.178 C 
ATOM      4  C   UNL     1      30.367  28.633  19.027  1.00  0.00     0.177 C 
ATOM      5  O   UNL     1      29.789  30.961  19.685  1.00  0.00    -0.341 OA
ATOM      6  C   UNL     1      31.831  28.870  19.412  1.00  0.00     0.179 C 
ATOM      7  C   UNL     1      32.146  30.365  19.269  1.00  0.00     0.202 C 
BRANCH   3   8
ATOM      8  C   UNL     1      29.069  29.157  21.224  1.00  0.00     0.191 C 
BRANCH   8   9
ATOM      9  O   UNL     1      28.282  27.996  21.209  1.00  0.00    -0.394 OA
ATOM     10  H   UNL     1      27.626  28.099  20.472  1.00  0.00     0.210 HD
ENDBRANCH   8   9
ENDBRANCH   3   8
BRANCH   4  11
ATOM     11  O   UNL     1      30.007  27.294  19.251  1.00  0.00    -0.387 OA
ATOM     12  H   UNL     1      29.299  27.298  19.947  1.00  0.00     0.211 HD
ENDBRANCH   4  11
BRANCH   6  13
ATOM     13  O   UNL     1      32.075  28.422  20.722  1.00  0.00    -0.387 OA
ATOM     14  H   UNL     1      32.932  27.922  20.703  1.00  0.00     0.211 HD
ENDBRANCH   6  13
BRANCH   7  15
ATOM     15  O   UNL     1      33.451  30.639  19.705  1.00  0.00    -0.385 OA
ATOM     16  H   UNL     1      33.584  30.137  20.550  1.00  0.00     0.211 HD
ENDBRANCH   7  15
ENDBRANCH   1   2
BRANCH   1  17
ATOM     17  C   UNL     1      31.722  32.245  22.161  1.00  0.00     0.224 C 
ATOM     18  C   UNL     1      32.755  31.955  23.274  1.00  0.00     0.208 C 
ATOM     19  O   UNL     1      32.379  33.066  21.217  1.00  0.00    -0.337 OA
ATOM     20  C   UNL     1      33.668  33.161  23.250  1.00  0.00     0.180 C 
ATOM     21  C   UNL     1      33.448  33.740  21.850  1.00  0.00     0.179 C 
BRANCH  17  22
ATOM     22  C   UNL     1      30.484  33.030  22.671  1.00  0.00     0.225 C 
BRANCH  22  23
ATOM     23  O   UNL     1      29.494  32.147  23.130  1.00  0.00    -0.391 OA
ATOM     24  H   UNL     1      28.987  31.846  22.332  1.00  0.00     0.210 HD
ENDBRANCH  22  23
ENDBRANCH  17  22
BRANCH  18  25
ATOM     25  O   UNL     1      32.159  31.773  24.536  1.00  0.00    -0.385 OA
ATOM     26  H   UNL     1      32.531  30.930  24.904  1.00  0.00     0.211 HD
ENDBRANCH  18  25
BRANCH  20  27
ATOM     27  O   UNL     1      33.288  34.112  24.216  1.00  0.00    -0.387 OA
ATOM     28  H   UNL     1      32.332  33.945  24.425  1.00  0.00     0.211 HD
ENDBRANCH  20  27
BRANCH  21  29
ATOM     29  C   UNL     1      34.709  33.617  20.983  1.00  0.00     0.191 C 
BRANCH  29  30
ATOM     30  O   UNL     1      34.368  33.515  19.627  1.00  0.00    -0.394 OA
ATOM     31  H   UNL     1      35.205  33.306  19.138  1.00  0.00     0.210 HD
ENDBRANCH  29  30
ENDBRANCH  21  29
ENDBRANCH   1  17
TORSDOF 13
ENDMDL
MODEL 6
REMARK VINA RESULT:    -4.900      1.948      3.602
REMARK INTER + INTRA:          -9.261
REMARK INTER:                  -7.607
REMARK INTRA:                  -1.654
REMARK UNBOUND:                -1.783
REMARK SMILES OC[C@H]1O[C@@H](O[C@]2(CO)O[C@H](CO)[C@@H](O)[C@H]2O)[C@@H](O)[C@@H](O)[C@H]1O
REMARK SMILES IDX 6 1 5 2 3 3 22 4 4 5 20 6 18 7 2 8 1 9 23 11 21 13 19 15
REMARK SMILES IDX 7 17 16 18 10 19 14 20 11 21 8 22 9 23 17 25 15 27 12 29
REMARK SMILES IDX 13 30
REMARK H PARENT 1 10 23 12 21 14 19 16 9 24 17 26 15 28 13 31
REMARK Flexibility Score: inf
ROOT
ATOM      1  O   UNL     1      32.270  33.864  24.873  1.00  0.00    -0.313 OA
ENDROOT
BRANCH   1   2
ATOM      2  C   UNL     1      31.938  33.312  26.142  1.00  0.00     0.285 C 
ATOM      3  C   UNL     1      32.528  35.225  27.467  1.00  0.00     0.178 C 
ATOM      4  C   UNL     1      33.765  34.497  28.052  1.00  0.00     0.177 C 
ATOM      5  O   UNL     1      31.502  34.333  27.034  1.00  0.00    -0.341 OA
ATOM      6  C   UNL     1      34.285  33.404  27.112  1.00  0.00     0.179 C 
ATOM      7  C   UNL     1      33.116  32.496  26.713  1.00  0.00     0.202 C 
BRANCH   3   8
ATOM      8  C   UNL     1      32.858  36.316  26.424  1.00  0.00     0.191 C 
BRANCH   8   9
ATOM      9  O   UNL     1      31.698  36.682  25.725  1.00  0.00    -0.394 OA
ATOM     10  H   UNL     1      31.324  37.479  26.180  1.00  0.00     0.210 HD
ENDBRANCH   8   9
ENDBRANCH   3   8
BRANCH   4  11
ATOM     11  O   UNL     1      34.783  35.417  28.354  1.00  0.00    -0.387 OA
ATOM     12  H   UNL     1      35.643  34.985  28.108  1.00  0.00     0.211 HD
ENDBRANCH   4  11
BRANCH   6  13
ATOM     13  O   UNL     1      34.895  33.975  25.982  1.00  0.00    -0.387 OA
ATOM     14  H   UNL     1      35.150  33.228  25.381  1.00  0.00     0.211 HD
ENDBRANCH   6  13
BRANCH   7  15
ATOM     15  O   UNL     1      33.532  31.537  25.776  1.00  0.00    -0.385 OA
ATOM     16  H   UNL     1      34.462  31.770  25.521  1.00  0.00     0.211 HD
ENDBRANCH   7  15
ENDBRANCH   1   2
BRANCH   1  17
ATOM     17  C   UNL     1      31.502  33.377  23.772  1.00  0.00     0.224 C 
ATOM     18  C   UNL     1      32.357  33.102  22.512  1.00  0.00     0.208 C 
ATOM     19  O   UNL     1      30.980  32.127  24.175  1.00  0.00    -0.337 OA
ATOM     20  C   UNL     1      31.714  31.881  21.893  1.00  0.00     0.180 C 
ATOM     21  C   UNL     1      30.950  31.255  23.063  1.00  0.00     0.179 C 
BRANCH  17  22
ATOM     22  C   UNL     1      30.295  34.312  23.494  1.00  0.00     0.225 C 
BRANCH  22  23
ATOM     23  O   UNL     1      30.726  35.637  23.327  1.00  0.00    -0.391 OA
ATOM     24  H   UNL     1      31.601  35.715  23.789  1.00  0.00     0.210 HD
ENDBRANCH  22  23
ENDBRANCH  17  22
BRANCH  18  25
ATOM     25  O   UNL     1      32.379  34.192  21.622  1.00  0.00    -0.385 OA
ATOM     26  H   UNL     1      31.516  34.173  21.133  1.00  0.00     0.211 HD
ENDBRANCH  18  25
BRANCH  20  27
ATOM     27  O   UNL     1      30.808  32.236  20.877  1.00  0.00    -0.387 OA
ATOM     28  H   UNL     1      31.252  32.038  20.011  1.00  0.00     0.211 HD
ENDBRANCH  20  27
BRANCH  21  29
ATOM     29  C   UNL     1      31.546  29.899  23.466  1.00  0.00     0.191 C 
BRANCH  29  30
ATOM     30  O   UNL     1      31.047  28.876  22.646  1.00  0.00    -0.394 OA
ATOM     31  H   UNL     1      30.559  28.250  23.240  1.00  0.00     0.210 HD
ENDBRANCH  29  30
ENDBRANCH  21  29
ENDBRANCH   1  17
TORSDOF 13
ENDMDL
MODEL 7
REMARK VINA RESULT:    -4.867      3.189      5.610
REMARK INTER + INTRA:          -9.212
REMARK INTER:                  -7.503
REMARK INTRA:                  -1.708
REMARK UNBOUND:                -1.783
REMARK SMILES OC[C@H]1O[C@@H](O[C@]2(CO)O[C@H](CO)[C@@H](O)[C@H]2O)[C@@H](O)[C@@H](O)[C@H]1O
REMARK SMILES IDX 6 1 5 2 3 3 22 4 4 5 20 6 18 7 2 8 1 9 23 11 21 13 19 15
REMARK SMILES IDX 7 17 16 18 10 19 14 20 11 21 8 22 9 23 17 25 15 27 12 29
REMARK SMILES IDX 13 30
REMARK H PARENT 1 10 23 12 21 14 19 16 9 24 17 26 15 28 13 31
REMARK Flexibility Score: inf
ROOT
ATOM      1  O   UNL     1      30.974  28.499  19.534  1.00  0.00    -0.313 OA
ENDROOT
BRANCH   1   2
ATOM      2  C   UNL     1      29.864  29.386  19.450  1.00  0.00     0.285 C 
ATOM      3  C   UNL     1      30.970  31.334  20.315  1.00  0.00     0.178 C 
ATOM      4  C   UNL     1      30.156  31.267  21.633  1.00  0.00     0.177 C 
ATOM      5  O   UNL     1      30.306  30.719  19.212  1.00  0.00    -0.341 OA
ATOM      6  C   UNL     1      29.680  29.843  21.943  1.00  0.00     0.179 C 
ATOM      7  C   UNL     1      28.975  29.276  20.705  1.00  0.00     0.202 C 
BRANCH   3   8
ATOM      8  C   UNL     1      32.446  30.898  20.449  1.00  0.00     0.191 C 
BRANCH   8   9
ATOM      9  O   UNL     1      33.019  30.739  19.179  1.00  0.00    -0.394 OA
ATOM     10  H   UNL     1      33.613  31.518  19.029  1.00  0.00     0.210 HD
ENDBRANCH   8   9
ENDBRANCH   3   8
BRANCH   4  11
ATOM     11  O   UNL     1      30.905  31.783  22.704  1.00  0.00    -0.387 OA
ATOM     12  H   UNL     1      31.363  31.014  23.133  1.00  0.00     0.211 HD
ENDBRANCH   4  11
BRANCH   6  13
ATOM     13  O   UNL     1      30.764  29.035  22.327  1.00  0.00    -0.387 OA
ATOM     14  H   UNL     1      31.584  29.587  22.238  1.00  0.00     0.211 HD
ENDBRANCH   6  13
BRANCH   7  15
ATOM     15  O   UNL     1      28.608  27.938  20.915  1.00  0.00    -0.385 OA
ATOM     16  H   UNL     1      29.405  27.385  20.706  1.00  0.00     0.211 HD
ENDBRANCH   7  15
ENDBRANCH   1   2
BRANCH   1  17
ATOM     17  C   UNL     1      31.306  27.816  18.324  1.00  0.00     0.224 C 
ATOM     18  C   UNL     1      30.107  27.061  17.705  1.00  0.00     0.208 C 
ATOM     19  O   UNL     1      31.667  28.815  17.391  1.00  0.00    -0.337 OA
ATOM     20  C   UNL     1      30.310  27.209  16.214  1.00  0.00     0.180 C 
ATOM     21  C   UNL     1      31.227  28.431  16.104  1.00  0.00     0.179 C 
BRANCH  17  22
ATOM     22  C   UNL     1      32.551  26.912  18.534  1.00  0.00     0.225 C 
BRANCH  22  23
ATOM     23  O   UNL     1      32.314  25.978  19.555  1.00  0.00    -0.391 OA
ATOM     24  H   UNL     1      32.604  26.402  20.404  1.00  0.00     0.210 HD
ENDBRANCH  22  23
ENDBRANCH  17  22
BRANCH  18  25
ATOM     25  O   UNL     1      30.055  25.710  18.096  1.00  0.00    -0.385 OA
ATOM     26  H   UNL     1      29.635  25.694  18.995  1.00  0.00     0.211 HD
ENDBRANCH  18  25
BRANCH  20  27
ATOM     27  O   UNL     1      30.959  26.085  15.669  1.00  0.00    -0.387 OA
ATOM     28  H   UNL     1      31.891  26.359  15.468  1.00  0.00     0.211 HD
ENDBRANCH  20  27
BRANCH  21  29
ATOM     29  C   UNL     1      30.512  29.616  15.439  1.00  0.00     0.191 C 
BRANCH  29  30
ATOM     30  O   UNL     1      30.336  30.663  16.354  1.00  0.00    -0.394 OA
ATOM     31  H   UNL     1      29.597  30.391  16.958  1.00  0.00     0.210 HD
ENDBRANCH  29  30
ENDBRANCH  21  29
ENDBRANCH   1  17
TORSDOF 13
ENDMDL
MODEL 8
REMARK VINA RESULT:    -4.802      5.852      9.194
REMARK INTER + INTRA:          -9.112
REMARK INTER:                  -6.876
REMARK INTRA:                  -2.235
REMARK UNBOUND:                -1.783
REMARK SMILES OC[C@H]1O[C@@H](O[C@]2(CO)O[C@H](CO)[C@@H](O)[C@H]2O)[C@@H](O)[C@@H](O)[C@H]1O
REMARK SMILES IDX 6 1 5 2 3 3 22 4 4 5 20 6 18 7 2 8 1 9 23 11 21 13 19 15
REMARK SMILES IDX 7 17 16 18 10 19 14 20 11 21 8 22 9 23 17 25 15 27 12 29
REMARK SMILES IDX 13 30
REMARK H PARENT 1 10 23 12 21 14 19 16 9 24 17 26 15 28 13 31
REMARK Flexibility Score: inf
ROOT
ATOM      1  O   UNL     1      35.374  35.498  28.364  1.00  0.00    -0.313 OA
ENDROOT
BRANCH   1   2
ATOM      2  C   UNL     1      34.441  36.471  28.822  1.00  0.00     0.285 C 
ATOM      3  C   UNL     1      32.486  35.511  27.812  1.00  0.00     0.178 C 
ATOM      4  C   UNL     1      32.395  36.666  26.781  1.00  0.00     0.177 C 
ATOM      5  O   UNL     1      33.159  35.882  29.014  1.00  0.00    -0.341 OA
ATOM      6  C   UNL     1      33.760  37.313  26.523  1.00  0.00     0.179 C 
ATOM      7  C   UNL     1      34.396  37.682  27.869  1.00  0.00     0.202 C 
BRANCH   3   8
ATOM      8  C   UNL     1      32.984  34.169  27.232  1.00  0.00     0.191 C 
BRANCH   8   9
ATOM      9  O   UNL     1      33.346  33.299  28.271  1.00  0.00    -0.394 OA
ATOM     10  H   UNL     1      34.336  33.259  28.285  1.00  0.00     0.210 HD
ENDBRANCH   8   9
ENDBRANCH   3   8
BRANCH   4  11
ATOM     11  O   UNL     1      31.828  36.211  25.578  1.00  0.00    -0.387 OA
ATOM     12  H   UNL     1      32.577  36.063  24.944  1.00  0.00     0.211 HD
ENDBRANCH   4  11
BRANCH   6  13
ATOM     13  O   UNL     1      34.587  36.444  25.791  1.00  0.00    -0.387 OA
ATOM     14  H   UNL     1      34.102  35.582  25.707  1.00  0.00     0.211 HD
ENDBRANCH   6  13
BRANCH   7  15
ATOM     15  O   UNL     1      35.690  38.192  27.681  1.00  0.00    -0.385 OA
ATOM     16  H   UNL     1      36.113  38.239  28.578  1.00  0.00     0.211 HD
ENDBRANCH   7  15
ENDBRANCH   1   2
BRANCH   1  17
ATOM     17  C   UNL     1      36.314  35.042  29.338  1.00  0.00     0.224 C 
ATOM     18  C   UNL     1      36.310  35.895  30.629  1.00  0.00     0.208 C 
ATOM     19  O   UNL     1      35.894  33.748  29.719  1.00  0.00    -0.337 OA
ATOM     20  C   UNL     1      36.564  34.891  31.731  1.00  0.00     0.180 C 
ATOM     21  C   UNL     1      36.156  33.559  31.095  1.00  0.00     0.179 C 
BRANCH  17  22
ATOM     22  C   UNL     1      37.726  34.902  28.708  1.00  0.00     0.225 C 
BRANCH  22  23
ATOM     23  O   UNL     1      38.024  36.019  27.913  1.00  0.00    -0.391 OA
ATOM     24  H   UNL     1      39.012  36.112  27.909  1.00  0.00     0.210 HD
ENDBRANCH  22  23
ENDBRANCH  17  22
BRANCH  18  25
ATOM     25  O   UNL     1      37.281  36.913  30.611  1.00  0.00    -0.385 OA
ATOM     26  H   UNL     1      37.047  37.512  29.856  1.00  0.00     0.211 HD
ENDBRANCH  18  25
BRANCH  20  27
ATOM     27  O   UNL     1      37.926  34.846  32.081  1.00  0.00    -0.387 OA
ATOM     28  H   UNL     1      38.323  34.074  31.601  1.00  0.00     0.211 HD
ENDBRANCH  20  27
BRANCH  21  29
ATOM     29  C   UNL     1      34.911  32.968  31.772  1.00  0.00     0.191 C 
BRANCH  29  30
ATOM     30  O   UNL     1      33.743  33.448  31.162  1.00  0.00    -0.394 OA
ATOM     31  H   UNL     1      33.694  34.417  31.366  1.00  0.00     0.210 HD
ENDBRANCH  29  30
ENDBRANCH  21  29
ENDBRANCH   1  17
TORSDOF 13
ENDMDL
MODEL 9
REMARK VINA RESULT:    -4.707      6.814     10.250
REMARK INTER + INTRA:          -8.967
REMARK INTER:                  -6.768
REMARK INTRA:                  -2.198
REMARK UNBOUND:                -1.783
REMARK SMILES OC[C@H]1O[C@@H](O[C@]2(CO)O[C@H](CO)[C@@H](O)[C@H]2O)[C@@H](O)[C@@H](O)[C@H]1O
REMARK SMILES IDX 6 1 5 2 3 3 22 4 4 5 20 6 18 7 2 8 1 9 23 11 21 13 19 15
REMARK SMILES IDX 7 17 16 18 10 19 14 20 11 21 8 22 9 23 17 25 15 27 12 29
REMARK SMILES IDX 13 30
REMARK H PARENT 1 10 23 12 21 14 19 16 9 24 17 26 15 28 13 31
REMARK Flexibility Score: inf
ROOT
ATOM      1  O   UNL     1      32.232  26.062  15.456  1.00  0.00    -0.313 OA
ENDROOT
BRANCH   1   2
ATOM      2  C   UNL     1      33.588  26.231  15.852  1.00  0.00     0.285 C 
ATOM      3  C   UNL     1      34.335  27.379  13.880  1.00  0.00     0.178 C 
ATOM      4  C   UNL     1      35.164  26.151  13.424  1.00  0.00     0.177 C 
ATOM      5  O   UNL     1      34.127  27.424  15.291  1.00  0.00    -0.341 OA
ATOM      6  C   UNL     1      34.604  24.839  13.984  1.00  0.00     0.179 C 
ATOM      7  C   UNL     1      34.425  24.985  15.501  1.00  0.00     0.202 C 
BRANCH   3   8
ATOM      8  C   UNL     1      33.041  27.617  13.072  1.00  0.00     0.191 C 
BRANCH   8   9
ATOM      9  O   UNL     1      32.290  28.648  13.655  1.00  0.00    -0.394 OA
ATOM     10  H   UNL     1      32.138  28.398  14.603  1.00  0.00     0.210 HD
ENDBRANCH   8   9
ENDBRANCH   3   8
BRANCH   4  11
ATOM     11  O   UNL     1      35.239  26.098  12.021  1.00  0.00    -0.387 OA
ATOM     12  H   UNL     1      34.735  25.291  11.736  1.00  0.00     0.211 HD
ENDBRANCH   4  11
BRANCH   6  13
ATOM     13  O   UNL     1      33.388  24.516  13.357  1.00  0.00    -0.387 OA
ATOM     14  H   UNL     1      33.328  25.070  12.536  1.00  0.00     0.211 HD
ENDBRANCH   6  13
BRANCH   7  15
ATOM     15  O   UNL     1      33.823  23.837  16.040  1.00  0.00    -0.385 OA
ATOM     16  H   UNL     1      33.896  23.912  17.027  1.00  0.00     0.211 HD
ENDBRANCH   7  15
ENDBRANCH   1   2
BRANCH   1  17
ATOM     17  C   UNL     1      31.257  26.537  16.385  1.00  0.00     0.224 C 
ATOM     18  C   UNL     1      31.828  26.753  17.806  1.00  0.00     0.208 C 
ATOM     19  O   UNL     1      30.857  27.812  15.923  1.00  0.00    -0.337 OA
ATOM     20  C   UNL     1      31.093  27.973  18.316  1.00  0.00     0.180 C 
ATOM     21  C   UNL     1      30.608  28.652  17.032  1.00  0.00     0.179 C 
BRANCH  17  22
ATOM     22  C   UNL     1      29.999  25.627  16.368  1.00  0.00     0.225 C 
BRANCH  22  23
ATOM     23  O   UNL     1      30.350  24.297  16.647  1.00  0.00    -0.391 OA
ATOM     24  H   UNL     1      31.311  24.299  16.894  1.00  0.00     0.210 HD
ENDBRANCH  22  23
ENDBRANCH  17  22
BRANCH  18  25
ATOM     25  O   UNL     1      31.639  25.638  18.644  1.00  0.00    -0.385 OA
ATOM     26  H   UNL     1      30.658  25.512  18.726  1.00  0.00     0.211 HD
ENDBRANCH  18  25
BRANCH  20  27
ATOM     27  O   UNL     1      29.984  27.612  19.104  1.00  0.00    -0.387 OA
ATOM     28  H   UNL     1      30.283  26.882  19.706  1.00  0.00     0.211 HD
ENDBRANCH  20  27
BRANCH  21  29
ATOM     29  C   UNL     1      31.304  30.003  16.810  1.00  0.00     0.191 C 
BRANCH  29  30
ATOM     30  O   UNL     1      32.580  29.816  16.259  1.00  0.00    -0.394 OA
ATOM     31  H   UNL     1      32.529  30.121  15.317  1.00  0.00     0.210 HD
ENDBRANCH  29  30
ENDBRANCH  21  29
ENDBRANCH   1  17
TORSDOF 13
ENDMDL
