MODEL 1
REMARK VINA RESULT:    -2.762      0.000      0.000
REMARK INTER + INTRA:          -3.091
REMARK INTER:                  -2.924
REMARK INTRA:                  -0.168
REMARK UNBOUND:                -0.168
REMARK SMILES CC1=CC=C(C(C)C)CC1
REMARK SMILES IDX 1 1 2 2 3 3 4 4 5 5 9 6 10 7 6 8 7 9 8 10
REMARK H PARENT
REMARK Flexibility Score: inf
ROOT
ATOM      1  C   UNL     1     134.894 141.019 163.535  1.00  0.00     0.039 C 
ATOM      2  C   UNL     1     135.339 139.670 163.054  1.00  0.00    -0.073 C 
ATOM      3  C   UNL     1     134.875 139.187 161.891  1.00  0.00    -0.001 C 
ATOM      4  C   UNL     1     135.301 137.863 161.398  1.00  0.00    -0.001 C 
ATOM      5  C   UNL     1     136.331 137.212 161.968  1.00  0.00    -0.067 C 
ATOM      6  C   UNL     1     137.129 137.908 163.054  1.00  0.00     0.035 C 
ATOM      7  C   UNL     1     136.232 138.807 163.917  1.00  0.00     0.035 C 
ENDROOT
BRANCH   5   8
ATOM      8  C   UNL     1     136.712 135.821 161.491  1.00  0.00     0.009 C 
ATOM      9  C   UNL     1     137.847 135.236 162.340  1.00  0.00     0.012 C 
ATOM     10  C   UNL     1     135.492 134.893 161.489  1.00  0.00     0.012 C 
ENDBRANCH   5   8
TORSDOF 1
ENDMDL
MODEL 2
REMARK VINA RESULT:    -2.217      1.186      4.362
REMARK INTER + INTRA:          -2.514
REMARK INTER:                  -2.369
REMARK INTRA:                  -0.144
REMARK UNBOUND:                -0.168
REMARK SMILES CC1=CC=C(C(C)C)CC1
REMARK SMILES IDX 1 1 2 2 3 3 4 4 5 5 9 6 10 7 6 8 7 9 8 10
REMARK H PARENT
REMARK Flexibility Score: inf
ROOT
ATOM      1  C   UNL     1     135.972 134.875 161.390  1.00  0.00     0.039 C 
ATOM      2  C   UNL     1     135.995 136.326 161.774  1.00  0.00    -0.073 C 
ATOM      3  C   UNL     1     134.875 136.919 162.215  1.00  0.00    -0.001 C 
ATOM      4  C   UNL     1     134.877 138.344 162.600  1.00  0.00    -0.001 C 
ATOM      5  C   UNL     1     136.030 139.020 162.746  1.00  0.00    -0.067 C 
ATOM      6  C   UNL     1     137.342 138.268 162.623  1.00  0.00     0.035 C 
ATOM      7  C   UNL     1     137.248 137.148 161.576  1.00  0.00     0.035 C 
ENDROOT
BRANCH   5   8
ATOM      8  C   UNL     1     136.010 140.502 163.077  1.00  0.00     0.009 C 
ATOM      9  C   UNL     1     134.985 141.249 162.215  1.00  0.00     0.012 C 
ATOM     10  C   UNL     1     135.739 140.723 164.569  1.00  0.00     0.012 C 
ENDBRANCH   5   8
TORSDOF 1
ENDMDL
MODEL 3
REMARK VINA RESULT:    -0.367     12.534     14.530
REMARK INTER + INTRA:          -0.556
REMARK INTER:                  -0.390
REMARK INTRA:                  -0.166
REMARK UNBOUND:                -0.168
REMARK SMILES CC1=CC=C(C(C)C)CC1
REMARK SMILES IDX 1 1 2 2 3 3 4 4 5 5 9 6 10 7 6 8 7 9 8 10
REMARK H PARENT
REMARK Flexibility Score: inf
ROOT
ATOM      1  C   UNL     1     147.514 135.483 158.511  1.00  0.00     0.039 C 
ATOM      2  C   UNL     1     148.482 135.376 159.652  1.00  0.00    -0.073 C 
ATOM      3  C   UNL     1     148.047 135.013 160.868  1.00  0.00    -0.001 C 
ATOM      4  C   UNL     1     148.983 134.901 162.003  1.00  0.00    -0.001 C 
ATOM      5  C   UNL     1     150.313 134.925 161.808  1.00  0.00    -0.067 C 
ATOM      6  C   UNL     1     150.847 134.953 160.388  1.00  0.00     0.035 C 
ATOM      7  C   UNL     1     149.930 135.769 159.464  1.00  0.00     0.035 C 
ENDROOT
BRANCH   5   8
ATOM      8  C   UNL     1     151.260 134.876 162.994  1.00  0.00     0.009 C 
ATOM      9  C   UNL     1     152.723 134.881 162.537  1.00  0.00     0.012 C 
ATOM     10  C   UNL     1     150.982 136.033 163.961  1.00  0.00     0.012 C 
ENDBRANCH   5   8
TORSDOF 1
ENDMDL
