MODEL 1
REMARK VINA RESULT:    -8.432      0.000      0.000
REMARK INTER + INTRA:         -16.022
REMARK INTER:                 -13.854
REMARK INTRA:                  -2.169
REMARK UNBOUND:                -2.169
REMARK SMILES C[C@H]1O[C@@H](OC[C@H]2O[C@@H](Oc3c(-c4ccc(O)c(O)c4)oc4cc(O)cc(O)c4c3=O)[C@@H](O)[C@H](O)[C@H]2O)[C@H](O)[C@H](O)[C@@H]1O
REMARK SMILES IDX 7 1 36 2 34 3 32 4 9 5 8 6 6 7 5 8 4 9 1 10 2 11 42 12 3 13
REMARK SMILES IDX 40 14 38 15 43 16 41 18 39 20 37 22 35 24 10 26 11 27 12 28
REMARK SMILES IDX 30 29 21 30 29 31 31 32 22 33 27 34 23 35 26 36 24 37 13 38
REMARK SMILES IDX 20 39 14 40 18 41 15 42 16 43 19 44 17 46 28 48 25 50 33 52
REMARK H PARENT 43 17 41 19 39 21 37 23 35 25 19 45 17 47 28 49 25 51 33 53
REMARK Flexibility Score: inf
ROOT
ATOM      1  C   UNL     1      11.909  44.895   7.904  1.00  0.00     0.180 C 
ATOM      2  C   UNL     1      12.805  45.922   7.155  1.00  0.00     0.177 C 
ATOM      3  C   UNL     1      11.956  47.070   6.545  1.00  0.00     0.180 C 
ATOM      4  C   UNL     1      10.507  46.631   6.242  1.00  0.00     0.214 C 
ATOM      5  C   UNL     1       9.860  45.892   7.456  1.00  0.00     0.339 C 
ATOM      6  O   UNL     1      10.801  45.562   8.467  1.00  0.00    -0.332 OA
ENDROOT
BRANCH   1   7
ATOM      7  C   UNL     1      12.643  44.142   9.020  1.00  0.00     0.198 C 
BRANCH   7   8
ATOM      8  O   UNL     1      13.311  43.011   8.493  1.00  0.00    -0.347 OA
BRANCH   8   9
ATOM      9  C   UNL     1      14.695  43.010   8.815  1.00  0.00     0.281 C 
ATOM     10  C   UNL     1      16.669  44.644   6.704  1.00  0.00     0.041 C 
ATOM     11  C   UNL     1      16.605  44.376   8.217  1.00  0.00     0.150 C 
ATOM     12  C   UNL     1      17.517  43.200   8.676  1.00  0.00     0.174 C 
ATOM     13  O   UNL     1      15.257  44.312   8.662  1.00  0.00    -0.344 OA
ATOM     14  C   UNL     1      16.905  41.794   8.443  1.00  0.00     0.179 C 
ATOM     15  C   UNL     1      15.420  41.865   8.048  1.00  0.00     0.202 C 
BRANCH  12  16
ATOM     16  O   UNL     1      17.894  43.378  10.019  1.00  0.00    -0.388 OA
ATOM     17  H   UNL     1      18.492  42.627  10.270  1.00  0.00     0.211 HD
ENDBRANCH  12  16
BRANCH  14  18
ATOM     18  O   UNL     1      17.064  40.996   9.587  1.00  0.00    -0.387 OA
ATOM     19  H   UNL     1      16.861  41.564  10.377  1.00  0.00     0.211 HD
ENDBRANCH  14  18
BRANCH  15  20
ATOM     20  O   UNL     1      14.802  40.613   8.232  1.00  0.00    -0.385 OA
ATOM     21  H   UNL     1      14.146  40.452   7.501  1.00  0.00     0.211 HD
ENDBRANCH  15  20
ENDBRANCH   8   9
ENDBRANCH   7   8
ENDBRANCH   1   7
BRANCH   2  22
ATOM     22  O   UNL     1      13.755  46.467   8.031  1.00  0.00    -0.387 OA
ATOM     23  H   UNL     1      14.150  47.259   7.577  1.00  0.00     0.211 HD
ENDBRANCH   2  22
BRANCH   3  24
ATOM     24  O   UNL     1      12.554  47.514   5.356  1.00  0.00    -0.387 OA
ATOM     25  H   UNL     1      13.533  47.396   5.456  1.00  0.00     0.211 HD
ENDBRANCH   3  24
BRANCH   5  26
ATOM     26  O   UNL     1       8.785  46.664   8.009  1.00  0.00    -0.454 OA
BRANCH  26  27
ATOM     27  C   UNL     1       7.445  46.258   8.004  1.00  0.00     0.214 A 
ATOM     28  C   UNL     1       6.925  45.512   9.075  1.00  0.00     0.180 A 
ATOM     29  C   UNL     1       6.611  46.539   6.909  1.00  0.00     0.239 A 
ATOM     30  O   UNL     1       5.659  45.113   9.053  1.00  0.00    -0.452 OA
ATOM     31  C   UNL     1       5.270  46.084   6.906  1.00  0.00     0.111 A 
ATOM     32  O   UNL     1       7.090  47.177   5.940  1.00  0.00    -0.285 OA
ATOM     33  C   UNL     1       4.827  45.381   8.054  1.00  0.00     0.146 A 
ATOM     34  C   UNL     1       4.342  46.317   5.849  1.00  0.00     0.134 A 
ATOM     35  C   UNL     1       3.499  44.965   8.159  1.00  0.00     0.094 A 
ATOM     36  C   UNL     1       3.007  45.940   6.005  1.00  0.00     0.093 A 
ATOM     37  C   UNL     1       2.585  45.254   7.146  1.00  0.00     0.123 A 
BRANCH  28  38
ATOM     38  C   UNL     1       7.759  45.154  10.238  1.00  0.00     0.025 A 
ATOM     39  C   UNL     1       7.802  45.987  11.366  1.00  0.00     0.062 A 
ATOM     40  C   UNL     1       8.489  43.953  10.233  1.00  0.00     0.016 A 
ATOM     41  C   UNL     1       8.590  45.644  12.470  1.00  0.00     0.158 A 
ATOM     42  C   UNL     1       9.277  43.610  11.332  1.00  0.00     0.051 A 
ATOM     43  C   UNL     1       9.338  44.454  12.450  1.00  0.00     0.157 A 
BRANCH  41  44
ATOM     44  O   UNL     1       8.617  46.497  13.572  1.00  0.00    -0.504 OA
ATOM     45  H   UNL     1       7.804  47.031  13.859  1.00  0.00     0.293 HD
ENDBRANCH  41  44
BRANCH  43  46
ATOM     46  O   UNL     1      10.143  44.114  13.538  1.00  0.00    -0.504 OA
ATOM     47  H   UNL     1      10.920  43.470  13.445  1.00  0.00     0.293 HD
ENDBRANCH  43  46
ENDBRANCH  28  38
BRANCH  34  48
ATOM     48  O   UNL     1       4.686  46.892   4.624  1.00  0.00    -0.507 OA
ATOM     49  H   UNL     1       4.794  46.371   3.764  1.00  0.00     0.293 HD
ENDBRANCH  34  48
BRANCH  37  50
ATOM     50  O   UNL     1       1.260  44.835   7.275  1.00  0.00    -0.508 OA
ATOM     51  H   UNL     1       0.937  44.370   8.113  1.00  0.00     0.293 HD
ENDBRANCH  37  50
ENDBRANCH  26  27
ENDBRANCH   5  26
BRANCH   4  52
ATOM     52  O   UNL     1       9.731  47.743   5.872  1.00  0.00    -0.384 OA
ATOM     53  H   UNL     1       9.714  47.769   4.878  1.00  0.00     0.211 HD
ENDBRANCH   4  52
TORSDOF 16
ENDMDL
MODEL 2
REMARK VINA RESULT:    -8.018      1.982      4.977
REMARK INTER + INTRA:         -15.342
REMARK INTER:                 -13.385
REMARK INTRA:                  -1.957
REMARK UNBOUND:                -2.169
REMARK SMILES C[C@H]1O[C@@H](OC[C@H]2O[C@@H](Oc3c(-c4ccc(O)c(O)c4)oc4cc(O)cc(O)c4c3=O)[C@@H](O)[C@H](O)[C@H]2O)[C@H](O)[C@H](O)[C@@H]1O
REMARK SMILES IDX 7 1 36 2 34 3 32 4 9 5 8 6 6 7 5 8 4 9 1 10 2 11 42 12 3 13
REMARK SMILES IDX 40 14 38 15 43 16 41 18 39 20 37 22 35 24 10 26 11 27 12 28
REMARK SMILES IDX 30 29 21 30 29 31 31 32 22 33 27 34 23 35 26 36 24 37 13 38
REMARK SMILES IDX 20 39 14 40 18 41 15 42 16 43 19 44 17 46 28 48 25 50 33 52
REMARK H PARENT 43 17 41 19 39 21 37 23 35 25 19 45 17 47 28 49 25 51 33 53
REMARK Flexibility Score: inf
ROOT
ATOM      1  C   UNL     1      11.847  44.554   5.747  1.00  0.00     0.180 C 
ATOM      2  C   UNL     1      12.253  45.623   4.693  1.00  0.00     0.177 C 
ATOM      3  C   UNL     1      11.403  46.913   4.844  1.00  0.00     0.180 C 
ATOM      4  C   UNL     1      10.022  46.635   5.474  1.00  0.00     0.214 C 
ATOM      5  C   UNL     1      10.137  45.755   6.759  1.00  0.00     0.339 C 
ATOM      6  O   UNL     1      11.431  45.197   6.931  1.00  0.00    -0.332 OA
ENDROOT
BRANCH   1   7
ATOM      7  C   UNL     1      12.977  43.577   6.094  1.00  0.00     0.198 C 
BRANCH   7   8
ATOM      8  O   UNL     1      13.354  43.723   7.451  1.00  0.00    -0.347 OA
BRANCH   8   9
ATOM      9  C   UNL     1      14.752  43.937   7.596  1.00  0.00     0.281 C 
ATOM     10  C   UNL     1      16.623  43.073   4.994  1.00  0.00     0.041 C 
ATOM     11  C   UNL     1      16.629  44.161   6.080  1.00  0.00     0.150 C 
ATOM     12  C   UNL     1      17.563  43.832   7.281  1.00  0.00     0.174 C 
ATOM     13  O   UNL     1      15.302  44.537   6.425  1.00  0.00    -0.344 OA
ATOM     14  C   UNL     1      16.946  42.859   8.318  1.00  0.00     0.179 C 
ATOM     15  C   UNL     1      15.445  42.628   8.077  1.00  0.00     0.202 C 
BRANCH  12  16
ATOM     16  O   UNL     1      18.001  45.022   7.892  1.00  0.00    -0.388 OA
ATOM     17  H   UNL     1      17.700  45.008   8.838  1.00  0.00     0.211 HD
ENDBRANCH  12  16
BRANCH  14  18
ATOM     18  O   UNL     1      17.159  43.335   9.622  1.00  0.00    -0.387 OA
ATOM     19  H   UNL     1      18.052  43.771   9.638  1.00  0.00     0.211 HD
ENDBRANCH  14  18
BRANCH  15  20
ATOM     20  O   UNL     1      14.839  42.085   9.226  1.00  0.00    -0.385 OA
ATOM     21  H   UNL     1      14.841  42.759   9.958  1.00  0.00     0.211 HD
ENDBRANCH  15  20
ENDBRANCH   8   9
ENDBRANCH   7   8
ENDBRANCH   1   7
BRANCH   2  22
ATOM     22  O   UNL     1      13.611  45.946   4.828  1.00  0.00    -0.387 OA
ATOM     23  H   UNL     1      14.089  45.527   4.064  1.00  0.00     0.211 HD
ENDBRANCH   2  22
BRANCH   3  24
ATOM     24  O   UNL     1      11.218  47.502   3.585  1.00  0.00    -0.387 OA
ATOM     25  H   UNL     1      11.343  48.479   3.695  1.00  0.00     0.211 HD
ENDBRANCH   3  24
BRANCH   5  26
ATOM     26  O   UNL     1       9.758  46.501   7.924  1.00  0.00    -0.454 OA
BRANCH  26  27
ATOM     27  C   UNL     1       9.071  45.954   9.016  1.00  0.00     0.214 A 
ATOM     28  C   UNL     1       7.736  46.313   9.266  1.00  0.00     0.180 A 
ATOM     29  C   UNL     1       9.716  45.083   9.910  1.00  0.00     0.239 A 
ATOM     30  O   UNL     1       7.099  45.806  10.314  1.00  0.00    -0.452 OA
ATOM     31  C   UNL     1       9.015  44.573  11.030  1.00  0.00     0.111 A 
ATOM     32  O   UNL     1      10.918  44.792   9.700  1.00  0.00    -0.285 OA
ATOM     33  C   UNL     1       7.657  44.957  11.167  1.00  0.00     0.146 A 
ATOM     34  C   UNL     1       9.573  43.683  11.993  1.00  0.00     0.134 A 
ATOM     35  C   UNL     1       6.878  44.438  12.203  1.00  0.00     0.094 A 
ATOM     36  C   UNL     1       8.755  43.136  12.984  1.00  0.00     0.093 A 
ATOM     37  C   UNL     1       7.418  43.519  13.101  1.00  0.00     0.123 A 
BRANCH  28  38
ATOM     38  C   UNL     1       7.015  47.251   8.384  1.00  0.00     0.025 A 
ATOM     39  C   UNL     1       6.375  46.788   7.225  1.00  0.00     0.062 A 
ATOM     40  C   UNL     1       6.936  48.612   8.725  1.00  0.00     0.016 A 
ATOM     41  C   UNL     1       5.687  47.678   6.392  1.00  0.00     0.158 A 
ATOM     42  C   UNL     1       6.253  49.501   7.895  1.00  0.00     0.051 A 
ATOM     43  C   UNL     1       5.633  49.043   6.724  1.00  0.00     0.157 A 
BRANCH  41  44
ATOM     44  O   UNL     1       5.069  47.188   5.244  1.00  0.00    -0.504 OA
ATOM     45  H   UNL     1       4.693  47.804   4.529  1.00  0.00     0.293 HD
ENDBRANCH  41  44
BRANCH  43  46
ATOM     46  O   UNL     1       4.967  49.941   5.890  1.00  0.00    -0.504 OA
ATOM     47  H   UNL     1       5.440  50.409   5.126  1.00  0.00     0.293 HD
ENDBRANCH  43  46
ENDBRANCH  28  38
BRANCH  34  48
ATOM     48  O   UNL     1      10.922  43.325  12.032  1.00  0.00    -0.507 OA
ATOM     49  H   UNL     1      11.480  43.129  11.212  1.00  0.00     0.293 HD
ENDBRANCH  34  48
BRANCH  37  50
ATOM     50  O   UNL     1       6.619  43.007  14.125  1.00  0.00    -0.508 OA
ATOM     51  H   UNL     1       5.759  43.466  14.398  1.00  0.00     0.293 HD
ENDBRANCH  37  50
ENDBRANCH  26  27
ENDBRANCH   5  26
BRANCH   4  52
ATOM     52  O   UNL     1       9.368  47.846   5.764  1.00  0.00    -0.384 OA
ATOM     53  H   UNL     1       9.980  48.580   5.488  1.00  0.00     0.211 HD
ENDBRANCH   4  52
TORSDOF 16
ENDMDL
MODEL 3
REMARK VINA RESULT:    -7.692      2.131      9.295
REMARK INTER + INTRA:         -14.807
REMARK INTER:                 -13.799
REMARK INTRA:                  -1.008
REMARK UNBOUND:                -2.169
REMARK SMILES C[C@H]1O[C@@H](OC[C@H]2O[C@@H](Oc3c(-c4ccc(O)c(O)c4)oc4cc(O)cc(O)c4c3=O)[C@@H](O)[C@H](O)[C@H]2O)[C@H](O)[C@H](O)[C@@H]1O
REMARK SMILES IDX 7 1 36 2 34 3 32 4 9 5 8 6 6 7 5 8 4 9 1 10 2 11 42 12 3 13
REMARK SMILES IDX 40 14 38 15 43 16 41 18 39 20 37 22 35 24 10 26 11 27 12 28
REMARK SMILES IDX 30 29 21 30 29 31 31 32 22 33 27 34 23 35 26 36 24 37 13 38
REMARK SMILES IDX 20 39 14 40 18 41 15 42 16 43 19 44 17 46 28 48 25 50 33 52
REMARK H PARENT 43 17 41 19 39 21 37 23 35 25 19 45 17 47 28 49 25 51 33 53
REMARK Flexibility Score: inf
ROOT
ATOM      1  C   UNL     1       7.225  44.405  10.014  1.00  0.00     0.180 C 
ATOM      2  C   UNL     1       7.346  44.278  11.559  1.00  0.00     0.177 C 
ATOM      3  C   UNL     1       8.830  44.330  12.014  1.00  0.00     0.180 C 
ATOM      4  C   UNL     1       9.797  43.844  10.914  1.00  0.00     0.214 C 
ATOM      5  C   UNL     1       9.495  44.518   9.538  1.00  0.00     0.339 C 
ATOM      6  O   UNL     1       8.264  45.226   9.528  1.00  0.00    -0.332 OA
ENDROOT
BRANCH   1   7
ATOM      7  C   UNL     1       5.886  44.989   9.550  1.00  0.00     0.198 C 
BRANCH   7   8
ATOM      8  O   UNL     1       5.638  44.640   8.200  1.00  0.00    -0.347 OA
BRANCH   8   9
ATOM      9  C   UNL     1       5.265  45.767   7.418  1.00  0.00     0.281 C 
ATOM     10  C   UNL     1       2.191  46.916   7.916  1.00  0.00     0.041 C 
ATOM     11  C   UNL     1       3.575  47.496   7.580  1.00  0.00     0.150 C 
ATOM     12  C   UNL     1       3.782  47.760   6.060  1.00  0.00     0.174 C 
ATOM     13  O   UNL     1       4.603  46.747   8.215  1.00  0.00    -0.344 OA
ATOM     14  C   UNL     1       4.158  46.499   5.241  1.00  0.00     0.179 C 
ATOM     15  C   UNL     1       4.501  45.301   6.143  1.00  0.00     0.202 C 
BRANCH  12  16
ATOM     16  O   UNL     1       4.723  48.790   5.873  1.00  0.00    -0.388 OA
ATOM     17  H   UNL     1       4.437  49.326   5.089  1.00  0.00     0.211 HD
ENDBRANCH  12  16
BRANCH  14  18
ATOM     18  O   UNL     1       5.230  46.777   4.378  1.00  0.00    -0.387 OA
ATOM     19  H   UNL     1       5.998  46.216   4.667  1.00  0.00     0.211 HD
ENDBRANCH  14  18
BRANCH  15  20
ATOM     20  O   UNL     1       5.206  44.323   5.416  1.00  0.00    -0.385 OA
ATOM     21  H   UNL     1       5.318  44.620   4.473  1.00  0.00     0.211 HD
ENDBRANCH  15  20
ENDBRANCH   8   9
ENDBRANCH   7   8
ENDBRANCH   1   7
BRANCH   2  22
ATOM     22  O   UNL     1       6.635  45.312  12.187  1.00  0.00    -0.387 OA
ATOM     23  H   UNL     1       6.290  45.907  11.470  1.00  0.00     0.211 HD
ENDBRANCH   2  22
BRANCH   3  24
ATOM     24  O   UNL     1       8.998  43.529  13.153  1.00  0.00    -0.387 OA
ATOM     25  H   UNL     1       9.970  43.493  13.347  1.00  0.00     0.211 HD
ENDBRANCH   3  24
BRANCH   5  26
ATOM     26  O   UNL     1      10.570  45.384   9.146  1.00  0.00    -0.454 OA
BRANCH  26  27
ATOM     27  C   UNL     1      11.371  45.178   8.015  1.00  0.00     0.214 A 
ATOM     28  C   UNL     1      11.191  45.965   6.866  1.00  0.00     0.180 A 
ATOM     29  C   UNL     1      12.327  44.149   7.987  1.00  0.00     0.239 A 
ATOM     30  O   UNL     1      11.940  45.749   5.791  1.00  0.00    -0.452 OA
ATOM     31  C   UNL     1      13.098  43.931   6.819  1.00  0.00     0.111 A 
ATOM     32  O   UNL     1      12.461  43.427   9.005  1.00  0.00    -0.285 OA
ATOM     33  C   UNL     1      12.875  44.810   5.729  1.00  0.00     0.146 A 
ATOM     34  C   UNL     1      14.094  42.920   6.687  1.00  0.00     0.134 A 
ATOM     35  C   UNL     1      13.646  44.708   4.571  1.00  0.00     0.094 A 
ATOM     36  C   UNL     1      14.888  42.878   5.540  1.00  0.00     0.093 A 
ATOM     37  C   UNL     1      14.661  43.755   4.478  1.00  0.00     0.123 A 
BRANCH  28  38
ATOM     38  C   UNL     1      10.179  47.038   6.820  1.00  0.00     0.025 A 
ATOM     39  C   UNL     1       9.137  47.073   7.759  1.00  0.00     0.062 A 
ATOM     40  C   UNL     1      10.278  48.052   5.853  1.00  0.00     0.016 A 
ATOM     41  C   UNL     1       8.181  48.094   7.717  1.00  0.00     0.158 A 
ATOM     42  C   UNL     1       9.324  49.069   5.808  1.00  0.00     0.051 A 
ATOM     43  C   UNL     1       8.270  49.092   6.731  1.00  0.00     0.157 A 
BRANCH  41  44
ATOM     44  O   UNL     1       7.154  48.096   8.658  1.00  0.00    -0.504 OA
ATOM     45  H   UNL     1       7.052  47.356   9.346  1.00  0.00     0.293 HD
ENDBRANCH  41  44
BRANCH  43  46
ATOM     46  O   UNL     1       7.309  50.103   6.669  1.00  0.00    -0.504 OA
ATOM     47  H   UNL     1       6.401  49.948   6.249  1.00  0.00     0.293 HD
ENDBRANCH  43  46
ENDBRANCH  28  38
BRANCH  34  48
ATOM     48  O   UNL     1      14.325  41.926   7.640  1.00  0.00    -0.507 OA
ATOM     49  H   UNL     1      14.794  42.085   8.522  1.00  0.00     0.293 HD
ENDBRANCH  34  48
BRANCH  37  50
ATOM     50  O   UNL     1      15.425  43.675   3.313  1.00  0.00    -0.508 OA
ATOM     51  H   UNL     1      16.421  43.857   3.327  1.00  0.00     0.293 HD
ENDBRANCH  37  50
ENDBRANCH  26  27
ENDBRANCH   5  26
BRANCH   4  52
ATOM     52  O   UNL     1      11.128  44.085  11.298  1.00  0.00    -0.384 OA
ATOM     53  H   UNL     1      11.608  43.216  11.245  1.00  0.00     0.211 HD
ENDBRANCH   4  52
TORSDOF 16
ENDMDL
MODEL 4
REMARK VINA RESULT:    -7.362      2.731      9.681
REMARK INTER + INTRA:         -14.264
REMARK INTER:                 -11.062
REMARK INTRA:                  -3.203
REMARK UNBOUND:                -2.169
REMARK SMILES C[C@H]1O[C@@H](OC[C@H]2O[C@@H](Oc3c(-c4ccc(O)c(O)c4)oc4cc(O)cc(O)c4c3=O)[C@@H](O)[C@H](O)[C@H]2O)[C@H](O)[C@H](O)[C@@H]1O
REMARK SMILES IDX 7 1 36 2 34 3 32 4 9 5 8 6 6 7 5 8 4 9 1 10 2 11 42 12 3 13
REMARK SMILES IDX 40 14 38 15 43 16 41 18 39 20 37 22 35 24 10 26 11 27 12 28
REMARK SMILES IDX 30 29 21 30 29 31 31 32 22 33 27 34 23 35 26 36 24 37 13 38
REMARK SMILES IDX 20 39 14 40 18 41 15 42 16 43 19 44 17 46 28 48 25 50 33 52
REMARK H PARENT 43 17 41 19 39 21 37 23 35 25 19 45 17 47 28 49 25 51 33 53
REMARK Flexibility Score: inf
ROOT
ATOM      1  C   UNL     1       7.139  44.547  10.541  1.00  0.00     0.180 C 
ATOM      2  C   UNL     1       7.397  44.303  12.055  1.00  0.00     0.177 C 
ATOM      3  C   UNL     1       8.917  44.216  12.360  1.00  0.00     0.180 C 
ATOM      4  C   UNL     1       9.734  43.743  11.139  1.00  0.00     0.214 C 
ATOM      5  C   UNL     1       9.355  44.532   9.847  1.00  0.00     0.339 C 
ATOM      6  O   UNL     1       8.187  45.325  10.006  1.00  0.00    -0.332 OA
ENDROOT
BRANCH   1   7
ATOM      7  C   UNL     1       5.811  45.257  10.252  1.00  0.00     0.198 C 
BRANCH   7   8
ATOM      8  O   UNL     1       6.032  46.632  10.002  1.00  0.00    -0.347 OA
BRANCH   8   9
ATOM      9  C   UNL     1       5.015  47.448  10.567  1.00  0.00     0.281 C 
ATOM     10  C   UNL     1       3.088  45.985  12.841  1.00  0.00     0.041 C 
ATOM     11  C   UNL     1       3.675  47.383  12.586  1.00  0.00     0.150 C 
ATOM     12  C   UNL     1       2.680  48.354  11.887  1.00  0.00     0.174 C 
ATOM     13  O   UNL     1       4.960  47.289  11.984  1.00  0.00    -0.344 OA
ATOM     14  C   UNL     1       2.577  48.164  10.352  1.00  0.00     0.179 C 
ATOM     15  C   UNL     1       3.673  47.231   9.808  1.00  0.00     0.202 C 
BRANCH  12  16
ATOM     16  O   UNL     1       2.992  49.686  12.217  1.00  0.00    -0.388 OA
ATOM     17  H   UNL     1       2.202  50.247  12.005  1.00  0.00     0.211 HD
ENDBRANCH  12  16
BRANCH  14  18
ATOM     18  O   UNL     1       2.632  49.406   9.700  1.00  0.00    -0.387 OA
ATOM     19  H   UNL     1       2.427  50.106  10.374  1.00  0.00     0.211 HD
ENDBRANCH  14  18
BRANCH  15  20
ATOM     20  O   UNL     1       3.807  47.388   8.415  1.00  0.00    -0.385 OA
ATOM     21  H   UNL     1       4.771  47.418   8.172  1.00  0.00     0.211 HD
ENDBRANCH  15  20
ENDBRANCH   8   9
ENDBRANCH   7   8
ENDBRANCH   1   7
BRANCH   2  22
ATOM     22  O   UNL     1       6.832  45.337  12.816  1.00  0.00    -0.387 OA
ATOM     23  H   UNL     1       6.084  45.717  12.282  1.00  0.00     0.211 HD
ENDBRANCH   2  22
BRANCH   3  24
ATOM     24  O   UNL     1       9.131  43.327  13.423  1.00  0.00    -0.387 OA
ATOM     25  H   UNL     1       9.204  43.868  14.251  1.00  0.00     0.211 HD
ENDBRANCH   3  24
BRANCH   5  26
ATOM     26  O   UNL     1      10.452  45.346   9.405  1.00  0.00    -0.454 OA
BRANCH  26  27
ATOM     27  C   UNL     1      11.141  45.146   8.202  1.00  0.00     0.214 A 
ATOM     28  C   UNL     1      10.636  45.668   7.000  1.00  0.00     0.180 A 
ATOM     29  C   UNL     1      12.316  44.377   8.164  1.00  0.00     0.239 A 
ATOM     30  O   UNL     1      11.284  45.457   5.861  1.00  0.00    -0.452 OA
ATOM     31  C   UNL     1      12.976  44.154   6.931  1.00  0.00     0.111 A 
ATOM     32  O   UNL     1      12.745  43.886   9.236  1.00  0.00    -0.285 OA
ATOM     33  C   UNL     1      12.413  44.763   5.781  1.00  0.00     0.146 A 
ATOM     34  C   UNL     1      14.172  43.393   6.783  1.00  0.00     0.134 A 
ATOM     35  C   UNL     1      13.044  44.651   4.542  1.00  0.00     0.094 A 
ATOM     36  C   UNL     1      14.813  43.346   5.543  1.00  0.00     0.093 A 
ATOM     37  C   UNL     1      14.249  43.958   4.422  1.00  0.00     0.123 A 
BRANCH  28  38
ATOM     38  C   UNL     1       9.387  46.453   6.968  1.00  0.00     0.025 A 
ATOM     39  C   UNL     1       8.142  45.809   6.936  1.00  0.00     0.062 A 
ATOM     40  C   UNL     1       9.443  47.857   7.006  1.00  0.00     0.016 A 
ATOM     41  C   UNL     1       6.958  46.556   6.911  1.00  0.00     0.158 A 
ATOM     42  C   UNL     1       8.264  48.604   6.979  1.00  0.00     0.051 A 
ATOM     43  C   UNL     1       7.020  47.960   6.924  1.00  0.00     0.157 A 
BRANCH  41  44
ATOM     44  O   UNL     1       5.738  45.885   6.871  1.00  0.00    -0.504 OA
ATOM     45  H   UNL     1       5.575  45.099   6.250  1.00  0.00     0.293 HD
ENDBRANCH  41  44
BRANCH  43  46
ATOM     46  O   UNL     1       5.846  48.713   6.878  1.00  0.00    -0.504 OA
ATOM     47  H   UNL     1       5.249  48.818   7.689  1.00  0.00     0.293 HD
ENDBRANCH  43  46
ENDBRANCH  28  38
BRANCH  34  48
ATOM     48  O   UNL     1      14.756  42.653   7.812  1.00  0.00    -0.507 OA
ATOM     49  H   UNL     1      14.233  42.144   8.512  1.00  0.00     0.293 HD
ENDBRANCH  34  48
BRANCH  37  50
ATOM     50  O   UNL     1      14.868  43.866   3.174  1.00  0.00    -0.508 OA
ATOM     51  H   UNL     1      15.198  44.691   2.691  1.00  0.00     0.293 HD
ENDBRANCH  37  50
ENDBRANCH  26  27
ENDBRANCH   5  26
BRANCH   4  52
ATOM     52  O   UNL     1      11.110  43.861  11.402  1.00  0.00    -0.384 OA
ATOM     53  H   UNL     1      11.527  42.989  11.168  1.00  0.00     0.211 HD
ENDBRANCH   4  52
TORSDOF 16
ENDMDL
MODEL 5
REMARK VINA RESULT:    -7.245      2.197      9.738
REMARK INTER + INTRA:         -14.072
REMARK INTER:                 -11.141
REMARK INTRA:                  -2.931
REMARK UNBOUND:                -2.169
REMARK SMILES C[C@H]1O[C@@H](OC[C@H]2O[C@@H](Oc3c(-c4ccc(O)c(O)c4)oc4cc(O)cc(O)c4c3=O)[C@@H](O)[C@H](O)[C@H]2O)[C@H](O)[C@H](O)[C@@H]1O
REMARK SMILES IDX 7 1 36 2 34 3 32 4 9 5 8 6 6 7 5 8 4 9 1 10 2 11 42 12 3 13
REMARK SMILES IDX 40 14 38 15 43 16 41 18 39 20 37 22 35 24 10 26 11 27 12 28
REMARK SMILES IDX 30 29 21 30 29 31 31 32 22 33 27 34 23 35 26 36 24 37 13 38
REMARK SMILES IDX 20 39 14 40 18 41 15 42 16 43 19 44 17 46 28 48 25 50 33 52
REMARK H PARENT 43 17 41 19 39 21 37 23 35 25 19 45 17 47 28 49 25 51 33 53
REMARK Flexibility Score: inf
ROOT
ATOM      1  C   UNL     1       7.003  45.287  10.792  1.00  0.00     0.180 C 
ATOM      2  C   UNL     1       7.228  44.868  12.272  1.00  0.00     0.177 C 
ATOM      3  C   UNL     1       8.695  44.422  12.515  1.00  0.00     0.180 C 
ATOM      4  C   UNL     1       9.363  43.882  11.232  1.00  0.00     0.214 C 
ATOM      5  C   UNL     1       9.146  44.840  10.018  1.00  0.00     0.339 C 
ATOM      6  O   UNL     1       8.188  45.855  10.280  1.00  0.00    -0.332 OA
ENDROOT
BRANCH   1   7
ATOM      7  C   UNL     1       5.862  46.295  10.608  1.00  0.00     0.198 C 
BRANCH   7   8
ATOM      8  O   UNL     1       4.758  45.677   9.972  1.00  0.00    -0.347 OA
BRANCH   8   9
ATOM      9  C   UNL     1       4.093  46.560   9.079  1.00  0.00     0.281 C 
ATOM     10  C   UNL     1       1.304  47.946  10.229  1.00  0.00     0.041 C 
ATOM     11  C   UNL     1       2.469  48.344   9.308  1.00  0.00     0.150 C 
ATOM     12  C   UNL     1       2.150  48.169   7.795  1.00  0.00     0.174 C 
ATOM     13  O   UNL     1       3.685  47.752   9.747  1.00  0.00    -0.344 OA
ATOM     14  C   UNL     1       2.295  46.714   7.278  1.00  0.00     0.179 C 
ATOM     15  C   UNL     1       2.974  45.797   8.309  1.00  0.00     0.202 C 
BRANCH  12  16
ATOM     16  O   UNL     1       2.924  49.062   7.031  1.00  0.00    -0.388 OA
ATOM     17  H   UNL     1       3.602  48.533   6.537  1.00  0.00     0.211 HD
ENDBRANCH  12  16
BRANCH  14  18
ATOM     18  O   UNL     1       3.006  46.693   6.068  1.00  0.00    -0.387 OA
ATOM     19  H   UNL     1       2.349  46.536   5.339  1.00  0.00     0.211 HD
ENDBRANCH  14  18
BRANCH  15  20
ATOM     20  O   UNL     1       3.446  44.624   7.689  1.00  0.00    -0.385 OA
ATOM     21  H   UNL     1       3.592  43.918   8.375  1.00  0.00     0.211 HD
ENDBRANCH  15  20
ENDBRANCH   8   9
ENDBRANCH   7   8
ENDBRANCH   1   7
BRANCH   2  22
ATOM     22  O   UNL     1       6.922  45.935  13.131  1.00  0.00    -0.387 OA
ATOM     23  H   UNL     1       6.189  46.453  12.703  1.00  0.00     0.211 HD
ENDBRANCH   2  22
BRANCH   3  24
ATOM     24  O   UNL     1       8.725  43.423  13.498  1.00  0.00    -0.387 OA
ATOM     25  H   UNL     1       9.574  43.527  14.000  1.00  0.00     0.211 HD
ENDBRANCH   3  24
BRANCH   5  26
ATOM     26  O   UNL     1      10.388  45.424   9.600  1.00  0.00    -0.454 OA
BRANCH  26  27
ATOM     27  C   UNL     1      11.065  45.069   8.426  1.00  0.00     0.214 A 
ATOM     28  C   UNL     1      10.539  45.415   7.171  1.00  0.00     0.180 A 
ATOM     29  C   UNL     1      12.250  44.316   8.478  1.00  0.00     0.239 A 
ATOM     30  O   UNL     1      11.176  45.057   6.063  1.00  0.00    -0.452 OA
ATOM     31  C   UNL     1      12.898  43.933   7.278  1.00  0.00     0.111 A 
ATOM     32  O   UNL     1      12.699  43.982   9.601  1.00  0.00    -0.285 OA
ATOM     33  C   UNL     1      12.313  44.372   6.064  1.00  0.00     0.146 A 
ATOM     34  C   UNL     1      14.103  43.174   7.219  1.00  0.00     0.134 A 
ATOM     35  C   UNL     1      12.931  44.099   4.843  1.00  0.00     0.094 A 
ATOM     36  C   UNL     1      14.729  42.964   5.989  1.00  0.00     0.093 A 
ATOM     37  C   UNL     1      14.143  43.410   4.802  1.00  0.00     0.123 A 
BRANCH  28  38
ATOM     38  C   UNL     1       9.279  46.174   7.049  1.00  0.00     0.025 A 
ATOM     39  C   UNL     1       8.085  45.521   6.712  1.00  0.00     0.062 A 
ATOM     40  C   UNL     1       9.267  47.555   7.308  1.00  0.00     0.016 A 
ATOM     41  C   UNL     1       6.890  46.242   6.601  1.00  0.00     0.158 A 
ATOM     42  C   UNL     1       8.078  48.276   7.196  1.00  0.00     0.051 A 
ATOM     43  C   UNL     1       6.888  47.628   6.836  1.00  0.00     0.157 A 
BRANCH  41  44
ATOM     44  O   UNL     1       5.722  45.565   6.257  1.00  0.00    -0.504 OA
ATOM     45  H   UNL     1       4.810  45.859   6.591  1.00  0.00     0.293 HD
ENDBRANCH  41  44
BRANCH  43  46
ATOM     46  O   UNL     1       5.706  48.358   6.708  1.00  0.00    -0.504 OA
ATOM     47  H   UNL     1       4.809  47.970   6.974  1.00  0.00     0.293 HD
ENDBRANCH  43  46
ENDBRANCH  28  38
BRANCH  34  48
ATOM     48  O   UNL     1      14.709  42.588   8.332  1.00  0.00    -0.507 OA
ATOM     49  H   UNL     1      15.708  42.469   8.435  1.00  0.00     0.293 HD
ENDBRANCH  34  48
BRANCH  37  50
ATOM     50  O   UNL     1      14.748  43.154   3.570  1.00  0.00    -0.508 OA
ATOM     51  H   UNL     1      15.672  43.506   3.358  1.00  0.00     0.293 HD
ENDBRANCH  37  50
ENDBRANCH  26  27
ENDBRANCH   5  26
BRANCH   4  52
ATOM     52  O   UNL     1      10.736  43.671  11.453  1.00  0.00    -0.384 OA
ATOM     53  H   UNL     1      10.813  42.996  12.179  1.00  0.00     0.211 HD
ENDBRANCH   4  52
TORSDOF 16
ENDMDL
MODEL 6
REMARK VINA RESULT:    -7.198      2.610      9.045
REMARK INTER + INTRA:         -13.995
REMARK INTER:                 -11.371
REMARK INTRA:                  -2.624
REMARK UNBOUND:                -2.169
REMARK SMILES C[C@H]1O[C@@H](OC[C@H]2O[C@@H](Oc3c(-c4ccc(O)c(O)c4)oc4cc(O)cc(O)c4c3=O)[C@@H](O)[C@H](O)[C@H]2O)[C@H](O)[C@H](O)[C@@H]1O
REMARK SMILES IDX 7 1 36 2 34 3 32 4 9 5 8 6 6 7 5 8 4 9 1 10 2 11 42 12 3 13
REMARK SMILES IDX 40 14 38 15 43 16 41 18 39 20 37 22 35 24 10 26 11 27 12 28
REMARK SMILES IDX 30 29 21 30 29 31 31 32 22 33 27 34 23 35 26 36 24 37 13 38
REMARK SMILES IDX 20 39 14 40 18 41 15 42 16 43 19 44 17 46 28 48 25 50 33 52
REMARK H PARENT 43 17 41 19 39 21 37 23 35 25 19 45 17 47 28 49 25 51 33 53
REMARK Flexibility Score: inf
ROOT
ATOM      1  C   UNL     1       6.964  47.995   9.674  1.00  0.00     0.180 C 
ATOM      2  C   UNL     1       5.997  48.513   8.572  1.00  0.00     0.177 C 
ATOM      3  C   UNL     1       6.517  48.157   7.153  1.00  0.00     0.180 C 
ATOM      4  C   UNL     1       8.052  48.002   7.114  1.00  0.00     0.214 C 
ATOM      5  C   UNL     1       8.573  47.087   8.267  1.00  0.00     0.339 C 
ATOM      6  O   UNL     1       7.576  46.802   9.238  1.00  0.00    -0.332 OA
ENDROOT
BRANCH   1   7
ATOM      7  C   UNL     1       6.275  47.726  11.017  1.00  0.00     0.198 C 
BRANCH   7   8
ATOM      8  O   UNL     1       6.089  46.335  11.204  1.00  0.00    -0.347 OA
BRANCH   8   9
ATOM      9  C   UNL     1       4.793  46.031  11.703  1.00  0.00     0.281 C 
ATOM     10  C   UNL     1       2.723  48.609  12.005  1.00  0.00     0.041 C 
ATOM     11  C   UNL     1       2.627  47.117  11.648  1.00  0.00     0.150 C 
ATOM     12  C   UNL     1       2.212  46.218  12.850  1.00  0.00     0.174 C 
ATOM     13  O   UNL     1       3.784  46.691  10.941  1.00  0.00    -0.344 OA
ATOM     14  C   UNL     1       3.374  45.870  13.815  1.00  0.00     0.179 C 
ATOM     15  C   UNL     1       4.744  46.269  13.241  1.00  0.00     0.202 C 
BRANCH  12  16
ATOM     16  O   UNL     1       1.568  45.057  12.386  1.00  0.00    -0.388 OA
ATOM     17  H   UNL     1       0.612  45.277  12.234  1.00  0.00     0.211 HD
ENDBRANCH  12  16
BRANCH  14  18
ATOM     18  O   UNL     1       3.360  44.501  14.125  1.00  0.00    -0.387 OA
ATOM     19  H   UNL     1       3.662  44.406  15.067  1.00  0.00     0.211 HD
ENDBRANCH  14  18
BRANCH  15  20
ATOM     20  O   UNL     1       5.779  45.602  13.926  1.00  0.00    -0.385 OA
ATOM     21  H   UNL     1       5.656  44.618  13.843  1.00  0.00     0.211 HD
ENDBRANCH  15  20
ENDBRANCH   8   9
ENDBRANCH   7   8
ENDBRANCH   1   7
BRANCH   2  22
ATOM     22  O   UNL     1       4.720  47.958   8.747  1.00  0.00    -0.387 OA
ATOM     23  H   UNL     1       4.780  47.322   9.509  1.00  0.00     0.211 HD
ENDBRANCH   2  22
BRANCH   3  24
ATOM     24  O   UNL     1       6.138  49.161   6.250  1.00  0.00    -0.387 OA
ATOM     25  H   UNL     1       6.782  49.137   5.496  1.00  0.00     0.211 HD
ENDBRANCH   3  24
BRANCH   5  26
ATOM     26  O   UNL     1       9.121  45.868   7.744  1.00  0.00    -0.454 OA
BRANCH  26  27
ATOM     27  C   UNL     1      10.460  45.484   7.892  1.00  0.00     0.214 A 
ATOM     28  C   UNL     1      10.863  44.733   9.007  1.00  0.00     0.180 A 
ATOM     29  C   UNL     1      11.432  45.887   6.961  1.00  0.00     0.239 A 
ATOM     30  O   UNL     1      12.138  44.390   9.151  1.00  0.00    -0.452 OA
ATOM     31  C   UNL     1      12.787  45.521   7.150  1.00  0.00     0.111 A 
ATOM     32  O   UNL     1      11.071  46.586   5.983  1.00  0.00    -0.285 OA
ATOM     33  C   UNL     1      13.085  44.722   8.283  1.00  0.00     0.146 A 
ATOM     34  C   UNL     1      13.848  45.874   6.267  1.00  0.00     0.134 A 
ATOM     35  C   UNL     1      14.383  44.259   8.499  1.00  0.00     0.094 A 
ATOM     36  C   UNL     1      15.126  45.350   6.476  1.00  0.00     0.093 A 
ATOM     37  C   UNL     1      15.400  44.558   7.593  1.00  0.00     0.123 A 
BRANCH  28  38
ATOM     38  C   UNL     1       9.896  44.310  10.039  1.00  0.00     0.025 A 
ATOM     39  C   UNL     1      10.178  44.500  11.400  1.00  0.00     0.062 A 
ATOM     40  C   UNL     1       8.667  43.745   9.656  1.00  0.00     0.016 A 
ATOM     41  C   UNL     1       9.258  44.102  12.376  1.00  0.00     0.158 A 
ATOM     42  C   UNL     1       7.750  43.345  10.628  1.00  0.00     0.051 A 
ATOM     43  C   UNL     1       8.041  43.514  11.989  1.00  0.00     0.157 A 
BRANCH  41  44
ATOM     44  O   UNL     1       9.572  44.298  13.719  1.00  0.00    -0.504 OA
ATOM     45  H   UNL     1      10.523  44.472  14.031  1.00  0.00     0.293 HD
ENDBRANCH  41  44
BRANCH  43  46
ATOM     46  O   UNL     1       7.127  43.096  12.956  1.00  0.00    -0.504 OA
ATOM     47  H   UNL     1       6.128  43.203  12.826  1.00  0.00     0.293 HD
ENDBRANCH  43  46
ENDBRANCH  28  38
BRANCH  34  48
ATOM     48  O   UNL     1      13.705  46.749   5.188  1.00  0.00    -0.507 OA
ATOM     49  H   UNL     1      13.501  47.735   5.281  1.00  0.00     0.293 HD
ENDBRANCH  34  48
BRANCH  37  50
ATOM     50  O   UNL     1      16.691  44.078   7.824  1.00  0.00    -0.508 OA
ATOM     51  H   UNL     1      17.006  43.207   7.418  1.00  0.00     0.293 HD
ENDBRANCH  37  50
ENDBRANCH  26  27
ENDBRANCH   5  26
BRANCH   4  52
ATOM     52  O   UNL     1       8.457  47.499   5.865  1.00  0.00    -0.384 OA
ATOM     53  H   UNL     1       8.832  48.262   5.351  1.00  0.00     0.211 HD
ENDBRANCH   4  52
TORSDOF 16
ENDMDL
MODEL 7
REMARK VINA RESULT:    -7.192      1.911      9.901
REMARK INTER + INTRA:         -13.985
REMARK INTER:                 -13.177
REMARK INTRA:                  -0.808
REMARK UNBOUND:                -2.169
REMARK SMILES C[C@H]1O[C@@H](OC[C@H]2O[C@@H](Oc3c(-c4ccc(O)c(O)c4)oc4cc(O)cc(O)c4c3=O)[C@@H](O)[C@H](O)[C@H]2O)[C@H](O)[C@H](O)[C@@H]1O
REMARK SMILES IDX 7 1 36 2 34 3 32 4 9 5 8 6 6 7 5 8 4 9 1 10 2 11 42 12 3 13
REMARK SMILES IDX 40 14 38 15 43 16 41 18 39 20 37 22 35 24 10 26 11 27 12 28
REMARK SMILES IDX 30 29 21 30 29 31 31 32 22 33 27 34 23 35 26 36 24 37 13 38
REMARK SMILES IDX 20 39 14 40 18 41 15 42 16 43 19 44 17 46 28 48 25 50 33 52
REMARK H PARENT 43 17 41 19 39 21 37 23 35 25 19 45 17 47 28 49 25 51 33 53
REMARK Flexibility Score: inf
ROOT
ATOM      1  C   UNL     1       8.259  44.147   8.115  1.00  0.00     0.180 C 
ATOM      2  C   UNL     1       7.663  44.450   9.519  1.00  0.00     0.177 C 
ATOM      3  C   UNL     1       8.782  44.618  10.581  1.00  0.00     0.180 C 
ATOM      4  C   UNL     1      10.064  43.844  10.210  1.00  0.00     0.214 C 
ATOM      5  C   UNL     1      10.497  44.114   8.734  1.00  0.00     0.339 C 
ATOM      6  O   UNL     1       9.504  44.797   7.983  1.00  0.00    -0.332 OA
ENDROOT
BRANCH   1   7
ATOM      7  C   UNL     1       7.355  44.587   6.957  1.00  0.00     0.198 C 
BRANCH   7   8
ATOM      8  O   UNL     1       5.995  44.386   7.291  1.00  0.00    -0.347 OA
BRANCH   8   9
ATOM      9  C   UNL     1       5.143  45.329   6.653  1.00  0.00     0.281 C 
ATOM     10  C   UNL     1       5.603  48.503   7.512  1.00  0.00     0.041 C 
ATOM     11  C   UNL     1       5.212  47.717   6.249  1.00  0.00     0.150 C 
ATOM     12  C   UNL     1       3.674  47.662   6.007  1.00  0.00     0.174 C 
ATOM     13  O   UNL     1       5.882  46.464   6.206  1.00  0.00    -0.344 OA
ATOM     14  C   UNL     1       2.937  46.591   6.851  1.00  0.00     0.179 C 
ATOM     15  C   UNL     1       3.912  45.634   7.557  1.00  0.00     0.202 C 
BRANCH  12  16
ATOM     16  O   UNL     1       3.407  47.504   4.635  1.00  0.00    -0.388 OA
ATOM     17  H   UNL     1       4.069  48.046   4.131  1.00  0.00     0.211 HD
ENDBRANCH  12  16
BRANCH  14  18
ATOM     18  O   UNL     1       2.043  45.864   6.048  1.00  0.00    -0.387 OA
ATOM     19  H   UNL     1       1.122  46.121   6.320  1.00  0.00     0.211 HD
ENDBRANCH  14  18
BRANCH  15  20
ATOM     20  O   UNL     1       3.243  44.466   7.973  1.00  0.00    -0.385 OA
ATOM     21  H   UNL     1       3.295  43.776   7.258  1.00  0.00     0.211 HD
ENDBRANCH  15  20
ENDBRANCH   8   9
ENDBRANCH   7   8
ENDBRANCH   1   7
BRANCH   2  22
ATOM     22  O   UNL     1       6.889  45.620   9.475  1.00  0.00    -0.387 OA
ATOM     23  H   UNL     1       7.389  46.280   8.925  1.00  0.00     0.211 HD
ENDBRANCH   2  22
BRANCH   3  24
ATOM     24  O   UNL     1       8.319  44.161  11.824  1.00  0.00    -0.387 OA
ATOM     25  H   UNL     1       8.251  44.949  12.422  1.00  0.00     0.211 HD
ENDBRANCH   3  24
BRANCH   5  26
ATOM     26  O   UNL     1      11.737  44.833   8.689  1.00  0.00    -0.454 OA
BRANCH  26  27
ATOM     27  C   UNL     1      12.724  44.635   7.714  1.00  0.00     0.214 A 
ATOM     28  C   UNL     1      12.695  45.367   6.517  1.00  0.00     0.180 A 
ATOM     29  C   UNL     1      13.725  43.665   7.890  1.00  0.00     0.239 A 
ATOM     30  O   UNL     1      13.622  45.159   5.589  1.00  0.00    -0.452 OA
ATOM     31  C   UNL     1      14.690  43.453   6.875  1.00  0.00     0.111 A 
ATOM     32  O   UNL     1      13.727  42.991   8.948  1.00  0.00    -0.285 OA
ATOM     33  C   UNL     1      14.603  44.276   5.724  1.00  0.00     0.146 A 
ATOM     34  C   UNL     1      15.746  42.499   6.953  1.00  0.00     0.134 A 
ATOM     35  C   UNL     1      15.559  44.179   4.712  1.00  0.00     0.094 A 
ATOM     36  C   UNL     1      16.721  42.464   5.954  1.00  0.00     0.093 A 
ATOM     37  C   UNL     1      16.625  43.287   4.830  1.00  0.00     0.123 A 
BRANCH  28  38
ATOM     38  C   UNL     1      11.648  46.374   6.257  1.00  0.00     0.025 A 
ATOM     39  C   UNL     1      11.188  46.603   4.952  1.00  0.00     0.062 A 
ATOM     40  C   UNL     1      11.080  47.086   7.328  1.00  0.00     0.016 A 
ATOM     41  C   UNL     1      10.192  47.555   4.708  1.00  0.00     0.158 A 
ATOM     42  C   UNL     1      10.089  48.037   7.087  1.00  0.00     0.051 A 
ATOM     43  C   UNL     1       9.645  48.282   5.780  1.00  0.00     0.157 A 
BRANCH  41  44
ATOM     44  O   UNL     1       9.763  47.764   3.399  1.00  0.00    -0.504 OA
ATOM     45  H   UNL     1      10.408  47.766   2.615  1.00  0.00     0.293 HD
ENDBRANCH  41  44
BRANCH  43  46
ATOM     46  O   UNL     1       8.666  49.248   5.544  1.00  0.00    -0.504 OA
ATOM     47  H   UNL     1       8.711  49.867   4.744  1.00  0.00     0.293 HD
ENDBRANCH  43  46
ENDBRANCH  28  38
BRANCH  34  48
ATOM     48  O   UNL     1      15.870  41.557   7.975  1.00  0.00    -0.507 OA
ATOM     49  H   UNL     1      15.209  41.454   8.734  1.00  0.00     0.293 HD
ENDBRANCH  34  48
BRANCH  37  50
ATOM     50  O   UNL     1      17.575  43.211   3.810  1.00  0.00    -0.508 OA
ATOM     51  H   UNL     1      17.619  43.913   3.082  1.00  0.00     0.293 HD
ENDBRANCH  37  50
ENDBRANCH  26  27
ENDBRANCH   5  26
BRANCH   4  52
ATOM     52  O   UNL     1      11.104  44.175  11.096  1.00  0.00    -0.384 OA
ATOM     53  H   UNL     1      11.365  45.114  10.901  1.00  0.00     0.211 HD
ENDBRANCH   4  52
TORSDOF 16
ENDMDL
MODEL 8
REMARK VINA RESULT:    -7.187      2.596      9.738
REMARK INTER + INTRA:         -13.978
REMARK INTER:                 -11.229
REMARK INTRA:                  -2.748
REMARK UNBOUND:                -2.169
REMARK SMILES C[C@H]1O[C@@H](OC[C@H]2O[C@@H](Oc3c(-c4ccc(O)c(O)c4)oc4cc(O)cc(O)c4c3=O)[C@@H](O)[C@H](O)[C@H]2O)[C@H](O)[C@H](O)[C@@H]1O
REMARK SMILES IDX 7 1 36 2 34 3 32 4 9 5 8 6 6 7 5 8 4 9 1 10 2 11 42 12 3 13
REMARK SMILES IDX 40 14 38 15 43 16 41 18 39 20 37 22 35 24 10 26 11 27 12 28
REMARK SMILES IDX 30 29 21 30 29 31 31 32 22 33 27 34 23 35 26 36 24 37 13 38
REMARK SMILES IDX 20 39 14 40 18 41 15 42 16 43 19 44 17 46 28 48 25 50 33 52
REMARK H PARENT 43 17 41 19 39 21 37 23 35 25 19 45 17 47 28 49 25 51 33 53
REMARK Flexibility Score: inf
ROOT
ATOM      1  C   UNL     1       6.256  47.175  11.352  1.00  0.00     0.180 C 
ATOM      2  C   UNL     1       6.985  46.872  12.691  1.00  0.00     0.177 C 
ATOM      3  C   UNL     1       7.546  45.425  12.712  1.00  0.00     0.180 C 
ATOM      4  C   UNL     1       6.749  44.474  11.795  1.00  0.00     0.214 C 
ATOM      5  C   UNL     1       6.529  45.086  10.376  1.00  0.00     0.339 C 
ATOM      6  O   UNL     1       6.878  46.461  10.307  1.00  0.00    -0.332 OA
ENDROOT
BRANCH   1   7
ATOM      7  C   UNL     1       6.245  48.664  10.984  1.00  0.00     0.198 C 
BRANCH   7   8
ATOM      8  O   UNL     1       4.915  49.142  10.910  1.00  0.00    -0.347 OA
BRANCH   8   9
ATOM      9  C   UNL     1       4.018  48.154  10.420  1.00  0.00     0.281 C 
ATOM     10  C   UNL     1       1.620  49.255   8.405  1.00  0.00     0.041 C 
ATOM     11  C   UNL     1       2.486  47.993   8.549  1.00  0.00     0.150 C 
ATOM     12  C   UNL     1       1.773  46.836   9.308  1.00  0.00     0.174 C 
ATOM     13  O   UNL     1       3.785  48.323   9.022  1.00  0.00    -0.344 OA
ATOM     14  C   UNL     1       1.798  46.978  10.852  1.00  0.00     0.179 C 
ATOM     15  C   UNL     1       2.747  48.096  11.317  1.00  0.00     0.202 C 
BRANCH  12  16
ATOM     16  O   UNL     1       2.297  45.595   8.900  1.00  0.00    -0.388 OA
ATOM     17  H   UNL     1       1.622  45.152   8.324  1.00  0.00     0.211 HD
ENDBRANCH  12  16
BRANCH  14  18
ATOM     18  O   UNL     1       2.157  45.759  11.450  1.00  0.00    -0.387 OA
ATOM     19  H   UNL     1       3.148  45.741  11.516  1.00  0.00     0.211 HD
ENDBRANCH  14  18
BRANCH  15  20
ATOM     20  O   UNL     1       3.054  47.945  12.683  1.00  0.00    -0.385 OA
ATOM     21  H   UNL     1       2.500  47.216  13.073  1.00  0.00     0.211 HD
ENDBRANCH  15  20
ENDBRANCH   8   9
ENDBRANCH   7   8
ENDBRANCH   1   7
BRANCH   2  22
ATOM     22  O   UNL     1       8.038  47.778  12.887  1.00  0.00    -0.387 OA
ATOM     23  H   UNL     1       8.763  47.524  12.255  1.00  0.00     0.211 HD
ENDBRANCH   2  22
BRANCH   3  24
ATOM     24  O   UNL     1       7.511  44.928  14.023  1.00  0.00    -0.387 OA
ATOM     25  H   UNL     1       7.545  43.938  13.964  1.00  0.00     0.211 HD
ENDBRANCH   3  24
BRANCH   5  26
ATOM     26  O   UNL     1       7.244  44.340   9.381  1.00  0.00    -0.454 OA
BRANCH  26  27
ATOM     27  C   UNL     1       8.368  44.822   8.698  1.00  0.00     0.214 A 
ATOM     28  C   UNL     1       8.218  45.524   7.491  1.00  0.00     0.180 A 
ATOM     29  C   UNL     1       9.665  44.566   9.174  1.00  0.00     0.239 A 
ATOM     30  O   UNL     1       9.290  45.960   6.839  1.00  0.00    -0.452 OA
ATOM     31  C   UNL     1      10.790  45.028   8.447  1.00  0.00     0.111 A 
ATOM     32  O   UNL     1       9.795  43.910  10.236  1.00  0.00    -0.285 OA
ATOM     33  C   UNL     1      10.531  45.768   7.266  1.00  0.00     0.146 A 
ATOM     34  C   UNL     1      12.144  44.826   8.843  1.00  0.00     0.134 A 
ATOM     35  C   UNL     1      11.583  46.320   6.534  1.00  0.00     0.094 A 
ATOM     36  C   UNL     1      13.173  45.437   8.124  1.00  0.00     0.093 A 
ATOM     37  C   UNL     1      12.901  46.170   6.966  1.00  0.00     0.123 A 
BRANCH  28  38
ATOM     38  C   UNL     1       6.884  45.793   6.920  1.00  0.00     0.025 A 
ATOM     39  C   UNL     1       6.458  47.111   6.698  1.00  0.00     0.062 A 
ATOM     40  C   UNL     1       6.047  44.723   6.561  1.00  0.00     0.016 A 
ATOM     41  C   UNL     1       5.195  47.365   6.152  1.00  0.00     0.158 A 
ATOM     42  C   UNL     1       4.787  44.973   6.019  1.00  0.00     0.051 A 
ATOM     43  C   UNL     1       4.351  46.291   5.819  1.00  0.00     0.157 A 
BRANCH  41  44
ATOM     44  O   UNL     1       4.798  48.685   5.952  1.00  0.00    -0.504 OA
ATOM     45  H   UNL     1       5.206  49.266   5.226  1.00  0.00     0.293 HD
ENDBRANCH  41  44
BRANCH  43  46
ATOM     46  O   UNL     1       3.082  46.534   5.293  1.00  0.00    -0.504 OA
ATOM     47  H   UNL     1       2.884  46.421   4.306  1.00  0.00     0.293 HD
ENDBRANCH  43  46
ENDBRANCH  28  38
BRANCH  34  48
ATOM     48  O   UNL     1      12.529  44.020   9.916  1.00  0.00    -0.507 OA
ATOM     49  H   UNL     1      12.142  44.093  10.847  1.00  0.00     0.293 HD
ENDBRANCH  34  48
BRANCH  37  50
ATOM     50  O   UNL     1      13.938  46.736   6.223  1.00  0.00    -0.508 OA
ATOM     51  H   UNL     1      14.336  47.631   6.478  1.00  0.00     0.293 HD
ENDBRANCH  37  50
ENDBRANCH  26  27
ENDBRANCH   5  26
BRANCH   4  52
ATOM     52  O   UNL     1       7.401  43.232  11.699  1.00  0.00    -0.384 OA
ATOM     53  H   UNL     1       7.077  42.796  10.867  1.00  0.00     0.211 HD
ENDBRANCH   4  52
TORSDOF 16
ENDMDL
MODEL 9
REMARK VINA RESULT:    -7.174      1.665      8.954
REMARK INTER + INTRA:         -13.955
REMARK INTER:                 -12.070
REMARK INTRA:                  -1.885
REMARK UNBOUND:                -2.169
REMARK SMILES C[C@H]1O[C@@H](OC[C@H]2O[C@@H](Oc3c(-c4ccc(O)c(O)c4)oc4cc(O)cc(O)c4c3=O)[C@@H](O)[C@H](O)[C@H]2O)[C@H](O)[C@H](O)[C@@H]1O
REMARK SMILES IDX 7 1 36 2 34 3 32 4 9 5 8 6 6 7 5 8 4 9 1 10 2 11 42 12 3 13
REMARK SMILES IDX 40 14 38 15 43 16 41 18 39 20 37 22 35 24 10 26 11 27 12 28
REMARK SMILES IDX 30 29 21 30 29 31 31 32 22 33 27 34 23 35 26 36 24 37 13 38
REMARK SMILES IDX 20 39 14 40 18 41 15 42 16 43 19 44 17 46 28 48 25 50 33 52
REMARK H PARENT 43 17 41 19 39 21 37 23 35 25 19 45 17 47 28 49 25 51 33 53
REMARK Flexibility Score: inf
ROOT
ATOM      1  C   UNL     1       7.622  47.892   8.402  1.00  0.00     0.180 C 
ATOM      2  C   UNL     1       7.479  48.899   7.226  1.00  0.00     0.177 C 
ATOM      3  C   UNL     1       8.591  48.687   6.164  1.00  0.00     0.180 C 
ATOM      4  C   UNL     1       9.867  48.064   6.768  1.00  0.00     0.214 C 
ATOM      5  C   UNL     1       9.541  46.820   7.654  1.00  0.00     0.339 C 
ATOM      6  O   UNL     1       8.153  46.678   7.918  1.00  0.00    -0.332 OA
ENDROOT
BRANCH   1   7
ATOM      7  C   UNL     1       6.299  47.594   9.117  1.00  0.00     0.198 C 
BRANCH   7   8
ATOM      8  O   UNL     1       5.737  46.390   8.629  1.00  0.00    -0.347 OA
BRANCH   8   9
ATOM      9  C   UNL     1       4.733  46.627   7.651  1.00  0.00     0.281 C 
ATOM     10  C   UNL     1       2.119  44.582   7.739  1.00  0.00     0.041 C 
ATOM     11  C   UNL     1       2.389  46.060   7.413  1.00  0.00     0.150 C 
ATOM     12  C   UNL     1       2.536  46.340   5.888  1.00  0.00     0.174 C 
ATOM     13  O   UNL     1       3.431  46.576   8.231  1.00  0.00    -0.344 OA
ATOM     14  C   UNL     1       3.935  46.001   5.312  1.00  0.00     0.179 C 
ATOM     15  C   UNL     1       4.963  45.705   6.417  1.00  0.00     0.202 C 
BRANCH  12  16
ATOM     16  O   UNL     1       2.175  47.671   5.605  1.00  0.00    -0.388 OA
ATOM     17  H   UNL     1       2.895  48.071   5.052  1.00  0.00     0.211 HD
ENDBRANCH  12  16
BRANCH  14  18
ATOM     18  O   UNL     1       4.393  47.046   4.493  1.00  0.00    -0.387 OA
ATOM     19  H   UNL     1       3.848  47.850   4.702  1.00  0.00     0.211 HD
ENDBRANCH  14  18
BRANCH  15  20
ATOM     20  O   UNL     1       6.273  45.795   5.909  1.00  0.00    -0.385 OA
ATOM     21  H   UNL     1       6.844  46.309   6.542  1.00  0.00     0.211 HD
ENDBRANCH  15  20
ENDBRANCH   8   9
ENDBRANCH   7   8
ENDBRANCH   1   7
BRANCH   2  22
ATOM     22  O   UNL     1       6.224  48.756   6.614  1.00  0.00    -0.387 OA
ATOM     23  H   UNL     1       5.543  48.778   7.338  1.00  0.00     0.211 HD
ENDBRANCH   2  22
BRANCH   3  24
ATOM     24  O   UNL     1       8.920  49.919   5.578  1.00  0.00    -0.387 OA
ATOM     25  H   UNL     1       8.079  50.316   5.234  1.00  0.00     0.211 HD
ENDBRANCH   3  24
BRANCH   5  26
ATOM     26  O   UNL     1      10.060  45.621   7.061  1.00  0.00    -0.454 OA
BRANCH  26  27
ATOM     27  C   UNL     1      11.214  44.963   7.504  1.00  0.00     0.214 A 
ATOM     28  C   UNL     1      11.235  44.333   8.758  1.00  0.00     0.180 A 
ATOM     29  C   UNL     1      12.387  44.968   6.730  1.00  0.00     0.239 A 
ATOM     30  O   UNL     1      12.340  43.729   9.179  1.00  0.00    -0.452 OA
ATOM     31  C   UNL     1      13.556  44.331   7.214  1.00  0.00     0.111 A 
ATOM     32  O   UNL     1      12.373  45.560   5.624  1.00  0.00    -0.285 OA
ATOM     33  C   UNL     1      13.460  43.681   8.471  1.00  0.00     0.146 A 
ATOM     34  C   UNL     1      14.794  44.275   6.510  1.00  0.00     0.134 A 
ATOM     35  C   UNL     1      14.546  42.969   8.983  1.00  0.00     0.094 A 
ATOM     36  C   UNL     1      15.844  43.508   7.018  1.00  0.00     0.093 A 
ATOM     37  C   UNL     1      15.731  42.868   8.255  1.00  0.00     0.123 A 
BRANCH  28  38
ATOM     38  C   UNL     1      10.046  44.324   9.633  1.00  0.00     0.025 A 
ATOM     39  C   UNL     1      10.100  44.897  10.912  1.00  0.00     0.062 A 
ATOM     40  C   UNL     1       8.840  43.770   9.169  1.00  0.00     0.016 A 
ATOM     41  C   UNL     1       8.970  44.892  11.738  1.00  0.00     0.158 A 
ATOM     42  C   UNL     1       7.714  43.762   9.992  1.00  0.00     0.051 A 
ATOM     43  C   UNL     1       7.774  44.314  11.280  1.00  0.00     0.157 A 
BRANCH  41  44
ATOM     44  O   UNL     1       9.059  45.462  13.007  1.00  0.00    -0.504 OA
ATOM     45  H   UNL     1       8.301  45.400  13.679  1.00  0.00     0.293 HD
ENDBRANCH  41  44
BRANCH  43  46
ATOM     46  O   UNL     1       6.648  44.286  12.104  1.00  0.00    -0.504 OA
ATOM     47  H   UNL     1       5.835  44.860  11.915  1.00  0.00     0.293 HD
ENDBRANCH  43  46
ENDBRANCH  28  38
BRANCH  34  48
ATOM     48  O   UNL     1      15.048  44.968   5.325  1.00  0.00    -0.507 OA
ATOM     49  H   UNL     1      15.630  44.617   4.577  1.00  0.00     0.293 HD
ENDBRANCH  34  48
BRANCH  37  50
ATOM     50  O   UNL     1      16.803  42.144   8.781  1.00  0.00    -0.508 OA
ATOM     51  H   UNL     1      17.710  42.573   8.913  1.00  0.00     0.293 HD
ENDBRANCH  37  50
ENDBRANCH  26  27
ENDBRANCH   5  26
BRANCH   4  52
ATOM     52  O   UNL     1      10.769  47.718   5.746  1.00  0.00    -0.384 OA
ATOM     53  H   UNL     1      11.467  47.142   6.157  1.00  0.00     0.211 HD
ENDBRANCH   4  52
TORSDOF 16
ENDMDL
