MODEL 1
REMARK VINA RESULT:    -4.820      0.000      0.000
REMARK INTER + INTRA:          -5.265
REMARK INTER:                  -5.242
REMARK INTRA:                  -0.023
REMARK UNBOUND:                -0.023
REMARK SMILES CC1(C)[C@H]2CC=C(CO)[C@@H]1C2
REMARK SMILES IDX 8 1 7 2 1 3 2 4 4 5 3 6 10 7 5 8 11 9 6 10 9 11
REMARK H PARENT 9 12
REMARK Flexibility Score: inf
ROOT
ATOM      1  C   UNL     1      18.020  14.906  25.630  1.00  0.00     0.187 C 
ENDROOT
BRANCH   1   2
ATOM      2  C   UNL     1      19.150  14.291  26.407  1.00  0.00    -0.045 C 
ATOM      3  C   UNL     1      21.480  11.274  25.585  1.00  0.00     0.012 C 
ATOM      4  C   UNL     1      21.058  12.684  26.072  1.00  0.00    -0.026 C 
ATOM      5  C   UNL     1      21.132  12.817  27.618  1.00  0.00    -0.000 C 
ATOM      6  C   UNL     1      21.789  13.741  25.196  1.00  0.00     0.012 C 
ATOM      7  C   UNL     1      19.522  12.810  26.249  1.00  0.00     0.023 C 
ATOM      8  C   UNL     1      21.048  14.325  28.040  1.00  0.00     0.031 C 
ATOM      9  C   UNL     1      19.688  12.282  27.688  1.00  0.00     0.013 C 
ATOM     10  C   UNL     1      19.884  15.016  27.302  1.00  0.00    -0.025 C 
ENDBRANCH   1   2
BRANCH   1  11
ATOM     11  O   UNL     1      17.858  16.251  25.992  1.00  0.00    -0.392 OA
ATOM     12  H   UNL     1      18.743  16.565  26.317  1.00  0.00     0.211 HD
ENDBRANCH   1  11
TORSDOF 2
ENDMDL
MODEL 2
REMARK VINA RESULT:    -4.530      8.944     10.943
REMARK INTER + INTRA:          -4.949
REMARK INTER:                  -4.905
REMARK INTRA:                  -0.044
REMARK UNBOUND:                -0.023
REMARK SMILES CC1(C)[C@H]2CC=C(CO)[C@@H]1C2
REMARK SMILES IDX 8 1 7 2 1 3 2 4 4 5 3 6 10 7 5 8 11 9 6 10 9 11
REMARK H PARENT 9 12
REMARK Flexibility Score: inf
ROOT
ATOM      1  C   UNL     1      16.142  20.175  28.741  1.00  0.00     0.187 C 
ENDROOT
BRANCH   1   2
ATOM      2  C   UNL     1      15.655  21.042  29.867  1.00  0.00    -0.045 C 
ATOM      3  C   UNL     1      12.848  23.746  29.988  1.00  0.00     0.012 C 
ATOM      4  C   UNL     1      13.712  22.539  30.434  1.00  0.00    -0.026 C 
ATOM      5  C   UNL     1      14.637  22.891  31.632  1.00  0.00    -0.000 C 
ATOM      6  C   UNL     1      12.789  21.293  30.545  1.00  0.00     0.012 C 
ATOM      7  C   UNL     1      15.020  22.416  29.609  1.00  0.00     0.023 C 
ATOM      8  C   UNL     1      15.220  21.584  32.273  1.00  0.00     0.031 C 
ATOM      9  C   UNL     1      15.696  23.367  30.616  1.00  0.00     0.013 C 
ATOM     10  C   UNL     1      15.772  20.656  31.172  1.00  0.00    -0.025 C 
ENDBRANCH   1   2
BRANCH   1  11
ATOM     11  O   UNL     1      15.344  19.027  28.632  1.00  0.00    -0.392 OA
ATOM     12  H   UNL     1      15.728  18.485  27.893  1.00  0.00     0.211 HD
ENDBRANCH   1  11
TORSDOF 2
ENDMDL
MODEL 3
REMARK VINA RESULT:    -4.507     12.750     14.605
REMARK INTER + INTRA:          -4.925
REMARK INTER:                  -4.878
REMARK INTRA:                  -0.047
REMARK UNBOUND:                -0.023
REMARK SMILES CC1(C)[C@H]2CC=C(CO)[C@@H]1C2
REMARK SMILES IDX 8 1 7 2 1 3 2 4 4 5 3 6 10 7 5 8 11 9 6 10 9 11
REMARK H PARENT 9 12
REMARK Flexibility Score: inf
ROOT
ATOM      1  C   UNL     1       7.879  20.373  23.881  1.00  0.00     0.187 C 
ENDROOT
BRANCH   1   2
ATOM      2  C   UNL     1       8.394  21.230  22.759  1.00  0.00    -0.045 C 
ATOM      3  C   UNL     1      11.201  23.936  22.685  1.00  0.00     0.012 C 
ATOM      4  C   UNL     1      10.349  22.724  22.228  1.00  0.00    -0.026 C 
ATOM      5  C   UNL     1       9.456  23.063  21.004  1.00  0.00    -0.000 C 
ATOM      6  C   UNL     1      11.276  21.478  22.153  1.00  0.00     0.012 C 
ATOM      7  C   UNL     1       9.021  22.607  23.020  1.00  0.00     0.023 C 
ATOM      8  C   UNL     1       8.892  21.749  20.361  1.00  0.00     0.031 C 
ATOM      9  C   UNL     1       8.370  23.547  21.986  1.00  0.00     0.013 C 
ATOM     10  C   UNL     1       8.312  20.831  21.455  1.00  0.00    -0.025 C 
ENDBRANCH   1   2
BRANCH   1  11
ATOM     11  O   UNL     1       8.717  19.265  24.070  1.00  0.00    -0.392 OA
ATOM     12  H   UNL     1       8.733  18.772  23.207  1.00  0.00     0.211 HD
ENDBRANCH   1  11
TORSDOF 2
ENDMDL
MODEL 4
REMARK VINA RESULT:    -4.460      9.242     10.579
REMARK INTER + INTRA:          -4.874
REMARK INTER:                  -4.814
REMARK INTRA:                  -0.060
REMARK UNBOUND:                -0.023
REMARK SMILES CC1(C)[C@H]2CC=C(CO)[C@@H]1C2
REMARK SMILES IDX 8 1 7 2 1 3 2 4 4 5 3 6 10 7 5 8 11 9 6 10 9 11
REMARK H PARENT 9 12
REMARK Flexibility Score: inf
ROOT
ATOM      1  C   UNL     1      16.087  21.097  32.327  1.00  0.00     0.187 C 
ENDROOT
BRANCH   1   2
ATOM      2  C   UNL     1      15.709  21.670  30.991  1.00  0.00    -0.045 C 
ATOM      3  C   UNL     1      13.308  20.340  28.220  1.00  0.00     0.012 C 
ATOM      4  C   UNL     1      13.988  21.348  29.183  1.00  0.00    -0.026 C 
ATOM      5  C   UNL     1      14.934  22.326  28.434  1.00  0.00    -0.000 C 
ATOM      6  C   UNL     1      12.897  21.936  30.121  1.00  0.00     0.012 C 
ATOM      7  C   UNL     1      15.278  20.771  29.823  1.00  0.00     0.023 C 
ATOM      8  C   UNL     1      15.317  23.530  29.362  1.00  0.00     0.031 C 
ATOM      9  C   UNL     1      16.065  21.291  28.603  1.00  0.00     0.013 C 
ATOM     10  C   UNL     1      15.750  23.013  30.748  1.00  0.00    -0.025 C 
ENDBRANCH   1   2
BRANCH   1  11
ATOM     11  O   UNL     1      15.273  19.997  32.632  1.00  0.00    -0.392 OA
ATOM     12  H   UNL     1      15.727  19.503  33.365  1.00  0.00     0.211 HD
ENDBRANCH   1  11
TORSDOF 2
ENDMDL
MODEL 5
REMARK VINA RESULT:    -4.455      8.747     10.618
REMARK INTER + INTRA:          -4.869
REMARK INTER:                  -4.812
REMARK INTRA:                  -0.057
REMARK UNBOUND:                -0.023
REMARK SMILES CC1(C)[C@H]2CC=C(CO)[C@@H]1C2
REMARK SMILES IDX 8 1 7 2 1 3 2 4 4 5 3 6 10 7 5 8 11 9 6 10 9 11
REMARK H PARENT 9 12
REMARK Flexibility Score: inf
ROOT
ATOM      1  C   UNL     1      15.031  21.357  32.571  1.00  0.00     0.187 C 
ENDROOT
BRANCH   1   2
ATOM      2  C   UNL     1      14.515  21.624  31.184  1.00  0.00    -0.045 C 
ATOM      3  C   UNL     1      16.284  21.442  27.714  1.00  0.00     0.012 C 
ATOM      4  C   UNL     1      15.180  21.252  28.785  1.00  0.00    -0.026 C 
ATOM      5  C   UNL     1      13.967  22.194  28.550  1.00  0.00    -0.000 C 
ATOM      6  C   UNL     1      14.920  19.729  28.953  1.00  0.00     0.012 C 
ATOM      7  C   UNL     1      15.444  22.100  30.058  1.00  0.00     0.023 C 
ATOM      8  C   UNL     1      12.745  21.735  29.418  1.00  0.00     0.031 C 
ATOM      9  C   UNL     1      14.694  23.267  29.385  1.00  0.00     0.013 C 
ATOM     10  C   UNL     1      13.195  21.474  30.869  1.00  0.00    -0.025 C 
ENDBRANCH   1   2
BRANCH   1  11
ATOM     11  O   UNL     1      15.427  20.018  32.691  1.00  0.00    -0.392 OA
ATOM     12  H   UNL     1      15.072  19.545  31.893  1.00  0.00     0.211 HD
ENDBRANCH   1  11
TORSDOF 2
ENDMDL
MODEL 6
REMARK VINA RESULT:    -4.437     12.853     14.204
REMARK INTER + INTRA:          -4.849
REMARK INTER:                  -4.792
REMARK INTRA:                  -0.057
REMARK UNBOUND:                -0.023
REMARK SMILES CC1(C)[C@H]2CC=C(CO)[C@@H]1C2
REMARK SMILES IDX 8 1 7 2 1 3 2 4 4 5 3 6 10 7 5 8 11 9 6 10 9 11
REMARK H PARENT 9 12
REMARK Flexibility Score: inf
ROOT
ATOM      1  C   UNL     1       9.013  21.561  20.109  1.00  0.00     0.187 C 
ENDROOT
BRANCH   1   2
ATOM      2  C   UNL     1       9.564  21.855  21.476  1.00  0.00    -0.045 C 
ATOM      3  C   UNL     1       7.893  21.717  24.996  1.00  0.00     0.012 C 
ATOM      4  C   UNL     1       8.969  21.518  23.898  1.00  0.00    -0.026 C 
ATOM      5  C   UNL     1      10.180  22.473  24.084  1.00  0.00    -0.000 C 
ATOM      6  C   UNL     1       9.237  19.994  23.748  1.00  0.00     0.012 C 
ATOM      7  C   UNL     1       8.663  22.342  22.620  1.00  0.00     0.023 C 
ATOM      8  C   UNL     1      11.382  22.009  23.191  1.00  0.00     0.031 C 
ATOM      9  C   UNL     1       9.421  23.526  23.252  1.00  0.00     0.013 C 
ATOM     10  C   UNL     1      10.894  21.720  21.757  1.00  0.00    -0.025 C 
ENDBRANCH   1   2
BRANCH   1  11
ATOM     11  O   UNL     1       8.619  20.218  20.024  1.00  0.00    -0.392 OA
ATOM     12  H   UNL     1       9.114  19.732  20.735  1.00  0.00     0.211 HD
ENDBRANCH   1  11
TORSDOF 2
ENDMDL
MODEL 7
REMARK VINA RESULT:    -4.432     12.057     14.154
REMARK INTER + INTRA:          -4.844
REMARK INTER:                  -4.800
REMARK INTRA:                  -0.043
REMARK UNBOUND:                -0.023
REMARK SMILES CC1(C)[C@H]2CC=C(CO)[C@@H]1C2
REMARK SMILES IDX 8 1 7 2 1 3 2 4 4 5 3 6 10 7 5 8 11 9 6 10 9 11
REMARK H PARENT 9 12
REMARK Flexibility Score: inf
ROOT
ATOM      1  C   UNL     1       9.009  21.493  20.030  1.00  0.00     0.187 C 
ENDROOT
BRANCH   1   2
ATOM      2  C   UNL     1       9.088  22.025  21.433  1.00  0.00    -0.045 C 
ATOM      3  C   UNL     1      11.079  20.766  24.540  1.00  0.00     0.012 C 
ATOM      4  C   UNL     1      10.487  21.760  23.509  1.00  0.00    -0.026 C 
ATOM      5  C   UNL     1       9.334  22.611  24.109  1.00  0.00    -0.000 C 
ATOM      6  C   UNL     1      11.665  22.491  22.804  1.00  0.00     0.012 C 
ATOM      7  C   UNL     1       9.391  21.107  22.626  1.00  0.00     0.023 C 
ATOM      8  C   UNL     1       9.008  23.824  23.172  1.00  0.00     0.031 C 
ATOM      9  C   UNL     1       8.355  21.491  23.701  1.00  0.00     0.013 C 
ATOM     10  C   UNL     1       8.877  23.346  21.713  1.00  0.00    -0.025 C 
ENDBRANCH   1   2
BRANCH   1  11
ATOM     11  O   UNL     1       8.652  20.138  20.044  1.00  0.00    -0.392 OA
ATOM     12  H   UNL     1       7.865  20.059  20.646  1.00  0.00     0.211 HD
ENDBRANCH   1  11
TORSDOF 2
ENDMDL
MODEL 8
REMARK VINA RESULT:    -4.409     11.384     13.639
REMARK INTER + INTRA:          -4.818
REMARK INTER:                  -4.761
REMARK INTRA:                  -0.057
REMARK UNBOUND:                -0.023
REMARK SMILES CC1(C)[C@H]2CC=C(CO)[C@@H]1C2
REMARK SMILES IDX 8 1 7 2 1 3 2 4 4 5 3 6 10 7 5 8 11 9 6 10 9 11
REMARK H PARENT 9 12
REMARK Flexibility Score: inf
ROOT
ATOM      1  C   UNL     1       6.104  20.631  26.719  1.00  0.00     0.187 C 
ENDROOT
BRANCH   1   2
ATOM      2  C   UNL     1       7.300  20.585  25.810  1.00  0.00    -0.045 C 
ATOM      3  C   UNL     1      10.985  19.497  26.478  1.00  0.00     0.012 C 
ATOM      4  C   UNL     1       9.624  19.621  25.745  1.00  0.00    -0.026 C 
ATOM      5  C   UNL     1       9.715  20.536  24.493  1.00  0.00    -0.000 C 
ATOM      6  C   UNL     1       9.025  18.195  25.585  1.00  0.00     0.012 C 
ATOM      7  C   UNL     1       8.729  20.733  26.352  1.00  0.00     0.023 C 
ATOM      8  C   UNL     1       8.443  20.357  23.594  1.00  0.00     0.031 C 
ATOM      9  C   UNL     1       9.414  21.741  25.408  1.00  0.00     0.013 C 
ATOM     10  C   UNL     1       7.169  20.427  24.460  1.00  0.00    -0.025 C 
ENDBRANCH   1   2
BRANCH   1  11
ATOM     11  O   UNL     1       5.805  19.346  27.193  1.00  0.00    -0.392 OA
ATOM     12  H   UNL     1       5.609  18.789  26.394  1.00  0.00     0.211 HD
ENDBRANCH   1  11
TORSDOF 2
ENDMDL
MODEL 9
REMARK VINA RESULT:    -4.311      7.130      9.080
REMARK INTER + INTRA:          -4.712
REMARK INTER:                  -4.652
REMARK INTRA:                  -0.060
REMARK UNBOUND:                -0.023
REMARK SMILES CC1(C)[C@H]2CC=C(CO)[C@@H]1C2
REMARK SMILES IDX 8 1 7 2 1 3 2 4 4 5 3 6 10 7 5 8 11 9 6 10 9 11
REMARK H PARENT 9 12
REMARK Flexibility Score: inf
ROOT
ATOM      1  C   UNL     1      13.480  21.585  30.193  1.00  0.00     0.187 C 
ENDROOT
BRANCH   1   2
ATOM      2  C   UNL     1      14.400  21.301  29.040  1.00  0.00    -0.045 C 
ATOM      3  C   UNL     1      15.335  17.953  27.272  1.00  0.00     0.012 C 
ATOM      4  C   UNL     1      14.941  19.444  27.429  1.00  0.00    -0.026 C 
ATOM      5  C   UNL     1      16.118  20.400  27.089  1.00  0.00    -0.000 C 
ATOM      6  C   UNL     1      13.574  19.664  26.722  1.00  0.00     0.012 C 
ATOM      7  C   UNL     1      15.106  19.946  28.887  1.00  0.00     0.023 C 
ATOM      8  C   UNL     1      15.595  21.867  26.914  1.00  0.00     0.031 C 
ATOM      9  C   UNL     1      16.572  20.290  28.559  1.00  0.00     0.013 C 
ATOM     10  C   UNL     1      14.666  22.241  28.085  1.00  0.00    -0.025 C 
ENDBRANCH   1   2
BRANCH   1  11
ATOM     11  O   UNL     1      12.732  20.442  30.509  1.00  0.00    -0.392 OA
ATOM     12  H   UNL     1      12.976  20.192  31.439  1.00  0.00     0.211 HD
ENDBRANCH   1  11
TORSDOF 2
ENDMDL
