MODEL 1
REMARK VINA RESULT:    -3.112      0.000      0.000
REMARK INTER + INTRA:          -3.112
REMARK INTER:                  -3.112
REMARK INTRA:                   0.000
REMARK UNBOUND:                 0.000
REMARK SMILES CC(=O)[O-]
REMARK SMILES IDX 1 1 2 2 3 3 4 4
REMARK H PARENT
REMARK Flexibility Score: inf
ROOT
ATOM      1  C   UNL     1      11.880  63.812 -21.203  1.00  0.00     0.063 C 
ATOM      2  C   UNL     1      11.694  63.450 -22.638  1.00  0.00     0.038 C 
ATOM      3  O   UNL     1      11.807  62.252 -23.007  1.00  0.00    -0.550 OA
ATOM      4  O   UNL     1      11.448  64.441 -23.580  1.00  0.00    -0.550 OA
ENDROOT
TORSDOF 0
ENDMDL
MODEL 2
REMARK VINA RESULT:    -2.868     14.103     14.623
REMARK INTER + INTRA:          -2.868
REMARK INTER:                  -2.868
REMARK INTRA:                   0.000
REMARK UNBOUND:                 0.000
REMARK SMILES CC(=O)[O-]
REMARK SMILES IDX 1 1 2 2 3 3 4 4
REMARK H PARENT
REMARK Flexibility Score: inf
ROOT
ATOM      1  C   UNL     1      17.938  75.102 -30.854  1.00  0.00     0.063 C 
ATOM      2  C   UNL     1      18.378  74.147 -29.798  1.00  0.00     0.038 C 
ATOM      3  O   UNL     1      18.216  72.908 -29.958  1.00  0.00    -0.550 OA
ATOM      4  O   UNL     1      18.919  74.622 -28.610  1.00  0.00    -0.550 OA
ENDROOT
TORSDOF 0
ENDMDL
MODEL 3
REMARK VINA RESULT:    -2.851     14.067     14.633
REMARK INTER + INTRA:          -2.851
REMARK INTER:                  -2.851
REMARK INTRA:                   0.000
REMARK UNBOUND:                 0.000
REMARK SMILES CC(=O)[O-]
REMARK SMILES IDX 1 1 2 2 3 3 4 4
REMARK H PARENT
REMARK Flexibility Score: inf
ROOT
ATOM      1  C   UNL     1      17.972  75.112 -30.827  1.00  0.00     0.063 C 
ATOM      2  C   UNL     1      18.361  74.136 -29.769  1.00  0.00     0.038 C 
ATOM      3  O   UNL     1      18.833  74.543 -28.675  1.00  0.00    -0.550 OA
ATOM      4  O   UNL     1      18.255  72.771 -30.008  1.00  0.00    -0.550 OA
ENDROOT
TORSDOF 0
ENDMDL
MODEL 4
REMARK VINA RESULT:    -2.823      2.493      2.538
REMARK INTER + INTRA:          -2.823
REMARK INTER:                  -2.823
REMARK INTRA:                   0.000
REMARK UNBOUND:                 0.000
REMARK SMILES CC(=O)[O-]
REMARK SMILES IDX 1 1 2 2 3 3 4 4
REMARK H PARENT
REMARK Flexibility Score: inf
ROOT
ATOM      1  C   UNL     1      11.614  64.270 -20.512  1.00  0.00     0.063 C 
ATOM      2  C   UNL     1      12.536  65.114 -21.327  1.00  0.00     0.038 C 
ATOM      3  O   UNL     1      13.777  65.076 -21.120  1.00  0.00    -0.550 OA
ATOM      4  O   UNL     1      12.023  65.984 -22.281  1.00  0.00    -0.550 OA
ENDROOT
TORSDOF 0
ENDMDL
MODEL 5
REMARK VINA RESULT:    -2.764      1.927      2.442
REMARK INTER + INTRA:          -2.764
REMARK INTER:                  -2.764
REMARK INTRA:                   0.000
REMARK UNBOUND:                 0.000
REMARK SMILES CC(=O)[O-]
REMARK SMILES IDX 1 1 2 2 3 3 4 4
REMARK H PARENT
REMARK Flexibility Score: inf
ROOT
ATOM      1  C   UNL     1      11.366  64.239 -20.443  1.00  0.00     0.063 C 
ATOM      2  C   UNL     1      12.246  64.857 -21.477  1.00  0.00     0.038 C 
ATOM      3  O   UNL     1      11.778  65.162 -22.605  1.00  0.00    -0.550 OA
ATOM      4  O   UNL     1      13.597  65.049 -21.218  1.00  0.00    -0.550 OA
ENDROOT
TORSDOF 0
ENDMDL
MODEL 6
REMARK VINA RESULT:    -2.614     19.023     19.265
REMARK INTER + INTRA:          -2.614
REMARK INTER:                  -2.614
REMARK INTRA:                   0.000
REMARK UNBOUND:                 0.000
REMARK SMILES CC(=O)[O-]
REMARK SMILES IDX 1 1 2 2 3 3 4 4
REMARK H PARENT
REMARK Flexibility Score: inf
ROOT
ATOM      1  C   UNL     1      29.116  71.658 -28.187  1.00  0.00     0.063 C 
ATOM      2  C   UNL     1      27.855  71.707 -28.981  1.00  0.00     0.038 C 
ATOM      3  O   UNL     1      27.858  71.375 -30.196  1.00  0.00    -0.550 OA
ATOM      4  O   UNL     1      26.682  72.171 -28.398  1.00  0.00    -0.550 OA
ENDROOT
TORSDOF 0
ENDMDL
MODEL 7
REMARK VINA RESULT:    -2.577     13.641     14.145
REMARK INTER + INTRA:          -2.577
REMARK INTER:                  -2.577
REMARK INTRA:                   0.000
REMARK UNBOUND:                 0.000
REMARK SMILES CC(=O)[O-]
REMARK SMILES IDX 1 1 2 2 3 3 4 4
REMARK H PARENT
REMARK Flexibility Score: inf
ROOT
ATOM      1  C   UNL     1      16.430  74.011 -29.398  1.00  0.00     0.063 C 
ATOM      2  C   UNL     1      17.739  73.818 -30.084  1.00  0.00     0.038 C 
ATOM      3  O   UNL     1      18.378  72.743 -29.938  1.00  0.00    -0.550 OA
ATOM      4  O   UNL     1      18.286  74.845 -30.844  1.00  0.00    -0.550 OA
ENDROOT
TORSDOF 0
ENDMDL
MODEL 8
REMARK VINA RESULT:    -2.532     18.773     18.975
REMARK INTER + INTRA:          -2.532
REMARK INTER:                  -2.532
REMARK INTRA:                   0.000
REMARK UNBOUND:                 0.000
REMARK SMILES CC(=O)[O-]
REMARK SMILES IDX 1 1 2 2 3 3 4 4
REMARK H PARENT
REMARK Flexibility Score: inf
ROOT
ATOM      1  C   UNL     1      29.107  72.083 -28.769  1.00  0.00     0.063 C 
ATOM      2  C   UNL     1      27.863  71.300 -28.516  1.00  0.00     0.038 C 
ATOM      3  O   UNL     1      27.933  70.073 -28.245  1.00  0.00    -0.550 OA
ATOM      4  O   UNL     1      26.620  71.910 -28.633  1.00  0.00    -0.550 OA
ENDROOT
TORSDOF 0
ENDMDL
MODEL 9
REMARK VINA RESULT:    -2.427      2.393      3.101
REMARK INTER + INTRA:          -2.427
REMARK INTER:                  -2.427
REMARK INTRA:                   0.000
REMARK UNBOUND:                 0.000
REMARK SMILES CC(=O)[O-]
REMARK SMILES IDX 1 1 2 2 3 3 4 4
REMARK H PARENT
REMARK Flexibility Score: inf
ROOT
ATOM      1  C   UNL     1      13.282  65.348 -20.904  1.00  0.00     0.063 C 
ATOM      2  C   UNL     1      12.107  65.925 -21.620  1.00  0.00     0.038 C 
ATOM      3  O   UNL     1      11.482  66.900 -21.126  1.00  0.00    -0.550 OA
ATOM      4  O   UNL     1      11.665  65.354 -22.807  1.00  0.00    -0.550 OA
ENDROOT
TORSDOF 0
ENDMDL
