MODEL 1
REMARK VINA RESULT:     6.396      0.000      0.000
REMARK INTER + INTRA:          18.523
REMARK INTER:                  16.117
REMARK INTRA:                   2.406
REMARK UNBOUND:                 2.406
REMARK SMILES CCCCCCCCCCCCCCCCCCCCCCCCCCCC(=O)[O-]
REMARK SMILES IDX 15 1 16 2 17 3 18 4 19 5 20 6 21 7 22 8 23 9 24 10 25 11
REMARK SMILES IDX 26 12 27 13 28 14 29 15 30 16 14 17 13 18 12 19 11 20 10 21
REMARK SMILES IDX 9 22 8 23 7 24 6 25 5 26 4 27 3 28 2 29 1 30
REMARK H PARENT
REMARK Flexibility Score: inf
ROOT
ATOM      1  C   UNL     1      36.028 104.918 266.233  1.00  0.00     0.000 C 
ENDROOT
BRANCH   1   2
ATOM      2  C   UNL     1      34.877 105.933 266.157  1.00  0.00     0.000 C 
BRANCH   2   3
ATOM      3  C   UNL     1      34.951 106.830 264.912  1.00  0.00     0.000 C 
BRANCH   3   4
ATOM      4  C   UNL     1      35.296 108.290 265.257  1.00  0.00     0.000 C 
BRANCH   4   5
ATOM      5  C   UNL     1      34.892 108.680 266.691  1.00  0.00     0.000 C 
BRANCH   5   6
ATOM      6  C   UNL     1      36.051 109.145 267.594  1.00  0.00     0.000 C 
BRANCH   6   7
ATOM      7  C   UNL     1      35.960 108.589 269.023  1.00  0.00     0.000 C 
BRANCH   7   8
ATOM      8  C   UNL     1      34.937 107.445 269.103  1.00  0.00     0.000 C 
BRANCH   8   9
ATOM      9  C   UNL     1      35.538 106.138 269.651  1.00  0.00     0.000 C 
BRANCH   9  10
ATOM     10  C   UNL     1      36.222 106.266 271.024  1.00  0.00     0.000 C 
BRANCH  10  11
ATOM     11  C   UNL     1      37.616 106.907 270.941  1.00  0.00     0.000 C 
BRANCH  11  12
ATOM     12  C   UNL     1      38.675 106.004 271.592  1.00  0.00     0.006 C 
BRANCH  12  13
ATOM     13  C   UNL     1      38.059 104.757 272.238  1.00  0.00     0.053 C 
BRANCH  13  14
ATOM     14  C   UNL     1      38.989 104.124 273.228  1.00  0.00     0.041 C 
ATOM     15  O   UNL     1      39.995 103.479 272.829  1.00  0.00    -0.550 OA
ATOM     16  O   UNL     1      38.727 104.218 274.589  1.00  0.00    -0.550 OA
ENDBRANCH  13  14
ENDBRANCH  12  13
ENDBRANCH  11  12
ENDBRANCH  10  11
ENDBRANCH   9  10
ENDBRANCH   8   9
ENDBRANCH   7   8
ENDBRANCH   6   7
ENDBRANCH   5   6
ENDBRANCH   4   5
ENDBRANCH   3   4
ENDBRANCH   2   3
ENDBRANCH   1   2
BRANCH   1  17
ATOM     17  C   UNL     1      36.198 104.187 264.895  1.00  0.00     0.000 C 
BRANCH  17  18
ATOM     18  C   UNL     1      34.903 104.229 264.067  1.00  0.00     0.000 C 
BRANCH  18  19
ATOM     19  C   UNL     1      35.130 104.740 262.632  1.00  0.00     0.000 C 
BRANCH  19  20
ATOM     20  C   UNL     1      36.147 103.925 261.810  1.00  0.00     0.000 C 
BRANCH  20  21
ATOM     21  C   UNL     1      36.511 104.599 260.480  1.00  0.00     0.000 C 
BRANCH  21  22
ATOM     22  C   UNL     1      36.061 106.068 260.468  1.00  0.00    -0.000 C 
BRANCH  22  23
ATOM     23  C   UNL     1      36.108 106.697 259.060  1.00  0.00    -0.000 C 
BRANCH  23  24
ATOM     24  C   UNL     1      37.366 106.326 258.250  1.00  0.00    -0.000 C 
BRANCH  24  25
ATOM     25  C   UNL     1      38.609 105.966 259.087  1.00  0.00    -0.000 C 
BRANCH  25  26
ATOM     26  C   UNL     1      38.475 106.208 260.603  1.00  0.00    -0.000 C 
BRANCH  26  27
ATOM     27  C   UNL     1      39.820 106.118 261.345  1.00  0.00    -0.000 C 
BRANCH  27  28
ATOM     28  C   UNL     1      40.072 107.328 262.259  1.00  0.00    -0.000 C 
BRANCH  28  29
ATOM     29  C   UNL     1      38.800 107.815 262.969  1.00  0.00    -0.003 C 
ATOM     30  C   UNL     1      38.276 106.758 263.938  1.00  0.00     0.004 C 
ENDBRANCH  28  29
ENDBRANCH  27  28
ENDBRANCH  26  27
ENDBRANCH  25  26
ENDBRANCH  24  25
ENDBRANCH  23  24
ENDBRANCH  22  23
ENDBRANCH  21  22
ENDBRANCH  20  21
ENDBRANCH  19  20
ENDBRANCH  18  19
ENDBRANCH  17  18
ENDBRANCH   1  17
TORSDOF 26
ENDMDL
MODEL 2
REMARK VINA RESULT:     7.095      1.079      2.742
REMARK INTER + INTRA:          20.285
REMARK INTER:                  15.775
REMARK INTRA:                   4.510
REMARK UNBOUND:                 2.406
REMARK SMILES CCCCCCCCCCCCCCCCCCCCCCCCCCCC(=O)[O-]
REMARK SMILES IDX 15 1 16 2 17 3 18 4 19 5 20 6 21 7 22 8 23 9 24 10 25 11
REMARK SMILES IDX 26 12 27 13 28 14 29 15 30 16 14 17 13 18 12 19 11 20 10 21
REMARK SMILES IDX 9 22 8 23 7 24 6 25 5 26 4 27 3 28 2 29 1 30
REMARK H PARENT
REMARK Flexibility Score: inf
ROOT
ATOM      1  C   UNL     1      36.462 104.974 266.012  1.00  0.00     0.000 C 
ENDROOT
BRANCH   1   2
ATOM      2  C   UNL     1      35.258 104.266 266.651  1.00  0.00     0.000 C 
BRANCH   2   3
ATOM      3  C   UNL     1      35.020 104.689 268.110  1.00  0.00     0.000 C 
BRANCH   3   4
ATOM      4  C   UNL     1      35.176 106.206 268.316  1.00  0.00     0.000 C 
BRANCH   4   5
ATOM      5  C   UNL     1      34.875 107.020 267.043  1.00  0.00     0.000 C 
BRANCH   5   6
ATOM      6  C   UNL     1      35.172 108.528 267.144  1.00  0.00     0.000 C 
BRANCH   6   7
ATOM      7  C   UNL     1      35.050 109.070 268.577  1.00  0.00     0.000 C 
BRANCH   7   8
ATOM      8  C   UNL     1      34.996 107.921 269.595  1.00  0.00     0.000 C 
BRANCH   8   9
ATOM      9  C   UNL     1      35.990 108.100 270.757  1.00  0.00     0.000 C 
BRANCH   9  10
ATOM     10  C   UNL     1      37.342 107.391 270.568  1.00  0.00     0.000 C 
BRANCH  10  11
ATOM     11  C   UNL     1      37.849 106.717 271.852  1.00  0.00     0.000 C 
BRANCH  11  12
ATOM     12  C   UNL     1      38.111 105.221 271.621  1.00  0.00     0.006 C 
BRANCH  12  13
ATOM     13  C   UNL     1      39.499 104.791 272.111  1.00  0.00     0.053 C 
BRANCH  13  14
ATOM     14  C   UNL     1      39.414 103.878 273.296  1.00  0.00     0.041 C 
ATOM     15  O   UNL     1      40.289 102.989 273.475  1.00  0.00    -0.550 OA
ATOM     16  O   UNL     1      38.352 103.987 274.184  1.00  0.00    -0.550 OA
ENDBRANCH  13  14
ENDBRANCH  12  13
ENDBRANCH  11  12
ENDBRANCH  10  11
ENDBRANCH   9  10
ENDBRANCH   8   9
ENDBRANCH   7   8
ENDBRANCH   6   7
ENDBRANCH   5   6
ENDBRANCH   4   5
ENDBRANCH   3   4
ENDBRANCH   2   3
ENDBRANCH   1   2
BRANCH   1  17
ATOM     17  C   UNL     1      36.389 104.897 264.481  1.00  0.00     0.000 C 
BRANCH  17  18
ATOM     18  C   UNL     1      35.094 105.534 263.952  1.00  0.00     0.000 C 
BRANCH  18  19
ATOM     19  C   UNL     1      35.190 107.067 263.834  1.00  0.00     0.000 C 
BRANCH  19  20
ATOM     20  C   UNL     1      36.624 107.629 263.875  1.00  0.00     0.000 C 
BRANCH  20  21
ATOM     21  C   UNL     1      37.402 107.363 262.580  1.00  0.00     0.000 C 
BRANCH  21  22
ATOM     22  C   UNL     1      38.906 107.221 262.863  1.00  0.00    -0.000 C 
BRANCH  22  23
ATOM     23  C   UNL     1      39.665 106.509 261.724  1.00  0.00    -0.000 C 
BRANCH  23  24
ATOM     24  C   UNL     1      38.761 105.675 260.794  1.00  0.00    -0.000 C 
BRANCH  24  25
ATOM     25  C   UNL     1      38.767 106.099 259.313  1.00  0.00    -0.000 C 
BRANCH  25  26
ATOM     26  C   UNL     1      37.439 106.679 258.789  1.00  0.00    -0.000 C 
BRANCH  26  27
ATOM     27  C   UNL     1      36.206 105.926 259.320  1.00  0.00    -0.000 C 
BRANCH  27  28
ATOM     28  C   UNL     1      36.317 105.592 260.816  1.00  0.00    -0.000 C 
BRANCH  28  29
ATOM     29  C   UNL     1      35.212 104.639 261.298  1.00  0.00    -0.003 C 
ATOM     30  C   UNL     1      35.792 103.280 261.684  1.00  0.00     0.004 C 
ENDBRANCH  28  29
ENDBRANCH  27  28
ENDBRANCH  26  27
ENDBRANCH  25  26
ENDBRANCH  24  25
ENDBRANCH  23  24
ENDBRANCH  22  23
ENDBRANCH  21  22
ENDBRANCH  20  21
ENDBRANCH  19  20
ENDBRANCH  18  19
ENDBRANCH  17  18
ENDBRANCH   1  17
TORSDOF 26
ENDMDL
MODEL 3
REMARK VINA RESULT:     7.163      2.870      9.105
REMARK INTER + INTRA:          20.456
REMARK INTER:                  16.662
REMARK INTRA:                   3.793
REMARK UNBOUND:                 2.406
REMARK SMILES CCCCCCCCCCCCCCCCCCCCCCCCCCCC(=O)[O-]
REMARK SMILES IDX 15 1 16 2 17 3 18 4 19 5 20 6 21 7 22 8 23 9 24 10 25 11
REMARK SMILES IDX 26 12 27 13 28 14 29 15 30 16 14 17 13 18 12 19 11 20 10 21
REMARK SMILES IDX 9 22 8 23 7 24 6 25 5 26 4 27 3 28 2 29 1 30
REMARK H PARENT
REMARK Flexibility Score: inf
ROOT
ATOM      1  C   UNL     1      36.617 104.392 266.144  1.00  0.00     0.000 C 
ENDROOT
BRANCH   1   2
ATOM      2  C   UNL     1      36.524 104.217 264.620  1.00  0.00     0.000 C 
BRANCH   2   3
ATOM      3  C   UNL     1      35.077 104.075 264.122  1.00  0.00     0.000 C 
BRANCH   3   4
ATOM      4  C   UNL     1      34.993 103.935 262.591  1.00  0.00     0.000 C 
BRANCH   4   5
ATOM      5  C   UNL     1      35.321 105.244 261.848  1.00  0.00     0.000 C 
BRANCH   5   6
ATOM      6  C   UNL     1      36.087 105.069 260.523  1.00  0.00     0.000 C 
BRANCH   6   7
ATOM      7  C   UNL     1      35.508 105.915 259.378  1.00  0.00     0.000 C 
BRANCH   7   8
ATOM      8  C   UNL     1      36.481 107.035 258.978  1.00  0.00     0.000 C 
BRANCH   8   9
ATOM      9  C   UNL     1      37.748 106.509 258.278  1.00  0.00     0.000 C 
BRANCH   9  10
ATOM     10  C   UNL     1      38.528 105.442 259.068  1.00  0.00     0.000 C 
BRANCH  10  11
ATOM     11  C   UNL     1      39.003 105.942 260.440  1.00  0.00     0.000 C 
BRANCH  11  12
ATOM     12  C   UNL     1      37.816 106.420 261.291  1.00  0.00     0.006 C 
BRANCH  12  13
ATOM     13  C   UNL     1      38.216 107.526 262.277  1.00  0.00     0.053 C 
BRANCH  13  14
ATOM     14  C   UNL     1      39.654 107.417 262.683  1.00  0.00     0.041 C 
ATOM     15  O   UNL     1      40.539 108.061 262.060  1.00  0.00    -0.550 OA
ATOM     16  O   UNL     1      40.021 106.578 263.728  1.00  0.00    -0.550 OA
ENDBRANCH  13  14
ENDBRANCH  12  13
ENDBRANCH  11  12
ENDBRANCH  10  11
ENDBRANCH   9  10
ENDBRANCH   8   9
ENDBRANCH   7   8
ENDBRANCH   6   7
ENDBRANCH   5   6
ENDBRANCH   4   5
ENDBRANCH   3   4
ENDBRANCH   2   3
ENDBRANCH   1   2
BRANCH   1  17
ATOM     17  C   UNL     1      35.222 104.556 266.760  1.00  0.00     0.000 C 
BRANCH  17  18
ATOM     18  C   UNL     1      34.893 106.037 267.011  1.00  0.00     0.000 C 
BRANCH  18  19
ATOM     19  C   UNL     1      34.875 106.871 265.716  1.00  0.00     0.000 C 
BRANCH  19  20
ATOM     20  C   UNL     1      35.131 108.377 265.916  1.00  0.00     0.000 C 
BRANCH  20  21
ATOM     21  C   UNL     1      36.108 108.666 267.064  1.00  0.00     0.000 C 
BRANCH  21  22
ATOM     22  C   UNL     1      35.354 109.096 268.332  1.00  0.00    -0.000 C 
BRANCH  22  23
ATOM     23  C   UNL     1      34.875 107.897 269.178  1.00  0.00    -0.000 C 
BRANCH  23  24
ATOM     24  C   UNL     1      35.663 107.700 270.488  1.00  0.00    -0.000 C 
BRANCH  24  25
ATOM     25  C   UNL     1      36.900 106.787 270.384  1.00  0.00    -0.000 C 
BRANCH  25  26
ATOM     26  C   UNL     1      38.162 107.303 271.102  1.00  0.00    -0.000 C 
BRANCH  26  27
ATOM     27  C   UNL     1      38.882 106.207 271.908  1.00  0.00    -0.000 C 
BRANCH  27  28
ATOM     28  C   UNL     1      38.152 104.856 271.852  1.00  0.00    -0.000 C 
BRANCH  28  29
ATOM     29  C   UNL     1      38.167 104.113 273.197  1.00  0.00    -0.003 C 
ATOM     30  C   UNL     1      39.589 103.989 273.738  1.00  0.00     0.004 C 
ENDBRANCH  28  29
ENDBRANCH  27  28
ENDBRANCH  26  27
ENDBRANCH  25  26
ENDBRANCH  24  25
ENDBRANCH  23  24
ENDBRANCH  22  23
ENDBRANCH  21  22
ENDBRANCH  20  21
ENDBRANCH  19  20
ENDBRANCH  18  19
ENDBRANCH  17  18
ENDBRANCH   1  17
TORSDOF 26
ENDMDL
MODEL 4
REMARK VINA RESULT:     7.799      1.359      2.912
REMARK INTER + INTRA:          22.060
REMARK INTER:                  22.577
REMARK INTRA:                  -0.517
REMARK UNBOUND:                 2.406
REMARK SMILES CCCCCCCCCCCCCCCCCCCCCCCCCCCC(=O)[O-]
REMARK SMILES IDX 15 1 16 2 17 3 18 4 19 5 20 6 21 7 22 8 23 9 24 10 25 11
REMARK SMILES IDX 26 12 27 13 28 14 29 15 30 16 14 17 13 18 12 19 11 20 10 21
REMARK SMILES IDX 9 22 8 23 7 24 6 25 5 26 4 27 3 28 2 29 1 30
REMARK H PARENT
REMARK Flexibility Score: inf
ROOT
ATOM      1  C   UNL     1      36.408 104.443 266.972  1.00  0.00     0.000 C 
ENDROOT
BRANCH   1   2
ATOM      2  C   UNL     1      34.966 104.852 267.311  1.00  0.00     0.000 C 
BRANCH   2   3
ATOM      3  C   UNL     1      34.875 106.242 267.960  1.00  0.00     0.000 C 
BRANCH   3   4
ATOM      4  C   UNL     1      34.876 107.378 266.922  1.00  0.00     0.000 C 
BRANCH   4   5
ATOM      5  C   UNL     1      35.589 108.648 267.422  1.00  0.00     0.000 C 
BRANCH   5   6
ATOM      6  C   UNL     1      35.039 109.234 268.737  1.00  0.00     0.000 C 
BRANCH   6   7
ATOM      7  C   UNL     1      35.398 108.388 269.969  1.00  0.00     0.000 C 
BRANCH   7   8
ATOM      8  C   UNL     1      36.745 107.676 269.772  1.00  0.00     0.000 C 
BRANCH   8   9
ATOM      9  C   UNL     1      36.923 106.460 270.699  1.00  0.00     0.000 C 
BRANCH   9  10
ATOM     10  C   UNL     1      38.329 106.310 271.307  1.00  0.00     0.000 C 
BRANCH  10  11
ATOM     11  C   UNL     1      38.342 105.453 272.582  1.00  0.00     0.000 C 
BRANCH  11  12
ATOM     12  C   UNL     1      38.920 104.058 272.300  1.00  0.00     0.006 C 
BRANCH  12  13
ATOM     13  C   UNL     1      39.704 103.501 273.495  1.00  0.00     0.053 C 
BRANCH  13  14
ATOM     14  C   UNL     1      38.826 103.295 274.691  1.00  0.00     0.041 C 
ATOM     15  O   UNL     1      38.413 104.284 275.352  1.00  0.00    -0.550 OA
ATOM     16  O   UNL     1      38.492 102.009 275.096  1.00  0.00    -0.550 OA
ENDBRANCH  13  14
ENDBRANCH  12  13
ENDBRANCH  11  12
ENDBRANCH  10  11
ENDBRANCH   9  10
ENDBRANCH   8   9
ENDBRANCH   7   8
ENDBRANCH   6   7
ENDBRANCH   5   6
ENDBRANCH   4   5
ENDBRANCH   3   4
ENDBRANCH   2   3
ENDBRANCH   1   2
BRANCH   1  17
ATOM     17  C   UNL     1      36.559 104.172 265.470  1.00  0.00     0.000 C 
BRANCH  17  18
ATOM     18  C   UNL     1      35.273 104.528 264.707  1.00  0.00     0.000 C 
BRANCH  18  19
ATOM     19  C   UNL     1      35.372 105.875 263.967  1.00  0.00     0.000 C 
BRANCH  19  20
ATOM     20  C   UNL     1      36.610 106.024 263.062  1.00  0.00     0.000 C 
BRANCH  20  21
ATOM     21  C   UNL     1      37.776 106.733 263.765  1.00  0.00     0.000 C 
BRANCH  21  22
ATOM     22  C   UNL     1      38.558 107.614 262.777  1.00  0.00    -0.000 C 
BRANCH  22  23
ATOM     23  C   UNL     1      38.194 107.329 261.305  1.00  0.00    -0.000 C 
BRANCH  23  24
ATOM     24  C   UNL     1      39.289 106.576 260.523  1.00  0.00    -0.000 C 
BRANCH  24  25
ATOM     25  C   UNL     1      38.958 105.114 260.165  1.00  0.00    -0.000 C 
BRANCH  25  26
ATOM     26  C   UNL     1      37.621 104.903 259.428  1.00  0.00    -0.000 C 
BRANCH  26  27
ATOM     27  C   UNL     1      37.319 106.012 258.405  1.00  0.00    -0.000 C 
BRANCH  27  28
ATOM     28  C   UNL     1      35.837 106.421 258.397  1.00  0.00    -0.000 C 
BRANCH  28  29
ATOM     29  C   UNL     1      35.603 107.827 258.971  1.00  0.00    -0.003 C 
ATOM     30  C   UNL     1      35.712 108.888 257.879  1.00  0.00     0.004 C 
ENDBRANCH  28  29
ENDBRANCH  27  28
ENDBRANCH  26  27
ENDBRANCH  25  26
ENDBRANCH  24  25
ENDBRANCH  23  24
ENDBRANCH  22  23
ENDBRANCH  21  22
ENDBRANCH  20  21
ENDBRANCH  19  20
ENDBRANCH  18  19
ENDBRANCH  17  18
ENDBRANCH   1  17
TORSDOF 26
ENDMDL
MODEL 5
REMARK VINA RESULT:     7.967      1.051      1.790
REMARK INTER + INTRA:          22.482
REMARK INTER:                  20.941
REMARK INTRA:                   1.542
REMARK UNBOUND:                 2.406
REMARK SMILES CCCCCCCCCCCCCCCCCCCCCCCCCCCC(=O)[O-]
REMARK SMILES IDX 15 1 16 2 17 3 18 4 19 5 20 6 21 7 22 8 23 9 24 10 25 11
REMARK SMILES IDX 26 12 27 13 28 14 29 15 30 16 14 17 13 18 12 19 11 20 10 21
REMARK SMILES IDX 9 22 8 23 7 24 6 25 5 26 4 27 3 28 2 29 1 30
REMARK H PARENT
REMARK Flexibility Score: inf
ROOT
ATOM      1  C   UNL     1      37.030 103.923 266.964  1.00  0.00     0.000 C 
ENDROOT
BRANCH   1   2
ATOM      2  C   UNL     1      35.522 104.040 267.235  1.00  0.00     0.000 C 
BRANCH   2   3
ATOM      3  C   UNL     1      35.131 105.382 267.876  1.00  0.00     0.000 C 
BRANCH   3   4
ATOM      4  C   UNL     1      34.876 106.482 266.830  1.00  0.00     0.000 C 
BRANCH   4   5
ATOM      5  C   UNL     1      36.083 107.420 266.638  1.00  0.00     0.000 C 
BRANCH   5   6
ATOM      6  C   UNL     1      35.747 108.924 266.620  1.00  0.00     0.000 C 
BRANCH   6   7
ATOM      7  C   UNL     1      35.277 109.452 267.984  1.00  0.00     0.000 C 
BRANCH   7   8
ATOM      8  C   UNL     1      36.032 108.760 269.129  1.00  0.00     0.000 C 
BRANCH   8   9
ATOM      9  C   UNL     1      35.201 107.665 269.822  1.00  0.00     0.000 C 
BRANCH   9  10
ATOM     10  C   UNL     1      35.908 106.957 270.991  1.00  0.00     0.000 C 
BRANCH  10  11
ATOM     11  C   UNL     1      37.383 106.642 270.696  1.00  0.00     0.000 C 
BRANCH  11  12
ATOM     12  C   UNL     1      38.103 106.148 271.959  1.00  0.00     0.006 C 
BRANCH  12  13
ATOM     13  C   UNL     1      38.262 104.622 271.979  1.00  0.00     0.053 C 
BRANCH  13  14
ATOM     14  C   UNL     1      39.031 104.157 273.178  1.00  0.00     0.041 C 
ATOM     15  O   UNL     1      38.532 104.260 274.330  1.00  0.00    -0.550 OA
ATOM     16  O   UNL     1      40.313 103.643 273.027  1.00  0.00    -0.550 OA
ENDBRANCH  13  14
ENDBRANCH  12  13
ENDBRANCH  11  12
ENDBRANCH  10  11
ENDBRANCH   9  10
ENDBRANCH   8   9
ENDBRANCH   7   8
ENDBRANCH   6   7
ENDBRANCH   5   6
ENDBRANCH   4   5
ENDBRANCH   3   4
ENDBRANCH   2   3
ENDBRANCH   1   2
BRANCH   1  17
ATOM     17  C   UNL     1      37.315 103.948 265.457  1.00  0.00     0.000 C 
BRANCH  17  18
ATOM     18  C   UNL     1      36.131 104.539 264.674  1.00  0.00     0.000 C 
BRANCH  18  19
ATOM     19  C   UNL     1      36.382 105.990 264.222  1.00  0.00     0.000 C 
BRANCH  19  20
ATOM     20  C   UNL     1      35.889 106.316 262.799  1.00  0.00     0.000 C 
BRANCH  20  21
ATOM     21  C   UNL     1      34.875 105.291 262.273  1.00  0.00     0.000 C 
BRANCH  21  22
ATOM     22  C   UNL     1      35.570 104.222 261.415  1.00  0.00    -0.000 C 
BRANCH  22  23
ATOM     23  C   UNL     1      36.770 104.780 260.621  1.00  0.00    -0.000 C 
BRANCH  23  24
ATOM     24  C   UNL     1      36.388 105.415 259.270  1.00  0.00    -0.000 C 
BRANCH  24  25
ATOM     25  C   UNL     1      37.400 106.430 258.707  1.00  0.00    -0.000 C 
BRANCH  25  26
ATOM     26  C   UNL     1      38.766 106.464 259.421  1.00  0.00    -0.000 C 
BRANCH  26  27
ATOM     27  C   UNL     1      38.667 106.126 260.919  1.00  0.00    -0.000 C 
BRANCH  27  28
ATOM     28  C   UNL     1      39.589 107.000 261.783  1.00  0.00    -0.000 C 
BRANCH  28  29
ATOM     29  C   UNL     1      39.271 106.902 263.283  1.00  0.00    -0.003 C 
ATOM     30  C   UNL     1      40.548 106.730 264.103  1.00  0.00     0.004 C 
ENDBRANCH  28  29
ENDBRANCH  27  28
ENDBRANCH  26  27
ENDBRANCH  25  26
ENDBRANCH  24  25
ENDBRANCH  23  24
ENDBRANCH  22  23
ENDBRANCH  21  22
ENDBRANCH  20  21
ENDBRANCH  19  20
ENDBRANCH  18  19
ENDBRANCH  17  18
ENDBRANCH   1  17
TORSDOF 26
ENDMDL
MODEL 6
REMARK VINA RESULT:     8.101      1.319      3.793
REMARK INTER + INTRA:          22.821
REMARK INTER:                  25.168
REMARK INTRA:                  -2.347
REMARK UNBOUND:                 2.406
REMARK SMILES CCCCCCCCCCCCCCCCCCCCCCCCCCCC(=O)[O-]
REMARK SMILES IDX 15 1 16 2 17 3 18 4 19 5 20 6 21 7 22 8 23 9 24 10 25 11
REMARK SMILES IDX 26 12 27 13 28 14 29 15 30 16 14 17 13 18 12 19 11 20 10 21
REMARK SMILES IDX 9 22 8 23 7 24 6 25 5 26 4 27 3 28 2 29 1 30
REMARK H PARENT
REMARK Flexibility Score: inf
ROOT
ATOM      1  C   UNL     1      38.406 107.898 263.091  1.00  0.00     0.000 C 
ENDROOT
BRANCH   1   2
ATOM      2  C   UNL     1      37.104 107.516 263.812  1.00  0.00     0.000 C 
BRANCH   2   3
ATOM      3  C   UNL     1      36.855 108.347 265.080  1.00  0.00     0.000 C 
BRANCH   3   4
ATOM      4  C   UNL     1      35.542 107.965 265.787  1.00  0.00     0.000 C 
BRANCH   4   5
ATOM      5  C   UNL     1      35.169 108.933 266.926  1.00  0.00     0.000 C 
BRANCH   5   6
ATOM      6  C   UNL     1      34.928 108.269 268.295  1.00  0.00     0.000 C 
BRANCH   6   7
ATOM      7  C   UNL     1      34.950 106.734 268.232  1.00  0.00     0.000 C 
BRANCH   7   8
ATOM      8  C   UNL     1      35.100 106.130 269.637  1.00  0.00     0.000 C 
BRANCH   8   9
ATOM      9  C   UNL     1      35.951 107.002 270.578  1.00  0.00     0.000 C 
BRANCH   9  10
ATOM     10  C   UNL     1      37.233 107.575 269.948  1.00  0.00     0.000 C 
BRANCH  10  11
ATOM     11  C   UNL     1      38.453 107.470 270.874  1.00  0.00     0.000 C 
BRANCH  11  12
ATOM     12  C   UNL     1      38.181 106.501 272.035  1.00  0.00     0.006 C 
BRANCH  12  13
ATOM     13  C   UNL     1      38.762 105.105 271.776  1.00  0.00     0.053 C 
BRANCH  13  14
ATOM     14  C   UNL     1      38.675 104.230 272.989  1.00  0.00     0.041 C 
ATOM     15  O   UNL     1      38.065 103.130 272.934  1.00  0.00    -0.550 OA
ATOM     16  O   UNL     1      39.238 104.646 274.189  1.00  0.00    -0.550 OA
ENDBRANCH  13  14
ENDBRANCH  12  13
ENDBRANCH  11  12
ENDBRANCH  10  11
ENDBRANCH   9  10
ENDBRANCH   8   9
ENDBRANCH   7   8
ENDBRANCH   6   7
ENDBRANCH   5   6
ENDBRANCH   4   5
ENDBRANCH   3   4
ENDBRANCH   2   3
ENDBRANCH   1   2
BRANCH   1  17
ATOM     17  C   UNL     1      39.451 106.783 263.225  1.00  0.00     0.000 C 
BRANCH  17  18
ATOM     18  C   UNL     1      39.851 106.225 261.850  1.00  0.00     0.000 C 
BRANCH  18  19
ATOM     19  C   UNL     1      39.024 106.829 260.698  1.00  0.00     0.000 C 
BRANCH  19  20
ATOM     20  C   UNL     1      38.343 105.794 259.782  1.00  0.00     0.000 C 
BRANCH  20  21
ATOM     21  C   UNL     1      36.828 105.703 260.014  1.00  0.00     0.000 C 
BRANCH  21  22
ATOM     22  C   UNL     1      36.502 104.687 261.120  1.00  0.00    -0.000 C 
BRANCH  22  23
ATOM     23  C   UNL     1      35.421 105.194 262.098  1.00  0.00    -0.000 C 
BRANCH  23  24
ATOM     24  C   UNL     1      35.168 104.255 263.293  1.00  0.00    -0.000 C 
BRANCH  24  25
ATOM     25  C   UNL     1      34.875 104.955 264.634  1.00  0.00    -0.000 C 
BRANCH  25  26
ATOM     26  C   UNL     1      35.896 104.684 265.756  1.00  0.00    -0.000 C 
BRANCH  26  27
ATOM     27  C   UNL     1      37.265 104.227 265.222  1.00  0.00    -0.000 C 
BRANCH  27  28
ATOM     28  C   UNL     1      37.875 103.090 266.057  1.00  0.00    -0.000 C 
BRANCH  28  29
ATOM     29  C   UNL     1      37.203 101.733 265.798  1.00  0.00    -0.003 C 
ATOM     30  C   UNL     1      37.914 100.976 264.679  1.00  0.00     0.004 C 
ENDBRANCH  28  29
ENDBRANCH  27  28
ENDBRANCH  26  27
ENDBRANCH  25  26
ENDBRANCH  24  25
ENDBRANCH  23  24
ENDBRANCH  22  23
ENDBRANCH  21  22
ENDBRANCH  20  21
ENDBRANCH  19  20
ENDBRANCH  18  19
ENDBRANCH  17  18
ENDBRANCH   1  17
TORSDOF 26
ENDMDL
MODEL 7
REMARK VINA RESULT:     8.159      2.172      3.693
REMARK INTER + INTRA:          22.965
REMARK INTER:                  24.085
REMARK INTRA:                  -1.120
REMARK UNBOUND:                 2.406
REMARK SMILES CCCCCCCCCCCCCCCCCCCCCCCCCCCC(=O)[O-]
REMARK SMILES IDX 15 1 16 2 17 3 18 4 19 5 20 6 21 7 22 8 23 9 24 10 25 11
REMARK SMILES IDX 26 12 27 13 28 14 29 15 30 16 14 17 13 18 12 19 11 20 10 21
REMARK SMILES IDX 9 22 8 23 7 24 6 25 5 26 4 27 3 28 2 29 1 30
REMARK H PARENT
REMARK Flexibility Score: inf
ROOT
ATOM      1  C   UNL     1      36.106 108.245 266.827  1.00  0.00     0.000 C 
ENDROOT
BRANCH   1   2
ATOM      2  C   UNL     1      34.979 108.025 267.848  1.00  0.00     0.000 C 
BRANCH   2   3
ATOM      3  C   UNL     1      34.921 106.583 268.375  1.00  0.00     0.000 C 
BRANCH   3   4
ATOM      4  C   UNL     1      35.127 106.504 269.898  1.00  0.00     0.000 C 
BRANCH   4   5
ATOM      5  C   UNL     1      35.980 107.662 270.450  1.00  0.00     0.000 C 
BRANCH   5   6
ATOM      6  C   UNL     1      37.354 107.252 271.015  1.00  0.00     0.000 C 
BRANCH   6   7
ATOM      7  C   UNL     1      37.515 105.730 271.160  1.00  0.00     0.000 C 
BRANCH   7   8
ATOM      8  C   UNL     1      38.781 105.387 271.959  1.00  0.00     0.000 C 
BRANCH   8   9
ATOM      9  C   UNL     1      38.492 104.529 273.204  1.00  0.00     0.000 C 
BRANCH   9  10
ATOM     10  C   UNL     1      39.421 103.315 273.385  1.00  0.00     0.000 C 
BRANCH  10  11
ATOM     11  C   UNL     1      40.798 103.514 272.733  1.00  0.00     0.000 C 
BRANCH  11  12
ATOM     12  C   UNL     1      41.902 102.842 273.564  1.00  0.00     0.006 C 
BRANCH  12  13
ATOM     13  C   UNL     1      43.203 103.655 273.569  1.00  0.00     0.053 C 
BRANCH  13  14
ATOM     14  C   UNL     1      44.331 102.898 274.201  1.00  0.00     0.041 C 
ATOM     15  O   UNL     1      45.414 103.482 274.470  1.00  0.00    -0.550 OA
ATOM     16  O   UNL     1      44.199 101.539 274.460  1.00  0.00    -0.550 OA
ENDBRANCH  13  14
ENDBRANCH  12  13
ENDBRANCH  11  12
ENDBRANCH  10  11
ENDBRANCH   9  10
ENDBRANCH   8   9
ENDBRANCH   7   8
ENDBRANCH   6   7
ENDBRANCH   5   6
ENDBRANCH   4   5
ENDBRANCH   3   4
ENDBRANCH   2   3
ENDBRANCH   1   2
BRANCH   1  17
ATOM     17  C   UNL     1      35.539 108.358 265.406  1.00  0.00     0.000 C 
BRANCH  17  18
ATOM     18  C   UNL     1      34.932 107.025 264.940  1.00  0.00     0.000 C 
BRANCH  18  19
ATOM     19  C   UNL     1      35.819 106.293 263.915  1.00  0.00     0.000 C 
BRANCH  19  20
ATOM     20  C   UNL     1      35.268 104.935 263.439  1.00  0.00     0.000 C 
BRANCH  20  21
ATOM     21  C   UNL     1      35.834 104.508 262.078  1.00  0.00     0.000 C 
BRANCH  21  22
ATOM     22  C   UNL     1      35.997 105.721 261.148  1.00  0.00    -0.000 C 
BRANCH  22  23
ATOM     23  C   UNL     1      35.883 105.348 259.655  1.00  0.00    -0.000 C 
BRANCH  23  24
ATOM     24  C   UNL     1      36.557 106.357 258.703  1.00  0.00    -0.000 C 
BRANCH  24  25
ATOM     25  C   UNL     1      38.062 106.585 258.940  1.00  0.00    -0.000 C 
BRANCH  25  26
ATOM     26  C   UNL     1      38.754 105.540 259.837  1.00  0.00    -0.000 C 
BRANCH  26  27
ATOM     27  C   UNL     1      39.403 106.159 261.087  1.00  0.00    -0.000 C 
BRANCH  27  28
ATOM     28  C   UNL     1      38.509 107.217 261.754  1.00  0.00    -0.000 C 
BRANCH  28  29
ATOM     29  C   UNL     1      38.999 107.614 263.155  1.00  0.00    -0.003 C 
ATOM     30  C   UNL     1      40.129 106.699 263.620  1.00  0.00     0.004 C 
ENDBRANCH  28  29
ENDBRANCH  27  28
ENDBRANCH  26  27
ENDBRANCH  25  26
ENDBRANCH  24  25
ENDBRANCH  23  24
ENDBRANCH  22  23
ENDBRANCH  21  22
ENDBRANCH  20  21
ENDBRANCH  19  20
ENDBRANCH  18  19
ENDBRANCH  17  18
ENDBRANCH   1  17
TORSDOF 26
ENDMDL
MODEL 8
REMARK VINA RESULT:     8.325      1.279      2.812
REMARK INTER + INTRA:          23.384
REMARK INTER:                  22.970
REMARK INTRA:                   0.414
REMARK UNBOUND:                 2.406
REMARK SMILES CCCCCCCCCCCCCCCCCCCCCCCCCCCC(=O)[O-]
REMARK SMILES IDX 15 1 16 2 17 3 18 4 19 5 20 6 21 7 22 8 23 9 24 10 25 11
REMARK SMILES IDX 26 12 27 13 28 14 29 15 30 16 14 17 13 18 12 19 11 20 10 21
REMARK SMILES IDX 9 22 8 23 7 24 6 25 5 26 4 27 3 28 2 29 1 30
REMARK H PARENT
REMARK Flexibility Score: inf
ROOT
ATOM      1  C   UNL     1      37.106 105.996 266.116  1.00  0.00     0.000 C 
ENDROOT
BRANCH   1   2
ATOM      2  C   UNL     1      36.118 106.603 265.108  1.00  0.00     0.000 C 
BRANCH   2   3
ATOM      3  C   UNL     1      36.240 108.131 264.996  1.00  0.00     0.000 C 
BRANCH   3   4
ATOM      4  C   UNL     1      34.896 108.847 265.219  1.00  0.00     0.000 C 
BRANCH   4   5
ATOM      5  C   UNL     1      34.920 109.812 266.419  1.00  0.00     0.000 C 
BRANCH   5   6
ATOM      6  C   UNL     1      35.206 109.153 267.783  1.00  0.00     0.000 C 
BRANCH   6   7
ATOM      7  C   UNL     1      35.047 107.625 267.758  1.00  0.00     0.000 C 
BRANCH   7   8
ATOM      8  C   UNL     1      35.221 107.033 269.165  1.00  0.00     0.000 C 
BRANCH   8   9
ATOM      9  C   UNL     1      36.262 107.788 270.010  1.00  0.00     0.000 C 
BRANCH   9  10
ATOM     10  C   UNL     1      37.041 106.914 271.010  1.00  0.00     0.000 C 
BRANCH  10  11
ATOM     11  C   UNL     1      38.444 107.461 271.316  1.00  0.00     0.000 C 
BRANCH  11  12
ATOM     12  C   UNL     1      39.262 106.448 272.131  1.00  0.00     0.006 C 
BRANCH  12  13
ATOM     13  C   UNL     1      38.772 105.008 271.931  1.00  0.00     0.053 C 
BRANCH  13  14
ATOM     14  C   UNL     1      38.804 104.226 273.208  1.00  0.00     0.041 C 
ATOM     15  O   UNL     1      37.754 104.078 273.888  1.00  0.00    -0.550 OA
ATOM     16  O   UNL     1      40.001 103.690 273.667  1.00  0.00    -0.550 OA
ENDBRANCH  13  14
ENDBRANCH  12  13
ENDBRANCH  11  12
ENDBRANCH  10  11
ENDBRANCH   9  10
ENDBRANCH   8   9
ENDBRANCH   7   8
ENDBRANCH   6   7
ENDBRANCH   5   6
ENDBRANCH   4   5
ENDBRANCH   3   4
ENDBRANCH   2   3
ENDBRANCH   1   2
BRANCH   1  17
ATOM     17  C   UNL     1      36.571 104.670 266.672  1.00  0.00     0.000 C 
BRANCH  17  18
ATOM     18  C   UNL     1      36.797 103.518 265.679  1.00  0.00     0.000 C 
BRANCH  18  19
ATOM     19  C   UNL     1      35.539 103.190 264.852  1.00  0.00     0.000 C 
BRANCH  19  20
ATOM     20  C   UNL     1      34.949 104.382 264.075  1.00  0.00     0.000 C 
BRANCH  20  21
ATOM     21  C   UNL     1      35.156 104.263 262.559  1.00  0.00     0.000 C 
BRANCH  21  22
ATOM     22  C   UNL     1      36.560 104.745 262.158  1.00  0.00    -0.000 C 
BRANCH  22  23
ATOM     23  C   UNL     1      36.527 105.994 261.253  1.00  0.00    -0.000 C 
BRANCH  23  24
ATOM     24  C   UNL     1      37.906 106.406 260.701  1.00  0.00    -0.000 C 
BRANCH  24  25
ATOM     25  C   UNL     1      38.250 105.857 259.303  1.00  0.00    -0.000 C 
BRANCH  25  26
ATOM     26  C   UNL     1      37.424 106.446 258.143  1.00  0.00    -0.000 C 
BRANCH  26  27
ATOM     27  C   UNL     1      35.928 106.581 258.481  1.00  0.00    -0.000 C 
BRANCH  27  28
ATOM     28  C   UNL     1      35.299 107.847 257.879  1.00  0.00    -0.000 C 
BRANCH  28  29
ATOM     29  C   UNL     1      36.049 109.130 258.268  1.00  0.00    -0.003 C 
ATOM     30  C   UNL     1      35.091 110.314 258.370  1.00  0.00     0.004 C 
ENDBRANCH  28  29
ENDBRANCH  27  28
ENDBRANCH  26  27
ENDBRANCH  25  26
ENDBRANCH  24  25
ENDBRANCH  23  24
ENDBRANCH  22  23
ENDBRANCH  21  22
ENDBRANCH  20  21
ENDBRANCH  19  20
ENDBRANCH  18  19
ENDBRANCH  17  18
ENDBRANCH   1  17
TORSDOF 26
ENDMDL
