MODEL 1
REMARK VINA RESULT:    -2.712      0.000      0.000
REMARK INTER + INTRA:          -3.228
REMARK INTER:                  -3.188
REMARK INTRA:                  -0.040
REMARK UNBOUND:                -0.040
REMARK SMILES O=C([O-])CCC(=O)[O-]
REMARK SMILES IDX 4 1 2 2 1 3 3 4 5 5 6 6 7 7 8 8
REMARK H PARENT
REMARK Flexibility Score: inf
ROOT
ATOM      1  C   UNL     1      38.760  20.227  80.244  1.00  0.00     0.059 C 
ENDROOT
BRANCH   1   2
ATOM      2  C   UNL     1      37.757  19.300  80.863  1.00  0.00     0.042 C 
ATOM      3  O   UNL     1      37.298  19.536  82.011  1.00  0.00    -0.550 OA
ATOM      4  O   UNL     1      37.362  18.153  80.185  1.00  0.00    -0.550 OA
ENDBRANCH   1   2
BRANCH   1   5
ATOM      5  C   UNL     1      40.162  19.610  80.227  1.00  0.00     0.059 C 
BRANCH   5   6
ATOM      6  C   UNL     1      41.002  20.181  79.125  1.00  0.00     0.042 C 
ATOM      7  O   UNL     1      40.458  20.776  78.157  1.00  0.00    -0.550 OA
ATOM      8  O   UNL     1      42.381  20.023  79.149  1.00  0.00    -0.550 OA
ENDBRANCH   5   6
ENDBRANCH   1   5
TORSDOF 3
ENDMDL
MODEL 2
REMARK VINA RESULT:    -2.680      0.111      4.261
REMARK INTER + INTRA:          -3.191
REMARK INTER:                  -3.145
REMARK INTRA:                  -0.046
REMARK UNBOUND:                -0.040
REMARK SMILES O=C([O-])CCC(=O)[O-]
REMARK SMILES IDX 4 1 2 2 1 3 3 4 5 5 6 6 7 7 8 8
REMARK H PARENT
REMARK Flexibility Score: inf
ROOT
ATOM      1  C   UNL     1      40.143  19.638  80.195  1.00  0.00     0.059 C 
ENDROOT
BRANCH   1   2
ATOM      2  C   UNL     1      40.992  20.195  79.092  1.00  0.00     0.042 C 
ATOM      3  O   UNL     1      40.457  20.773  78.111  1.00  0.00    -0.550 OA
ATOM      4  O   UNL     1      42.372  20.039  79.132  1.00  0.00    -0.550 OA
ENDBRANCH   1   2
BRANCH   1   5
ATOM      5  C   UNL     1      38.741  20.256  80.194  1.00  0.00     0.059 C 
BRANCH   5   6
ATOM      6  C   UNL     1      37.722  19.310  80.752  1.00  0.00     0.042 C 
ATOM      7  O   UNL     1      37.417  18.262  80.123  1.00  0.00    -0.550 OA
ATOM      8  O   UNL     1      37.081  19.605  81.948  1.00  0.00    -0.550 OA
ENDBRANCH   5   6
ENDBRANCH   1   5
TORSDOF 3
ENDMDL
MODEL 3
REMARK VINA RESULT:    -2.639     16.465     16.904
REMARK INTER + INTRA:          -3.143
REMARK INTER:                  -3.076
REMARK INTRA:                  -0.066
REMARK UNBOUND:                -0.040
REMARK SMILES O=C([O-])CCC(=O)[O-]
REMARK SMILES IDX 4 1 2 2 1 3 3 4 5 5 6 6 7 7 8 8
REMARK H PARENT
REMARK Flexibility Score: inf
ROOT
ATOM      1  C   UNL     1      44.841  30.048  91.915  1.00  0.00     0.059 C 
ENDROOT
BRANCH   1   2
ATOM      2  C   UNL     1      43.642  30.400  92.744  1.00  0.00     0.042 C 
ATOM      3  O   UNL     1      42.555  29.787  92.580  1.00  0.00    -0.550 OA
ATOM      4  O   UNL     1      43.718  31.433  93.671  1.00  0.00    -0.550 OA
ENDBRANCH   1   2
BRANCH   1   5
ATOM      5  C   UNL     1      45.619  31.298  91.493  1.00  0.00     0.059 C 
BRANCH   5   6
ATOM      6  C   UNL     1      45.744  31.392  90.003  1.00  0.00     0.042 C 
ATOM      7  O   UNL     1      44.874  30.865  89.259  1.00  0.00    -0.550 OA
ATOM      8  O   UNL     1      46.840  32.028  89.435  1.00  0.00    -0.550 OA
ENDBRANCH   5   6
ENDBRANCH   1   5
TORSDOF 3
ENDMDL
MODEL 4
REMARK VINA RESULT:    -2.624     16.775     17.653
REMARK INTER + INTRA:          -3.125
REMARK INTER:                  -3.083
REMARK INTRA:                  -0.042
REMARK UNBOUND:                -0.040
REMARK SMILES O=C([O-])CCC(=O)[O-]
REMARK SMILES IDX 4 1 2 2 1 3 3 4 5 5 6 6 7 7 8 8
REMARK H PARENT
REMARK Flexibility Score: inf
ROOT
ATOM      1  C   UNL     1      45.120  31.233  90.886  1.00  0.00     0.059 C 
ENDROOT
BRANCH   1   2
ATOM      2  C   UNL     1      46.558  31.364  90.484  1.00  0.00     0.042 C 
ATOM      3  O   UNL     1      47.463  30.848  91.191  1.00  0.00    -0.550 OA
ATOM      4  O   UNL     1      46.900  32.092  89.351  1.00  0.00    -0.550 OA
ENDBRANCH   1   2
BRANCH   1   5
ATOM      5  C   UNL     1      44.933  30.169  91.971  1.00  0.00     0.059 C 
BRANCH   5   6
ATOM      6  C   UNL     1      43.740  30.461  92.830  1.00  0.00     0.042 C 
ATOM      7  O   UNL     1      42.696  29.765  92.723  1.00  0.00    -0.550 OA
ATOM      8  O   UNL     1      43.768  31.527  93.720  1.00  0.00    -0.550 OA
ENDBRANCH   5   6
ENDBRANCH   1   5
TORSDOF 3
ENDMDL
MODEL 5
REMARK VINA RESULT:    -2.613     16.746     17.170
REMARK INTER + INTRA:          -3.112
REMARK INTER:                  -3.074
REMARK INTRA:                  -0.038
REMARK UNBOUND:                -0.040
REMARK SMILES O=C([O-])CCC(=O)[O-]
REMARK SMILES IDX 4 1 2 2 1 3 3 4 5 5 6 6 7 7 8 8
REMARK H PARENT
REMARK Flexibility Score: inf
ROOT
ATOM      1  C   UNL     1      44.967  30.276  91.979  1.00  0.00     0.059 C 
ENDROOT
BRANCH   1   2
ATOM      2  C   UNL     1      43.741  30.571  92.791  1.00  0.00     0.042 C 
ATOM      3  O   UNL     1      43.770  31.461  93.681  1.00  0.00    -0.550 OA
ATOM      4  O   UNL     1      42.581  29.834  92.590  1.00  0.00    -0.550 OA
ENDBRANCH   1   2
BRANCH   1   5
ATOM      5  C   UNL     1      45.123  31.263  90.818  1.00  0.00     0.059 C 
BRANCH   5   6
ATOM      6  C   UNL     1      46.557  31.411  90.410  1.00  0.00     0.042 C 
ATOM      7  O   UNL     1      46.854  31.995  89.334  1.00  0.00    -0.550 OA
ATOM      8  O   UNL     1      47.564  30.869  91.198  1.00  0.00    -0.550 OA
ENDBRANCH   5   6
ENDBRANCH   1   5
TORSDOF 3
ENDMDL
MODEL 6
REMARK VINA RESULT:    -2.604      7.578      8.418
REMARK INTER + INTRA:          -3.101
REMARK INTER:                  -3.047
REMARK INTRA:                  -0.054
REMARK UNBOUND:                -0.040
REMARK SMILES O=C([O-])CCC(=O)[O-]
REMARK SMILES IDX 4 1 2 2 1 3 3 4 5 5 6 6 7 7 8 8
REMARK H PARENT
REMARK Flexibility Score: inf
ROOT
ATOM      1  C   UNL     1      46.115  19.051  77.845  1.00  0.00     0.059 C 
ENDROOT
BRANCH   1   2
ATOM      2  C   UNL     1      45.862  18.058  76.752  1.00  0.00     0.042 C 
ATOM      3  O   UNL     1      45.612  16.857  77.032  1.00  0.00    -0.550 OA
ATOM      4  O   UNL     1      45.944  18.453  75.422  1.00  0.00    -0.550 OA
ENDBRANCH   1   2
BRANCH   1   5
ATOM      5  C   UNL     1      47.068  20.160  77.389  1.00  0.00     0.059 C 
BRANCH   5   6
ATOM      6  C   UNL     1      48.290  20.227  78.254  1.00  0.00     0.042 C 
ATOM      7  O   UNL     1      49.322  20.826  77.849  1.00  0.00    -0.550 OA
ATOM      8  O   UNL     1      48.303  19.594  79.490  1.00  0.00    -0.550 OA
ENDBRANCH   5   6
ENDBRANCH   1   5
TORSDOF 3
ENDMDL
MODEL 7
REMARK VINA RESULT:    -2.601     14.627     16.318
REMARK INTER + INTRA:          -3.097
REMARK INTER:                  -2.977
REMARK INTRA:                  -0.120
REMARK UNBOUND:                -0.040
REMARK SMILES O=C([O-])CCC(=O)[O-]
REMARK SMILES IDX 4 1 2 2 1 3 3 4 5 5 6 6 7 7 8 8
REMARK H PARENT
REMARK Flexibility Score: inf
ROOT
ATOM      1  C   UNL     1      53.813  18.053  86.661  1.00  0.00     0.059 C 
ENDROOT
BRANCH   1   2
ATOM      2  C   UNL     1      52.993  18.613  85.537  1.00  0.00     0.042 C 
ATOM      3  O   UNL     1      53.514  19.397  84.701  1.00  0.00    -0.550 OA
ATOM      4  O   UNL     1      51.643  18.298  85.439  1.00  0.00    -0.550 OA
ENDBRANCH   1   2
BRANCH   1   5
ATOM      5  C   UNL     1      55.313  18.156  86.368  1.00  0.00     0.059 C 
BRANCH   5   6
ATOM      6  C   UNL     1      55.827  16.923  85.688  1.00  0.00     0.042 C 
ATOM      7  O   UNL     1      56.041  15.875  86.352  1.00  0.00    -0.550 OA
ATOM      8  O   UNL     1      56.107  16.945  84.328  1.00  0.00    -0.550 OA
ENDBRANCH   5   6
ENDBRANCH   1   5
TORSDOF 3
ENDMDL
MODEL 8
REMARK VINA RESULT:    -2.597     14.423     16.283
REMARK INTER + INTRA:          -3.093
REMARK INTER:                  -3.051
REMARK INTRA:                  -0.042
REMARK UNBOUND:                -0.040
REMARK SMILES O=C([O-])CCC(=O)[O-]
REMARK SMILES IDX 4 1 2 2 1 3 3 4 5 5 6 6 7 7 8 8
REMARK H PARENT
REMARK Flexibility Score: inf
ROOT
ATOM      1  C   UNL     1      54.354  17.749  86.544  1.00  0.00     0.059 C 
ENDROOT
BRANCH   1   2
ATOM      2  C   UNL     1      55.539  16.838  86.427  1.00  0.00     0.042 C 
ATOM      3  O   UNL     1      56.029  16.300  87.454  1.00  0.00    -0.550 OA
ATOM      4  O   UNL     1      56.125  16.616  85.187  1.00  0.00    -0.550 OA
ENDBRANCH   1   2
BRANCH   1   5
ATOM      5  C   UNL     1      54.056  18.457  85.218  1.00  0.00     0.059 C 
BRANCH   5   6
ATOM      6  C   UNL     1      52.627  18.902  85.141  1.00  0.00     0.042 C 
ATOM      7  O   UNL     1      51.701  18.127  85.499  1.00  0.00    -0.550 OA
ATOM      8  O   UNL     1      52.316  20.158  84.637  1.00  0.00    -0.550 OA
ENDBRANCH   5   6
ENDBRANCH   1   5
TORSDOF 3
ENDMDL
MODEL 9
REMARK VINA RESULT:    -2.589      7.253      9.035
REMARK INTER + INTRA:          -3.084
REMARK INTER:                  -2.979
REMARK INTRA:                  -0.105
REMARK UNBOUND:                -0.040
REMARK SMILES O=C([O-])CCC(=O)[O-]
REMARK SMILES IDX 4 1 2 2 1 3 3 4 5 5 6 6 7 7 8 8
REMARK H PARENT
REMARK Flexibility Score: inf
ROOT
ATOM      1  C   UNL     1      46.328  20.369  76.139  1.00  0.00     0.059 C 
ENDROOT
BRANCH   1   2
ATOM      2  C   UNL     1      47.801  20.644  76.096  1.00  0.00     0.042 C 
ATOM      3  O   UNL     1      48.463  20.722  77.164  1.00  0.00    -0.550 OA
ATOM      4  O   UNL     1      48.432  20.854  74.876  1.00  0.00    -0.550 OA
ENDBRANCH   1   2
BRANCH   1   5
ATOM      5  C   UNL     1      46.011  18.933  75.711  1.00  0.00     0.059 C 
BRANCH   5   6
ATOM      6  C   UNL     1      45.738  18.053  76.892  1.00  0.00     0.042 C 
ATOM      7  O   UNL     1      45.497  18.561  78.019  1.00  0.00    -0.550 OA
ATOM      8  O   UNL     1      45.788  16.672  76.757  1.00  0.00    -0.550 OA
ENDBRANCH   5   6
ENDBRANCH   1   5
TORSDOF 3
ENDMDL
