MODEL 1
REMARK VINA RESULT:    -4.378      0.000      0.000
REMARK INTER + INTRA:          -6.800
REMARK INTER:                  -6.681
REMARK INTRA:                  -0.119
REMARK UNBOUND:                -0.119
REMARK SMILES CC1=CCC[C@H](C)C(=O)C[C@H](C(C)C)C(=O)C1
REMARK SMILES IDX 8 1 9 2 6 3 7 4 5 5 4 6 3 7 2 8 1 9 10 11 11 12 15 13 16 14
REMARK SMILES IDX 17 15 12 17 13 18 14 19
REMARK H PARENT
REMARK Flexibility Score: 70.00
ROOT
ATOM      1  C   UNL     1     -14.144  12.900   0.112  1.00  0.00     0.136 C 
ATOM      2  O   UNL     1     -14.357  13.258  -1.039  1.00  0.00    -0.299 OA
ENDROOT
BRANCH   1   3
ATOM      3  C   UNL     1     -14.382  11.448   0.479  1.00  0.00     0.053 C 
ATOM      4  C   UNL     1     -14.637  10.605  -0.776  1.00  0.00     0.016 C 
BRANCH   3   5
ATOM      5  C   UNL     1     -13.218  10.872   1.306  1.00  0.00     0.015 C 
BRANCH   5   6
ATOM      6  C   UNL     1     -13.685  10.356   2.679  1.00  0.00     0.028 C 
BRANCH   6   7
ATOM      7  C   UNL     1     -12.913  11.022   3.788  1.00  0.00    -0.028 C 
ATOM      8  C   UNL     1     -13.302  12.155   4.418  1.00  0.00    -0.070 CG0
ATOM      9  C   UNL     1     -12.381  12.734   5.464  1.00  0.00     0.039 C 
ATOM     10  G   UNL     1     -14.623  12.851   4.131  1.00  0.00     0.000 G0
ENDBRANCH   6   7
ENDBRANCH   5   6
ENDBRANCH   3   5
ENDBRANCH   1   3
BRANCH   1  11
ATOM     11  C   UNL     1     -13.627  13.919   1.105  1.00  0.00     0.087 C 
BRANCH  11  12
ATOM     12  C   UNL     1     -14.751  14.466   2.026  1.00  0.00     0.066 C 
BRANCH  12  13
ATOM     13  C   UNL     1     -14.432  14.226   3.496  1.00  0.00     0.140 C 
ATOM     14  O   UNL     1     -14.071  15.159   4.200  1.00  0.00    -0.299 OA
BRANCH  13  15
ATOM     15  C   UNL     1     -14.620  12.866   4.122  1.00  0.00     0.106 CG0
ATOM     16  G   UNL     1     -13.295  12.182   4.421  1.00  0.00     0.000 G0
ENDBRANCH  13  15
ENDBRANCH  12  13
BRANCH  12  17
ATOM     17  C   UNL     1     -15.071  15.963   1.725  1.00  0.00    -0.006 C 
ATOM     18  C   UNL     1     -16.428  16.186   1.033  1.00  0.00     0.008 C 
ATOM     19  C   UNL     1     -13.948  16.629   0.916  1.00  0.00     0.008 C 
ENDBRANCH  12  17
ENDBRANCH  11  12
ENDBRANCH   1  11
TORSDOF 1
ENDMDL
MODEL 2
REMARK VINA RESULT:    -4.358      1.544      3.910
REMARK INTER + INTRA:          -6.770
REMARK INTER:                  -6.632
REMARK INTRA:                  -0.138
REMARK UNBOUND:                -0.119
REMARK SMILES CC1=CCC[C@H](C)C(=O)C[C@H](C(C)C)C(=O)C1
REMARK SMILES IDX 8 1 9 2 6 3 7 4 5 5 4 6 3 7 2 8 1 9 10 11 11 12 15 13 16 14
REMARK SMILES IDX 17 15 12 17 13 18 14 19
REMARK H PARENT
REMARK Flexibility Score: 70.00
ROOT
ATOM      1  C   UNL     1     -13.874  13.516   4.166  1.00  0.00     0.136 C 
ATOM      2  O   UNL     1     -14.023  14.589   4.735  1.00  0.00    -0.299 OA
ENDROOT
BRANCH   1   3
ATOM      3  C   UNL     1     -12.877  12.523   4.732  1.00  0.00     0.053 C 
ATOM      4  C   UNL     1     -11.828  13.237   5.593  1.00  0.00     0.016 C 
BRANCH   3   5
ATOM      5  C   UNL     1     -13.576  11.404   5.526  1.00  0.00     0.015 C 
BRANCH   5   6
ATOM      6  C   UNL     1     -13.779  10.135   4.679  1.00  0.00     0.028 C 
BRANCH   6   7
ATOM      7  C   UNL     1     -12.665   9.982   3.676  1.00  0.00    -0.028 C 
ATOM      8  C   UNL     1     -12.811  10.132   2.339  1.00  0.00    -0.070 CG0
ATOM      9  C   UNL     1     -11.609   9.877   1.463  1.00  0.00     0.039 C 
ATOM     10  G   UNL     1     -14.120  10.558   1.692  1.00  0.00     0.000 G0
ENDBRANCH   6   7
ENDBRANCH   5   6
ENDBRANCH   3   5
ENDBRANCH   1   3
BRANCH   1  11
ATOM     11  C   UNL     1     -14.714  13.221   2.942  1.00  0.00     0.087 C 
BRANCH  11  12
ATOM     12  C   UNL     1     -13.867  13.194   1.640  1.00  0.00     0.066 C 
BRANCH  12  13
ATOM     13  C   UNL     1     -14.012  11.866   0.909  1.00  0.00     0.140 C 
ATOM     14  O   UNL     1     -13.974  11.838  -0.313  1.00  0.00    -0.299 OA
BRANCH  13  15
ATOM     15  C   UNL     1     -14.134  10.568   1.668  1.00  0.00     0.106 CG0
ATOM     16  G   UNL     1     -12.821  10.154   2.314  1.00  0.00     0.000 G0
ENDBRANCH  13  15
ENDBRANCH  12  13
BRANCH  12  17
ATOM     17  C   UNL     1     -14.178  14.415   0.720  1.00  0.00    -0.006 C 
ATOM     18  C   UNL     1     -12.933  15.217   0.300  1.00  0.00     0.008 C 
ATOM     19  C   UNL     1     -15.220  15.349   1.354  1.00  0.00     0.008 C 
ENDBRANCH  12  17
ENDBRANCH  11  12
ENDBRANCH   1  11
TORSDOF 1
ENDMDL
MODEL 3
REMARK VINA RESULT:    -3.632      1.769      4.444
REMARK INTER + INTRA:          -5.661
REMARK INTER:                  -5.890
REMARK INTRA:                   0.229
REMARK UNBOUND:                -0.119
REMARK SMILES CC1=CCC[C@H](C)C(=O)C[C@H](C(C)C)C(=O)C1
REMARK SMILES IDX 8 1 9 2 6 3 7 4 5 5 4 6 3 7 2 8 1 9 10 11 11 12 15 13 16 14
REMARK SMILES IDX 17 15 12 17 13 18 14 19
REMARK H PARENT
REMARK Flexibility Score: 70.00
ROOT
ATOM      1  C   UNL     1     -14.441  14.355   3.124  1.00  0.00     0.136 C 
ATOM      2  O   UNL     1     -14.788  15.094   4.035  1.00  0.00    -0.299 OA
ENDROOT
BRANCH   1   3
ATOM      3  C   UNL     1     -15.159  14.455   1.790  1.00  0.00     0.053 C 
ATOM      4  C   UNL     1     -15.684  15.877   1.562  1.00  0.00     0.016 C 
BRANCH   3   5
ATOM      5  C   UNL     1     -14.259  14.003   0.625  1.00  0.00     0.015 C 
BRANCH   5   6
ATOM      6  C   UNL     1     -14.701  12.647   0.047  1.00  0.00     0.028 C 
BRANCH   6   7
ATOM      7  C   UNL     1     -13.621  11.613   0.233  1.00  0.00    -0.028 C 
ATOM      8  C   UNL     1     -13.500  10.819   1.323  1.00  0.00    -0.070 CG0
ATOM      9  C   UNL     1     -12.321   9.879   1.386  1.00  0.00     0.039 C 
ATOM     10  G   UNL     1     -14.503  10.822   2.466  1.00  0.00     0.000 G0
ENDBRANCH   6   7
ENDBRANCH   5   6
ENDBRANCH   3   5
ENDBRANCH   1   3
BRANCH   1  11
ATOM     11  C   UNL     1     -13.294  13.396   3.362  1.00  0.00     0.087 C 
BRANCH  11  12
ATOM     12  C   UNL     1     -13.634  12.327   4.436  1.00  0.00     0.066 C 
BRANCH  12  13
ATOM     13  C   UNL     1     -13.825  10.951   3.812  1.00  0.00     0.140 C 
ATOM     14  O   UNL     1     -13.486   9.951   4.430  1.00  0.00    -0.299 OA
BRANCH  13  15
ATOM     15  C   UNL     1     -14.490  10.791   2.467  1.00  0.00     0.106 CG0
ATOM     16  G   UNL     1     -13.491  10.840   1.322  1.00  0.00     0.000 G0
ENDBRANCH  13  15
ENDBRANCH  12  13
BRANCH  12  17
ATOM     17  C   UNL     1     -12.587  12.314   5.594  1.00  0.00    -0.006 C 
ATOM     18  C   UNL     1     -13.195  12.062   6.985  1.00  0.00     0.008 C 
ATOM     19  C   UNL     1     -11.746  13.600   5.608  1.00  0.00     0.008 C 
ENDBRANCH  12  17
ENDBRANCH  11  12
ENDBRANCH   1  11
TORSDOF 1
ENDMDL
MODEL 4
REMARK VINA RESULT:    -3.465      1.731      3.864
REMARK INTER + INTRA:          -5.406
REMARK INTER:                  -7.124
REMARK INTRA:                   1.718
REMARK UNBOUND:                -0.119
REMARK SMILES CC1=CCC[C@H](C)C(=O)C[C@H](C(C)C)C(=O)C1
REMARK SMILES IDX 8 1 9 2 6 3 7 4 5 5 4 6 3 7 2 8 1 9 10 11 11 12 15 13 16 14
REMARK SMILES IDX 17 15 12 17 13 18 14 19
REMARK H PARENT
REMARK Flexibility Score: 70.00
ROOT
ATOM      1  C   UNL     1     -14.097  13.999   3.738  1.00  0.00     0.136 C 
ATOM      2  O   UNL     1     -13.978  14.762   4.686  1.00  0.00    -0.299 OA
ENDROOT
BRANCH   1   3
ATOM      3  C   UNL     1     -13.225  12.758   3.687  1.00  0.00     0.053 C 
ATOM      4  C   UNL     1     -12.610  12.470   5.062  1.00  0.00     0.016 C 
BRANCH   3   5
ATOM      5  C   UNL     1     -14.003  11.537   3.162  1.00  0.00     0.015 C 
BRANCH   5   6
ATOM      6  C   UNL     1     -13.479  11.064   1.794  1.00  0.00     0.028 C 
BRANCH   6   7
ATOM      7  C   UNL     1     -14.368  11.560   0.684  1.00  0.00    -0.028 C 
ATOM      8  C   UNL     1     -14.304  12.802   0.147  1.00  0.00    -0.070 CG0
ATOM      9  C   UNL     1     -15.312  13.167  -0.914  1.00  0.00     0.039 C 
ATOM     10  G   UNL     1     -13.256  13.826   0.554  1.00  0.00     0.000 G0
ENDBRANCH   6   7
ENDBRANCH   5   6
ENDBRANCH   3   5
ENDBRANCH   1   3
BRANCH   1  11
ATOM     11  C   UNL     1     -15.128  14.315   2.677  1.00  0.00     0.087 C 
BRANCH  11  12
ATOM     12  C   UNL     1     -14.750  15.569   1.843  1.00  0.00     0.066 C 
BRANCH  12  13
ATOM     13  C   UNL     1     -13.806  15.216   0.701  1.00  0.00     0.140 C 
ATOM     14  O   UNL     1     -13.445  16.085  -0.080  1.00  0.00    -0.299 OA
BRANCH  13  15
ATOM     15  C   UNL     1     -13.252  13.820   0.552  1.00  0.00     0.106 CG0
ATOM     16  G   UNL     1     -14.317  12.821   0.126  1.00  0.00     0.000 G0
ENDBRANCH  13  15
ENDBRANCH  12  13
BRANCH  12  17
ATOM     17  C   UNL     1     -16.014  16.342   1.351  1.00  0.00    -0.006 C 
ATOM     18  C   UNL     1     -16.917  15.528   0.407  1.00  0.00     0.008 C 
ATOM     19  C   UNL     1     -15.638  17.682   0.701  1.00  0.00     0.008 C 
ENDBRANCH  12  17
ENDBRANCH  11  12
ENDBRANCH   1  11
TORSDOF 1
ENDMDL
MODEL 5
REMARK VINA RESULT:    -3.431      1.456      2.135
REMARK INTER + INTRA:          -5.354
REMARK INTER:                  -6.489
REMARK INTRA:                   1.135
REMARK UNBOUND:                -0.119
REMARK SMILES CC1=CCC[C@H](C)C(=O)C[C@H](C(C)C)C(=O)C1
REMARK SMILES IDX 8 1 9 2 6 3 7 4 5 5 4 6 3 7 2 8 1 9 10 11 11 12 15 13 16 14
REMARK SMILES IDX 17 15 12 17 13 18 14 19
REMARK H PARENT
REMARK Flexibility Score: 70.00
ROOT
ATOM      1  C   UNL     1     -13.642  10.973   1.415  1.00  0.00     0.136 C 
ATOM      2  O   UNL     1     -14.698  10.676   0.872  1.00  0.00    -0.299 OA
ENDROOT
BRANCH   1   3
ATOM      3  C   UNL     1     -12.823   9.875   2.066  1.00  0.00     0.053 C 
ATOM      4  C   UNL     1     -11.388   9.875   1.525  1.00  0.00     0.016 C 
BRANCH   3   5
ATOM      5  C   UNL     1     -12.836   9.990   3.601  1.00  0.00     0.015 C 
BRANCH   5   6
ATOM      6  C   UNL     1     -14.139  10.623   4.122  1.00  0.00     0.028 C 
BRANCH   6   7
ATOM      7  C   UNL     1     -13.874  11.445   5.357  1.00  0.00    -0.028 C 
ATOM      8  C   UNL     1     -13.289  12.665   5.355  1.00  0.00    -0.070 CG0
ATOM      9  C   UNL     1     -13.033  13.329   6.685  1.00  0.00     0.039 C 
ATOM     10  G   UNL     1     -12.898  13.394   4.079  1.00  0.00     0.000 G0
ENDBRANCH   6   7
ENDBRANCH   5   6
ENDBRANCH   3   5
ENDBRANCH   1   3
BRANCH   1  11
ATOM     11  C   UNL     1     -13.192  12.418   1.384  1.00  0.00     0.087 C 
BRANCH  11  12
ATOM     12  C   UNL     1     -14.306  13.392   1.854  1.00  0.00     0.066 C 
BRANCH  12  13
ATOM     13  C   UNL     1     -14.044  13.899   3.266  1.00  0.00     0.140 C 
ATOM     14  O   UNL     1     -14.822  14.690   3.782  1.00  0.00    -0.299 OA
BRANCH  13  15
ATOM     15  C   UNL     1     -12.875  13.390   4.073  1.00  0.00     0.106 CG0
ATOM     16  G   UNL     1     -13.317  12.670   5.337  1.00  0.00     0.000 G0
ENDBRANCH  13  15
ENDBRANCH  12  13
BRANCH  12  17
ATOM     17  C   UNL     1     -14.526  14.555   0.838  1.00  0.00    -0.006 C 
ATOM     18  C   UNL     1     -13.226  15.231   0.368  1.00  0.00     0.008 C 
ATOM     19  C   UNL     1     -15.502  15.607   1.387  1.00  0.00     0.008 C 
ENDBRANCH  12  17
ENDBRANCH  11  12
ENDBRANCH   1  11
TORSDOF 1
ENDMDL
MODEL 6
REMARK VINA RESULT:    -3.358      1.903      4.777
REMARK INTER + INTRA:          -5.244
REMARK INTER:                  -5.538
REMARK INTRA:                   0.295
REMARK UNBOUND:                -0.119
REMARK SMILES CC1=CCC[C@H](C)C(=O)C[C@H](C(C)C)C(=O)C1
REMARK SMILES IDX 8 1 9 2 6 3 7 4 5 5 4 6 3 7 2 8 1 9 10 11 11 12 15 13 16 14
REMARK SMILES IDX 17 15 12 17 13 18 14 19
REMARK H PARENT
REMARK Flexibility Score: 70.00
ROOT
ATOM      1  C   UNL     1     -14.715  14.530   2.953  1.00  0.00     0.136 C 
ATOM      2  O   UNL     1     -15.432  14.874   3.883  1.00  0.00    -0.299 OA
ENDROOT
BRANCH   1   3
ATOM      3  C   UNL     1     -15.102  14.939   1.544  1.00  0.00     0.053 C 
ATOM      4  C   UNL     1     -16.166  16.043   1.572  1.00  0.00     0.016 C 
BRANCH   3   5
ATOM      5  C   UNL     1     -13.875  15.374   0.720  1.00  0.00     0.015 C 
BRANCH   5   6
ATOM      6  C   UNL     1     -13.456  14.300  -0.300  1.00  0.00     0.028 C 
BRANCH   6   7
ATOM      7  C   UNL     1     -14.443  13.163  -0.312  1.00  0.00    -0.028 C 
ATOM      8  C   UNL     1     -14.270  11.991   0.344  1.00  0.00    -0.070 CG0
ATOM      9  C   UNL     1     -15.324  10.924   0.176  1.00  0.00     0.039 C 
ATOM     10  G   UNL     1     -13.079  11.716   1.248  1.00  0.00     0.000 G0
ENDBRANCH   6   7
ENDBRANCH   5   6
ENDBRANCH   3   5
ENDBRANCH   1   3
BRANCH   1  11
ATOM     11  C   UNL     1     -13.462  13.738   3.256  1.00  0.00     0.087 C 
BRANCH  11  12
ATOM     12  C   UNL     1     -13.779  12.294   3.731  1.00  0.00     0.066 C 
BRANCH  12  13
ATOM     13  C   UNL     1     -13.493  11.272   2.638  1.00  0.00     0.140 C 
ATOM     14  O   UNL     1     -13.655  10.081   2.862  1.00  0.00    -0.299 OA
BRANCH  13  15
ATOM     15  C   UNL     1     -13.075  11.708   1.255  1.00  0.00     0.106 CG0
ATOM     16  G   UNL     1     -14.269  11.992   0.357  1.00  0.00     0.000 G0
ENDBRANCH  13  15
ENDBRANCH  12  13
BRANCH  12  17
ATOM     17  C   UNL     1     -13.053  11.950   5.069  1.00  0.00    -0.006 C 
ATOM     18  C   UNL     1     -13.980  11.373   6.154  1.00  0.00     0.008 C 
ATOM     19  C   UNL     1     -12.281  13.159   5.619  1.00  0.00     0.008 C 
ENDBRANCH  12  17
ENDBRANCH  11  12
ENDBRANCH   1  11
TORSDOF 1
ENDMDL
MODEL 7
REMARK VINA RESULT:    -3.216      1.962      4.275
REMARK INTER + INTRA:          -5.027
REMARK INTER:                  -5.284
REMARK INTRA:                   0.258
REMARK UNBOUND:                -0.119
REMARK SMILES CC1=CCC[C@H](C)C(=O)C[C@H](C(C)C)C(=O)C1
REMARK SMILES IDX 8 1 9 2 6 3 7 4 5 5 4 6 3 7 2 8 1 9 10 11 11 12 15 13 16 14
REMARK SMILES IDX 17 15 12 17 13 18 14 19
REMARK H PARENT
REMARK Flexibility Score: 70.00
ROOT
ATOM      1  C   UNL     1     -13.638  11.189   1.759  1.00  0.00     0.136 C 
ATOM      2  O   UNL     1     -12.755  10.391   2.041  1.00  0.00    -0.299 OA
ENDROOT
BRANCH   1   3
ATOM      3  C   UNL     1     -13.978  11.415   0.298  1.00  0.00     0.053 C 
ATOM      4  C   UNL     1     -14.772  10.230  -0.264  1.00  0.00     0.016 C 
BRANCH   3   5
ATOM      5  C   UNL     1     -14.737  12.739   0.088  1.00  0.00     0.015 C 
BRANCH   5   6
ATOM      6  C   UNL     1     -13.790  13.893  -0.289  1.00  0.00     0.028 C 
BRANCH   6   7
ATOM      7  C   UNL     1     -14.480  15.222  -0.123  1.00  0.00    -0.028 C 
ATOM      8  C   UNL     1     -14.474  15.951   1.018  1.00  0.00    -0.070 CG0
ATOM      9  C   UNL     1     -15.271  17.231   1.043  1.00  0.00     0.039 C 
ATOM     10  G   UNL     1     -13.690  15.544   2.256  1.00  0.00     0.000 G0
ENDBRANCH   6   7
ENDBRANCH   5   6
ENDBRANCH   3   5
ENDBRANCH   1   3
BRANCH   1  11
ATOM     11  C   UNL     1     -14.368  11.891   2.884  1.00  0.00     0.087 C 
BRANCH  11  12
ATOM     12  C   UNL     1     -13.607  13.148   3.386  1.00  0.00     0.066 C 
BRANCH  12  13
ATOM     13  C   UNL     1     -14.356  14.428   3.041  1.00  0.00     0.140 C 
ATOM     14  O   UNL     1     -15.502  14.587   3.435  1.00  0.00    -0.299 OA
BRANCH  13  15
ATOM     15  C   UNL     1     -13.683  15.541   2.274  1.00  0.00     0.106 CG0
ATOM     16  G   UNL     1     -14.471  15.944   1.037  1.00  0.00     0.000 G0
ENDBRANCH  13  15
ENDBRANCH  12  13
BRANCH  12  17
ATOM     17  C   UNL     1     -13.266  13.051   4.906  1.00  0.00    -0.006 C 
ATOM     18  C   UNL     1     -11.768  13.203   5.224  1.00  0.00     0.008 C 
ATOM     19  C   UNL     1     -13.810  11.754   5.525  1.00  0.00     0.008 C 
ENDBRANCH  12  17
ENDBRANCH  11  12
ENDBRANCH   1  11
TORSDOF 1
ENDMDL
MODEL 8
REMARK VINA RESULT:    -2.179      2.046      4.320
REMARK INTER + INTRA:          -3.445
REMARK INTER:                  -4.661
REMARK INTRA:                   1.216
REMARK UNBOUND:                -0.119
REMARK SMILES CC1=CCC[C@H](C)C(=O)C[C@H](C(C)C)C(=O)C1
REMARK SMILES IDX 8 1 9 2 6 3 7 4 5 5 4 6 3 7 2 8 1 9 10 11 11 12 15 13 16 14
REMARK SMILES IDX 17 15 12 17 13 18 14 19
REMARK H PARENT
REMARK Flexibility Score: 70.00
ROOT
ATOM      1  C   UNL     1     -14.226  13.190   2.063  1.00  0.00     0.136 C 
ATOM      2  O   UNL     1     -14.009  13.250   0.861  1.00  0.00    -0.299 OA
ENDROOT
BRANCH   1   3
ATOM      3  C   UNL     1     -14.276  14.479   2.861  1.00  0.00     0.053 C 
ATOM      4  C   UNL     1     -15.453  15.352   2.409  1.00  0.00     0.016 C 
BRANCH   3   5
ATOM      5  C   UNL     1     -14.338  14.209   4.376  1.00  0.00     0.015 C 
BRANCH   5   6
ATOM      6  C   UNL     1     -13.026  13.604   4.908  1.00  0.00     0.028 C 
BRANCH   6   7
ATOM      7  C   UNL     1     -13.236  12.994   6.269  1.00  0.00    -0.028 C 
ATOM      8  C   UNL     1     -13.778  11.773   6.488  1.00  0.00    -0.070 CG0
ATOM      9  C   UNL     1     -13.983  11.335   7.917  1.00  0.00     0.039 C 
ATOM     10  G   UNL     1     -14.169  10.828   5.362  1.00  0.00     0.000 G0
ENDBRANCH   6   7
ENDBRANCH   5   6
ENDBRANCH   3   5
ENDBRANCH   1   3
BRANCH   1  11
ATOM     11  C   UNL     1     -14.464  11.833   2.691  1.00  0.00     0.087 C 
BRANCH  11  12
ATOM     12  C   UNL     1     -13.139  11.067   2.956  1.00  0.00     0.066 C 
BRANCH  12  13
ATOM     13  C   UNL     1     -13.081  10.532   4.381  1.00  0.00     0.140 C 
ATOM     14  O   UNL     1     -12.096   9.913   4.758  1.00  0.00    -0.299 OA
BRANCH  13  15
ATOM     15  C   UNL     1     -14.191  10.811   5.364  1.00  0.00     0.106 CG0
ATOM     16  G   UNL     1     -13.754  11.756   6.473  1.00  0.00     0.000 G0
ENDBRANCH  13  15
ENDBRANCH  12  13
BRANCH  12  17
ATOM     17  C   UNL     1     -12.891   9.952   1.893  1.00  0.00    -0.006 C 
ATOM     18  C   UNL     1     -11.439   9.882   1.386  1.00  0.00     0.008 C 
ATOM     19  C   UNL     1     -13.860  10.076   0.708  1.00  0.00     0.008 C 
ENDBRANCH  12  17
ENDBRANCH  11  12
ENDBRANCH   1  11
TORSDOF 1
ENDMDL
MODEL 9
REMARK VINA RESULT:    -2.167      1.680      4.036
REMARK INTER + INTRA:          -3.425
REMARK INTER:                  -4.234
REMARK INTRA:                   0.809
REMARK UNBOUND:                -0.119
REMARK SMILES CC1=CCC[C@H](C)C(=O)C[C@H](C(C)C)C(=O)C1
REMARK SMILES IDX 8 1 9 2 6 3 7 4 5 5 4 6 3 7 2 8 1 9 10 11 11 12 15 13 16 14
REMARK SMILES IDX 17 15 12 17 13 18 14 19
REMARK H PARENT
REMARK Flexibility Score: 70.00
ROOT
ATOM      1  C   UNL     1     -14.522  12.298   0.314  1.00  0.00     0.136 C 
ATOM      2  O   UNL     1     -15.150  12.349  -0.734  1.00  0.00    -0.299 OA
ENDROOT
BRANCH   1   3
ATOM      3  C   UNL     1     -13.978  13.587   0.902  1.00  0.00     0.053 C 
ATOM      4  C   UNL     1     -12.837  14.139   0.038  1.00  0.00     0.016 C 
BRANCH   3   5
ATOM      5  C   UNL     1     -15.087  14.639   1.091  1.00  0.00     0.015 C 
BRANCH   5   6
ATOM      6  C   UNL     1     -15.223  15.076   2.561  1.00  0.00     0.028 C 
BRANCH   6   7
ATOM      7  C   UNL     1     -13.998  14.687   3.346  1.00  0.00    -0.028 C 
ATOM      8  C   UNL     1     -13.861  13.526   4.029  1.00  0.00    -0.070 CG0
ATOM      9  C   UNL     1     -12.596  13.317   4.823  1.00  0.00     0.039 C 
ATOM     10  G   UNL     1     -14.913  12.428   4.013  1.00  0.00     0.000 G0
ENDBRANCH   6   7
ENDBRANCH   5   6
ENDBRANCH   3   5
ENDBRANCH   1   3
BRANCH   1  11
ATOM     11  C   UNL     1     -14.342  10.955   0.989  1.00  0.00     0.087 C 
BRANCH  11  12
ATOM     12  C   UNL     1     -13.479  11.054   2.276  1.00  0.00     0.066 C 
BRANCH  12  13
ATOM     13  C   UNL     1     -14.347  11.130   3.525  1.00  0.00     0.140 C 
ATOM     14  O   UNL     1     -14.555  10.120   4.183  1.00  0.00    -0.299 OA
BRANCH  13  15
ATOM     15  C   UNL     1     -14.904  12.447   4.008  1.00  0.00     0.106 CG0
ATOM     16  G   UNL     1     -13.845  13.538   4.050  1.00  0.00     0.000 G0
ENDBRANCH  13  15
ENDBRANCH  12  13
BRANCH  12  17
ATOM     17  C   UNL     1     -12.423   9.907   2.356  1.00  0.00    -0.006 C 
ATOM     18  C   UNL     1     -11.567   9.932   3.635  1.00  0.00     0.008 C 
ATOM     19  C   UNL     1     -11.520   9.884   1.114  1.00  0.00     0.008 C 
ENDBRANCH  12  17
ENDBRANCH  11  12
ENDBRANCH   1  11
TORSDOF 1
ENDMDL
