MODEL 1
REMARK VINA RESULT:    -3.066      0.000      0.000
REMARK INTER + INTRA:          -3.156
REMARK INTER:                  -3.156
REMARK INTRA:                   0.000
REMARK UNBOUND:                 0.000
REMARK SMILES CC1(C)[C@H]2CC[C@]1(C)[C@@H](O)C2
REMARK SMILES IDX 1 1 2 2 4 3 5 4 6 5 7 6 9 7 11 8 8 9 3 10 10 11
REMARK H PARENT 10 12
REMARK Flexibility Score: inf
ROOT
ATOM      1  C   UNL     1     239.500 228.758 235.384  1.00  0.00     0.012 C 
ATOM      2  C   UNL     1     238.010 228.358 235.148  1.00  0.00    -0.025 C 
ATOM      3  C   UNL     1     237.757 227.671 233.798  1.00  0.00    -0.002 C 
ATOM      4  C   UNL     1     238.583 226.365 233.903  1.00  0.00     0.005 C 
ATOM      5  C   UNL     1     238.432 225.983 235.390  1.00  0.00     0.010 C 
ATOM      6  C   UNL     1     237.526 227.119 235.941  1.00  0.00    -0.001 C 
ATOM      7  C   UNL     1     236.105 226.835 235.365  1.00  0.00     0.121 C 
ATOM      8  C   UNL     1     236.267 227.247 233.881  1.00  0.00     0.036 C 
ATOM      9  C   UNL     1     237.579 227.234 237.471  1.00  0.00     0.015 C 
ATOM     10  C   UNL     1     237.187 229.667 235.352  1.00  0.00     0.012 C 
ENDROOT
BRANCH   7  11
ATOM     11  O   UNL     1     235.115 227.594 236.010  1.00  0.00    -0.393 OA
ATOM     12  H   UNL     1     234.668 226.985 236.653  1.00  0.00     0.210 HD
ENDBRANCH   7  11
TORSDOF 1
ENDMDL
MODEL 2
REMARK VINA RESULT:    -3.058      9.662     10.886
REMARK INTER + INTRA:          -3.148
REMARK INTER:                  -3.148
REMARK INTRA:                   0.000
REMARK UNBOUND:                 0.000
REMARK SMILES CC1(C)[C@H]2CC[C@]1(C)[C@@H](O)C2
REMARK SMILES IDX 1 1 2 2 4 3 5 4 6 5 7 6 9 7 11 8 8 9 3 10 10 11
REMARK H PARENT 10 12
REMARK Flexibility Score: inf
ROOT
ATOM      1  C   UNL     1     228.472 228.854 235.404  1.00  0.00     0.012 C 
ATOM      2  C   UNL     1     228.179 230.364 235.133  1.00  0.00    -0.025 C 
ATOM      3  C   UNL     1     227.545 230.637 233.760  1.00  0.00    -0.002 C 
ATOM      4  C   UNL     1     226.184 229.902 233.844  1.00  0.00     0.005 C 
ATOM      5  C   UNL     1     225.776 230.106 235.318  1.00  0.00     0.010 C 
ATOM      6  C   UNL     1     226.955 230.944 235.884  1.00  0.00    -0.001 C 
ATOM      7  C   UNL     1     226.782 232.370 235.276  1.00  0.00     0.121 C 
ATOM      8  C   UNL     1     227.220 232.153 233.807  1.00  0.00     0.036 C 
ATOM      9  C   UNL     1     227.027 230.912 237.417  1.00  0.00     0.015 C 
ATOM     10  C   UNL     1     229.535 231.101 235.357  1.00  0.00     0.012 C 
ENDROOT
BRANCH   7  11
ATOM     11  O   UNL     1     227.590 233.319 235.925  1.00  0.00    -0.393 OA
ATOM     12  H   UNL     1     228.016 232.850 236.689  1.00  0.00     0.210 HD
ENDBRANCH   7  11
TORSDOF 1
ENDMDL
MODEL 3
REMARK VINA RESULT:    -3.051     13.119     14.583
REMARK INTER + INTRA:          -3.140
REMARK INTER:                  -3.140
REMARK INTRA:                   0.000
REMARK UNBOUND:                 0.000
REMARK SMILES CC1(C)[C@H]2CC[C@]1(C)[C@@H](O)C2
REMARK SMILES IDX 1 1 2 2 4 3 5 4 6 5 7 6 9 7 11 8 8 9 3 10 10 11
REMARK H PARENT 10 12
REMARK Flexibility Score: inf
ROOT
ATOM      1  C   UNL     1     231.400 238.776 233.578  1.00  0.00     0.012 C 
ATOM      2  C   UNL     1     231.487 240.172 234.272  1.00  0.00    -0.025 C 
ATOM      3  C   UNL     1     230.118 240.807 234.562  1.00  0.00    -0.002 C 
ATOM      4  C   UNL     1     229.475 239.821 235.569  1.00  0.00     0.005 C 
ATOM      5  C   UNL     1     230.682 239.350 236.406  1.00  0.00     0.010 C 
ATOM      6  C   UNL     1     231.862 240.141 235.774  1.00  0.00    -0.001 C 
ATOM      7  C   UNL     1     231.671 241.616 236.240  1.00  0.00     0.121 C 
ATOM      8  C   UNL     1     230.475 242.080 235.373  1.00  0.00     0.036 C 
ATOM      9  C   UNL     1     233.232 239.539 236.115  1.00  0.00     0.015 C 
ATOM     10  C   UNL     1     232.401 241.041 233.354  1.00  0.00     0.012 C 
ENDROOT
BRANCH   7  11
ATOM     11  O   UNL     1     232.817 242.394 236.004  1.00  0.00    -0.393 OA
ATOM     12  H   UNL     1     233.498 242.098 236.661  1.00  0.00     0.210 HD
ENDBRANCH   7  11
TORSDOF 1
ENDMDL
MODEL 4
REMARK VINA RESULT:    -3.050      9.582     10.785
REMARK INTER + INTRA:          -3.139
REMARK INTER:                  -3.139
REMARK INTRA:                   0.000
REMARK UNBOUND:                 0.000
REMARK SMILES CC1(C)[C@H]2CC[C@]1(C)[C@@H](O)C2
REMARK SMILES IDX 1 1 2 2 4 3 5 4 6 5 7 6 9 7 11 8 8 9 3 10 10 11
REMARK H PARENT 10 12
REMARK Flexibility Score: inf
ROOT
ATOM      1  C   UNL     1     239.819 239.524 235.353  1.00  0.00     0.012 C 
ATOM      2  C   UNL     1     240.204 238.031 235.112  1.00  0.00    -0.025 C 
ATOM      3  C   UNL     1     240.918 237.781 233.773  1.00  0.00    -0.002 C 
ATOM      4  C   UNL     1     242.231 238.589 233.915  1.00  0.00     0.005 C 
ATOM      5  C   UNL     1     242.579 238.418 235.408  1.00  0.00     0.010 C 
ATOM      6  C   UNL     1     241.420 237.522 235.926  1.00  0.00    -0.001 C 
ATOM      7  C   UNL     1     241.698 236.103 235.342  1.00  0.00     0.121 C 
ATOM      8  C   UNL     1     241.320 236.285 233.851  1.00  0.00     0.036 C 
ATOM      9  C   UNL     1     241.273 237.562 237.453  1.00  0.00     0.015 C 
ATOM     10  C   UNL     1     238.881 237.223 235.279  1.00  0.00     0.012 C 
ENDROOT
BRANCH   7  11
ATOM     11  O   UNL     1     240.912 235.118 235.961  1.00  0.00    -0.393 OA
ATOM     12  H   UNL     1     239.986 235.473 235.989  1.00  0.00     0.210 HD
ENDBRANCH   7  11
TORSDOF 1
ENDMDL
MODEL 5
REMARK VINA RESULT:    -3.048      9.299     10.437
REMARK INTER + INTRA:          -3.137
REMARK INTER:                  -3.137
REMARK INTRA:                   0.000
REMARK UNBOUND:                 0.000
REMARK SMILES CC1(C)[C@H]2CC[C@]1(C)[C@@H](O)C2
REMARK SMILES IDX 1 1 2 2 4 3 5 4 6 5 7 6 9 7 11 8 8 9 3 10 10 11
REMARK H PARENT 10 12
REMARK Flexibility Score: inf
ROOT
ATOM      1  C   UNL     1     229.696 231.453 233.511  1.00  0.00     0.012 C 
ATOM      2  C   UNL     1     228.303 231.550 234.210  1.00  0.00    -0.025 C 
ATOM      3  C   UNL     1     227.642 230.187 234.470  1.00  0.00    -0.002 C 
ATOM      4  C   UNL     1     228.617 229.503 235.459  1.00  0.00     0.005 C 
ATOM      5  C   UNL     1     229.113 230.681 236.323  1.00  0.00     0.010 C 
ATOM      6  C   UNL     1     228.344 231.890 235.720  1.00  0.00    -0.001 C 
ATOM      7  C   UNL     1     226.866 231.717 236.186  1.00  0.00     0.121 C 
ATOM      8  C   UNL     1     226.378 230.550 235.293  1.00  0.00     0.036 C 
ATOM      9  C   UNL     1     228.973 233.240 236.091  1.00  0.00     0.015 C 
ATOM     10  C   UNL     1     227.450 232.502 233.316  1.00  0.00     0.012 C 
ENDROOT
BRANCH   7  11
ATOM     11  O   UNL     1     226.111 232.883 235.977  1.00  0.00    -0.393 OA
ATOM     12  H   UNL     1     225.435 232.660 235.286  1.00  0.00     0.210 HD
ENDBRANCH   7  11
TORSDOF 1
ENDMDL
MODEL 6
REMARK VINA RESULT:    -3.014      9.397     10.515
REMARK INTER + INTRA:          -3.102
REMARK INTER:                  -3.102
REMARK INTRA:                   0.000
REMARK UNBOUND:                 0.000
REMARK SMILES CC1(C)[C@H]2CC[C@]1(C)[C@@H](O)C2
REMARK SMILES IDX 1 1 2 2 4 3 5 4 6 5 7 6 9 7 11 8 8 9 3 10 10 11
REMARK H PARENT 10 12
REMARK Flexibility Score: inf
ROOT
ATOM      1  C   UNL     1     228.381 233.251 236.144  1.00  0.00     0.012 C 
ATOM      2  C   UNL     1     227.558 232.035 235.612  1.00  0.00    -0.025 C 
ATOM      3  C   UNL     1     227.165 232.151 234.131  1.00  0.00    -0.002 C 
ATOM      4  C   UNL     1     228.529 232.152 233.399  1.00  0.00     0.005 C 
ATOM      5  C   UNL     1     229.375 231.183 234.252  1.00  0.00     0.010 C 
ATOM      6  C   UNL     1     228.376 230.745 235.358  1.00  0.00    -0.001 C 
ATOM      7  C   UNL     1     227.365 229.791 234.652  1.00  0.00     0.121 C 
ATOM      8  C   UNL     1     226.509 230.780 233.822  1.00  0.00     0.036 C 
ATOM      9  C   UNL     1     229.073 230.136 236.583  1.00  0.00     0.015 C 
ATOM     10  C   UNL     1     226.341 231.897 236.577  1.00  0.00     0.012 C 
ENDROOT
BRANCH   7  11
ATOM     11  O   UNL     1     226.585 229.076 235.575  1.00  0.00    -0.393 OA
ATOM     12  H   UNL     1     226.201 229.746 236.198  1.00  0.00     0.210 HD
ENDBRANCH   7  11
TORSDOF 1
ENDMDL
MODEL 7
REMARK VINA RESULT:    -3.008      8.912     10.644
REMARK INTER + INTRA:          -3.096
REMARK INTER:                  -3.096
REMARK INTRA:                   0.000
REMARK UNBOUND:                 0.000
REMARK SMILES CC1(C)[C@H]2CC[C@]1(C)[C@@H](O)C2
REMARK SMILES IDX 1 1 2 2 4 3 5 4 6 5 7 6 9 7 11 8 8 9 3 10 10 11
REMARK H PARENT 10 12
REMARK Flexibility Score: inf
ROOT
ATOM      1  C   UNL     1     240.029 235.222 236.147  1.00  0.00     0.012 C 
ATOM      2  C   UNL     1     240.859 236.439 235.630  1.00  0.00    -0.025 C 
ATOM      3  C   UNL     1     241.265 236.333 234.152  1.00  0.00    -0.002 C 
ATOM      4  C   UNL     1     239.906 236.341 233.409  1.00  0.00     0.005 C 
ATOM      5  C   UNL     1     239.056 237.306 234.261  1.00  0.00     0.010 C 
ATOM      6  C   UNL     1     240.047 237.734 235.379  1.00  0.00    -0.001 C 
ATOM      7  C   UNL     1     241.066 238.690 234.687  1.00  0.00     0.121 C 
ATOM      8  C   UNL     1     241.926 237.705 233.858  1.00  0.00     0.036 C 
ATOM      9  C   UNL     1     239.341 238.336 236.602  1.00  0.00     0.015 C 
ATOM     10  C   UNL     1     242.069 236.567 236.606  1.00  0.00     0.012 C 
ENDROOT
BRANCH   7  11
ATOM     11  O   UNL     1     241.841 239.396 235.622  1.00  0.00    -0.393 OA
ATOM     12  H   UNL     1     241.988 238.782 236.387  1.00  0.00     0.210 HD
ENDBRANCH   7  11
TORSDOF 1
ENDMDL
MODEL 8
REMARK VINA RESULT:    -3.006     13.543     14.654
REMARK INTER + INTRA:          -3.094
REMARK INTER:                  -3.094
REMARK INTRA:                   0.000
REMARK UNBOUND:                 0.000
REMARK SMILES CC1(C)[C@H]2CC[C@]1(C)[C@@H](O)C2
REMARK SMILES IDX 1 1 2 2 4 3 5 4 6 5 7 6 9 7 11 8 8 9 3 10 10 11
REMARK H PARENT 10 12
REMARK Flexibility Score: inf
ROOT
ATOM      1  C   UNL     1     233.238 240.003 236.117  1.00  0.00     0.012 C 
ATOM      2  C   UNL     1     232.049 240.868 235.594  1.00  0.00    -0.025 C 
ATOM      3  C   UNL     1     232.162 241.247 234.109  1.00  0.00    -0.002 C 
ATOM      4  C   UNL     1     232.102 239.879 233.387  1.00  0.00     0.005 C 
ATOM      5  C   UNL     1     231.112 239.076 234.257  1.00  0.00     0.010 C 
ATOM      6  C   UNL     1     230.725 240.098 235.361  1.00  0.00    -0.001 C 
ATOM      7  C   UNL     1     229.802 241.140 234.659  1.00  0.00     0.121 C 
ATOM      8  C   UNL     1     230.813 241.952 233.812  1.00  0.00     0.036 C 
ATOM      9  C   UNL     1     230.105 239.433 236.597  1.00  0.00     0.015 C 
ATOM     10  C   UNL     1     231.968 242.096 236.552  1.00  0.00     0.012 C 
ENDROOT
BRANCH   7  11
ATOM     11  O   UNL     1     229.128 241.953 235.584  1.00  0.00    -0.393 OA
ATOM     12  H   UNL     1     229.242 241.524 236.472  1.00  0.00     0.210 HD
ENDBRANCH   7  11
TORSDOF 1
ENDMDL
MODEL 9
REMARK VINA RESULT:    -3.004      1.778      2.988
REMARK INTER + INTRA:          -3.092
REMARK INTER:                  -3.092
REMARK INTRA:                   0.000
REMARK UNBOUND:                 0.000
REMARK SMILES CC1(C)[C@H]2CC[C@]1(C)[C@@H](O)C2
REMARK SMILES IDX 1 1 2 2 4 3 5 4 6 5 7 6 9 7 11 8 8 9 3 10 10 11
REMARK H PARENT 10 12
REMARK Flexibility Score: inf
ROOT
ATOM      1  C   UNL     1     235.227 228.470 236.151  1.00  0.00     0.012 C 
ATOM      2  C   UNL     1     236.432 227.633 235.620  1.00  0.00    -0.025 C 
ATOM      3  C   UNL     1     236.307 227.232 234.141  1.00  0.00    -0.002 C 
ATOM      4  C   UNL     1     236.317 228.593 233.402  1.00  0.00     0.005 C 
ATOM      5  C   UNL     1     237.296 229.434 234.246  1.00  0.00     0.010 C 
ATOM      6  C   UNL     1     237.730 228.437 235.356  1.00  0.00    -0.001 C 
ATOM      7  C   UNL     1     238.671 227.413 234.652  1.00  0.00     0.121 C 
ATOM      8  C   UNL     1     237.671 226.562 233.831  1.00  0.00     0.036 C 
ATOM      9  C   UNL     1     238.349 229.135 236.575  1.00  0.00     0.015 C 
ATOM     10  C   UNL     1     236.563 226.420 236.591  1.00  0.00     0.012 C 
ENDROOT
BRANCH   7  11
ATOM     11  O   UNL     1     239.382 226.631 235.577  1.00  0.00    -0.393 OA
ATOM     12  H   UNL     1     239.701 227.251 236.284  1.00  0.00     0.210 HD
ENDBRANCH   7  11
TORSDOF 1
ENDMDL
