MODEL 1
REMARK VINA RESULT:    -5.948      0.000      0.000
REMARK INTER + INTRA:          -9.806
REMARK INTER:                  -9.252
REMARK INTRA:                  -0.554
REMARK UNBOUND:                -0.554
REMARK SMILES C[C@@]12C[C@@]3(O)O[C@@H](O1)[C@]1(COC(=O)c4ccccc4)[C@H]3C[C@@]12O[C@H]1O[C@H](CO)[C@@H](O)[C@@H](O)[C@@H]1O
REMARK SMILES IDX 1 1 2 2 3 3 4 4 20 5 21 6 22 7 9 8 7 9 8 10 6 11 23 12 24 13
REMARK SMILES IDX 33 14 25 15 31 16 26 17 29 18 34 19 32 21 27 23 28 24 30 26
REMARK SMILES IDX 5 28 10 30 11 31 12 32 13 33 14 34 15 35 19 36 16 37 18 38
REMARK SMILES IDX 17 39
REMARK H PARENT 34 20 32 22 28 25 30 27 5 29
REMARK Flexibility Score: inf
ROOT
ATOM      1  C   UNL     1       7.613  14.532  21.225  1.00  0.00     0.046 C 
ATOM      2  C   UNL     1       6.736  14.296  19.986  1.00  0.00     0.104 C 
ATOM      3  C   UNL     1       6.175  12.824  19.999  1.00  0.00     0.104 C 
ATOM      4  C   UNL     1       5.398  12.708  18.651  1.00  0.00     0.175 C 
ATOM      5  C   UNL     1       6.289  13.211  17.478  1.00  0.00     0.070 C 
ATOM      6  C   UNL     1       7.785  13.322  17.843  1.00  0.00     0.050 C 
ATOM      7  C   UNL     1       7.423  14.607  18.595  1.00  0.00     0.115 C 
ATOM      8  C   UNL     1       6.160  14.714  17.724  1.00  0.00     0.096 C 
ATOM      9  C   UNL     1       5.004  14.886  18.708  1.00  0.00     0.267 C 
ATOM     10  O   UNL     1       5.591  15.121  19.986  1.00  0.00    -0.342 OA
ATOM     11  O   UNL     1       4.337  13.638  18.726  1.00  0.00    -0.320 OA
ENDROOT
BRANCH   7  12
ATOM     12  O   UNL     1       8.446  15.601  18.535  1.00  0.00    -0.339 OA
BRANCH  12  13
ATOM     13  C   UNL     1       7.993  16.937  18.715  1.00  0.00     0.282 C 
ATOM     14  C   UNL     1       8.835  17.854  17.812  1.00  0.00     0.202 C 
ATOM     15  O   UNL     1       8.227  17.348  20.048  1.00  0.00    -0.341 OA
ATOM     16  C   UNL     1       8.297  19.303  17.860  1.00  0.00     0.179 C 
ATOM     17  C   UNL     1       7.746  18.666  20.323  1.00  0.00     0.178 C 
ATOM     18  C   UNL     1       7.363  19.545  19.078  1.00  0.00     0.177 C 
BRANCH  14  19
ATOM     19  O   UNL     1       8.862  17.378  16.490  1.00  0.00    -0.385 OA
ATOM     20  H   UNL     1       9.057  16.396  16.542  1.00  0.00     0.211 HD
ENDBRANCH  14  19
BRANCH  16  21
ATOM     21  O   UNL     1       9.377  20.197  17.882  1.00  0.00    -0.387 OA
ATOM     22  H   UNL     1      10.010  19.875  18.576  1.00  0.00     0.211 HD
ENDBRANCH  16  21
BRANCH  17  23
ATOM     23  C   UNL     1       6.590  18.576  21.327  1.00  0.00     0.191 C 
BRANCH  23  24
ATOM     24  O   UNL     1       6.657  17.374  22.043  1.00  0.00    -0.394 OA
ATOM     25  H   UNL     1       7.189  17.541  22.862  1.00  0.00     0.210 HD
ENDBRANCH  23  24
ENDBRANCH  17  23
BRANCH  18  26
ATOM     26  O   UNL     1       7.370  20.905  19.435  1.00  0.00    -0.387 OA
ATOM     27  H   UNL     1       8.203  21.085  19.941  1.00  0.00     0.211 HD
ENDBRANCH  18  26
ENDBRANCH  12  13
ENDBRANCH   7  12
BRANCH   4  28
ATOM     28  O   UNL     1       4.924  11.405  18.445  1.00  0.00    -0.365 OA
ATOM     29  H   UNL     1       5.195  11.142  17.528  1.00  0.00     0.214 HD
ENDBRANCH   4  28
BRANCH   8  30
ATOM     30  C   UNL     1       6.069  15.536  16.414  1.00  0.00     0.249 C 
BRANCH  30  31
ATOM     31  O   UNL     1       4.774  16.114  16.251  1.00  0.00    -0.461 OA
BRANCH  31  32
ATOM     32  C   UNL     1       3.698  15.390  15.729  1.00  0.00     0.338 C 
ATOM     33  O   UNL     1       3.890  14.241  15.248  1.00  0.00    -0.246 OA
BRANCH  32  34
ATOM     34  C   UNL     1       2.344  15.985  15.718  1.00  0.00     0.060 A 
ATOM     35  C   UNL     1       1.258  15.273  16.256  1.00  0.00     0.015 A 
ATOM     36  C   UNL     1       2.137  17.293  15.235  1.00  0.00     0.015 A 
ATOM     37  C   UNL     1      -0.014  15.857  16.299  1.00  0.00     0.001 A 
ATOM     38  C   UNL     1       0.867  17.871  15.290  1.00  0.00     0.001 A 
ATOM     39  C   UNL     1      -0.207  17.153  15.820  1.00  0.00     0.000 A 
ENDBRANCH  32  34
ENDBRANCH  31  32
ENDBRANCH  30  31
ENDBRANCH   8  30
TORSDOF 12
ENDMDL
MODEL 2
REMARK VINA RESULT:    -4.956      1.909      3.208
REMARK INTER + INTRA:          -8.262
REMARK INTER:                  -8.635
REMARK INTRA:                   0.373
REMARK UNBOUND:                -0.554
REMARK SMILES C[C@@]12C[C@@]3(O)O[C@@H](O1)[C@]1(COC(=O)c4ccccc4)[C@H]3C[C@@]12O[C@H]1O[C@H](CO)[C@@H](O)[C@@H](O)[C@@H]1O
REMARK SMILES IDX 1 1 2 2 3 3 4 4 20 5 21 6 22 7 9 8 7 9 8 10 6 11 23 12 24 13
REMARK SMILES IDX 33 14 25 15 31 16 26 17 29 18 34 19 32 21 27 23 28 24 30 26
REMARK SMILES IDX 5 28 10 30 11 31 12 32 13 33 14 34 15 35 19 36 16 37 18 38
REMARK SMILES IDX 17 39
REMARK H PARENT 34 20 32 22 28 25 30 27 5 29
REMARK Flexibility Score: inf
ROOT
ATOM      1  C   UNL     1       6.536  14.985  19.281  1.00  0.00     0.046 C 
ATOM      2  C   UNL     1       5.524  14.505  18.230  1.00  0.00     0.104 C 
ATOM      3  C   UNL     1       5.893  13.048  17.756  1.00  0.00     0.104 C 
ATOM      4  C   UNL     1       4.851  12.744  16.636  1.00  0.00     0.175 C 
ATOM      5  C   UNL     1       4.799  13.923  15.621  1.00  0.00     0.070 C 
ATOM      6  C   UNL     1       6.006  14.880  15.725  1.00  0.00     0.050 C 
ATOM      7  C   UNL     1       5.338  15.456  16.978  1.00  0.00     0.115 C 
ATOM      8  C   UNL     1       3.994  14.912  16.464  1.00  0.00     0.096 C 
ATOM      9  C   UNL     1       3.413  14.107  17.624  1.00  0.00     0.267 C 
ATOM     10  O   UNL     1       4.222  14.394  18.763  1.00  0.00    -0.342 OA
ATOM     11  O   UNL     1       3.585  12.750  17.264  1.00  0.00    -0.320 OA
ENDROOT
BRANCH   7  12
ATOM     12  O   UNL     1       5.553  16.858  17.136  1.00  0.00    -0.339 OA
BRANCH  12  13
ATOM     13  C   UNL     1       6.840  17.215  17.625  1.00  0.00     0.282 C 
ATOM     14  C   UNL     1       7.008  18.736  17.467  1.00  0.00     0.202 C 
ATOM     15  O   UNL     1       7.841  16.608  16.832  1.00  0.00    -0.341 OA
ATOM     16  C   UNL     1       8.334  19.204  18.110  1.00  0.00     0.179 C 
ATOM     17  C   UNL     1       9.166  16.875  17.297  1.00  0.00     0.178 C 
ATOM     18  C   UNL     1       9.318  18.026  18.356  1.00  0.00     0.177 C 
BRANCH  14  19
ATOM     19  O   UNL     1       5.917  19.427  18.021  1.00  0.00    -0.385 OA
ATOM     20  H   UNL     1       5.547  18.844  18.748  1.00  0.00     0.211 HD
ENDBRANCH  14  19
BRANCH  16  21
ATOM     21  O   UNL     1       8.926  20.177  17.293  1.00  0.00    -0.387 OA
ATOM     22  H   UNL     1       9.241  19.718  16.470  1.00  0.00     0.211 HD
ENDBRANCH  16  21
BRANCH  17  23
ATOM     23  C   UNL     1       9.795  15.567  17.792  1.00  0.00     0.191 C 
BRANCH  23  24
ATOM     24  O   UNL     1       9.254  14.474  17.104  1.00  0.00    -0.394 OA
ATOM     25  H   UNL     1       8.290  14.424  17.330  1.00  0.00     0.210 HD
ENDBRANCH  23  24
ENDBRANCH  17  23
BRANCH  18  26
ATOM     26  O   UNL     1      10.644  18.493  18.366  1.00  0.00    -0.387 OA
ATOM     27  H   UNL     1      10.653  19.402  17.968  1.00  0.00     0.211 HD
ENDBRANCH  18  26
ENDBRANCH  12  13
ENDBRANCH   7  12
BRANCH   4  28
ATOM     28  O   UNL     1       5.110  11.513  16.017  1.00  0.00    -0.365 OA
ATOM     29  H   UNL     1       4.308  11.286  15.479  1.00  0.00     0.214 HD
ENDBRANCH   4  28
BRANCH   8  30
ATOM     30  C   UNL     1       2.981  15.734  15.628  1.00  0.00     0.249 C 
BRANCH  30  31
ATOM     31  O   UNL     1       1.645  15.534  16.086  1.00  0.00    -0.461 OA
BRANCH  31  32
ATOM     32  C   UNL     1       0.692  16.557  16.072  1.00  0.00     0.338 C 
ATOM     33  O   UNL     1       0.905  17.601  15.398  1.00  0.00    -0.246 OA
BRANCH  32  34
ATOM     34  C   UNL     1      -0.546  16.425  16.870  1.00  0.00     0.060 A 
ATOM     35  C   UNL     1      -1.362  15.292  16.721  1.00  0.00     0.015 A 
ATOM     36  C   UNL     1      -0.886  17.395  17.835  1.00  0.00     0.015 A 
ATOM     37  C   UNL     1      -2.504  15.137  17.515  1.00  0.00     0.001 A 
ATOM     38  C   UNL     1      -2.023  17.229  18.629  1.00  0.00     0.001 A 
ATOM     39  C   UNL     1      -2.831  16.102  18.468  1.00  0.00     0.000 A 
ENDBRANCH  32  34
ENDBRANCH  31  32
ENDBRANCH  30  31
ENDBRANCH   8  30
TORSDOF 12
ENDMDL
MODEL 3
REMARK VINA RESULT:    -4.427      1.521      2.139
REMARK INTER + INTRA:          -7.440
REMARK INTER:                  -7.827
REMARK INTRA:                   0.388
REMARK UNBOUND:                -0.554
REMARK SMILES C[C@@]12C[C@@]3(O)O[C@@H](O1)[C@]1(COC(=O)c4ccccc4)[C@H]3C[C@@]12O[C@H]1O[C@H](CO)[C@@H](O)[C@@H](O)[C@@H]1O
REMARK SMILES IDX 1 1 2 2 3 3 4 4 20 5 21 6 22 7 9 8 7 9 8 10 6 11 23 12 24 13
REMARK SMILES IDX 33 14 25 15 31 16 26 17 29 18 34 19 32 21 27 23 28 24 30 26
REMARK SMILES IDX 5 28 10 30 11 31 12 32 13 33 14 34 15 35 19 36 16 37 18 38
REMARK SMILES IDX 17 39
REMARK H PARENT 34 20 32 22 28 25 30 27 5 29
REMARK Flexibility Score: inf
ROOT
ATOM      1  C   UNL     1       8.072  13.755  19.126  1.00  0.00     0.046 C 
ATOM      2  C   UNL     1       6.713  13.735  18.412  1.00  0.00     0.104 C 
ATOM      3  C   UNL     1       6.392  12.276  17.910  1.00  0.00     0.104 C 
ATOM      4  C   UNL     1       5.049  12.435  17.133  1.00  0.00     0.175 C 
ATOM      5  C   UNL     1       5.152  13.619  16.127  1.00  0.00     0.070 C 
ATOM      6  C   UNL     1       6.603  14.076  15.860  1.00  0.00     0.050 C 
ATOM      7  C   UNL     1       6.550  14.769  17.225  1.00  0.00     0.115 C 
ATOM      8  C   UNL     1       5.016  14.772  17.120  1.00  0.00     0.096 C 
ATOM      9  C   UNL     1       4.520  14.152  18.425  1.00  0.00     0.267 C 
ATOM     10  O   UNL     1       5.653  14.059  19.286  1.00  0.00    -0.342 OA
ATOM     11  O   UNL     1       4.089  12.849  18.083  1.00  0.00    -0.320 OA
ENDROOT
BRANCH   7  12
ATOM     12  O   UNL     1       7.289  15.990  17.265  1.00  0.00    -0.339 OA
BRANCH  12  13
ATOM     13  C   UNL     1       7.145  16.737  18.466  1.00  0.00     0.282 C 
ATOM     14  C   UNL     1       7.448  18.212  18.152  1.00  0.00     0.202 C 
ATOM     15  O   UNL     1       8.105  16.315  19.414  1.00  0.00    -0.341 OA
ATOM     16  C   UNL     1       7.172  19.098  19.390  1.00  0.00     0.179 C 
ATOM     17  C   UNL     1       7.987  16.984  20.671  1.00  0.00     0.178 C 
ATOM     18  C   UNL     1       7.080  18.266  20.699  1.00  0.00     0.177 C 
BRANCH  14  19
ATOM     19  O   UNL     1       6.704  18.659  17.046  1.00  0.00    -0.385 OA
ATOM     20  H   UNL     1       7.266  19.345  16.580  1.00  0.00     0.211 HD
ENDBRANCH  14  19
BRANCH  16  21
ATOM     21  O   UNL     1       8.174  20.072  19.493  1.00  0.00    -0.387 OA
ATOM     22  H   UNL     1       8.017  20.733  18.769  1.00  0.00     0.211 HD
ENDBRANCH  16  21
BRANCH  17  23
ATOM     23  C   UNL     1       7.561  15.969  21.739  1.00  0.00     0.191 C 
BRANCH  23  24
ATOM     24  O   UNL     1       6.195  15.681  21.621  1.00  0.00    -0.394 OA
ATOM     25  H   UNL     1       6.058  15.220  20.754  1.00  0.00     0.210 HD
ENDBRANCH  23  24
ENDBRANCH  17  23
BRANCH  18  26
ATOM     26  O   UNL     1       7.418  19.065  21.807  1.00  0.00    -0.387 OA
ATOM     27  H   UNL     1       8.201  18.654  22.255  1.00  0.00     0.211 HD
ENDBRANCH  18  26
ENDBRANCH  12  13
ENDBRANCH   7  12
BRANCH   4  28
ATOM     28  O   UNL     1       4.673  11.235  16.513  1.00  0.00    -0.365 OA
ATOM     29  H   UNL     1       4.883  10.504  17.149  1.00  0.00     0.214 HD
ENDBRANCH   4  28
BRANCH   8  30
ATOM     30  C   UNL     1       4.180  15.953  16.565  1.00  0.00     0.249 C 
BRANCH  30  31
ATOM     31  O   UNL     1       2.843  15.551  16.272  1.00  0.00    -0.461 OA
BRANCH  31  32
ATOM     32  C   UNL     1       1.915  16.423  15.693  1.00  0.00     0.338 C 
ATOM     33  O   UNL     1       2.305  17.302  14.878  1.00  0.00    -0.246 OA
BRANCH  32  34
ATOM     34  C   UNL     1       0.485  16.330  16.061  1.00  0.00     0.060 A 
ATOM     35  C   UNL     1      -0.152  17.413  16.688  1.00  0.00     0.015 A 
ATOM     36  C   UNL     1      -0.270  15.187  15.726  1.00  0.00     0.015 A 
ATOM     37  C   UNL     1      -1.519  17.350  16.985  1.00  0.00     0.001 A 
ATOM     38  C   UNL     1      -1.635  15.136  16.019  1.00  0.00     0.001 A 
ATOM     39  C   UNL     1      -2.258  16.215  16.648  1.00  0.00     0.000 A 
ENDBRANCH  32  34
ENDBRANCH  31  32
ENDBRANCH  30  31
ENDBRANCH   8  30
TORSDOF 12
ENDMDL
MODEL 4
REMARK VINA RESULT:    -3.656      2.446      6.989
REMARK INTER + INTRA:          -6.241
REMARK INTER:                  -6.519
REMARK INTRA:                   0.278
REMARK UNBOUND:                -0.554
REMARK SMILES C[C@@]12C[C@@]3(O)O[C@@H](O1)[C@]1(COC(=O)c4ccccc4)[C@H]3C[C@@]12O[C@H]1O[C@H](CO)[C@@H](O)[C@@H](O)[C@@H]1O
REMARK SMILES IDX 1 1 2 2 3 3 4 4 20 5 21 6 22 7 9 8 7 9 8 10 6 11 23 12 24 13
REMARK SMILES IDX 33 14 25 15 31 16 26 17 29 18 34 19 32 21 27 23 28 24 30 26
REMARK SMILES IDX 5 28 10 30 11 31 12 32 13 33 14 34 15 35 19 36 16 37 18 38
REMARK SMILES IDX 17 39
REMARK H PARENT 34 20 32 22 28 25 30 27 5 29
REMARK Flexibility Score: inf
ROOT
ATOM      1  C   UNL     1       2.556  13.939  14.222  1.00  0.00     0.046 C 
ATOM      2  C   UNL     1       3.630  13.997  15.318  1.00  0.00     0.104 C 
ATOM      3  C   UNL     1       3.520  12.727  16.245  1.00  0.00     0.104 C 
ATOM      4  C   UNL     1       4.594  12.976  17.349  1.00  0.00     0.175 C 
ATOM      5  C   UNL     1       4.432  14.409  17.937  1.00  0.00     0.070 C 
ATOM      6  C   UNL     1       3.076  15.065  17.597  1.00  0.00     0.050 C 
ATOM      7  C   UNL     1       3.639  15.314  16.195  1.00  0.00     0.115 C 
ATOM      8  C   UNL     1       5.054  15.198  16.785  1.00  0.00     0.096 C 
ATOM      9  C   UNL     1       5.775  14.174  15.910  1.00  0.00     0.267 C 
ATOM     10  O   UNL     1       4.934  13.942  14.781  1.00  0.00    -0.342 OA
ATOM     11  O   UNL     1       5.842  12.994  16.688  1.00  0.00    -0.320 OA
ENDROOT
BRANCH   7  12
ATOM     12  O   UNL     1       3.182  16.536  15.614  1.00  0.00    -0.339 OA
BRANCH  12  13
ATOM     13  C   UNL     1       1.771  16.634  15.461  1.00  0.00     0.282 C 
ATOM     14  C   UNL     1       1.396  18.125  15.422  1.00  0.00     0.202 C 
ATOM     15  O   UNL     1       1.125  16.078  16.589  1.00  0.00    -0.341 OA
ATOM     16  C   UNL     1      -0.110  18.298  15.117  1.00  0.00     0.179 C 
ATOM     17  C   UNL     1      -0.301  16.090  16.484  1.00  0.00     0.178 C 
ATOM     18  C   UNL     1      -0.911  16.986  15.346  1.00  0.00     0.177 C 
BRANCH  14  19
ATOM     19  O   UNL     1       2.176  18.820  14.481  1.00  0.00    -0.385 OA
ATOM     20  H   UNL     1       2.214  19.774  14.788  1.00  0.00     0.211 HD
ENDBRANCH  14  19
BRANCH  16  21
ATOM     21  O   UNL     1      -0.626  19.335  15.907  1.00  0.00    -0.387 OA
ATOM     22  H   UNL     1      -0.598  19.026  16.851  1.00  0.00     0.211 HD
ENDBRANCH  16  21
BRANCH  17  23
ATOM     23  C   UNL     1      -0.807  14.645  16.396  1.00  0.00     0.191 C 
BRANCH  23  24
ATOM     24  O   UNL     1      -1.273  14.368  15.105  1.00  0.00    -0.394 OA
ATOM     25  H   UNL     1      -1.998  15.014  14.902  1.00  0.00     0.210 HD
ENDBRANCH  23  24
ENDBRANCH  17  23
BRANCH  18  26
ATOM     26  O   UNL     1      -2.254  17.281  15.640  1.00  0.00    -0.387 OA
ATOM     27  H   UNL     1      -2.408  18.241  15.445  1.00  0.00     0.211 HD
ENDBRANCH  18  26
ENDBRANCH  12  13
ENDBRANCH   7  12
BRANCH   4  28
ATOM     28  O   UNL     1       4.551  11.982  18.337  1.00  0.00    -0.365 OA
ATOM     29  H   UNL     1       3.685  12.084  18.810  1.00  0.00     0.214 HD
ENDBRANCH   4  28
BRANCH   8  30
ATOM     30  C   UNL     1       5.903  16.401  17.267  1.00  0.00     0.249 C 
BRANCH  30  31
ATOM     31  O   UNL     1       7.297  16.164  17.079  1.00  0.00    -0.461 OA
BRANCH  31  32
ATOM     32  C   UNL     1       8.216  16.259  18.129  1.00  0.00     0.338 C 
ATOM     33  O   UNL     1       9.428  15.982  17.926  1.00  0.00    -0.246 OA
BRANCH  32  34
ATOM     34  C   UNL     1       7.758  16.657  19.478  1.00  0.00     0.060 A 
ATOM     35  C   UNL     1       7.365  15.678  20.405  1.00  0.00     0.015 A 
ATOM     36  C   UNL     1       7.777  18.010  19.873  1.00  0.00     0.015 A 
ATOM     37  C   UNL     1       6.986  16.047  21.701  1.00  0.00     0.001 A 
ATOM     38  C   UNL     1       7.405  18.369  21.171  1.00  0.00     0.001 A 
ATOM     39  C   UNL     1       7.009  17.389  22.083  1.00  0.00     0.000 A 
ENDBRANCH  32  34
ENDBRANCH  31  32
ENDBRANCH  30  31
ENDBRANCH   8  30
TORSDOF 12
ENDMDL
MODEL 5
REMARK VINA RESULT:    -3.569     13.482     16.036
REMARK INTER + INTRA:          -6.105
REMARK INTER:                  -7.453
REMARK INTRA:                   1.348
REMARK UNBOUND:                -0.554
REMARK SMILES C[C@@]12C[C@@]3(O)O[C@@H](O1)[C@]1(COC(=O)c4ccccc4)[C@H]3C[C@@]12O[C@H]1O[C@H](CO)[C@@H](O)[C@@H](O)[C@@H]1O
REMARK SMILES IDX 1 1 2 2 3 3 4 4 20 5 21 6 22 7 9 8 7 9 8 10 6 11 23 12 24 13
REMARK SMILES IDX 33 14 25 15 31 16 26 17 29 18 34 19 32 21 27 23 28 24 30 26
REMARK SMILES IDX 5 28 10 30 11 31 12 32 13 33 14 34 15 35 19 36 16 37 18 38
REMARK SMILES IDX 17 39
REMARK H PARENT 34 20 32 22 28 25 30 27 5 29
REMARK Flexibility Score: inf
ROOT
ATOM      1  C   UNL     1      -1.768  10.310   3.211  1.00  0.00     0.046 C 
ATOM      2  C   UNL     1      -0.947  11.525   3.666  1.00  0.00     0.104 C 
ATOM      3  C   UNL     1       0.592  11.197   3.576  1.00  0.00     0.104 C 
ATOM      4  C   UNL     1       1.281  12.471   4.155  1.00  0.00     0.175 C 
ATOM      5  C   UNL     1       0.627  12.860   5.513  1.00  0.00     0.070 C 
ATOM      6  C   UNL     1      -0.227  11.732   6.132  1.00  0.00     0.050 C 
ATOM      7  C   UNL     1      -1.302  12.090   5.101  1.00  0.00     0.115 C 
ATOM      8  C   UNL     1      -0.661  13.482   4.974  1.00  0.00     0.096 C 
ATOM      9  C   UNL     1      -0.438  13.691   3.477  1.00  0.00     0.267 C 
ATOM     10  O   UNL     1      -1.131  12.635   2.814  1.00  0.00    -0.342 OA
ATOM     11  O   UNL     1       0.953  13.529   3.278  1.00  0.00    -0.320 OA
ENDROOT
BRANCH   7  12
ATOM     12  O   UNL     1      -2.631  11.933   5.597  1.00  0.00    -0.339 OA
BRANCH  12  13
ATOM     13  C   UNL     1      -2.774  10.967   6.631  1.00  0.00     0.282 C 
ATOM     14  C   UNL     1      -2.417  11.639   7.968  1.00  0.00     0.202 C 
ATOM     15  O   UNL     1      -1.846   9.917   6.440  1.00  0.00    -0.341 OA
ATOM     16  C   UNL     1      -2.688  10.677   9.148  1.00  0.00     0.179 C 
ATOM     17  C   UNL     1      -1.967   8.876   7.412  1.00  0.00     0.178 C 
ATOM     18  C   UNL     1      -2.833   9.201   8.683  1.00  0.00     0.177 C 
BRANCH  14  19
ATOM     19  O   UNL     1      -3.125  12.842   8.136  1.00  0.00    -0.385 OA
ATOM     20  H   UNL     1      -2.447  13.580   8.109  1.00  0.00     0.211 HD
ENDBRANCH  14  19
BRANCH  16  21
ATOM     21  O   UNL     1      -1.657  10.799  10.090  1.00  0.00    -0.387 OA
ATOM     22  H   UNL     1      -1.289   9.889  10.240  1.00  0.00     0.211 HD
ENDBRANCH  16  21
BRANCH  17  23
ATOM     23  C   UNL     1      -2.447   7.597   6.716  1.00  0.00     0.191 C 
BRANCH  23  24
ATOM     24  O   UNL     1      -1.949   7.536   5.408  1.00  0.00    -0.394 OA
ATOM     25  H   UNL     1      -2.481   8.163   4.855  1.00  0.00     0.210 HD
ENDBRANCH  23  24
ENDBRANCH  17  23
BRANCH  18  26
ATOM     26  O   UNL     1      -2.491   8.326   9.729  1.00  0.00    -0.387 OA
ATOM     27  H   UNL     1      -3.191   7.626   9.786  1.00  0.00     0.211 HD
ENDBRANCH  18  26
ENDBRANCH  12  13
ENDBRANCH   7  12
BRANCH   4  28
ATOM     28  O   UNL     1       2.669  12.300   4.256  1.00  0.00    -0.365 OA
ATOM     29  H   UNL     1       3.038  13.151   4.608  1.00  0.00     0.214 HD
ENDBRANCH   4  28
BRANCH   8  30
ATOM     30  C   UNL     1      -1.112  14.729   5.777  1.00  0.00     0.249 C 
BRANCH  30  31
ATOM     31  O   UNL     1      -0.689  15.936   5.146  1.00  0.00    -0.461 OA
BRANCH  31  32
ATOM     32  C   UNL     1      -1.432  17.118   5.226  1.00  0.00     0.338 C 
ATOM     33  O   UNL     1      -2.026  17.411   6.298  1.00  0.00    -0.246 OA
BRANCH  32  34
ATOM     34  C   UNL     1      -1.542  18.003   4.047  1.00  0.00     0.060 A 
ATOM     35  C   UNL     1      -2.625  17.868   3.164  1.00  0.00     0.015 A 
ATOM     36  C   UNL     1      -0.605  19.035   3.833  1.00  0.00     0.015 A 
ATOM     37  C   UNL     1      -2.762  18.743   2.079  1.00  0.00     0.001 A 
ATOM     38  C   UNL     1      -0.754  19.908   2.753  1.00  0.00     0.001 A 
ATOM     39  C   UNL     1      -1.830  19.761   1.877  1.00  0.00     0.000 A 
ENDBRANCH  32  34
ENDBRANCH  31  32
ENDBRANCH  30  31
ENDBRANCH   8  30
TORSDOF 12
ENDMDL
MODEL 6
REMARK VINA RESULT:    -3.468      4.227      8.593
REMARK INTER + INTRA:          -5.948
REMARK INTER:                  -5.900
REMARK INTRA:                  -0.048
REMARK UNBOUND:                -0.554
REMARK SMILES C[C@@]12C[C@@]3(O)O[C@@H](O1)[C@]1(COC(=O)c4ccccc4)[C@H]3C[C@@]12O[C@H]1O[C@H](CO)[C@@H](O)[C@@H](O)[C@@H]1O
REMARK SMILES IDX 1 1 2 2 3 3 4 4 20 5 21 6 22 7 9 8 7 9 8 10 6 11 23 12 24 13
REMARK SMILES IDX 33 14 25 15 31 16 26 17 29 18 34 19 32 21 27 23 28 24 30 26
REMARK SMILES IDX 5 28 10 30 11 31 12 32 13 33 14 34 15 35 19 36 16 37 18 38
REMARK SMILES IDX 17 39
REMARK H PARENT 34 20 32 22 28 25 30 27 5 29
REMARK Flexibility Score: inf
ROOT
ATOM      1  C   UNL     1      -3.041  19.193  16.672  1.00  0.00     0.046 C 
ATOM      2  C   UNL     1      -2.456  17.794  16.428  1.00  0.00     0.104 C 
ATOM      3  C   UNL     1      -3.125  16.755  17.407  1.00  0.00     0.104 C 
ATOM      4  C   UNL     1      -2.369  15.423  17.111  1.00  0.00     0.175 C 
ATOM      5  C   UNL     1      -0.832  15.665  17.136  1.00  0.00     0.070 C 
ATOM      6  C   UNL     1      -0.428  16.997  17.805  1.00  0.00     0.050 C 
ATOM      7  C   UNL     1      -0.880  17.689  16.515  1.00  0.00     0.115 C 
ATOM      8  C   UNL     1      -0.689  16.352  15.778  1.00  0.00     0.096 C 
ATOM      9  C   UNL     1      -2.003  16.107  15.038  1.00  0.00     0.267 C 
ATOM     10  O   UNL     1      -2.753  17.316  15.134  1.00  0.00    -0.342 OA
ATOM     11  O   UNL     1      -2.663  15.092  15.769  1.00  0.00    -0.320 OA
ENDROOT
BRANCH   7  12
ATOM     12  O   UNL     1      -0.090  18.831  16.184  1.00  0.00    -0.339 OA
BRANCH  12  13
ATOM     13  C   UNL     1      -0.201  19.264  14.834  1.00  0.00     0.282 C 
ATOM     14  C   UNL     1       1.200  19.662  14.341  1.00  0.00     0.202 C 
ATOM     15  O   UNL     1      -1.005  20.426  14.765  1.00  0.00    -0.341 OA
ATOM     16  C   UNL     1       1.167  20.010  12.835  1.00  0.00     0.179 C 
ATOM     17  C   UNL     1      -1.210  20.890  13.429  1.00  0.00     0.178 C 
ATOM     18  C   UNL     1      -0.276  20.277  12.324  1.00  0.00     0.177 C 
BRANCH  14  19
ATOM     19  O   UNL     1       2.136  18.644  14.595  1.00  0.00    -0.385 OA
ATOM     20  H   UNL     1       2.959  19.092  14.951  1.00  0.00     0.211 HD
ENDBRANCH  14  19
BRANCH  16  21
ATOM     21  O   UNL     1       1.987  21.122  12.599  1.00  0.00    -0.387 OA
ATOM     22  H   UNL     1       2.267  21.083  11.646  1.00  0.00     0.211 HD
ENDBRANCH  16  21
BRANCH  17  23
ATOM     23  C   UNL     1      -2.691  20.732  13.067  1.00  0.00     0.191 C 
BRANCH  23  24
ATOM     24  O   UNL     1      -2.825  20.135  11.806  1.00  0.00    -0.394 OA
ATOM     25  H   UNL     1      -1.991  19.631  11.623  1.00  0.00     0.210 HD
ENDBRANCH  23  24
ENDBRANCH  17  23
BRANCH  18  26
ATOM     26  O   UNL     1      -0.246  21.124  11.202  1.00  0.00    -0.387 OA
ATOM     27  H   UNL     1       0.483  21.783  11.334  1.00  0.00     0.211 HD
ENDBRANCH  18  26
ENDBRANCH  12  13
ENDBRANCH   7  12
BRANCH   4  28
ATOM     28  O   UNL     1      -2.766  14.404  17.989  1.00  0.00    -0.365 OA
ATOM     29  H   UNL     1      -2.192  14.478  18.794  1.00  0.00     0.214 HD
ENDBRANCH   4  28
BRANCH   8  30
ATOM     30  C   UNL     1       0.604  15.945  15.027  1.00  0.00     0.249 C 
BRANCH  30  31
ATOM     31  O   UNL     1       1.718  15.863  15.915  1.00  0.00    -0.461 OA
BRANCH  31  32
ATOM     32  C   UNL     1       2.851  15.100  15.617  1.00  0.00     0.338 C 
ATOM     33  O   UNL     1       2.915  14.473  14.526  1.00  0.00    -0.246 OA
BRANCH  32  34
ATOM     34  C   UNL     1       3.958  15.009  16.594  1.00  0.00     0.060 A 
ATOM     35  C   UNL     1       3.777  14.313  17.800  1.00  0.00     0.015 A 
ATOM     36  C   UNL     1       5.224  15.557  16.299  1.00  0.00     0.015 A 
ATOM     37  C   UNL     1       4.841  14.176  18.700  1.00  0.00     0.001 A 
ATOM     38  C   UNL     1       6.281  15.409  17.199  1.00  0.00     0.001 A 
ATOM     39  C   UNL     1       6.089  14.721  18.398  1.00  0.00     0.000 A 
ENDBRANCH  32  34
ENDBRANCH  31  32
ENDBRANCH  30  31
ENDBRANCH   8  30
TORSDOF 12
ENDMDL
MODEL 7
REMARK VINA RESULT:    -3.393      1.757      3.238
REMARK INTER + INTRA:          -5.832
REMARK INTER:                  -6.690
REMARK INTRA:                   0.858
REMARK UNBOUND:                -0.554
REMARK SMILES C[C@@]12C[C@@]3(O)O[C@@H](O1)[C@]1(COC(=O)c4ccccc4)[C@H]3C[C@@]12O[C@H]1O[C@H](CO)[C@@H](O)[C@@H](O)[C@@H]1O
REMARK SMILES IDX 1 1 2 2 3 3 4 4 20 5 21 6 22 7 9 8 7 9 8 10 6 11 23 12 24 13
REMARK SMILES IDX 33 14 25 15 31 16 26 17 29 18 34 19 32 21 27 23 28 24 30 26
REMARK SMILES IDX 5 28 10 30 11 31 12 32 13 33 14 34 15 35 19 36 16 37 18 38
REMARK SMILES IDX 17 39
REMARK H PARENT 34 20 32 22 28 25 30 27 5 29
REMARK Flexibility Score: inf
ROOT
ATOM      1  C   UNL     1       5.753  12.677  18.623  1.00  0.00     0.046 C 
ATOM      2  C   UNL     1       5.025  13.293  17.419  1.00  0.00     0.104 C 
ATOM      3  C   UNL     1       5.256  12.402  16.140  1.00  0.00     0.104 C 
ATOM      4  C   UNL     1       4.550  13.197  14.998  1.00  0.00     0.175 C 
ATOM      5  C   UNL     1       5.005  14.685  15.026  1.00  0.00     0.070 C 
ATOM      6  C   UNL     1       6.277  14.926  15.867  1.00  0.00     0.050 C 
ATOM      7  C   UNL     1       5.383  14.802  17.105  1.00  0.00     0.115 C 
ATOM      8  C   UNL     1       4.176  15.154  16.220  1.00  0.00     0.096 C 
ATOM      9  C   UNL     1       3.148  14.054  16.482  1.00  0.00     0.267 C 
ATOM     10  O   UNL     1       3.626  13.311  17.601  1.00  0.00    -0.342 OA
ATOM     11  O   UNL     1       3.178  13.231  15.332  1.00  0.00    -0.320 OA
ENDROOT
BRANCH   7  12
ATOM     12  O   UNL     1       5.785  15.656  18.177  1.00  0.00    -0.339 OA
BRANCH  12  13
ATOM     13  C   UNL     1       6.813  16.582  17.850  1.00  0.00     0.282 C 
ATOM     14  C   UNL     1       8.160  15.974  18.276  1.00  0.00     0.202 C 
ATOM     15  O   UNL     1       6.645  17.771  18.598  1.00  0.00    -0.341 OA
ATOM     16  C   UNL     1       9.330  16.876  17.820  1.00  0.00     0.179 C 
ATOM     17  C   UNL     1       7.612  18.775  18.283  1.00  0.00     0.178 C 
ATOM     18  C   UNL     1       8.859  18.309  17.448  1.00  0.00     0.177 C 
BRANCH  14  19
ATOM     19  O   UNL     1       8.311  14.671  17.770  1.00  0.00    -0.385 OA
ATOM     20  H   UNL     1       8.627  14.102  18.532  1.00  0.00     0.211 HD
ENDBRANCH  14  19
BRANCH  16  21
ATOM     21  O   UNL     1      10.300  16.922  18.831  1.00  0.00    -0.387 OA
ATOM     22  H   UNL     1      10.580  17.870  18.926  1.00  0.00     0.211 HD
ENDBRANCH  16  21
BRANCH  17  23
ATOM     23  C   UNL     1       6.901  19.961  17.619  1.00  0.00     0.191 C 
BRANCH  23  24
ATOM     24  O   UNL     1       5.782  20.342  18.370  1.00  0.00    -0.394 OA
ATOM     25  H   UNL     1       6.024  20.271  19.328  1.00  0.00     0.210 HD
ENDBRANCH  23  24
ENDBRANCH  17  23
BRANCH  18  26
ATOM     26  O   UNL     1       9.913  19.226  17.614  1.00  0.00    -0.387 OA
ATOM     27  H   UNL     1       9.895  19.857  16.850  1.00  0.00     0.211 HD
ENDBRANCH  18  26
ENDBRANCH  12  13
ENDBRANCH   7  12
BRANCH   4  28
ATOM     28  O   UNL     1       4.760  12.594  13.750  1.00  0.00    -0.365 OA
ATOM     29  H   UNL     1       5.487  11.930  13.870  1.00  0.00     0.214 HD
ENDBRANCH   4  28
BRANCH   8  30
ATOM     30  C   UNL     1       3.611  16.586  16.041  1.00  0.00     0.249 C 
BRANCH  30  31
ATOM     31  O   UNL     1       2.461  16.590  15.197  1.00  0.00    -0.461 OA
BRANCH  31  32
ATOM     32  C   UNL     1       1.358  17.411  15.447  1.00  0.00     0.338 C 
ATOM     33  O   UNL     1       1.362  18.606  15.044  1.00  0.00    -0.246 OA
BRANCH  32  34
ATOM     34  C   UNL     1       0.203  16.886  16.208  1.00  0.00     0.060 A 
ATOM     35  C   UNL     1      -0.472  17.712  17.122  1.00  0.00     0.015 A 
ATOM     36  C   UNL     1      -0.275  15.580  15.977  1.00  0.00     0.015 A 
ATOM     37  C   UNL     1      -1.600  17.235  17.800  1.00  0.00     0.001 A 
ATOM     38  C   UNL     1      -1.406  15.116  16.653  1.00  0.00     0.001 A 
ATOM     39  C   UNL     1      -2.067  15.942  17.564  1.00  0.00     0.000 A 
ENDBRANCH  32  34
ENDBRANCH  31  32
ENDBRANCH  30  31
ENDBRANCH   8  30
TORSDOF 12
ENDMDL
MODEL 8
REMARK VINA RESULT:    -3.384      4.487      7.911
REMARK INTER + INTRA:          -5.818
REMARK INTER:                  -5.956
REMARK INTRA:                   0.138
REMARK UNBOUND:                -0.554
REMARK SMILES C[C@@]12C[C@@]3(O)O[C@@H](O1)[C@]1(COC(=O)c4ccccc4)[C@H]3C[C@@]12O[C@H]1O[C@H](CO)[C@@H](O)[C@@H](O)[C@@H]1O
REMARK SMILES IDX 1 1 2 2 3 3 4 4 20 5 21 6 22 7 9 8 7 9 8 10 6 11 23 12 24 13
REMARK SMILES IDX 33 14 25 15 31 16 26 17 29 18 34 19 32 21 27 23 28 24 30 26
REMARK SMILES IDX 5 28 10 30 11 31 12 32 13 33 14 34 15 35 19 36 16 37 18 38
REMARK SMILES IDX 17 39
REMARK H PARENT 34 20 32 22 28 25 30 27 5 29
REMARK Flexibility Score: inf
ROOT
ATOM      1  C   UNL     1       0.849  18.617  15.462  1.00  0.00     0.046 C 
ATOM      2  C   UNL     1      -0.350  17.687  15.700  1.00  0.00     0.104 C 
ATOM      3  C   UNL     1      -1.116  18.125  17.006  1.00  0.00     0.104 C 
ATOM      4  C   UNL     1      -2.230  17.044  17.166  1.00  0.00     0.175 C 
ATOM      5  C   UNL     1      -1.612  15.620  17.043  1.00  0.00     0.070 C 
ATOM      6  C   UNL     1      -0.075  15.600  17.188  1.00  0.00     0.050 C 
ATOM      7  C   UNL     1      -0.014  16.142  15.756  1.00  0.00     0.115 C 
ATOM      8  C   UNL     1      -1.429  15.583  15.527  1.00  0.00     0.096 C 
ATOM      9  C   UNL     1      -2.241  16.751  14.971  1.00  0.00     0.267 C 
ATOM     10  O   UNL     1      -1.307  17.786  14.668  1.00  0.00    -0.342 OA
ATOM     11  O   UNL     1      -3.070  17.173  16.037  1.00  0.00    -0.320 OA
ENDROOT
BRANCH   7  12
ATOM     12  O   UNL     1       1.102  15.649  15.015  1.00  0.00    -0.339 OA
BRANCH  12  13
ATOM     13  C   UNL     1       2.284  15.444  15.779  1.00  0.00     0.282 C 
ATOM     14  C   UNL     1       3.467  16.045  15.002  1.00  0.00     0.202 C 
ATOM     15  O   UNL     1       2.539  14.059  15.909  1.00  0.00    -0.341 OA
ATOM     16  C   UNL     1       4.761  15.977  15.847  1.00  0.00     0.179 C 
ATOM     17  C   UNL     1       3.684  13.772  16.715  1.00  0.00     0.178 C 
ATOM     18  C   UNL     1       4.639  14.979  17.032  1.00  0.00     0.177 C 
BRANCH  14  19
ATOM     19  O   UNL     1       3.198  17.368  14.612  1.00  0.00    -0.385 OA
ATOM     20  H   UNL     1       3.677  17.962  15.261  1.00  0.00     0.211 HD
ENDBRANCH  14  19
BRANCH  16  21
ATOM     21  O   UNL     1       5.837  15.630  15.018  1.00  0.00    -0.387 OA
ATOM     22  H   UNL     1       6.032  14.669  15.179  1.00  0.00     0.211 HD
ENDBRANCH  16  21
BRANCH  17  23
ATOM     23  C   UNL     1       3.229  13.062  17.995  1.00  0.00     0.191 C 
BRANCH  23  24
ATOM     24  O   UNL     1       4.238  12.216  18.471  1.00  0.00    -0.394 OA
ATOM     25  H   UNL     1       4.275  12.316  19.456  1.00  0.00     0.210 HD
ENDBRANCH  23  24
ENDBRANCH  17  23
BRANCH  18  26
ATOM     26  O   UNL     1       5.910  14.499  17.396  1.00  0.00    -0.387 OA
ATOM     27  H   UNL     1       6.162  14.920  18.258  1.00  0.00     0.211 HD
ENDBRANCH  18  26
ENDBRANCH  12  13
ENDBRANCH   7  12
BRANCH   4  28
ATOM     28  O   UNL     1      -2.945  17.219  18.359  1.00  0.00    -0.365 OA
ATOM     29  H   UNL     1      -2.300  17.556  19.034  1.00  0.00     0.214 HD
ENDBRANCH   4  28
BRANCH   8  30
ATOM     30  C   UNL     1      -1.730  14.191  14.915  1.00  0.00     0.249 C 
BRANCH  30  31
ATOM     31  O   UNL     1      -2.981  14.183  14.230  1.00  0.00    -0.461 OA
BRANCH  31  32
ATOM     32  C   UNL     1      -3.065  14.133  12.835  1.00  0.00     0.338 C 
ATOM     33  O   UNL     1      -3.123  15.204  12.173  1.00  0.00    -0.246 OA
BRANCH  32  34
ATOM     34  C   UNL     1      -3.116  12.827  12.144  1.00  0.00     0.060 A 
ATOM     35  C   UNL     1      -3.122  12.773  10.741  1.00  0.00     0.015 A 
ATOM     36  C   UNL     1      -3.087  11.624  12.879  1.00  0.00     0.015 A 
ATOM     37  C   UNL     1      -3.111  11.537  10.084  1.00  0.00     0.001 A 
ATOM     38  C   UNL     1      -3.069  10.395  12.215  1.00  0.00     0.001 A 
ATOM     39  C   UNL     1      -3.082  10.352  10.820  1.00  0.00     0.000 A 
ENDBRANCH  32  34
ENDBRANCH  31  32
ENDBRANCH  30  31
ENDBRANCH   8  30
TORSDOF 12
ENDMDL
MODEL 9
REMARK VINA RESULT:    -3.378      2.292      6.848
REMARK INTER + INTRA:          -5.809
REMARK INTER:                  -7.951
REMARK INTRA:                   2.142
REMARK UNBOUND:                -0.554
REMARK SMILES C[C@@]12C[C@@]3(O)O[C@@H](O1)[C@]1(COC(=O)c4ccccc4)[C@H]3C[C@@]12O[C@H]1O[C@H](CO)[C@@H](O)[C@@H](O)[C@@H]1O
REMARK SMILES IDX 1 1 2 2 3 3 4 4 20 5 21 6 22 7 9 8 7 9 8 10 6 11 23 12 24 13
REMARK SMILES IDX 33 14 25 15 31 16 26 17 29 18 34 19 32 21 27 23 28 24 30 26
REMARK SMILES IDX 5 28 10 30 11 31 12 32 13 33 14 34 15 35 19 36 16 37 18 38
REMARK SMILES IDX 17 39
REMARK H PARENT 34 20 32 22 28 25 30 27 5 29
REMARK Flexibility Score: inf
ROOT
ATOM      1  C   UNL     1       3.979  13.238  14.351  1.00  0.00     0.046 C 
ATOM      2  C   UNL     1       4.784  13.777  15.542  1.00  0.00     0.104 C 
ATOM      3  C   UNL     1       4.829  12.699  16.691  1.00  0.00     0.104 C 
ATOM      4  C   UNL     1       5.584  13.420  17.851  1.00  0.00     0.175 C 
ATOM      5  C   UNL     1       4.962  14.825  18.100  1.00  0.00     0.070 C 
ATOM      6  C   UNL     1       3.570  15.006  17.455  1.00  0.00     0.050 C 
ATOM      7  C   UNL     1       4.300  15.169  16.118  1.00  0.00     0.115 C 
ATOM      8  C   UNL     1       5.566  15.556  16.901  1.00  0.00     0.096 C 
ATOM      9  C   UNL     1       6.669  14.647  16.362  1.00  0.00     0.267 C 
ATOM     10  O   UNL     1       6.135  14.005  15.206  1.00  0.00    -0.342 OA
ATOM     11  O   UNL     1       6.887  13.680  17.371  1.00  0.00    -0.320 OA
ENDROOT
BRANCH   7  12
ATOM     12  O   UNL     1       3.665  16.099  15.240  1.00  0.00    -0.339 OA
BRANCH  12  13
ATOM     13  C   UNL     1       2.422  16.609  15.707  1.00  0.00     0.282 C 
ATOM     14  C   UNL     1       1.353  15.522  15.512  1.00  0.00     0.202 C 
ATOM     15  O   UNL     1       2.030  17.716  14.920  1.00  0.00    -0.341 OA
ATOM     16  C   UNL     1       0.007  15.967  16.130  1.00  0.00     0.179 C 
ATOM     17  C   UNL     1       0.814  18.321  15.365  1.00  0.00     0.178 C 
ATOM     18  C   UNL     1      -0.041  17.498  16.394  1.00  0.00     0.177 C 
BRANCH  14  19
ATOM     19  O   UNL     1       1.769  14.296  16.060  1.00  0.00    -0.385 OA
ATOM     20  H   UNL     1       0.939  13.814  16.350  1.00  0.00     0.211 HD
ENDBRANCH  14  19
BRANCH  16  21
ATOM     21  O   UNL     1      -1.041  15.579  15.283  1.00  0.00    -0.387 OA
ATOM     22  H   UNL     1      -1.844  16.098  15.554  1.00  0.00     0.211 HD
ENDBRANCH  16  21
BRANCH  17  23
ATOM     23  C   UNL     1       1.118  19.731  15.885  1.00  0.00     0.191 C 
BRANCH  23  24
ATOM     24  O   UNL     1       1.567  20.550  14.841  1.00  0.00    -0.394 OA
ATOM     25  H   UNL     1       2.306  21.109  15.194  1.00  0.00     0.210 HD
ENDBRANCH  23  24
ENDBRANCH  17  23
BRANCH  18  26
ATOM     26  O   UNL     1      -1.372  17.952  16.379  1.00  0.00    -0.387 OA
ATOM     27  H   UNL     1      -1.536  18.395  15.508  1.00  0.00     0.211 HD
ENDBRANCH  18  26
ENDBRANCH  12  13
ENDBRANCH   7  12
BRANCH   4  28
ATOM     28  O   UNL     1       5.612  12.632  19.010  1.00  0.00    -0.365 OA
ATOM     29  H   UNL     1       5.826  13.238  19.765  1.00  0.00     0.214 HD
ENDBRANCH   4  28
BRANCH   8  30
ATOM     30  C   UNL     1       5.981  17.013  17.228  1.00  0.00     0.249 C 
BRANCH  30  31
ATOM     31  O   UNL     1       7.400  17.158  17.248  1.00  0.00    -0.461 OA
BRANCH  31  32
ATOM     32  C   UNL     1       8.087  17.598  18.384  1.00  0.00     0.338 C 
ATOM     33  O   UNL     1       8.908  18.549  18.289  1.00  0.00    -0.246 OA
BRANCH  32  34
ATOM     34  C   UNL     1       7.870  16.928  19.685  1.00  0.00     0.060 A 
ATOM     35  C   UNL     1       7.438  17.671  20.796  1.00  0.00     0.015 A 
ATOM     36  C   UNL     1       8.025  15.532  19.809  1.00  0.00     0.015 A 
ATOM     37  C   UNL     1       7.176  17.030  22.013  1.00  0.00     0.001 A 
ATOM     38  C   UNL     1       7.754  14.900  21.025  1.00  0.00     0.001 A 
ATOM     39  C   UNL     1       7.332  15.648  22.125  1.00  0.00     0.000 A 
ENDBRANCH  32  34
ENDBRANCH  31  32
ENDBRANCH  30  31
ENDBRANCH   8  30
TORSDOF 12
ENDMDL
