MODEL 1
REMARK VINA RESULT:    -5.120      0.000      0.000
REMARK INTER + INTRA:          -8.365
REMARK INTER:                  -7.814
REMARK INTRA:                  -0.551
REMARK UNBOUND:                -0.551
REMARK SMILES O=C([O-])CCCCCCCCC(=O)[O-]
REMARK SMILES IDX 7 1 6 2 5 3 4 4 2 5 1 6 3 7 8 8 9 9 10 10 11 11 12 12 13 13
REMARK SMILES IDX 14 14
REMARK H PARENT
REMARK Flexibility Score: inf
ROOT
ATOM      1  C   UNL     1       4.966 -29.686  24.601  1.00  0.00     0.000 C 
ENDROOT
BRANCH   1   2
ATOM      2  C   UNL     1       4.020 -29.013  25.602  1.00  0.00     0.000 C 
BRANCH   2   3
ATOM      3  C   UNL     1       2.706 -28.602  24.928  1.00  0.00     0.006 C 
BRANCH   3   4
ATOM      4  C   UNL     1       2.402 -29.500  23.725  1.00  0.00     0.053 C 
BRANCH   4   5
ATOM      5  C   UNL     1       1.083 -30.182  23.900  1.00  0.00     0.041 C 
ATOM      6  O   UNL     1       0.415 -30.012  24.954  1.00  0.00    -0.550 OA
ATOM      7  O   UNL     1       0.565 -30.969  22.878  1.00  0.00    -0.550 OA
ENDBRANCH   4   5
ENDBRANCH   3   4
ENDBRANCH   2   3
ENDBRANCH   1   2
BRANCH   1   8
ATOM      8  C   UNL     1       6.336 -29.958  25.234  1.00  0.00     0.000 C 
BRANCH   8   9
ATOM      9  C   UNL     1       7.172 -30.900  24.353  1.00  0.00     0.000 C 
BRANCH   9  10
ATOM     10  C   UNL     1       6.442 -31.307  23.064  1.00  0.00     0.006 C 
BRANCH  10  11
ATOM     11  C   UNL     1       7.407 -31.630  21.916  1.00  0.00     0.053 C 
BRANCH  11  12
ATOM     12  C   UNL     1       8.257 -30.441  21.599  1.00  0.00     0.041 C 
ATOM     13  O   UNL     1       7.739 -29.404  21.108  1.00  0.00    -0.550 OA
ATOM     14  O   UNL     1       9.631 -30.494  21.800  1.00  0.00    -0.550 OA
ENDBRANCH  11  12
ENDBRANCH  10  11
ENDBRANCH   9  10
ENDBRANCH   8   9
ENDBRANCH   1   8
TORSDOF 9
ENDMDL
MODEL 2
REMARK VINA RESULT:    -5.070     12.746     15.584
REMARK INTER + INTRA:          -8.288
REMARK INTER:                  -7.640
REMARK INTRA:                  -0.648
REMARK UNBOUND:                -0.551
REMARK SMILES O=C([O-])CCCCCCCCC(=O)[O-]
REMARK SMILES IDX 7 1 6 2 5 3 4 4 2 5 1 6 3 7 8 8 9 9 10 10 11 11 12 12 13 13
REMARK SMILES IDX 14 14
REMARK H PARENT
REMARK Flexibility Score: inf
ROOT
ATOM      1  C   UNL     1      10.828 -25.278  10.304  1.00  0.00     0.000 C 
ENDROOT
BRANCH   1   2
ATOM      2  C   UNL     1      10.911 -25.025  11.814  1.00  0.00     0.000 C 
BRANCH   2   3
ATOM      3  C   UNL     1       9.829 -25.810  12.564  1.00  0.00     0.006 C 
BRANCH   3   4
ATOM      4  C   UNL     1      10.435 -26.994  13.323  1.00  0.00     0.053 C 
BRANCH   4   5
ATOM      5  C   UNL     1      10.126 -28.279  12.624  1.00  0.00     0.041 C 
ATOM      6  O   UNL     1      10.681 -28.556  11.528  1.00  0.00    -0.550 OA
ATOM      7  O   UNL     1       9.261 -29.197  13.207  1.00  0.00    -0.550 OA
ENDBRANCH   4   5
ENDBRANCH   3   4
ENDBRANCH   2   3
ENDBRANCH   1   2
BRANCH   1   8
ATOM      8  C   UNL     1       9.375 -25.485   9.859  1.00  0.00     0.000 C 
BRANCH   8   9
ATOM      9  C   UNL     1       9.247 -26.720   8.953  1.00  0.00     0.000 C 
BRANCH   9  10
ATOM     10  C   UNL     1       8.802 -26.364   7.527  1.00  0.00     0.006 C 
BRANCH  10  11
ATOM     11  C   UNL     1       9.809 -26.819   6.463  1.00  0.00     0.053 C 
BRANCH  11  12
ATOM     12  C   UNL     1      11.060 -26.004   6.546  1.00  0.00     0.041 C 
ATOM     13  O   UNL     1      12.023 -26.390   7.258  1.00  0.00    -0.550 OA
ATOM     14  O   UNL     1      11.145 -24.789   5.875  1.00  0.00    -0.550 OA
ENDBRANCH  11  12
ENDBRANCH  10  11
ENDBRANCH   9  10
ENDBRANCH   8   9
ENDBRANCH   1   8
TORSDOF 9
ENDMDL
MODEL 3
REMARK VINA RESULT:    -5.029     12.793     16.010
REMARK INTER + INTRA:          -8.226
REMARK INTER:                  -7.700
REMARK INTRA:                  -0.526
REMARK UNBOUND:                -0.551
REMARK SMILES O=C([O-])CCCCCCCCC(=O)[O-]
REMARK SMILES IDX 7 1 6 2 5 3 4 4 2 5 1 6 3 7 8 8 9 9 10 10 11 11 12 12 13 13
REMARK SMILES IDX 14 14
REMARK H PARENT
REMARK Flexibility Score: inf
ROOT
ATOM      1  C   UNL     1       9.292 -25.467   9.809  1.00  0.00     0.000 C 
ENDROOT
BRANCH   1   2
ATOM      2  C   UNL     1       9.354 -26.718   8.926  1.00  0.00     0.000 C 
BRANCH   2   3
ATOM      3  C   UNL     1       8.688 -26.467   7.568  1.00  0.00     0.006 C 
BRANCH   3   4
ATOM      4  C   UNL     1       9.635 -26.821   6.418  1.00  0.00     0.053 C 
BRANCH   4   5
ATOM      5  C   UNL     1      10.868 -25.977   6.476  1.00  0.00     0.041 C 
ATOM      6  O   UNL     1      10.909 -24.871   5.876  1.00  0.00    -0.550 OA
ATOM      7  O   UNL     1      11.957 -26.389   7.234  1.00  0.00    -0.550 OA
ENDBRANCH   4   5
ENDBRANCH   3   4
ENDBRANCH   2   3
ENDBRANCH   1   2
BRANCH   1   8
ATOM      8  C   UNL     1      10.696 -25.024  10.238  1.00  0.00     0.000 C 
BRANCH   8   9
ATOM      9  C   UNL     1      10.796 -24.919  11.768  1.00  0.00     0.000 C 
BRANCH   9  10
ATOM     10  C   UNL     1       9.807 -25.844  12.491  1.00  0.00     0.006 C 
BRANCH  10  11
ATOM     11  C   UNL     1      10.501 -27.008  13.209  1.00  0.00     0.053 C 
BRANCH  11  12
ATOM     12  C   UNL     1      10.181 -28.303  12.534  1.00  0.00     0.041 C 
ATOM     13  O   UNL     1       9.394 -29.123  13.075  1.00  0.00    -0.550 OA
ATOM     14  O   UNL     1      10.790 -28.629  11.328  1.00  0.00    -0.550 OA
ENDBRANCH  11  12
ENDBRANCH  10  11
ENDBRANCH   9  10
ENDBRANCH   8   9
ENDBRANCH   1   8
TORSDOF 9
ENDMDL
MODEL 4
REMARK VINA RESULT:    -5.002     12.687     15.518
REMARK INTER + INTRA:          -8.185
REMARK INTER:                  -7.531
REMARK INTRA:                  -0.654
REMARK UNBOUND:                -0.551
REMARK SMILES O=C([O-])CCCCCCCCC(=O)[O-]
REMARK SMILES IDX 7 1 6 2 5 3 4 4 2 5 1 6 3 7 8 8 9 9 10 10 11 11 12 12 13 13
REMARK SMILES IDX 14 14
REMARK H PARENT
REMARK Flexibility Score: inf
ROOT
ATOM      1  C   UNL     1       9.217 -25.116  11.105  1.00  0.00     0.000 C 
ENDROOT
BRANCH   1   2
ATOM      2  C   UNL     1      10.637 -24.875  11.631  1.00  0.00     0.000 C 
BRANCH   2   3
ATOM      3  C   UNL     1      11.064 -25.990  12.592  1.00  0.00     0.006 C 
BRANCH   3   4
ATOM      4  C   UNL     1       9.856 -26.808  13.056  1.00  0.00     0.053 C 
BRANCH   4   5
ATOM      5  C   UNL     1      10.019 -28.246  12.679  1.00  0.00     0.041 C 
ATOM      6  O   UNL     1       9.496 -29.150  13.383  1.00  0.00    -0.550 OA
ATOM      7  O   UNL     1      10.709 -28.587  11.522  1.00  0.00    -0.550 OA
ENDBRANCH   4   5
ENDBRANCH   3   4
ENDBRANCH   2   3
ENDBRANCH   1   2
BRANCH   1   8
ATOM      8  C   UNL     1       9.166 -24.989   9.577  1.00  0.00     0.000 C 
BRANCH   8   9
ATOM      9  C   UNL     1       9.329 -26.361   8.905  1.00  0.00     0.000 C 
BRANCH   9  10
ATOM     10  C   UNL     1      10.801 -26.773   8.750  1.00  0.00     0.006 C 
BRANCH  10  11
ATOM     11  C   UNL     1      11.602 -25.792   7.884  1.00  0.00     0.053 C 
BRANCH  11  12
ATOM     12  C   UNL     1      11.060 -25.765   6.490  1.00  0.00     0.041 C 
ATOM     13  O   UNL     1      10.947 -24.673   5.875  1.00  0.00    -0.550 OA
ATOM     14  O   UNL     1      10.634 -26.942   5.887  1.00  0.00    -0.550 OA
ENDBRANCH  11  12
ENDBRANCH  10  11
ENDBRANCH   9  10
ENDBRANCH   8   9
ENDBRANCH   1   8
TORSDOF 9
ENDMDL
MODEL 5
REMARK VINA RESULT:    -5.002      0.936      6.271
REMARK INTER + INTRA:          -8.184
REMARK INTER:                  -7.685
REMARK INTRA:                  -0.499
REMARK UNBOUND:                -0.551
REMARK SMILES O=C([O-])CCCCCCCCC(=O)[O-]
REMARK SMILES IDX 7 1 6 2 5 3 4 4 2 5 1 6 3 7 8 8 9 9 10 10 11 11 12 12 13 13
REMARK SMILES IDX 14 14
REMARK H PARENT
REMARK Flexibility Score: inf
ROOT
ATOM      1  C   UNL     1       5.295 -29.668  24.754  1.00  0.00     0.000 C 
ENDROOT
BRANCH   1   2
ATOM      2  C   UNL     1       6.769 -29.526  25.151  1.00  0.00     0.000 C 
BRANCH   2   3
ATOM      3  C   UNL     1       7.655 -30.461  24.319  1.00  0.00     0.006 C 
BRANCH   3   4
ATOM      4  C   UNL     1       6.820 -31.258  23.313  1.00  0.00     0.053 C 
BRANCH   4   5
ATOM      5  C   UNL     1       7.427 -31.179  21.949  1.00  0.00     0.041 C 
ATOM      6  O   UNL     1       7.563 -32.220  21.253  1.00  0.00    -0.550 OA
ATOM      7  O   UNL     1       7.798 -29.947  21.423  1.00  0.00    -0.550 OA
ENDBRANCH   4   5
ENDBRANCH   3   4
ENDBRANCH   2   3
ENDBRANCH   1   2
BRANCH   1   8
ATOM      8  C   UNL     1       4.377 -29.032  25.805  1.00  0.00     0.000 C 
BRANCH   8   9
ATOM      9  C   UNL     1       3.010 -28.676  25.200  1.00  0.00     0.000 C 
BRANCH   9  10
ATOM     10  C   UNL     1       2.776 -29.341  23.835  1.00  0.00     0.006 C 
BRANCH  10  11
ATOM     11  C   UNL     1       1.369 -29.079  23.284  1.00  0.00     0.053 C 
BRANCH  11  12
ATOM     12  C   UNL     1       0.450 -30.202  23.645  1.00  0.00     0.041 C 
ATOM     13  O   UNL     1      -0.113 -30.224  24.771  1.00  0.00    -0.550 OA
ATOM     14  O   UNL     1       0.252 -31.252  22.757  1.00  0.00    -0.550 OA
ENDBRANCH  11  12
ENDBRANCH  10  11
ENDBRANCH   9  10
ENDBRANCH   8   9
ENDBRANCH   1   8
TORSDOF 9
ENDMDL
MODEL 6
REMARK VINA RESULT:    -4.908      0.601      6.418
REMARK INTER + INTRA:          -8.041
REMARK INTER:                  -7.551
REMARK INTRA:                  -0.490
REMARK UNBOUND:                -0.551
REMARK SMILES O=C([O-])CCCCCCCCC(=O)[O-]
REMARK SMILES IDX 7 1 6 2 5 3 4 4 2 5 1 6 3 7 8 8 9 9 10 10 11 11 12 12 13 13
REMARK SMILES IDX 14 14
REMARK H PARENT
REMARK Flexibility Score: inf
ROOT
ATOM      1  C   UNL     1       6.423 -29.736  24.934  1.00  0.00     0.000 C 
ENDROOT
BRANCH   1   2
ATOM      2  C   UNL     1       7.109 -30.988  24.377  1.00  0.00     0.000 C 
BRANCH   2   3
ATOM      3  C   UNL     1       6.566 -31.341  22.987  1.00  0.00     0.006 C 
BRANCH   3   4
ATOM      4  C   UNL     1       7.704 -31.707  22.029  1.00  0.00     0.053 C 
BRANCH   4   5
ATOM      5  C   UNL     1       8.339 -30.472  21.474  1.00  0.00     0.041 C 
ATOM      6  O   UNL     1       7.655 -29.430  21.299  1.00  0.00    -0.550 OA
ATOM      7  O   UNL     1       9.701 -30.455  21.196  1.00  0.00    -0.550 OA
ENDBRANCH   4   5
ENDBRANCH   3   4
ENDBRANCH   2   3
ENDBRANCH   1   2
BRANCH   1   8
ATOM      8  C   UNL     1       4.968 -29.645  24.455  1.00  0.00     0.000 C 
BRANCH   8   9
ATOM      9  C   UNL     1       4.052 -29.128  25.574  1.00  0.00     0.000 C 
BRANCH   9  10
ATOM     10  C   UNL     1       2.741 -28.532  25.038  1.00  0.00     0.006 C 
BRANCH  10  11
ATOM     11  C   UNL     1       2.437 -28.970  23.600  1.00  0.00     0.053 C 
BRANCH  11  12
ATOM     12  C   UNL     1       1.067 -29.564  23.514  1.00  0.00     0.041 C 
ATOM     13  O   UNL     1       0.918 -30.769  23.182  1.00  0.00    -0.550 OA
ATOM     14  O   UNL     1      -0.050 -28.774  23.754  1.00  0.00    -0.550 OA
ENDBRANCH  11  12
ENDBRANCH  10  11
ENDBRANCH   9  10
ENDBRANCH   8   9
ENDBRANCH   1   8
TORSDOF 9
ENDMDL
MODEL 7
REMARK VINA RESULT:    -4.856     12.583     15.951
REMARK INTER + INTRA:          -7.962
REMARK INTER:                  -7.502
REMARK INTRA:                  -0.460
REMARK UNBOUND:                -0.551
REMARK SMILES O=C([O-])CCCCCCCCC(=O)[O-]
REMARK SMILES IDX 7 1 6 2 5 3 4 4 2 5 1 6 3 7 8 8 9 9 10 10 11 11 12 12 13 13
REMARK SMILES IDX 14 14
REMARK H PARENT
REMARK Flexibility Score: inf
ROOT
ATOM      1  C   UNL     1       8.920 -26.489   9.194  1.00  0.00     0.000 C 
ENDROOT
BRANCH   1   2
ATOM      2  C   UNL     1       8.900 -26.363   7.666  1.00  0.00     0.000 C 
BRANCH   2   3
ATOM      3  C   UNL     1      10.255 -26.752   7.064  1.00  0.00     0.006 C 
BRANCH   3   4
ATOM      4  C   UNL     1      11.264 -25.607   7.198  1.00  0.00     0.053 C 
BRANCH   4   5
ATOM      5  C   UNL     1      12.086 -25.776   8.436  1.00  0.00     0.041 C 
ATOM      6  O   UNL     1      12.387 -26.927   8.846  1.00  0.00    -0.550 OA
ATOM      7  O   UNL     1      12.564 -24.659   9.110  1.00  0.00    -0.550 OA
ENDBRANCH   4   5
ENDBRANCH   3   4
ENDBRANCH   2   3
ENDBRANCH   1   2
BRANCH   1   8
ATOM      8  C   UNL     1       9.006 -25.109   9.859  1.00  0.00     0.000 C 
BRANCH   8   9
ATOM      9  C   UNL     1       9.142 -25.242  11.384  1.00  0.00     0.000 C 
BRANCH   9  10
ATOM     10  C   UNL     1      10.541 -25.708  11.815  1.00  0.00     0.006 C 
BRANCH  10  11
ATOM     11  C   UNL     1      10.498 -26.713  12.973  1.00  0.00     0.053 C 
BRANCH  11  12
ATOM     12  C   UNL     1      10.270 -28.098  12.454  1.00  0.00     0.041 C 
ATOM     13  O   UNL     1      10.717 -28.433  11.326  1.00  0.00    -0.550 OA
ATOM     14  O   UNL     1       9.521 -29.004  13.195  1.00  0.00    -0.550 OA
ENDBRANCH  11  12
ENDBRANCH  10  11
ENDBRANCH   9  10
ENDBRANCH   8   9
ENDBRANCH   1   8
TORSDOF 9
ENDMDL
MODEL 8
REMARK VINA RESULT:    -4.765     12.595     15.771
REMARK INTER + INTRA:          -7.824
REMARK INTER:                  -7.059
REMARK INTRA:                  -0.765
REMARK UNBOUND:                -0.551
REMARK SMILES O=C([O-])CCCCCCCCC(=O)[O-]
REMARK SMILES IDX 7 1 6 2 5 3 4 4 2 5 1 6 3 7 8 8 9 9 10 10 11 11 12 12 13 13
REMARK SMILES IDX 14 14
REMARK H PARENT
REMARK Flexibility Score: inf
ROOT
ATOM      1  C   UNL     1      11.406 -24.490  10.014  1.00  0.00     0.000 C 
ENDROOT
BRANCH   1   2
ATOM      2  C   UNL     1      12.332 -25.439   9.243  1.00  0.00     0.000 C 
BRANCH   2   3
ATOM      3  C   UNL     1      11.807 -25.688   7.824  1.00  0.00     0.006 C 
BRANCH   3   4
ATOM      4  C   UNL     1      10.328 -25.305   7.711  1.00  0.00     0.053 C 
BRANCH   4   5
ATOM      5  C   UNL     1       9.560 -26.382   7.013  1.00  0.00     0.041 C 
ATOM      6  O   UNL     1      10.018 -26.912   5.967  1.00  0.00    -0.550 OA
ATOM      7  O   UNL     1       8.360 -26.837   7.546  1.00  0.00    -0.550 OA
ENDBRANCH   4   5
ENDBRANCH   3   4
ENDBRANCH   2   3
ENDBRANCH   1   2
BRANCH   1   8
ATOM      8  C   UNL     1      11.083 -25.046  11.406  1.00  0.00     0.000 C 
BRANCH   8   9
ATOM      9  C   UNL     1       9.694 -25.701  11.428  1.00  0.00     0.000 C 
BRANCH   9  10
ATOM     10  C   UNL     1       9.680 -27.081  10.753  1.00  0.00     0.006 C 
BRANCH  10  11
ATOM     11  C   UNL     1      10.686 -28.055  11.377  1.00  0.00     0.053 C 
BRANCH  11  12
ATOM     12  C   UNL     1      10.358 -28.292  12.817  1.00  0.00     0.041 C 
ATOM     13  O   UNL     1      11.077 -27.793  13.722  1.00  0.00    -0.550 OA
ATOM     14  O   UNL     1       9.285 -29.106  13.162  1.00  0.00    -0.550 OA
ENDBRANCH  11  12
ENDBRANCH  10  11
ENDBRANCH   9  10
ENDBRANCH   8   9
ENDBRANCH   1   8
TORSDOF 9
ENDMDL
MODEL 9
REMARK VINA RESULT:    -4.568      3.548      4.994
REMARK INTER + INTRA:          -7.522
REMARK INTER:                  -6.668
REMARK INTRA:                  -0.853
REMARK UNBOUND:                -0.551
REMARK SMILES O=C([O-])CCCCCCCCC(=O)[O-]
REMARK SMILES IDX 7 1 6 2 5 3 4 4 2 5 1 6 3 7 8 8 9 9 10 10 11 11 12 12 13 13
REMARK SMILES IDX 14 14
REMARK H PARENT
REMARK Flexibility Score: inf
ROOT
ATOM      1  C   UNL     1       8.254 -30.280  21.252  1.00  0.00     0.000 C 
ENDROOT
BRANCH   1   2
ATOM      2  C   UNL     1       7.417 -29.837  22.458  1.00  0.00     0.000 C 
BRANCH   2   3
ATOM      3  C   UNL     1       6.796 -31.044  23.170  1.00  0.00     0.006 C 
BRANCH   3   4
ATOM      4  C   UNL     1       7.196 -31.075  24.648  1.00  0.00     0.053 C 
BRANCH   4   5
ATOM      5  C   UNL     1       6.857 -29.778  25.310  1.00  0.00     0.041 C 
ATOM      6  O   UNL     1       5.654 -29.435  25.457  1.00  0.00    -0.550 OA
ATOM      7  O   UNL     1       7.869 -28.968  25.811  1.00  0.00    -0.550 OA
ENDBRANCH   4   5
ENDBRANCH   3   4
ENDBRANCH   2   3
ENDBRANCH   1   2
BRANCH   1   8
ATOM      8  C   UNL     1       8.415 -31.805  21.224  1.00  0.00     0.000 C 
BRANCH   8   9
ATOM      9  C   UNL     1       9.842 -32.200  20.813  1.00  0.00     0.000 C 
BRANCH   9  10
ATOM     10  C   UNL     1      10.679 -32.711  21.995  1.00  0.00     0.006 C 
BRANCH  10  11
ATOM     11  C   UNL     1      11.900 -31.828  22.281  1.00  0.00     0.053 C 
BRANCH  11  12
ATOM     12  C   UNL     1      11.473 -30.527  22.883  1.00  0.00     0.041 C 
ATOM     13  O   UNL     1      10.727 -30.512  23.897  1.00  0.00    -0.550 OA
ATOM     14  O   UNL     1      11.859 -29.328  22.295  1.00  0.00    -0.550 OA
ENDBRANCH  11  12
ENDBRANCH  10  11
ENDBRANCH   9  10
ENDBRANCH   8   9
ENDBRANCH   1   8
TORSDOF 9
ENDMDL
