MODEL 1
REMARK VINA RESULT:    -3.813      0.000      0.000
REMARK INTER + INTRA:          -5.960
REMARK INTER:                  -5.373
REMARK INTRA:                  -0.587
REMARK UNBOUND:                -0.587
REMARK SMILES C=CCCCCCCC(=O)[O-]
REMARK SMILES IDX 6 1 7 2 8 3 9 4 10 5 11 6 5 7 4 8 3 9 2 10 1 11
REMARK H PARENT
REMARK Flexibility Score: inf
ROOT
ATOM      1  C   UNL     1      42.225  27.601   0.564  1.00  0.00     0.000 C 
ENDROOT
BRANCH   1   2
ATOM      2  C   UNL     1      42.842  28.707  -0.305  1.00  0.00     0.006 C 
BRANCH   2   3
ATOM      3  C   UNL     1      43.261  28.158  -1.673  1.00  0.00     0.053 C 
BRANCH   3   4
ATOM      4  C   UNL     1      44.258  27.055  -1.513  1.00  0.00     0.041 C 
ATOM      5  O   UNL     1      43.929  25.863  -1.753  1.00  0.00    -0.550 OA
ATOM      6  O   UNL     1      45.537  27.335  -1.050  1.00  0.00    -0.550 OA
ENDBRANCH   3   4
ENDBRANCH   2   3
ENDBRANCH   1   2
BRANCH   1   7
ATOM      7  C   UNL     1      42.788  27.590   1.995  1.00  0.00     0.000 C 
BRANCH   7   8
ATOM      8  C   UNL     1      44.134  28.319   2.109  1.00  0.00     0.004 C 
BRANCH   8   9
ATOM      9  C   UNL     1      45.262  27.339   2.454  1.00  0.00     0.027 C 
BRANCH   9  10
ATOM     10  C   UNL     1      44.713  26.012   2.903  1.00  0.00    -0.035 C 
ATOM     11  C   UNL     1      45.482  25.101   3.507  1.00  0.00     0.004 C 
ENDBRANCH   9  10
ENDBRANCH   8   9
ENDBRANCH   7   8
ENDBRANCH   1   7
TORSDOF 7
ENDMDL
MODEL 2
REMARK VINA RESULT:    -3.759      0.663      1.193
REMARK INTER + INTRA:          -5.884
REMARK INTER:                  -5.431
REMARK INTRA:                  -0.452
REMARK UNBOUND:                -0.587
REMARK SMILES C=CCCCCCCC(=O)[O-]
REMARK SMILES IDX 6 1 7 2 8 3 9 4 10 5 11 6 5 7 4 8 3 9 2 10 1 11
REMARK H PARENT
REMARK Flexibility Score: inf
ROOT
ATOM      1  C   UNL     1      42.602  27.763   1.851  1.00  0.00     0.000 C 
ENDROOT
BRANCH   1   2
ATOM      2  C   UNL     1      42.285  27.477   0.375  1.00  0.00     0.006 C 
BRANCH   2   3
ATOM      3  C   UNL     1      43.347  28.091  -0.542  1.00  0.00     0.053 C 
BRANCH   3   4
ATOM      4  C   UNL     1      44.284  27.037  -1.040  1.00  0.00     0.041 C 
ATOM      5  O   UNL     1      43.834  25.957  -1.505  1.00  0.00    -0.550 OA
ATOM      6  O   UNL     1      45.657  27.226  -0.945  1.00  0.00    -0.550 OA
ENDBRANCH   3   4
ENDBRANCH   2   3
ENDBRANCH   1   2
BRANCH   1   7
ATOM      7  C   UNL     1      43.944  28.490   2.037  1.00  0.00     0.000 C 
BRANCH   7   8
ATOM      8  C   UNL     1      44.934  27.696   2.901  1.00  0.00     0.004 C 
BRANCH   8   9
ATOM      9  C   UNL     1      44.775  26.188   2.672  1.00  0.00     0.027 C 
BRANCH   9  10
ATOM     10  C   UNL     1      45.362  25.398   3.810  1.00  0.00    -0.035 C 
ATOM     11  C   UNL     1      45.866  25.996   4.894  1.00  0.00     0.004 C 
ENDBRANCH   9  10
ENDBRANCH   8   9
ENDBRANCH   7   8
ENDBRANCH   1   7
TORSDOF 7
ENDMDL
MODEL 3
REMARK VINA RESULT:    -3.644      2.662      3.789
REMARK INTER + INTRA:          -5.723
REMARK INTER:                  -5.326
REMARK INTRA:                  -0.396
REMARK UNBOUND:                -0.587
REMARK SMILES C=CCCCCCCC(=O)[O-]
REMARK SMILES IDX 6 1 7 2 8 3 9 4 10 5 11 6 5 7 4 8 3 9 2 10 1 11
REMARK H PARENT
REMARK Flexibility Score: inf
ROOT
ATOM      1  C   UNL     1      45.012  25.813   3.445  1.00  0.00     0.000 C 
ENDROOT
BRANCH   1   2
ATOM      2  C   UNL     1      44.826  27.129   2.676  1.00  0.00     0.006 C 
BRANCH   2   3
ATOM      3  C   UNL     1      43.471  27.160   1.962  1.00  0.00     0.053 C 
BRANCH   3   4
ATOM      4  C   UNL     1      43.660  27.196   0.479  1.00  0.00     0.041 C 
ATOM      5  O   UNL     1      42.711  27.541  -0.273  1.00  0.00    -0.550 OA
ATOM      6  O   UNL     1      44.871  26.801  -0.077  1.00  0.00    -0.550 OA
ENDBRANCH   3   4
ENDBRANCH   2   3
ENDBRANCH   1   2
BRANCH   1   7
ATOM      7  C   UNL     1      46.024  25.937   4.595  1.00  0.00     0.000 C 
BRANCH   7   8
ATOM      8  C   UNL     1      46.290  27.395   4.996  1.00  0.00     0.004 C 
BRANCH   8   9
ATOM      9  C   UNL     1      46.075  27.598   6.501  1.00  0.00     0.027 C 
BRANCH   9  10
ATOM     10  C   UNL     1      45.856  26.285   7.203  1.00  0.00    -0.035 C 
ATOM     11  C   UNL     1      45.393  26.226   8.455  1.00  0.00     0.004 C 
ENDBRANCH   9  10
ENDBRANCH   8   9
ENDBRANCH   7   8
ENDBRANCH   1   7
TORSDOF 7
ENDMDL
MODEL 4
REMARK VINA RESULT:    -3.503      1.048      2.099
REMARK INTER + INTRA:          -5.523
REMARK INTER:                  -4.827
REMARK INTRA:                  -0.696
REMARK UNBOUND:                -0.587
REMARK SMILES C=CCCCCCCC(=O)[O-]
REMARK SMILES IDX 6 1 7 2 8 3 9 4 10 5 11 6 5 7 4 8 3 9 2 10 1 11
REMARK H PARENT
REMARK Flexibility Score: inf
ROOT
ATOM      1  C   UNL     1      43.758  29.721  -0.975  1.00  0.00     0.000 C 
ENDROOT
BRANCH   1   2
ATOM      2  C   UNL     1      42.784  28.865  -1.797  1.00  0.00     0.006 C 
BRANCH   2   3
ATOM      3  C   UNL     1      43.537  28.003  -2.815  1.00  0.00     0.053 C 
BRANCH   3   4
ATOM      4  C   UNL     1      44.399  27.000  -2.117  1.00  0.00     0.041 C 
ATOM      5  O   UNL     1      45.652  27.047  -2.238  1.00  0.00    -0.550 OA
ATOM      6  O   UNL     1      43.817  25.981  -1.373  1.00  0.00    -0.550 OA
ENDBRANCH   3   4
ENDBRANCH   2   3
ENDBRANCH   1   2
BRANCH   1   7
ATOM      7  C   UNL     1      43.570  29.542   0.540  1.00  0.00     0.000 C 
BRANCH   7   8
ATOM      8  C   UNL     1      42.281  28.785   0.892  1.00  0.00     0.004 C 
BRANCH   8   9
ATOM      9  C   UNL     1      42.583  27.567   1.773  1.00  0.00     0.027 C 
BRANCH   9  10
ATOM     10  C   UNL     1      44.062  27.306   1.854  1.00  0.00    -0.035 C 
ATOM     11  C   UNL     1      44.569  26.386   2.681  1.00  0.00     0.004 C 
ENDBRANCH   9  10
ENDBRANCH   8   9
ENDBRANCH   7   8
ENDBRANCH   1   7
TORSDOF 7
ENDMDL
MODEL 5
REMARK VINA RESULT:    -3.483      1.563      2.511
REMARK INTER + INTRA:          -5.495
REMARK INTER:                  -5.172
REMARK INTRA:                  -0.323
REMARK UNBOUND:                -0.587
REMARK SMILES C=CCCCCCCC(=O)[O-]
REMARK SMILES IDX 6 1 7 2 8 3 9 4 10 5 11 6 5 7 4 8 3 9 2 10 1 11
REMARK H PARENT
REMARK Flexibility Score: inf
ROOT
ATOM      1  C   UNL     1      43.643  26.773   2.078  1.00  0.00     0.000 C 
ENDROOT
BRANCH   1   2
ATOM      2  C   UNL     1      43.407  28.050   1.258  1.00  0.00     0.006 C 
BRANCH   2   3
ATOM      3  C   UNL     1      42.926  27.711  -0.156  1.00  0.00     0.053 C 
BRANCH   3   4
ATOM      4  C   UNL     1      44.051  27.164  -0.976  1.00  0.00     0.041 C 
ATOM      5  O   UNL     1      45.101  27.838  -1.141  1.00  0.00    -0.550 OA
ATOM      6  O   UNL     1      43.920  25.929  -1.599  1.00  0.00    -0.550 OA
ENDBRANCH   3   4
ENDBRANCH   2   3
ENDBRANCH   1   2
BRANCH   1   7
ATOM      7  C   UNL     1      45.110  26.605   2.502  1.00  0.00     0.000 C 
BRANCH   7   8
ATOM      8  C   UNL     1      45.307  25.478   3.527  1.00  0.00     0.004 C 
BRANCH   8   9
ATOM      9  C   UNL     1      46.509  25.765   4.435  1.00  0.00     0.027 C 
BRANCH   9  10
ATOM     10  C   UNL     1      46.151  26.741   5.522  1.00  0.00    -0.035 C 
ATOM     11  C   UNL     1      45.832  26.334   6.755  1.00  0.00     0.004 C 
ENDBRANCH   9  10
ENDBRANCH   8   9
ENDBRANCH   7   8
ENDBRANCH   1   7
TORSDOF 7
ENDMDL
MODEL 6
REMARK VINA RESULT:    -3.462      2.075      2.775
REMARK INTER + INTRA:          -5.465
REMARK INTER:                  -5.155
REMARK INTRA:                  -0.311
REMARK UNBOUND:                -0.587
REMARK SMILES C=CCCCCCCC(=O)[O-]
REMARK SMILES IDX 6 1 7 2 8 3 9 4 10 5 11 6 5 7 4 8 3 9 2 10 1 11
REMARK H PARENT
REMARK Flexibility Score: inf
ROOT
ATOM      1  C   UNL     1      43.851  27.746  -1.424  1.00  0.00     0.000 C 
ENDROOT
BRANCH   1   2
ATOM      2  C   UNL     1      42.987  28.659  -2.306  1.00  0.00     0.006 C 
BRANCH   2   3
ATOM      3  C   UNL     1      43.507  28.679  -3.747  1.00  0.00     0.053 C 
BRANCH   3   4
ATOM      4  C   UNL     1      42.844  27.612  -4.559  1.00  0.00     0.041 C 
ATOM      5  O   UNL     1      41.786  27.864  -5.194  1.00  0.00    -0.550 OA
ATOM      6  O   UNL     1      43.366  26.326  -4.575  1.00  0.00    -0.550 OA
ENDBRANCH   3   4
ENDBRANCH   2   3
ENDBRANCH   1   2
BRANCH   1   7
ATOM      7  C   UNL     1      43.025  26.982  -0.377  1.00  0.00     0.000 C 
BRANCH   7   8
ATOM      8  C   UNL     1      42.476  27.896   0.728  1.00  0.00     0.004 C 
BRANCH   8   9
ATOM      9  C   UNL     1      43.001  27.469   2.105  1.00  0.00     0.027 C 
BRANCH   9  10
ATOM     10  C   UNL     1      44.307  26.732   1.986  1.00  0.00    -0.035 C 
ATOM     11  C   UNL     1      44.846  26.084   3.024  1.00  0.00     0.004 C 
ENDBRANCH   9  10
ENDBRANCH   8   9
ENDBRANCH   7   8
ENDBRANCH   1   7
TORSDOF 7
ENDMDL
MODEL 7
REMARK VINA RESULT:    -3.352      4.349      6.509
REMARK INTER + INTRA:          -5.311
REMARK INTER:                  -4.936
REMARK INTRA:                  -0.374
REMARK UNBOUND:                -0.587
REMARK SMILES C=CCCCCCCC(=O)[O-]
REMARK SMILES IDX 6 1 7 2 8 3 9 4 10 5 11 6 5 7 4 8 3 9 2 10 1 11
REMARK H PARENT
REMARK Flexibility Score: inf
ROOT
ATOM      1  C   UNL     1      45.454  25.534   4.352  1.00  0.00     0.000 C 
ENDROOT
BRANCH   1   2
ATOM      2  C   UNL     1      45.999  26.714   5.170  1.00  0.00     0.006 C 
BRANCH   2   3
ATOM      3  C   UNL     1      46.528  26.240   6.528  1.00  0.00     0.053 C 
BRANCH   3   4
ATOM      4  C   UNL     1      45.637  26.711   7.632  1.00  0.00     0.041 C 
ATOM      5  O   UNL     1      45.208  25.898   8.492  1.00  0.00    -0.550 OA
ATOM      6  O   UNL     1      45.240  28.042   7.685  1.00  0.00    -0.550 OA
ENDBRANCH   3   4
ENDBRANCH   2   3
ENDBRANCH   1   2
BRANCH   1   7
ATOM      7  C   UNL     1      44.860  25.974   3.004  1.00  0.00     0.000 C 
BRANCH   7   8
ATOM      8  C   UNL     1      45.316  27.379   2.584  1.00  0.00     0.004 C 
BRANCH   8   9
ATOM      9  C   UNL     1      44.112  28.283   2.295  1.00  0.00     0.027 C 
BRANCH   9  10
ATOM     10  C   UNL     1      42.931  27.484   1.815  1.00  0.00    -0.035 C 
ATOM     11  C   UNL     1      42.557  27.484   0.532  1.00  0.00     0.004 C 
ENDBRANCH   9  10
ENDBRANCH   8   9
ENDBRANCH   7   8
ENDBRANCH   1   7
TORSDOF 7
ENDMDL
MODEL 8
REMARK VINA RESULT:    -3.346      2.946      4.047
REMARK INTER + INTRA:          -5.302
REMARK INTER:                  -4.969
REMARK INTRA:                  -0.333
REMARK UNBOUND:                -0.587
REMARK SMILES C=CCCCCCCC(=O)[O-]
REMARK SMILES IDX 6 1 7 2 8 3 9 4 10 5 11 6 5 7 4 8 3 9 2 10 1 11
REMARK H PARENT
REMARK Flexibility Score: inf
ROOT
ATOM      1  C   UNL     1      44.112  26.813  -2.443  1.00  0.00     0.000 C 
ENDROOT
BRANCH   1   2
ATOM      2  C   UNL     1      43.850  26.828  -3.956  1.00  0.00     0.006 C 
BRANCH   2   3
ATOM      3  C   UNL     1      42.833  27.913  -4.324  1.00  0.00     0.053 C 
BRANCH   3   4
ATOM      4  C   UNL     1      42.579  27.915  -5.798  1.00  0.00     0.041 C 
ATOM      5  O   UNL     1      43.379  27.338  -6.580  1.00  0.00    -0.550 OA
ATOM      6  O   UNL     1      41.483  28.596  -6.314  1.00  0.00    -0.550 OA
ENDBRANCH   3   4
ENDBRANCH   2   3
ENDBRANCH   1   2
BRANCH   1   7
ATOM      7  C   UNL     1      43.980  28.205  -1.805  1.00  0.00     0.000 C 
BRANCH   7   8
ATOM      8  C   UNL     1      42.883  28.265  -0.732  1.00  0.00     0.004 C 
BRANCH   8   9
ATOM      9  C   UNL     1      42.906  27.010   0.148  1.00  0.00     0.027 C 
BRANCH   9  10
ATOM     10  C   UNL     1      43.243  27.349   1.574  1.00  0.00    -0.035 C 
ATOM     11  C   UNL     1      44.212  26.711   2.238  1.00  0.00     0.004 C 
ENDBRANCH   9  10
ENDBRANCH   8   9
ENDBRANCH   7   8
ENDBRANCH   1   7
TORSDOF 7
ENDMDL
MODEL 9
REMARK VINA RESULT:    -3.222      1.773      4.371
REMARK INTER + INTRA:          -5.127
REMARK INTER:                  -4.562
REMARK INTRA:                  -0.565
REMARK UNBOUND:                -0.587
REMARK SMILES C=CCCCCCCC(=O)[O-]
REMARK SMILES IDX 6 1 7 2 8 3 9 4 10 5 11 6 5 7 4 8 3 9 2 10 1 11
REMARK H PARENT
REMARK Flexibility Score: inf
ROOT
ATOM      1  C   UNL     1      42.489  27.490   0.378  1.00  0.00     0.000 C 
ENDROOT
BRANCH   1   2
ATOM      2  C   UNL     1      42.743  27.600   1.889  1.00  0.00     0.006 C 
BRANCH   2   3
ATOM      3  C   UNL     1      44.219  27.889   2.177  1.00  0.00     0.053 C 
BRANCH   3   4
ATOM      4  C   UNL     1      45.043  26.656   1.983  1.00  0.00     0.041 C 
ATOM      5  O   UNL     1      44.801  25.620   2.656  1.00  0.00    -0.550 OA
ATOM      6  O   UNL     1      46.111  26.666   1.095  1.00  0.00    -0.550 OA
ENDBRANCH   3   4
ENDBRANCH   2   3
ENDBRANCH   1   2
BRANCH   1   7
ATOM      7  C   UNL     1      42.717  28.820  -0.358  1.00  0.00     0.000 C 
BRANCH   7   8
ATOM      8  C   UNL     1      43.385  28.633  -1.728  1.00  0.00     0.004 C 
BRANCH   8   9
ATOM      9  C   UNL     1      44.091  27.274  -1.813  1.00  0.00     0.027 C 
BRANCH   9  10
ATOM     10  C   UNL     1      44.088  26.745  -3.222  1.00  0.00    -0.035 C 
ATOM     11  C   UNL     1      43.813  27.531  -4.267  1.00  0.00     0.004 C 
ENDBRANCH   9  10
ENDBRANCH   8   9
ENDBRANCH   7   8
ENDBRANCH   1   7
TORSDOF 7
ENDMDL
