MODEL 1
REMARK VINA RESULT:    -0.282      0.000      0.000
REMARK INTER + INTRA:          -2.117
REMARK INTER:                  -0.712
REMARK INTRA:                  -1.405
REMARK UNBOUND:                -1.405
REMARK SMILES CCCCCCCCCCCCCCCCCCCCCCCCCCCC(=O)[O-]
REMARK SMILES IDX 15 1 16 2 17 3 18 4 19 5 20 6 21 7 22 8 23 9 24 10 25 11
REMARK SMILES IDX 26 12 27 13 28 14 29 15 30 16 14 17 13 18 12 19 11 20 10 21
REMARK SMILES IDX 9 22 8 23 7 24 6 25 5 26 4 27 3 28 2 29 1 30
REMARK H PARENT
REMARK Flexibility Score: inf
ROOT
ATOM      1  C   UNL     1       2.266   3.644 -13.651  1.00  0.00     0.000 C 
ENDROOT
BRANCH   1   2
ATOM      2  C   UNL     1       1.775   4.947 -14.306  1.00  0.00     0.000 C 
BRANCH   2   3
ATOM      3  C   UNL     1       0.407   4.795 -14.995  1.00  0.00     0.000 C 
BRANCH   3   4
ATOM      4  C   UNL     1      -0.342   6.132 -15.124  1.00  0.00     0.000 C 
BRANCH   4   5
ATOM      5  C   UNL     1      -1.871   5.961 -15.119  1.00  0.00     0.000 C 
BRANCH   5   6
ATOM      6  C   UNL     1      -2.619   7.306 -15.082  1.00  0.00     0.000 C 
BRANCH   6   7
ATOM      7  C   UNL     1      -4.158   7.201 -15.110  1.00  0.00     0.000 C 
BRANCH   7   8
ATOM      8  C   UNL     1      -4.746   6.064 -14.255  1.00  0.00     0.000 C 
BRANCH   8   9
ATOM      9  C   UNL     1      -5.658   6.578 -13.127  1.00  0.00     0.000 C 
BRANCH   9  10
ATOM     10  C   UNL     1      -7.153   6.462 -13.484  1.00  0.00     0.000 C 
BRANCH  10  11
ATOM     11  C   UNL     1      -7.709   7.674 -14.258  1.00  0.00     0.000 C 
BRANCH  11  12
ATOM     12  C   UNL     1      -6.904   8.976 -14.058  1.00  0.00     0.006 C 
BRANCH  12  13
ATOM     13  C   UNL     1      -7.731  10.255 -14.269  1.00  0.00     0.053 C 
BRANCH  13  14
ATOM     14  C   UNL     1      -8.842  10.376 -13.271  1.00  0.00     0.041 C 
ATOM     15  O   UNL     1      -9.963  10.830 -13.620  1.00  0.00    -0.550 OA
ATOM     16  O   UNL     1      -8.639   9.982 -11.955  1.00  0.00    -0.550 OA
ENDBRANCH  13  14
ENDBRANCH  12  13
ENDBRANCH  11  12
ENDBRANCH  10  11
ENDBRANCH   9  10
ENDBRANCH   8   9
ENDBRANCH   7   8
ENDBRANCH   6   7
ENDBRANCH   5   6
ENDBRANCH   4   5
ENDBRANCH   3   4
ENDBRANCH   2   3
ENDBRANCH   1   2
BRANCH   1  17
ATOM     17  C   UNL     1       1.351   2.422 -13.866  1.00  0.00     0.000 C 
BRANCH  17  18
ATOM     18  C   UNL     1       1.730   1.599 -15.108  1.00  0.00     0.000 C 
BRANCH  18  19
ATOM     19  C   UNL     1       3.152   1.034 -14.978  1.00  0.00     0.000 C 
BRANCH  19  20
ATOM     20  C   UNL     1       3.363   0.265 -13.663  1.00  0.00     0.000 C 
BRANCH  20  21
ATOM     21  C   UNL     1       2.848  -1.183 -13.739  1.00  0.00     0.000 C 
BRANCH  21  22
ATOM     22  C   UNL     1       3.638  -2.043 -14.739  1.00  0.00    -0.000 C 
BRANCH  22  23
ATOM     23  C   UNL     1       5.164  -1.834 -14.719  1.00  0.00    -0.000 C 
BRANCH  23  24
ATOM     24  C   UNL     1       5.796  -1.976 -13.317  1.00  0.00    -0.000 C 
BRANCH  24  25
ATOM     25  C   UNL     1       7.105  -1.178 -13.177  1.00  0.00    -0.000 C 
BRANCH  25  26
ATOM     26  C   UNL     1       6.906   0.325 -13.429  1.00  0.00    -0.000 C 
BRANCH  26  27
ATOM     27  C   UNL     1       8.189   1.139 -13.190  1.00  0.00    -0.000 C 
BRANCH  27  28
ATOM     28  C   UNL     1       8.444   1.408 -11.699  1.00  0.00    -0.000 C 
BRANCH  28  29
ATOM     29  C   UNL     1       9.116   2.767 -11.453  1.00  0.00    -0.003 C 
ATOM     30  C   UNL     1       8.078   3.856 -11.198  1.00  0.00     0.004 C 
ENDBRANCH  28  29
ENDBRANCH  27  28
ENDBRANCH  26  27
ENDBRANCH  25  26
ENDBRANCH  24  25
ENDBRANCH  23  24
ENDBRANCH  22  23
ENDBRANCH  21  22
ENDBRANCH  20  21
ENDBRANCH  19  20
ENDBRANCH  18  19
ENDBRANCH  17  18
ENDBRANCH   1  17
TORSDOF 26
ENDMDL
MODEL 2
REMARK VINA RESULT:     0.982      2.416      4.694
REMARK INTER + INTRA:           1.070
REMARK INTER:                   2.717
REMARK INTRA:                  -1.646
REMARK UNBOUND:                -1.405
REMARK SMILES CCCCCCCCCCCCCCCCCCCCCCCCCCCC(=O)[O-]
REMARK SMILES IDX 15 1 16 2 17 3 18 4 19 5 20 6 21 7 22 8 23 9 24 10 25 11
REMARK SMILES IDX 26 12 27 13 28 14 29 15 30 16 14 17 13 18 12 19 11 20 10 21
REMARK SMILES IDX 9 22 8 23 7 24 6 25 5 26 4 27 3 28 2 29 1 30
REMARK H PARENT
REMARK Flexibility Score: inf
ROOT
ATOM      1  C   UNL     1       4.112  -0.438 -14.850  1.00  0.00     0.000 C 
ENDROOT
BRANCH   1   2
ATOM      2  C   UNL     1       2.968   0.370 -14.211  1.00  0.00     0.000 C 
BRANCH   2   3
ATOM      3  C   UNL     1       1.732   0.483 -15.122  1.00  0.00     0.000 C 
BRANCH   3   4
ATOM      4  C   UNL     1       0.810   1.648 -14.725  1.00  0.00     0.000 C 
BRANCH   4   5
ATOM      5  C   UNL     1       1.486   3.021 -14.877  1.00  0.00     0.000 C 
BRANCH   5   6
ATOM      6  C   UNL     1       1.512   3.820 -13.561  1.00  0.00     0.000 C 
BRANCH   6   7
ATOM      7  C   UNL     1       0.732   5.151 -13.587  1.00  0.00     0.000 C 
BRANCH   7   8
ATOM      8  C   UNL     1       0.643   5.825 -14.968  1.00  0.00     0.000 C 
BRANCH   8   9
ATOM      9  C   UNL     1      -0.612   6.702 -15.123  1.00  0.00     0.000 C 
BRANCH   9  10
ATOM     10  C   UNL     1      -1.859   6.055 -14.488  1.00  0.00     0.000 C 
BRANCH  10  11
ATOM     11  C   UNL     1      -3.000   7.050 -14.195  1.00  0.00     0.000 C 
BRANCH  11  12
ATOM     12  C   UNL     1      -4.366   6.640 -14.786  1.00  0.00     0.006 C 
BRANCH  12  13
ATOM     13  C   UNL     1      -5.483   6.513 -13.738  1.00  0.00     0.053 C 
BRANCH  13  14
ATOM     14  C   UNL     1      -6.200   5.202 -13.837  1.00  0.00     0.041 C 
ATOM     15  O   UNL     1      -6.035   4.461 -14.841  1.00  0.00    -0.550 OA
ATOM     16  O   UNL     1      -7.049   4.795 -12.816  1.00  0.00    -0.550 OA
ENDBRANCH  13  14
ENDBRANCH  12  13
ENDBRANCH  11  12
ENDBRANCH  10  11
ENDBRANCH   9  10
ENDBRANCH   8   9
ENDBRANCH   7   8
ENDBRANCH   6   7
ENDBRANCH   5   6
ENDBRANCH   4   5
ENDBRANCH   3   4
ENDBRANCH   2   3
ENDBRANCH   1   2
BRANCH   1  17
ATOM     17  C   UNL     1       5.134  -1.020 -13.853  1.00  0.00     0.000 C 
BRANCH  17  18
ATOM     18  C   UNL     1       4.492  -1.489 -12.538  1.00  0.00     0.000 C 
BRANCH  18  19
ATOM     19  C   UNL     1       4.315  -3.015 -12.529  1.00  0.00     0.000 C 
BRANCH  19  20
ATOM     20  C   UNL     1       5.424  -3.741 -13.309  1.00  0.00     0.000 C 
BRANCH  20  21
ATOM     21  C   UNL     1       6.830  -3.413 -12.776  1.00  0.00     0.000 C 
BRANCH  21  22
ATOM     22  C   UNL     1       7.093  -4.012 -11.385  1.00  0.00    -0.000 C 
BRANCH  22  23
ATOM     23  C   UNL     1       7.959  -3.143 -10.453  1.00  0.00    -0.000 C 
BRANCH  23  24
ATOM     24  C   UNL     1       8.996  -2.272 -11.194  1.00  0.00    -0.000 C 
BRANCH  24  25
ATOM     25  C   UNL     1       8.981  -0.808 -10.722  1.00  0.00    -0.000 C 
BRANCH  25  26
ATOM     26  C   UNL     1       9.083   0.187 -11.889  1.00  0.00    -0.000 C 
BRANCH  26  27
ATOM     27  C   UNL     1       8.827   1.640 -11.450  1.00  0.00    -0.000 C 
BRANCH  27  28
ATOM     28  C   UNL     1       7.898   2.390 -12.418  1.00  0.00    -0.000 C 
BRANCH  28  29
ATOM     29  C   UNL     1       8.473   2.473 -13.840  1.00  0.00    -0.003 C 
ATOM     30  C   UNL     1       7.382   2.790 -14.858  1.00  0.00     0.004 C 
ENDBRANCH  28  29
ENDBRANCH  27  28
ENDBRANCH  26  27
ENDBRANCH  25  26
ENDBRANCH  24  25
ENDBRANCH  23  24
ENDBRANCH  22  23
ENDBRANCH  21  22
ENDBRANCH  20  21
ENDBRANCH  19  20
ENDBRANCH  18  19
ENDBRANCH  17  18
ENDBRANCH   1  17
TORSDOF 26
ENDMDL
MODEL 3
REMARK VINA RESULT:     1.066      5.787     14.513
REMARK INTER + INTRA:           1.282
REMARK INTER:                   2.384
REMARK INTRA:                  -1.102
REMARK UNBOUND:                -1.405
REMARK SMILES CCCCCCCCCCCCCCCCCCCCCCCCCCCC(=O)[O-]
REMARK SMILES IDX 15 1 16 2 17 3 18 4 19 5 20 6 21 7 22 8 23 9 24 10 25 11
REMARK SMILES IDX 26 12 27 13 28 14 29 15 30 16 14 17 13 18 12 19 11 20 10 21
REMARK SMILES IDX 9 22 8 23 7 24 6 25 5 26 4 27 3 28 2 29 1 30
REMARK H PARENT
REMARK Flexibility Score: inf
ROOT
ATOM      1  C   UNL     1       0.227   1.374 -14.334  1.00  0.00     0.000 C 
ENDROOT
BRANCH   1   2
ATOM      2  C   UNL     1       0.866   0.178 -15.063  1.00  0.00     0.000 C 
BRANCH   2   3
ATOM      3  C   UNL     1       2.403   0.246 -15.094  1.00  0.00     0.000 C 
BRANCH   3   4
ATOM      4  C   UNL     1       3.000   0.728 -13.760  1.00  0.00     0.000 C 
BRANCH   4   5
ATOM      5  C   UNL     1       4.192  -0.127 -13.297  1.00  0.00     0.000 C 
BRANCH   5   6
ATOM      6  C   UNL     1       5.379  -0.071 -14.275  1.00  0.00     0.000 C 
BRANCH   6   7
ATOM      7  C   UNL     1       6.098   1.292 -14.357  1.00  0.00     0.000 C 
BRANCH   7   8
ATOM      8  C   UNL     1       7.535   1.302 -13.806  1.00  0.00     0.000 C 
BRANCH   8   9
ATOM      9  C   UNL     1       7.617   1.844 -12.367  1.00  0.00     0.000 C 
BRANCH   9  10
ATOM     10  C   UNL     1       9.002   1.611 -11.733  1.00  0.00     0.000 C 
BRANCH  10  11
ATOM     11  C   UNL     1       9.121   0.283 -10.958  1.00  0.00     0.000 C 
BRANCH  11  12
ATOM     12  C   UNL     1       8.526  -0.936 -11.695  1.00  0.00     0.006 C 
BRANCH  12  13
ATOM     13  C   UNL     1       9.014  -2.289 -11.151  1.00  0.00     0.053 C 
BRANCH  13  14
ATOM     14  C   UNL     1       8.036  -3.390 -11.425  1.00  0.00     0.041 C 
ATOM     15  O   UNL     1       8.048  -4.439 -10.729  1.00  0.00    -0.550 OA
ATOM     16  O   UNL     1       7.107  -3.254 -12.448  1.00  0.00    -0.550 OA
ENDBRANCH  13  14
ENDBRANCH  12  13
ENDBRANCH  11  12
ENDBRANCH  10  11
ENDBRANCH   9  10
ENDBRANCH   8   9
ENDBRANCH   7   8
ENDBRANCH   6   7
ENDBRANCH   5   6
ENDBRANCH   4   5
ENDBRANCH   3   4
ENDBRANCH   2   3
ENDBRANCH   1   2
BRANCH   1  17
ATOM     17  C   UNL     1       0.235   2.698 -15.124  1.00  0.00     0.000 C 
BRANCH  17  18
ATOM     18  C   UNL     1       1.372   3.642 -14.703  1.00  0.00     0.000 C 
BRANCH  18  19
ATOM     19  C   UNL     1       0.965   5.110 -14.897  1.00  0.00     0.000 C 
BRANCH  19  20
ATOM     20  C   UNL     1      -0.547   5.330 -14.727  1.00  0.00     0.000 C 
BRANCH  20  21
ATOM     21  C   UNL     1      -0.983   6.751 -15.125  1.00  0.00     0.000 C 
BRANCH  21  22
ATOM     22  C   UNL     1      -2.508   6.944 -15.065  1.00  0.00    -0.000 C 
BRANCH  22  23
ATOM     23  C   UNL     1      -2.980   8.157 -14.240  1.00  0.00    -0.000 C 
BRANCH  23  24
ATOM     24  C   UNL     1      -3.884   9.133 -15.025  1.00  0.00    -0.000 C 
BRANCH  24  25
ATOM     25  C   UNL     1      -4.656  10.092 -14.102  1.00  0.00    -0.000 C 
BRANCH  25  26
ATOM     26  C   UNL     1      -5.479  11.127 -14.887  1.00  0.00    -0.000 C 
BRANCH  26  27
ATOM     27  C   UNL     1      -6.763  11.542 -14.148  1.00  0.00    -0.000 C 
BRANCH  27  28
ATOM     28  C   UNL     1      -7.872  10.484 -14.260  1.00  0.00    -0.000 C 
BRANCH  28  29
ATOM     29  C   UNL     1      -8.468  10.110 -12.895  1.00  0.00    -0.003 C 
ATOM     30  C   UNL     1      -9.992  10.068 -12.952  1.00  0.00     0.004 C 
ENDBRANCH  28  29
ENDBRANCH  27  28
ENDBRANCH  26  27
ENDBRANCH  25  26
ENDBRANCH  24  25
ENDBRANCH  23  24
ENDBRANCH  22  23
ENDBRANCH  21  22
ENDBRANCH  20  21
ENDBRANCH  19  20
ENDBRANCH  18  19
ENDBRANCH  17  18
ENDBRANCH   1  17
TORSDOF 26
ENDMDL
