MODEL 1
REMARK VINA RESULT:    -3.341      0.000      0.000
REMARK INTER + INTRA:          -4.732
REMARK INTER:                  -4.513
REMARK INTRA:                  -0.220
REMARK UNBOUND:                -0.220
REMARK SMILES CCCCCCCC(=O)[O-]
REMARK SMILES IDX 5 1 6 2 7 3 8 4 9 5 10 6 4 7 3 8 2 9 1 10
REMARK H PARENT
REMARK Flexibility Score: inf
ROOT
ATOM      1  C   UNL     1      -8.195  22.502  17.301  1.00  0.00     0.000 C 
ENDROOT
BRANCH   1   2
ATOM      2  C   UNL     1      -9.017  22.226  18.572  1.00  0.00     0.006 C 
BRANCH   2   3
ATOM      3  C   UNL     1      -8.972  23.384  19.577  1.00  0.00     0.053 C 
BRANCH   3   4
ATOM      4  C   UNL     1      -7.925  23.133  20.616  1.00  0.00     0.041 C 
ATOM      5  O   UNL     1      -7.315  24.098  21.146  1.00  0.00    -0.550 OA
ATOM      6  O   UNL     1      -7.588  21.830  20.963  1.00  0.00    -0.550 OA
ENDBRANCH   3   4
ENDBRANCH   2   3
ENDBRANCH   1   2
BRANCH   1   7
ATOM      7  C   UNL     1      -7.422  21.288  16.750  1.00  0.00     0.000 C 
BRANCH   7   8
ATOM      8  C   UNL     1      -7.962  20.797  15.400  1.00  0.00    -0.000 C 
BRANCH   8   9
ATOM      9  C   UNL     1      -6.834  20.678  14.368  1.00  0.00    -0.003 C 
ATOM     10  C   UNL     1      -5.480  21.004  14.991  1.00  0.00     0.004 C 
ENDBRANCH   8   9
ENDBRANCH   7   8
ENDBRANCH   1   7
TORSDOF 6
ENDMDL
MODEL 2
REMARK VINA RESULT:    -2.977      1.672      2.730
REMARK INTER + INTRA:          -4.242
REMARK INTER:                  -3.895
REMARK INTRA:                  -0.346
REMARK UNBOUND:                -0.220
REMARK SMILES CCCCCCCC(=O)[O-]
REMARK SMILES IDX 5 1 6 2 7 3 8 4 9 5 10 6 4 7 3 8 2 9 1 10
REMARK H PARENT
REMARK Flexibility Score: inf
ROOT
ATOM      1  C   UNL     1      -7.734  20.143  15.550  1.00  0.00     0.000 C 
ENDROOT
BRANCH   1   2
ATOM      2  C   UNL     1      -8.832  20.742  16.448  1.00  0.00     0.006 C 
BRANCH   2   3
ATOM      3  C   UNL     1      -8.546  20.560  17.944  1.00  0.00     0.053 C 
BRANCH   3   4
ATOM      4  C   UNL     1      -8.106  21.853  18.553  1.00  0.00     0.041 C 
ATOM      5  O   UNL     1      -7.371  21.854  19.575  1.00  0.00    -0.550 OA
ATOM      6  O   UNL     1      -8.546  23.059  18.019  1.00  0.00    -0.550 OA
ENDBRANCH   3   4
ENDBRANCH   2   3
ENDBRANCH   1   2
BRANCH   1   7
ATOM      7  C   UNL     1      -6.960  21.167  14.698  1.00  0.00     0.000 C 
BRANCH   7   8
ATOM      8  C   UNL     1      -5.439  20.972  14.764  1.00  0.00    -0.000 C 
BRANCH   8   9
ATOM      9  C   UNL     1      -5.031  20.268  16.063  1.00  0.00    -0.003 C 
ATOM     10  C   UNL     1      -3.526  20.019  16.107  1.00  0.00     0.004 C 
ENDBRANCH   8   9
ENDBRANCH   7   8
ENDBRANCH   1   7
TORSDOF 6
ENDMDL
MODEL 3
REMARK VINA RESULT:    -2.946      2.820      5.429
REMARK INTER + INTRA:          -4.199
REMARK INTER:                  -4.038
REMARK INTRA:                  -0.161
REMARK UNBOUND:                -0.220
REMARK SMILES CCCCCCCC(=O)[O-]
REMARK SMILES IDX 5 1 6 2 7 3 8 4 9 5 10 6 4 7 3 8 2 9 1 10
REMARK H PARENT
REMARK Flexibility Score: inf
ROOT
ATOM      1  C   UNL     1      -8.414  22.435  17.396  1.00  0.00     0.000 C 
ENDROOT
BRANCH   1   2
ATOM      2  C   UNL     1      -8.211  21.072  16.712  1.00  0.00     0.006 C 
BRANCH   2   3
ATOM      3  C   UNL     1      -7.585  21.190  15.317  1.00  0.00     0.053 C 
BRANCH   3   4
ATOM      4  C   UNL     1      -6.131  20.841  15.366  1.00  0.00     0.041 C 
ATOM      5  O   UNL     1      -5.405  21.007  14.351  1.00  0.00    -0.550 OA
ATOM      6  O   UNL     1      -5.587  20.288  16.518  1.00  0.00    -0.550 OA
ENDBRANCH   3   4
ENDBRANCH   2   3
ENDBRANCH   1   2
BRANCH   1   7
ATOM      7  C   UNL     1      -8.973  22.367  18.830  1.00  0.00     0.000 C 
BRANCH   7   8
ATOM      8  C   UNL     1      -8.636  23.610  19.664  1.00  0.00    -0.000 C 
BRANCH   8   9
ATOM      9  C   UNL     1      -7.589  23.284  20.736  1.00  0.00    -0.003 C 
ATOM     10  C   UNL     1      -8.250  22.803  22.024  1.00  0.00     0.004 C 
ENDBRANCH   8   9
ENDBRANCH   7   8
ENDBRANCH   1   7
TORSDOF 6
ENDMDL
MODEL 4
REMARK VINA RESULT:    -2.840      3.452      5.191
REMARK INTER + INTRA:          -4.055
REMARK INTER:                  -3.585
REMARK INTRA:                  -0.470
REMARK UNBOUND:                -0.220
REMARK SMILES CCCCCCCC(=O)[O-]
REMARK SMILES IDX 5 1 6 2 7 3 8 4 9 5 10 6 4 7 3 8 2 9 1 10
REMARK H PARENT
REMARK Flexibility Score: inf
ROOT
ATOM      1  C   UNL     1      -5.472  21.389  15.110  1.00  0.00     0.000 C 
ENDROOT
BRANCH   1   2
ATOM      2  C   UNL     1      -4.478  20.248  15.394  1.00  0.00     0.006 C 
BRANCH   2   3
ATOM      3  C   UNL     1      -4.158  20.091  16.886  1.00  0.00     0.053 C 
BRANCH   3   4
ATOM      4  C   UNL     1      -2.694  20.280  17.128  1.00  0.00     0.041 C 
ATOM      5  O   UNL     1      -1.948  20.700  16.206  1.00  0.00    -0.550 OA
ATOM      6  O   UNL     1      -2.144  19.945  18.360  1.00  0.00    -0.550 OA
ENDBRANCH   3   4
ENDBRANCH   2   3
ENDBRANCH   1   2
BRANCH   1   7
ATOM      7  C   UNL     1      -6.836  20.939  14.553  1.00  0.00     0.000 C 
BRANCH   7   8
ATOM      8  C   UNL     1      -7.874  20.674  15.653  1.00  0.00    -0.000 C 
BRANCH   8   9
ATOM      9  C   UNL     1      -7.836  21.774  16.720  1.00  0.00    -0.003 C 
ATOM     10  C   UNL     1      -7.674  21.181  18.117  1.00  0.00     0.004 C 
ENDBRANCH   8   9
ENDBRANCH   7   8
ENDBRANCH   1   7
TORSDOF 6
ENDMDL
MODEL 5
REMARK VINA RESULT:    -2.682      1.241      1.802
REMARK INTER + INTRA:          -3.842
REMARK INTER:                  -3.621
REMARK INTRA:                  -0.221
REMARK UNBOUND:                -0.220
REMARK SMILES CCCCCCCC(=O)[O-]
REMARK SMILES IDX 5 1 6 2 7 3 8 4 9 5 10 6 4 7 3 8 2 9 1 10
REMARK H PARENT
REMARK Flexibility Score: inf
ROOT
ATOM      1  C   UNL     1      -7.669  21.527  17.955  1.00  0.00     0.000 C 
ENDROOT
BRANCH   1   2
ATOM      2  C   UNL     1      -8.450  21.300  19.262  1.00  0.00     0.006 C 
BRANCH   2   3
ATOM      3  C   UNL     1      -7.597  21.526  20.516  1.00  0.00     0.053 C 
BRANCH   3   4
ATOM      4  C   UNL     1      -8.037  22.765  21.230  1.00  0.00     0.041 C 
ATOM      5  O   UNL     1      -8.712  22.680  22.289  1.00  0.00    -0.550 OA
ATOM      6  O   UNL     1      -7.743  24.015  20.700  1.00  0.00    -0.550 OA
ENDBRANCH   3   4
ENDBRANCH   2   3
ENDBRANCH   1   2
BRANCH   1   7
ATOM      7  C   UNL     1      -7.265  20.242  17.208  1.00  0.00     0.000 C 
BRANCH   7   8
ATOM      8  C   UNL     1      -5.870  20.331  16.573  1.00  0.00    -0.000 C 
BRANCH   8   9
ATOM      9  C   UNL     1      -5.933  21.018  15.204  1.00  0.00    -0.003 C 
ATOM     10  C   UNL     1      -7.163  20.572  14.419  1.00  0.00     0.004 C 
ENDBRANCH   8   9
ENDBRANCH   7   8
ENDBRANCH   1   7
TORSDOF 6
ENDMDL
MODEL 6
REMARK VINA RESULT:    -2.652      3.760      5.267
REMARK INTER + INTRA:          -3.801
REMARK INTER:                  -3.691
REMARK INTRA:                  -0.110
REMARK UNBOUND:                -0.220
REMARK SMILES CCCCCCCC(=O)[O-]
REMARK SMILES IDX 5 1 6 2 7 3 8 4 9 5 10 6 4 7 3 8 2 9 1 10
REMARK H PARENT
REMARK Flexibility Score: inf
ROOT
ATOM      1  C   UNL     1      -5.513  20.264  16.104  1.00  0.00     0.000 C 
ENDROOT
BRANCH   1   2
ATOM      2  C   UNL     1      -4.007  20.040  16.331  1.00  0.00     0.006 C 
BRANCH   2   3
ATOM      3  C   UNL     1      -3.643  19.875  17.812  1.00  0.00     0.053 C 
BRANCH   3   4
ATOM      4  C   UNL     1      -2.169  20.034  18.008  1.00  0.00     0.041 C 
ATOM      5  O   UNL     1      -1.664  19.899  19.153  1.00  0.00    -0.550 OA
ATOM      6  O   UNL     1      -1.358  20.380  16.934  1.00  0.00    -0.550 OA
ENDBRANCH   3   4
ENDBRANCH   2   3
ENDBRANCH   1   2
BRANCH   1   7
ATOM      7  C   UNL     1      -5.875  20.950  14.773  1.00  0.00     0.000 C 
BRANCH   7   8
ATOM      8  C   UNL     1      -7.344  21.390  14.706  1.00  0.00    -0.000 C 
BRANCH   8   9
ATOM      9  C   UNL     1      -8.135  20.846  15.902  1.00  0.00    -0.003 C 
ATOM     10  C   UNL     1      -8.394  21.939  16.934  1.00  0.00     0.004 C 
ENDBRANCH   8   9
ENDBRANCH   7   8
ENDBRANCH   1   7
TORSDOF 6
ENDMDL
MODEL 7
REMARK VINA RESULT:    -2.638      1.812      2.475
REMARK INTER + INTRA:          -3.783
REMARK INTER:                  -3.662
REMARK INTRA:                  -0.121
REMARK UNBOUND:                -0.220
REMARK SMILES CCCCCCCC(=O)[O-]
REMARK SMILES IDX 5 1 6 2 7 3 8 4 9 5 10 6 4 7 3 8 2 9 1 10
REMARK H PARENT
REMARK Flexibility Score: inf
ROOT
ATOM      1  C   UNL     1      -8.931  21.889  19.582  1.00  0.00     0.000 C 
ENDROOT
BRANCH   1   2
ATOM      2  C   UNL     1      -7.904  21.833  20.726  1.00  0.00     0.006 C 
BRANCH   2   3
ATOM      3  C   UNL     1      -8.118  22.930  21.777  1.00  0.00     0.053 C 
BRANCH   3   4
ATOM      4  C   UNL     1      -8.189  22.334  23.147  1.00  0.00     0.041 C 
ATOM      5  O   UNL     1      -8.937  22.844  24.021  1.00  0.00    -0.550 OA
ATOM      6  O   UNL     1      -7.393  21.243  23.474  1.00  0.00    -0.550 OA
ENDBRANCH   3   4
ENDBRANCH   2   3
ENDBRANCH   1   2
BRANCH   1   7
ATOM      7  C   UNL     1      -8.414  22.517  18.274  1.00  0.00     0.000 C 
BRANCH   7   8
ATOM      8  C   UNL     1      -8.537  21.576  17.068  1.00  0.00    -0.000 C 
BRANCH   8   9
ATOM      9  C   UNL     1      -7.225  21.523  16.276  1.00  0.00    -0.003 C 
ATOM     10  C   UNL     1      -7.469  21.098  14.831  1.00  0.00     0.004 C 
ENDBRANCH   8   9
ENDBRANCH   7   8
ENDBRANCH   1   7
TORSDOF 6
ENDMDL
MODEL 8
REMARK VINA RESULT:    -2.531      2.061      3.271
REMARK INTER + INTRA:          -3.638
REMARK INTER:                  -3.174
REMARK INTRA:                  -0.464
REMARK UNBOUND:                -0.220
REMARK SMILES CCCCCCCC(=O)[O-]
REMARK SMILES IDX 5 1 6 2 7 3 8 4 9 5 10 6 4 7 3 8 2 9 1 10
REMARK H PARENT
REMARK Flexibility Score: inf
ROOT
ATOM      1  C   UNL     1      -4.592  20.227  17.513  1.00  0.00     0.000 C 
ENDROOT
BRANCH   1   2
ATOM      2  C   UNL     1      -5.988  19.876  18.056  1.00  0.00     0.006 C 
BRANCH   2   3
ATOM      3  C   UNL     1      -6.531  20.925  19.035  1.00  0.00     0.053 C 
BRANCH   3   4
ATOM      4  C   UNL     1      -7.940  21.287  18.685  1.00  0.00     0.041 C 
ATOM      5  O   UNL     1      -8.809  20.387  18.546  1.00  0.00    -0.550 OA
ATOM      6  O   UNL     1      -8.281  22.616  18.464  1.00  0.00    -0.550 OA
ENDBRANCH   3   4
ENDBRANCH   2   3
ENDBRANCH   1   2
BRANCH   1   7
ATOM      7  C   UNL     1      -4.436  20.095  15.986  1.00  0.00     0.000 C 
BRANCH   7   8
ATOM      8  C   UNL     1      -5.080  21.256  15.216  1.00  0.00    -0.000 C 
BRANCH   8   9
ATOM      9  C   UNL     1      -6.245  20.761  14.351  1.00  0.00    -0.003 C 
ATOM     10  C   UNL     1      -7.589  21.139  14.968  1.00  0.00     0.004 C 
ENDBRANCH   8   9
ENDBRANCH   7   8
ENDBRANCH   1   7
TORSDOF 6
ENDMDL
