MODEL 1
REMARK VINA RESULT:    -3.262      0.000      0.000
REMARK INTER + INTRA:          -8.244
REMARK INTER:                  -5.741
REMARK INTRA:                  -2.503
REMARK UNBOUND:                -2.503
REMARK SMILES CCCCCCCCCCCCCCC(=O)[O-]
REMARK SMILES IDX 9 1 10 2 11 3 12 4 13 5 14 6 15 7 16 8 17 9 8 10 7 11 6 12
REMARK SMILES IDX 5 13 4 14 3 15 2 16 1 17
REMARK H PARENT
REMARK Flexibility Score: inf
ROOT
ATOM      1  C   UNL     1      -1.851  -1.419  35.330  1.00  0.00     0.000 C 
ENDROOT
BRANCH   1   2
ATOM      2  C   UNL     1      -2.210  -0.315  36.339  1.00  0.00     0.000 C 
BRANCH   2   3
ATOM      3  C   UNL     1      -3.061   0.806  35.719  1.00  0.00     0.000 C 
BRANCH   3   4
ATOM      4  C   UNL     1      -3.847   0.408  34.455  1.00  0.00     0.000 C 
BRANCH   4   5
ATOM      5  C   UNL     1      -5.341   0.795  34.503  1.00  0.00     0.006 C 
BRANCH   5   6
ATOM      6  C   UNL     1      -6.138   0.178  33.345  1.00  0.00     0.053 C 
BRANCH   6   7
ATOM      7  C   UNL     1      -6.648   1.249  32.432  1.00  0.00     0.041 C 
ATOM      8  O   UNL     1      -5.855   1.862  31.670  1.00  0.00    -0.550 OA
ATOM      9  O   UNL     1      -8.007   1.535  32.388  1.00  0.00    -0.550 OA
ENDBRANCH   6   7
ENDBRANCH   5   6
ENDBRANCH   4   5
ENDBRANCH   3   4
ENDBRANCH   2   3
ENDBRANCH   1   2
BRANCH   1  10
ATOM     10  C   UNL     1      -1.744  -2.810  35.981  1.00  0.00     0.000 C 
BRANCH  10  11
ATOM     11  C   UNL     1      -3.017  -3.670  35.890  1.00  0.00    -0.000 C 
BRANCH  11  12
ATOM     12  C   UNL     1      -3.890  -3.323  34.672  1.00  0.00    -0.000 C 
BRANCH  12  13
ATOM     13  C   UNL     1      -5.331  -2.949  35.077  1.00  0.00    -0.000 C 
BRANCH  13  14
ATOM     14  C   UNL     1      -5.549  -2.893  36.600  1.00  0.00    -0.000 C 
BRANCH  14  15
ATOM     15  C   UNL     1      -6.370  -1.670  37.040  1.00  0.00    -0.000 C 
BRANCH  15  16
ATOM     16  C   UNL     1      -5.579  -0.732  37.966  1.00  0.00    -0.003 C 
ATOM     17  C   UNL     1      -4.674  -1.487  38.941  1.00  0.00     0.004 C 
ENDBRANCH  15  16
ENDBRANCH  14  15
ENDBRANCH  13  14
ENDBRANCH  12  13
ENDBRANCH  11  12
ENDBRANCH  10  11
ENDBRANCH   1  10
TORSDOF 13
ENDMDL
MODEL 2
REMARK VINA RESULT:    -3.228      3.518      5.869
REMARK INTER + INTRA:          -8.185
REMARK INTER:                  -5.977
REMARK INTRA:                  -2.207
REMARK UNBOUND:                -2.503
REMARK SMILES CCCCCCCCCCCCCCC(=O)[O-]
REMARK SMILES IDX 9 1 10 2 11 3 12 4 13 5 14 6 15 7 16 8 17 9 8 10 7 11 6 12
REMARK SMILES IDX 5 13 4 14 3 15 2 16 1 17
REMARK H PARENT
REMARK Flexibility Score: inf
ROOT
ATOM      1  C   UNL     1      -5.368  -3.345  35.779  1.00  0.00     0.000 C 
ENDROOT
BRANCH   1   2
ATOM      2  C   UNL     1      -4.948  -2.817  34.397  1.00  0.00     0.000 C 
BRANCH   2   3
ATOM      3  C   UNL     1      -3.424  -2.823  34.194  1.00  0.00     0.000 C 
BRANCH   3   4
ATOM      4  C   UNL     1      -2.594  -3.037  35.475  1.00  0.00     0.000 C 
BRANCH   4   5
ATOM      5  C   UNL     1      -1.338  -2.142  35.561  1.00  0.00     0.006 C 
BRANCH   5   6
ATOM      6  C   UNL     1      -0.199  -2.814  36.340  1.00  0.00     0.053 C 
BRANCH   6   7
ATOM      7  C   UNL     1       1.129  -2.346  35.833  1.00  0.00     0.041 C 
ATOM      8  O   UNL     1       1.815  -3.086  35.079  1.00  0.00    -0.550 OA
ATOM      9  O   UNL     1       1.585  -1.073  36.152  1.00  0.00    -0.550 OA
ENDBRANCH   6   7
ENDBRANCH   5   6
ENDBRANCH   4   5
ENDBRANCH   3   4
ENDBRANCH   2   3
ENDBRANCH   1   2
BRANCH   1  10
ATOM     10  C   UNL     1      -5.818  -2.225  36.734  1.00  0.00     0.000 C 
BRANCH  10  11
ATOM     11  C   UNL     1      -4.983  -2.092  38.021  1.00  0.00    -0.000 C 
BRANCH  11  12
ATOM     12  C   UNL     1      -4.247  -0.746  38.122  1.00  0.00    -0.000 C 
BRANCH  12  13
ATOM     13  C   UNL     1      -4.721   0.258  37.049  1.00  0.00    -0.000 C 
BRANCH  13  14
ATOM     14  C   UNL     1      -3.610   0.688  36.074  1.00  0.00    -0.000 C 
BRANCH  14  15
ATOM     15  C   UNL     1      -4.101   0.796  34.621  1.00  0.00    -0.000 C 
BRANCH  15  16
ATOM     16  C   UNL     1      -5.634   0.818  34.518  1.00  0.00    -0.003 C 
ATOM     17  C   UNL     1      -6.139   0.478  33.115  1.00  0.00     0.004 C 
ENDBRANCH  15  16
ENDBRANCH  14  15
ENDBRANCH  13  14
ENDBRANCH  12  13
ENDBRANCH  11  12
ENDBRANCH  10  11
ENDBRANCH   1  10
TORSDOF 13
ENDMDL
MODEL 3
REMARK VINA RESULT:    -3.144      3.182      5.684
REMARK INTER + INTRA:          -8.037
REMARK INTER:                  -5.633
REMARK INTRA:                  -2.404
REMARK UNBOUND:                -2.503
REMARK SMILES CCCCCCCCCCCCCCC(=O)[O-]
REMARK SMILES IDX 9 1 10 2 11 3 12 4 13 5 14 6 15 7 16 8 17 9 8 10 7 11 6 12
REMARK SMILES IDX 5 13 4 14 3 15 2 16 1 17
REMARK H PARENT
REMARK Flexibility Score: inf
ROOT
ATOM      1  C   UNL     1      -6.495  -1.542  37.237  1.00  0.00     0.000 C 
ENDROOT
BRANCH   1   2
ATOM      2  C   UNL     1      -5.352  -2.558  37.082  1.00  0.00     0.000 C 
BRANCH   2   3
ATOM      3  C   UNL     1      -5.387  -3.294  35.732  1.00  0.00     0.000 C 
BRANCH   3   4
ATOM      4  C   UNL     1      -4.022  -3.444  35.032  1.00  0.00     0.000 C 
BRANCH   4   5
ATOM      5  C   UNL     1      -2.814  -3.261  35.975  1.00  0.00     0.006 C 
BRANCH   5   6
ATOM      6  C   UNL     1      -1.730  -2.363  35.363  1.00  0.00     0.053 C 
BRANCH   6   7
ATOM      7  C   UNL     1      -0.527  -2.314  36.252  1.00  0.00     0.041 C 
ATOM      8  O   UNL     1       0.031  -1.214  36.502  1.00  0.00    -0.550 OA
ATOM      9  O   UNL     1      -0.054  -3.479  36.843  1.00  0.00    -0.550 OA
ENDBRANCH   6   7
ENDBRANCH   5   6
ENDBRANCH   4   5
ENDBRANCH   3   4
ENDBRANCH   2   3
ENDBRANCH   1   2
BRANCH   1  10
ATOM     10  C   UNL     1      -6.041  -0.229  37.901  1.00  0.00     0.000 C 
BRANCH  10  11
ATOM     11  C   UNL     1      -4.516  -0.044  38.000  1.00  0.00    -0.000 C 
BRANCH  11  12
ATOM     12  C   UNL     1      -3.992   1.102  37.119  1.00  0.00    -0.000 C 
BRANCH  12  13
ATOM     13  C   UNL     1      -3.569   0.611  35.717  1.00  0.00    -0.000 C 
BRANCH  13  14
ATOM     14  C   UNL     1      -4.519   1.061  34.594  1.00  0.00    -0.000 C 
BRANCH  14  15
ATOM     15  C   UNL     1      -5.134  -0.119  33.824  1.00  0.00    -0.000 C 
BRANCH  15  16
ATOM     16  C   UNL     1      -6.670  -0.078  33.812  1.00  0.00    -0.003 C 
ATOM     17  C   UNL     1      -7.239   1.059  34.663  1.00  0.00     0.004 C 
ENDBRANCH  15  16
ENDBRANCH  14  15
ENDBRANCH  13  14
ENDBRANCH  12  13
ENDBRANCH  11  12
ENDBRANCH  10  11
ENDBRANCH   1  10
TORSDOF 13
ENDMDL
MODEL 4
REMARK VINA RESULT:    -3.136      3.496      5.211
REMARK INTER + INTRA:          -8.022
REMARK INTER:                  -5.893
REMARK INTRA:                  -2.129
REMARK UNBOUND:                -2.503
REMARK SMILES CCCCCCCCCCCCCCC(=O)[O-]
REMARK SMILES IDX 9 1 10 2 11 3 12 4 13 5 14 6 15 7 16 8 17 9 8 10 7 11 6 12
REMARK SMILES IDX 5 13 4 14 3 15 2 16 1 17
REMARK H PARENT
REMARK Flexibility Score: inf
ROOT
ATOM      1  C   UNL     1      -3.014  -0.520  34.386  1.00  0.00     0.000 C 
ENDROOT
BRANCH   1   2
ATOM      2  C   UNL     1      -2.246   0.188  35.515  1.00  0.00     0.000 C 
BRANCH   2   3
ATOM      3  C   UNL     1      -1.748  -0.783  36.598  1.00  0.00     0.000 C 
BRANCH   3   4
ATOM      4  C   UNL     1      -1.533  -2.234  36.128  1.00  0.00     0.000 C 
BRANCH   4   5
ATOM      5  C   UNL     1      -0.114  -2.776  36.405  1.00  0.00     0.006 C 
BRANCH   5   6
ATOM      6  C   UNL     1       0.970  -1.717  36.162  1.00  0.00     0.053 C 
BRANCH   6   7
ATOM      7  C   UNL     1       1.658  -1.963  34.856  1.00  0.00     0.041 C 
ATOM      8  O   UNL     1       1.723  -1.049  33.992  1.00  0.00    -0.550 OA
ATOM      9  O   UNL     1       2.270  -3.186  34.613  1.00  0.00    -0.550 OA
ENDBRANCH   6   7
ENDBRANCH   5   6
ENDBRANCH   4   5
ENDBRANCH   3   4
ENDBRANCH   2   3
ENDBRANCH   1   2
BRANCH   1  10
ATOM     10  C   UNL     1      -4.515  -0.178  34.380  1.00  0.00     0.000 C 
BRANCH  10  11
ATOM     11  C   UNL     1      -5.458  -1.392  34.292  1.00  0.00    -0.000 C 
BRANCH  11  12
ATOM     12  C   UNL     1      -4.731  -2.732  34.492  1.00  0.00    -0.000 C 
BRANCH  12  13
ATOM     13  C   UNL     1      -5.261  -3.504  35.719  1.00  0.00    -0.000 C 
BRANCH  13  14
ATOM     14  C   UNL     1      -5.873  -2.597  36.801  1.00  0.00    -0.000 C 
BRANCH  14  15
ATOM     15  C   UNL     1      -4.860  -2.200  37.887  1.00  0.00    -0.000 C 
BRANCH  15  16
ATOM     16  C   UNL     1      -5.024  -0.739  38.338  1.00  0.00    -0.003 C 
ATOM     17  C   UNL     1      -6.355  -0.129  37.898  1.00  0.00     0.004 C 
ENDBRANCH  15  16
ENDBRANCH  14  15
ENDBRANCH  13  14
ENDBRANCH  12  13
ENDBRANCH  11  12
ENDBRANCH  10  11
ENDBRANCH   1  10
TORSDOF 13
ENDMDL
MODEL 5
REMARK VINA RESULT:    -3.106      1.044      3.219
REMARK INTER + INTRA:          -7.969
REMARK INTER:                  -5.629
REMARK INTRA:                  -2.341
REMARK UNBOUND:                -2.503
REMARK SMILES CCCCCCCCCCCCCCC(=O)[O-]
REMARK SMILES IDX 9 1 10 2 11 3 12 4 13 5 14 6 15 7 16 8 17 9 8 10 7 11 6 12
REMARK SMILES IDX 5 13 4 14 3 15 2 16 1 17
REMARK H PARENT
REMARK Flexibility Score: inf
ROOT
ATOM      1  C   UNL     1      -6.475  -1.606  37.249  1.00  0.00     0.000 C 
ENDROOT
BRANCH   1   2
ATOM      2  C   UNL     1      -5.986  -0.166  37.481  1.00  0.00     0.000 C 
BRANCH   2   3
ATOM      3  C   UNL     1      -4.582   0.087  36.906  1.00  0.00     0.000 C 
BRANCH   3   4
ATOM      4  C   UNL     1      -4.544   0.940  35.623  1.00  0.00     0.000 C 
BRANCH   4   5
ATOM      5  C   UNL     1      -4.366   0.115  34.331  1.00  0.00     0.006 C 
BRANCH   5   6
ATOM      6  C   UNL     1      -5.711  -0.271  33.699  1.00  0.00     0.053 C 
BRANCH   6   7
ATOM      7  C   UNL     1      -6.208   0.830  32.814  1.00  0.00     0.041 C 
ATOM      8  O   UNL     1      -7.419   1.171  32.848  1.00  0.00    -0.550 OA
ATOM      9  O   UNL     1      -5.321   1.512  31.990  1.00  0.00    -0.550 OA
ENDBRANCH   6   7
ENDBRANCH   5   6
ENDBRANCH   4   5
ENDBRANCH   3   4
ENDBRANCH   2   3
ENDBRANCH   1   2
BRANCH   1  10
ATOM     10  C   UNL     1      -5.321  -2.594  37.000  1.00  0.00     0.000 C 
BRANCH  10  11
ATOM     11  C   UNL     1      -5.394  -3.358  35.666  1.00  0.00    -0.000 C 
BRANCH  11  12
ATOM     12  C   UNL     1      -4.018  -3.541  35.003  1.00  0.00    -0.000 C 
BRANCH  12  13
ATOM     13  C   UNL     1      -2.861  -3.381  36.013  1.00  0.00    -0.000 C 
BRANCH  13  14
ATOM     14  C   UNL     1      -1.833  -2.310  35.608  1.00  0.00    -0.000 C 
BRANCH  14  15
ATOM     15  C   UNL     1      -1.249  -1.558  36.815  1.00  0.00    -0.000 C 
BRANCH  15  16
ATOM     16  C   UNL     1      -0.767  -0.145  36.451  1.00  0.00    -0.003 C 
ATOM     17  C   UNL     1      -1.032   0.875  37.560  1.00  0.00     0.004 C 
ENDBRANCH  15  16
ENDBRANCH  14  15
ENDBRANCH  13  14
ENDBRANCH  12  13
ENDBRANCH  11  12
ENDBRANCH  10  11
ENDBRANCH   1  10
TORSDOF 13
ENDMDL
MODEL 6
REMARK VINA RESULT:    -3.077      1.114      3.143
REMARK INTER + INTRA:          -7.918
REMARK INTER:                  -5.599
REMARK INTRA:                  -2.318
REMARK UNBOUND:                -2.503
REMARK SMILES CCCCCCCCCCCCCCC(=O)[O-]
REMARK SMILES IDX 9 1 10 2 11 3 12 4 13 5 14 6 15 7 16 8 17 9 8 10 7 11 6 12
REMARK SMILES IDX 5 13 4 14 3 15 2 16 1 17
REMARK H PARENT
REMARK Flexibility Score: inf
ROOT
ATOM      1  C   UNL     1      -4.334  -1.147  38.564  1.00  0.00     0.000 C 
ENDROOT
BRANCH   1   2
ATOM      2  C   UNL     1      -3.220  -0.249  37.998  1.00  0.00     0.000 C 
BRANCH   2   3
ATOM      3  C   UNL     1      -3.727   0.716  36.913  1.00  0.00     0.000 C 
BRANCH   3   4
ATOM      4  C   UNL     1      -2.882   0.755  35.625  1.00  0.00     0.000 C 
BRANCH   4   5
ATOM      5  C   UNL     1      -3.721   0.783  34.329  1.00  0.00     0.006 C 
BRANCH   5   6
ATOM      6  C   UNL     1      -5.205   1.065  34.604  1.00  0.00     0.053 C 
BRANCH   6   7
ATOM      7  C   UNL     1      -6.037   0.686  33.420  1.00  0.00     0.041 C 
ATOM      8  O   UNL     1      -5.679   1.024  32.261  1.00  0.00    -0.550 OA
ATOM      9  O   UNL     1      -7.181  -0.082  33.591  1.00  0.00    -0.550 OA
ENDBRANCH   6   7
ENDBRANCH   5   6
ENDBRANCH   4   5
ENDBRANCH   3   4
ENDBRANCH   2   3
ENDBRANCH   1   2
BRANCH   1  10
ATOM     10  C   UNL     1      -5.576  -1.201  37.656  1.00  0.00     0.000 C 
BRANCH  10  11
ATOM     11  C   UNL     1      -5.765  -2.524  36.892  1.00  0.00    -0.000 C 
BRANCH  11  12
ATOM     12  C   UNL     1      -5.161  -2.492  35.478  1.00  0.00    -0.000 C 
BRANCH  12  13
ATOM     13  C   UNL     1      -4.217  -3.686  35.222  1.00  0.00    -0.000 C 
BRANCH  13  14
ATOM     14  C   UNL     1      -2.928  -3.643  36.061  1.00  0.00    -0.000 C 
BRANCH  14  15
ATOM     15  C   UNL     1      -1.887  -2.657  35.506  1.00  0.00    -0.000 C 
BRANCH  15  16
ATOM     16  C   UNL     1      -0.717  -2.428  36.476  1.00  0.00    -0.003 C 
ATOM     17  C   UNL     1       0.395  -1.570  35.870  1.00  0.00     0.004 C 
ENDBRANCH  15  16
ENDBRANCH  14  15
ENDBRANCH  13  14
ENDBRANCH  12  13
ENDBRANCH  11  12
ENDBRANCH  10  11
ENDBRANCH   1  10
TORSDOF 13
ENDMDL
MODEL 7
REMARK VINA RESULT:    -3.055      3.927      5.859
REMARK INTER + INTRA:          -7.880
REMARK INTER:                  -5.633
REMARK INTRA:                  -2.247
REMARK UNBOUND:                -2.503
REMARK SMILES CCCCCCCCCCCCCCC(=O)[O-]
REMARK SMILES IDX 9 1 10 2 11 3 12 4 13 5 14 6 15 7 16 8 17 9 8 10 7 11 6 12
REMARK SMILES IDX 5 13 4 14 3 15 2 16 1 17
REMARK H PARENT
REMARK Flexibility Score: inf
ROOT
ATOM      1  C   UNL     1      -5.384  -2.869  35.228  1.00  0.00     0.000 C 
ENDROOT
BRANCH   1   2
ATOM      2  C   UNL     1      -3.906  -3.050  34.842  1.00  0.00     0.000 C 
BRANCH   2   3
ATOM      3  C   UNL     1      -2.971  -3.081  36.062  1.00  0.00     0.000 C 
BRANCH   3   4
ATOM      4  C   UNL     1      -1.479  -2.856  35.750  1.00  0.00     0.000 C 
BRANCH   4   5
ATOM      5  C   UNL     1      -0.793  -1.833  36.680  1.00  0.00     0.006 C 
BRANCH   5   6
ATOM      6  C   UNL     1       0.097  -0.850  35.907  1.00  0.00     0.053 C 
BRANCH   6   7
ATOM      7  C   UNL     1       1.537  -1.238  36.035  1.00  0.00     0.041 C 
ATOM      8  O   UNL     1       1.931  -2.356  35.612  1.00  0.00    -0.550 OA
ATOM      9  O   UNL     1       2.452  -0.342  36.575  1.00  0.00    -0.550 OA
ENDBRANCH   6   7
ENDBRANCH   5   6
ENDBRANCH   4   5
ENDBRANCH   3   4
ENDBRANCH   2   3
ENDBRANCH   1   2
BRANCH   1  10
ATOM     10  C   UNL     1      -5.585  -2.670  36.741  1.00  0.00     0.000 C 
BRANCH  10  11
ATOM     11  C   UNL     1      -6.452  -1.459  37.129  1.00  0.00    -0.000 C 
BRANCH  11  12
ATOM     12  C   UNL     1      -5.966  -0.758  38.409  1.00  0.00    -0.000 C 
BRANCH  12  13
ATOM     13  C   UNL     1      -4.659  -1.377  38.950  1.00  0.00    -0.000 C 
BRANCH  13  14
ATOM     14  C   UNL     1      -3.429  -0.471  38.771  1.00  0.00    -0.000 C 
BRANCH  14  15
ATOM     15  C   UNL     1      -3.778   0.894  38.155  1.00  0.00    -0.000 C 
BRANCH  15  16
ATOM     16  C   UNL     1      -2.988   1.177  36.867  1.00  0.00    -0.003 C 
ATOM     17  C   UNL     1      -3.644   0.571  35.625  1.00  0.00     0.004 C 
ENDBRANCH  15  16
ENDBRANCH  14  15
ENDBRANCH  13  14
ENDBRANCH  12  13
ENDBRANCH  11  12
ENDBRANCH  10  11
ENDBRANCH   1  10
TORSDOF 13
ENDMDL
MODEL 8
REMARK VINA RESULT:    -3.027      1.275      3.388
REMARK INTER + INTRA:          -7.829
REMARK INTER:                  -5.472
REMARK INTRA:                  -2.358
REMARK UNBOUND:                -2.503
REMARK SMILES CCCCCCCCCCCCCCC(=O)[O-]
REMARK SMILES IDX 9 1 10 2 11 3 12 4 13 5 14 6 15 7 16 8 17 9 8 10 7 11 6 12
REMARK SMILES IDX 5 13 4 14 3 15 2 16 1 17
REMARK H PARENT
REMARK Flexibility Score: inf
ROOT
ATOM      1  C   UNL     1      -5.308  -2.978  36.043  1.00  0.00     0.000 C 
ENDROOT
BRANCH   1   2
ATOM      2  C   UNL     1      -5.109  -2.485  37.486  1.00  0.00     0.000 C 
BRANCH   2   3
ATOM      3  C   UNL     1      -5.616  -1.049  37.701  1.00  0.00     0.000 C 
BRANCH   3   4
ATOM      4  C   UNL     1      -6.750  -0.607  36.756  1.00  0.00     0.000 C 
BRANCH   4   5
ATOM      5  C   UNL     1      -6.341   0.507  35.768  1.00  0.00     0.006 C 
BRANCH   5   6
ATOM      6  C   UNL     1      -6.813   0.217  34.337  1.00  0.00     0.053 C 
BRANCH   6   7
ATOM      7  C   UNL     1      -6.195   1.184  33.376  1.00  0.00     0.041 C 
ATOM      8  O   UNL     1      -6.535   1.176  32.164  1.00  0.00    -0.550 OA
ATOM      9  O   UNL     1      -5.281   2.126  33.830  1.00  0.00    -0.550 OA
ENDBRANCH   6   7
ENDBRANCH   5   6
ENDBRANCH   4   5
ENDBRANCH   3   4
ENDBRANCH   2   3
ENDBRANCH   1   2
BRANCH   1  10
ATOM     10  C   UNL     1      -4.058  -3.673  35.472  1.00  0.00     0.000 C 
BRANCH  10  11
ATOM     11  C   UNL     1      -3.444  -2.994  34.235  1.00  0.00    -0.000 C 
BRANCH  11  12
ATOM     12  C   UNL     1      -3.746  -1.487  34.166  1.00  0.00    -0.000 C 
BRANCH  12  13
ATOM     13  C   UNL     1      -2.510  -0.630  34.514  1.00  0.00    -0.000 C 
BRANCH  13  14
ATOM     14  C   UNL     1      -2.569  -0.007  35.920  1.00  0.00    -0.000 C 
BRANCH  14  15
ATOM     15  C   UNL     1      -1.832  -0.847  36.976  1.00  0.00    -0.000 C 
BRANCH  15  16
ATOM     16  C   UNL     1      -0.480  -1.374  36.469  1.00  0.00    -0.003 C 
ATOM     17  C   UNL     1      -0.386  -2.900  36.510  1.00  0.00     0.004 C 
ENDBRANCH  15  16
ENDBRANCH  14  15
ENDBRANCH  13  14
ENDBRANCH  12  13
ENDBRANCH  11  12
ENDBRANCH  10  11
ENDBRANCH   1  10
TORSDOF 13
ENDMDL
MODEL 9
REMARK VINA RESULT:    -3.025      3.310      5.515
REMARK INTER + INTRA:          -7.827
REMARK INTER:                  -5.321
REMARK INTRA:                  -2.507
REMARK UNBOUND:                -2.503
REMARK SMILES CCCCCCCCCCCCCCC(=O)[O-]
REMARK SMILES IDX 9 1 10 2 11 3 12 4 13 5 14 6 15 7 16 8 17 9 8 10 7 11 6 12
REMARK SMILES IDX 5 13 4 14 3 15 2 16 1 17
REMARK H PARENT
REMARK Flexibility Score: inf
ROOT
ATOM      1  C   UNL     1      -4.688  -2.239  34.201  1.00  0.00     0.000 C 
ENDROOT
BRANCH   1   2
ATOM      2  C   UNL     1      -4.774  -3.148  35.438  1.00  0.00     0.000 C 
BRANCH   2   3
ATOM      3  C   UNL     1      -3.392  -3.535  35.991  1.00  0.00     0.000 C 
BRANCH   3   4
ATOM      4  C   UNL     1      -2.201  -2.789  35.358  1.00  0.00     0.000 C 
BRANCH   4   5
ATOM      5  C   UNL     1      -0.893  -2.899  36.171  1.00  0.00     0.006 C 
BRANCH   5   6
ATOM      6  C   UNL     1      -0.262  -1.526  36.442  1.00  0.00     0.053 C 
BRANCH   6   7
ATOM      7  C   UNL     1       1.003  -1.369  35.658  1.00  0.00     0.041 C 
ATOM      8  O   UNL     1       1.242  -0.293  35.050  1.00  0.00    -0.550 OA
ATOM      9  O   UNL     1       1.942  -2.393  35.641  1.00  0.00    -0.550 OA
ENDBRANCH   6   7
ENDBRANCH   5   6
ENDBRANCH   4   5
ENDBRANCH   3   4
ENDBRANCH   2   3
ENDBRANCH   1   2
BRANCH   1  10
ATOM     10  C   UNL     1      -5.727  -1.102  34.222  1.00  0.00     0.000 C 
BRANCH  10  11
ATOM     11  C   UNL     1      -5.205   0.247  34.749  1.00  0.00    -0.000 C 
BRANCH  11  12
ATOM     12  C   UNL     1      -3.681   0.397  34.606  1.00  0.00    -0.000 C 
BRANCH  12  13
ATOM     13  C   UNL     1      -3.014   0.841  35.926  1.00  0.00    -0.000 C 
BRANCH  13  14
ATOM     14  C   UNL     1      -3.902   0.632  37.165  1.00  0.00    -0.000 C 
BRANCH  14  15
ATOM     15  C   UNL     1      -3.434  -0.541  38.042  1.00  0.00    -0.000 C 
BRANCH  15  16
ATOM     16  C   UNL     1      -4.600  -1.246  38.754  1.00  0.00    -0.003 C 
ATOM     17  C   UNL     1      -5.961  -0.894  38.152  1.00  0.00     0.004 C 
ENDBRANCH  15  16
ENDBRANCH  14  15
ENDBRANCH  13  14
ENDBRANCH  12  13
ENDBRANCH  11  12
ENDBRANCH  10  11
ENDBRANCH   1  10
TORSDOF 13
ENDMDL
