MODEL 1
REMARK VINA RESULT:    -5.091      0.000      0.000
REMARK INTER + INTRA:          -6.352
REMARK INTER:                  -6.133
REMARK INTRA:                  -0.220
REMARK UNBOUND:                -0.220
REMARK SMILES C=CCc1ccc(O)c(OC)c1
REMARK SMILES IDX 9 1 7 2 6 3 5 4 4 5 12 6 10 7 11 8 8 9 3 11 2 12 1 13
REMARK H PARENT 8 10
REMARK Flexibility Score: inf
ROOT
ATOM      1  C   UNL     1     122.941 133.941 127.775  1.00  0.00     0.160 A 
ATOM      2  C   UNL     1     121.799 134.755 127.772  1.00  0.00     0.157 A 
ATOM      3  C   UNL     1     121.034 134.898 128.937  1.00  0.00     0.050 A 
ATOM      4  C   UNL     1     121.400 134.232 130.106  1.00  0.00     0.008 A 
ATOM      5  C   UNL     1     122.534 133.405 130.124  1.00  0.00    -0.040 A 
ATOM      6  C   UNL     1     123.307 133.270 128.959  1.00  0.00     0.054 A 
ENDROOT
BRANCH   1   7
ATOM      7  O   UNL     1     123.685 133.829 126.591  1.00  0.00    -0.493 OA
ATOM      8  C   UNL     1     125.036 133.383 126.527  1.00  0.00     0.278 C 
ENDBRANCH   1   7
BRANCH   2   9
ATOM      9  O   UNL     1     121.431 135.422 126.604  1.00  0.00    -0.504 OA
ATOM     10  H   UNL     1     120.947 134.946 125.852  1.00  0.00     0.293 HD
ENDBRANCH   2   9
BRANCH   5  11
ATOM     11  C   UNL     1     122.944 132.712 131.396  1.00  0.00     0.062 C 
BRANCH  11  12
ATOM     12  C   UNL     1     122.537 133.519 132.597  1.00  0.00    -0.030 C 
ATOM     13  C   UNL     1     123.371 133.725 133.621  1.00  0.00     0.004 C 
ENDBRANCH  11  12
ENDBRANCH   5  11
TORSDOF 4
ENDMDL
MODEL 2
REMARK VINA RESULT:    -5.055     14.788     16.565
REMARK INTER + INTRA:          -6.309
REMARK INTER:                  -6.087
REMARK INTRA:                  -0.222
REMARK UNBOUND:                -0.220
REMARK SMILES C=CCc1ccc(O)c(OC)c1
REMARK SMILES IDX 9 1 7 2 6 3 5 4 4 5 12 6 10 7 11 8 8 9 3 11 2 12 1 13
REMARK H PARENT 8 10
REMARK Flexibility Score: inf
ROOT
ATOM      1  C   UNL     1     135.996 124.975 127.727  1.00  0.00     0.160 A 
ATOM      2  C   UNL     1     137.154 124.185 127.663  1.00  0.00     0.157 A 
ATOM      3  C   UNL     1     137.995 124.078 128.777  1.00  0.00     0.050 A 
ATOM      4  C   UNL     1     137.690 124.757 129.957  1.00  0.00     0.008 A 
ATOM      5  C   UNL     1     136.543 125.561 130.035  1.00  0.00    -0.040 A 
ATOM      6  C   UNL     1     135.694 125.660 128.920  1.00  0.00     0.054 A 
ENDROOT
BRANCH   1   7
ATOM      7  O   UNL     1     135.175 125.052 126.592  1.00  0.00    -0.493 OA
ATOM      8  C   UNL     1     133.994 125.843 126.503  1.00  0.00     0.278 C 
ENDBRANCH   1   7
BRANCH   2   9
ATOM      9  O   UNL     1     137.459 123.506 126.484  1.00  0.00    -0.504 OA
ATOM     10  H   UNL     1     138.238 123.783 125.899  1.00  0.00     0.293 HD
ENDBRANCH   2   9
BRANCH   5  11
ATOM     11  C   UNL     1     136.201 126.268 131.320  1.00  0.00     0.062 C 
BRANCH  11  12
ATOM     12  C   UNL     1     136.586 125.430 132.507  1.00  0.00    -0.030 C 
ATOM     13  C   UNL     1     135.791 124.462 132.971  1.00  0.00     0.004 C 
ENDBRANCH  11  12
ENDBRANCH   5  11
TORSDOF 4
ENDMDL
MODEL 3
REMARK VINA RESULT:    -4.948     12.714     13.958
REMARK INTER + INTRA:          -6.179
REMARK INTER:                  -5.999
REMARK INTRA:                  -0.180
REMARK UNBOUND:                -0.220
REMARK SMILES C=CCc1ccc(O)c(OC)c1
REMARK SMILES IDX 9 1 7 2 6 3 5 4 4 5 12 6 10 7 11 8 8 9 3 11 2 12 1 13
REMARK H PARENT 8 10
REMARK Flexibility Score: inf
ROOT
ATOM      1  C   UNL     1     125.023 121.250 131.077  1.00  0.00     0.160 A 
ATOM      2  C   UNL     1     125.261 120.507 129.911  1.00  0.00     0.157 A 
ATOM      3  C   UNL     1     124.412 119.447 129.567  1.00  0.00     0.050 A 
ATOM      4  C   UNL     1     123.328 119.121 130.381  1.00  0.00     0.008 A 
ATOM      5  C   UNL     1     123.082 119.846 131.557  1.00  0.00    -0.040 A 
ATOM      6  C   UNL     1     123.927 120.915 131.897  1.00  0.00     0.054 A 
ENDROOT
BRANCH   1   7
ATOM      7  O   UNL     1     125.891 122.309 131.385  1.00  0.00    -0.493 OA
ATOM      8  C   UNL     1     125.928 122.982 132.639  1.00  0.00     0.278 C 
ENDBRANCH   1   7
BRANCH   2   9
ATOM      9  O   UNL     1     126.345 120.833 129.096  1.00  0.00    -0.504 OA
ATOM     10  H   UNL     1     126.214 121.225 128.171  1.00  0.00     0.293 HD
ENDBRANCH   2   9
BRANCH   5  11
ATOM     11  C   UNL     1     121.892 119.510 132.417  1.00  0.00     0.062 C 
BRANCH  11  12
ATOM     12  C   UNL     1     122.114 119.965 133.832  1.00  0.00    -0.030 C 
ATOM     13  C   UNL     1     121.175 119.820 134.772  1.00  0.00     0.004 C 
ENDBRANCH  11  12
ENDBRANCH   5  11
TORSDOF 4
ENDMDL
MODEL 4
REMARK VINA RESULT:    -4.898     12.846     13.769
REMARK INTER + INTRA:          -6.119
REMARK INTER:                  -5.905
REMARK INTRA:                  -0.214
REMARK UNBOUND:                -0.220
REMARK SMILES C=CCc1ccc(O)c(OC)c1
REMARK SMILES IDX 9 1 7 2 6 3 5 4 4 5 12 6 10 7 11 8 8 9 3 11 2 12 1 13
REMARK H PARENT 8 10
REMARK Flexibility Score: inf
ROOT
ATOM      1  C   UNL     1     124.965 121.306 131.975  1.00  0.00     0.160 A 
ATOM      2  C   UNL     1     125.482 122.137 132.981  1.00  0.00     0.157 A 
ATOM      3  C   UNL     1     124.821 122.248 134.210  1.00  0.00     0.050 A 
ATOM      4  C   UNL     1     123.644 121.536 134.444  1.00  0.00     0.008 A 
ATOM      5  C   UNL     1     123.107 120.710 133.445  1.00  0.00    -0.040 A 
ATOM      6  C   UNL     1     123.776 120.590 132.216  1.00  0.00     0.054 A 
ENDROOT
BRANCH   1   7
ATOM      7  O   UNL     1     125.660 121.216 130.759  1.00  0.00    -0.493 OA
ATOM      8  C   UNL     1     125.272 120.385 129.670  1.00  0.00     0.278 C 
ENDBRANCH   1   7
BRANCH   2   9
ATOM      9  O   UNL     1     126.658 122.849 132.748  1.00  0.00    -0.504 OA
ATOM     10  H   UNL     1     127.499 122.390 132.418  1.00  0.00     0.293 HD
ENDBRANCH   2   9
BRANCH   5  11
ATOM     11  C   UNL     1     121.853 119.919 133.712  1.00  0.00     0.062 C 
BRANCH  11  12
ATOM     12  C   UNL     1     121.383 120.128 135.124  1.00  0.00    -0.030 C 
ATOM     13  C   UNL     1     120.658 119.208 135.767  1.00  0.00     0.004 C 
ENDBRANCH  11  12
ENDBRANCH   5  11
TORSDOF 4
ENDMDL
MODEL 5
REMARK VINA RESULT:    -4.786     14.375     16.168
REMARK INTER + INTRA:          -5.985
REMARK INTER:                  -5.795
REMARK INTRA:                  -0.190
REMARK UNBOUND:                -0.220
REMARK SMILES C=CCc1ccc(O)c(OC)c1
REMARK SMILES IDX 9 1 7 2 6 3 5 4 4 5 12 6 10 7 11 8 8 9 3 11 2 12 1 13
REMARK H PARENT 8 10
REMARK Flexibility Score: inf
ROOT
ATOM      1  C   UNL     1     133.949 125.583 132.894  1.00  0.00     0.160 A 
ATOM      2  C   UNL     1     134.852 125.580 133.967  1.00  0.00     0.157 A 
ATOM      3  C   UNL     1     136.231 125.548 133.725  1.00  0.00     0.050 A 
ATOM      4  C   UNL     1     136.716 125.515 132.418  1.00  0.00     0.008 A 
ATOM      5  C   UNL     1     135.827 125.505 131.333  1.00  0.00    -0.040 A 
ATOM      6  C   UNL     1     134.444 125.548 131.575  1.00  0.00     0.054 A 
ENDROOT
BRANCH   1   7
ATOM      7  O   UNL     1     132.575 125.623 133.176  1.00  0.00    -0.493 OA
ATOM      8  C   UNL     1     131.813 126.819 133.307  1.00  0.00     0.278 C 
ENDBRANCH   1   7
BRANCH   2   9
ATOM      9  O   UNL     1     134.368 125.613 135.274  1.00  0.00    -0.504 OA
ATOM     10  H   UNL     1     133.661 124.962 135.595  1.00  0.00     0.293 HD
ENDBRANCH   2   9
BRANCH   5  11
ATOM     11  C   UNL     1     136.355 125.501 129.922  1.00  0.00     0.062 C 
BRANCH  11  12
ATOM     12  C   UNL     1     137.464 124.498 129.773  1.00  0.00    -0.030 C 
ATOM     13  C   UNL     1     137.862 124.065 128.573  1.00  0.00     0.004 C 
ENDBRANCH  11  12
ENDBRANCH   5  11
TORSDOF 4
ENDMDL
MODEL 6
REMARK VINA RESULT:    -4.773     13.050     14.145
REMARK INTER + INTRA:          -5.969
REMARK INTER:                  -5.758
REMARK INTRA:                  -0.211
REMARK UNBOUND:                -0.220
REMARK SMILES C=CCc1ccc(O)c(OC)c1
REMARK SMILES IDX 9 1 7 2 6 3 5 4 4 5 12 6 10 7 11 8 8 9 3 11 2 12 1 13
REMARK H PARENT 8 10
REMARK Flexibility Score: inf
ROOT
ATOM      1  C   UNL     1     124.507 121.929 134.019  1.00  0.00     0.160 A 
ATOM      2  C   UNL     1     125.052 121.716 132.744  1.00  0.00     0.157 A 
ATOM      3  C   UNL     1     124.423 120.845 131.846  1.00  0.00     0.050 A 
ATOM      4  C   UNL     1     123.252 120.181 132.212  1.00  0.00     0.008 A 
ATOM      5  C   UNL     1     122.699 120.373 133.487  1.00  0.00    -0.040 A 
ATOM      6  C   UNL     1     123.325 121.255 134.385  1.00  0.00     0.054 A 
ENDROOT
BRANCH   1   7
ATOM      7  O   UNL     1     125.162 122.814 134.888  1.00  0.00    -0.493 OA
ATOM      8  C   UNL     1     125.946 122.413 136.007  1.00  0.00     0.278 C 
ENDBRANCH   1   7
BRANCH   2   9
ATOM      9  O   UNL     1     126.223 122.379 132.377  1.00  0.00    -0.504 OA
ATOM     10  H   UNL     1     126.232 123.375 132.190  1.00  0.00     0.293 HD
ENDBRANCH   2   9
BRANCH   5  11
ATOM     11  C   UNL     1     121.418 119.679 133.868  1.00  0.00     0.062 C 
BRANCH  11  12
ATOM     12  C   UNL     1     121.076 119.945 135.307  1.00  0.00    -0.030 C 
ATOM     13  C   UNL     1     120.463 119.031 136.065  1.00  0.00     0.004 C 
ENDBRANCH  11  12
ENDBRANCH   5  11
TORSDOF 4
ENDMDL
MODEL 7
REMARK VINA RESULT:    -4.771      3.469      5.317
REMARK INTER + INTRA:          -5.966
REMARK INTER:                  -5.790
REMARK INTRA:                  -0.176
REMARK UNBOUND:                -0.220
REMARK SMILES C=CCc1ccc(O)c(OC)c1
REMARK SMILES IDX 9 1 7 2 6 3 5 4 4 5 12 6 10 7 11 8 8 9 3 11 2 12 1 13
REMARK H PARENT 8 10
REMARK Flexibility Score: inf
ROOT
ATOM      1  C   UNL     1     124.849 133.574 132.672  1.00  0.00     0.160 A 
ATOM      2  C   UNL     1     123.892 133.514 133.696  1.00  0.00     0.157 A 
ATOM      3  C   UNL     1     122.527 133.504 133.383  1.00  0.00     0.050 A 
ATOM      4  C   UNL     1     122.109 133.555 132.053  1.00  0.00     0.008 A 
ATOM      5  C   UNL     1     123.052 133.626 131.017  1.00  0.00    -0.040 A 
ATOM      6  C   UNL     1     124.422 133.627 131.330  1.00  0.00     0.054 A 
ENDROOT
BRANCH   1   7
ATOM      7  O   UNL     1     126.207 133.575 133.024  1.00  0.00    -0.493 OA
ATOM      8  C   UNL     1     126.992 132.402 133.216  1.00  0.00     0.278 C 
ENDBRANCH   1   7
BRANCH   2   9
ATOM      9  O   UNL     1     124.309 133.462 135.025  1.00  0.00    -0.504 OA
ATOM     10  H   UNL     1     124.334 134.292 135.606  1.00  0.00     0.293 HD
ENDBRANCH   2   9
BRANCH   5  11
ATOM     11  C   UNL     1     122.597 133.651 129.582  1.00  0.00     0.062 C 
BRANCH  11  12
ATOM     12  C   UNL     1     121.428 134.579 129.409  1.00  0.00    -0.030 C 
ATOM     13  C   UNL     1     121.003 134.957 128.201  1.00  0.00     0.004 C 
ENDBRANCH  11  12
ENDBRANCH   5  11
TORSDOF 4
ENDMDL
MODEL 8
REMARK VINA RESULT:    -4.659      9.523     11.719
REMARK INTER + INTRA:          -5.832
REMARK INTER:                  -5.641
REMARK INTRA:                  -0.191
REMARK UNBOUND:                -0.220
REMARK SMILES C=CCc1ccc(O)c(OC)c1
REMARK SMILES IDX 9 1 7 2 6 3 5 4 4 5 12 6 10 7 11 8 8 9 3 11 2 12 1 13
REMARK H PARENT 8 10
REMARK Flexibility Score: inf
ROOT
ATOM      1  C   UNL     1     124.392 125.553 124.774  1.00  0.00     0.160 A 
ATOM      2  C   UNL     1     125.339 126.521 124.407  1.00  0.00     0.157 A 
ATOM      3  C   UNL     1     126.202 126.288 123.329  1.00  0.00     0.050 A 
ATOM      4  C   UNL     1     126.128 125.093 122.613  1.00  0.00     0.008 A 
ATOM      5  C   UNL     1     125.194 124.109 122.973  1.00  0.00    -0.040 A 
ATOM      6  C   UNL     1     124.322 124.347 124.049  1.00  0.00     0.054 A 
ENDROOT
BRANCH   1   7
ATOM      7  O   UNL     1     123.540 125.825 125.855  1.00  0.00    -0.493 OA
ATOM      8  C   UNL     1     122.565 124.920 126.361  1.00  0.00     0.278 C 
ENDBRANCH   1   7
BRANCH   2   9
ATOM      9  O   UNL     1     125.413 127.716 125.122  1.00  0.00    -0.504 OA
ATOM     10  H   UNL     1     125.977 127.799 125.959  1.00  0.00     0.293 HD
ENDBRANCH   2   9
BRANCH   5  11
ATOM     11  C   UNL     1     125.097 122.833 122.179  1.00  0.00     0.062 C 
BRANCH  11  12
ATOM     12  C   UNL     1     123.926 122.010 122.637  1.00  0.00    -0.030 C 
ATOM     13  C   UNL     1     123.973 120.675 122.663  1.00  0.00     0.004 C 
ENDBRANCH  11  12
ENDBRANCH   5  11
TORSDOF 4
ENDMDL
MODEL 9
REMARK VINA RESULT:    -4.646     12.316     13.529
REMARK INTER + INTRA:          -5.817
REMARK INTER:                  -5.628
REMARK INTRA:                  -0.188
REMARK UNBOUND:                -0.220
REMARK SMILES C=CCc1ccc(O)c(OC)c1
REMARK SMILES IDX 9 1 7 2 6 3 5 4 4 5 12 6 10 7 11 8 8 9 3 11 2 12 1 13
REMARK H PARENT 8 10
REMARK Flexibility Score: inf
ROOT
ATOM      1  C   UNL     1     134.453 133.541 124.690  1.00  0.00     0.160 A 
ATOM      2  C   UNL     1     133.611 132.541 124.182  1.00  0.00     0.157 A 
ATOM      3  C   UNL     1     132.859 132.775 123.024  1.00  0.00     0.050 A 
ATOM      4  C   UNL     1     132.941 134.003 122.368  1.00  0.00     0.008 A 
ATOM      5  C   UNL     1     133.770 135.018 122.868  1.00  0.00    -0.040 A 
ATOM      6  C   UNL     1     134.531 134.780 124.024  1.00  0.00     0.054 A 
ENDROOT
BRANCH   1   7
ATOM      7  O   UNL     1     135.195 133.266 125.849  1.00  0.00    -0.493 OA
ATOM      8  C   UNL     1     136.476 133.819 126.135  1.00  0.00     0.278 C 
ENDBRANCH   1   7
BRANCH   2   9
ATOM      9  O   UNL     1     133.528 131.313 124.837  1.00  0.00    -0.504 OA
ATOM     10  H   UNL     1     133.055 131.217 125.728  1.00  0.00     0.293 HD
ENDBRANCH   2   9
BRANCH   5  11
ATOM     11  C   UNL     1     133.879 136.332 122.140  1.00  0.00     0.062 C 
BRANCH  11  12
ATOM     12  C   UNL     1     134.907 137.216 122.788  1.00  0.00    -0.030 C 
ATOM     13  C   UNL     1     134.923 138.538 122.590  1.00  0.00     0.004 C 
ENDBRANCH  11  12
ENDBRANCH   5  11
TORSDOF 4
ENDMDL
