MODEL 1
REMARK VINA RESULT:    -3.724      0.000      0.000
REMARK INTER + INTRA:          -6.716
REMARK INTER:                  -5.356
REMARK INTRA:                  -1.360
REMARK UNBOUND:                -1.360
REMARK SMILES O=C(CO)[C@H](O)[C@@H](O)[C@@H](O)CO
REMARK SMILES IDX 7 1 9 2 11 3 12 4 10 6 5 8 2 9 1 10 3 11 4 12 6 14 8 16
REMARK H PARENT 12 5 10 7 4 13 6 15 8 17
REMARK Flexibility Score: inf
ROOT
ATOM      1  C   UNL     1      31.928  16.381   2.384  1.00  0.00     0.181 C 
ENDROOT
BRANCH   1   2
ATOM      2  C   UNL     1      32.375  17.562   1.482  1.00  0.00     0.171 C 
BRANCH   2   3
ATOM      3  C   UNL     1      33.492  17.146   0.503  1.00  0.00     0.190 C 
BRANCH   3   4
ATOM      4  O   UNL     1      32.942  16.629  -0.679  1.00  0.00    -0.394 OA
ATOM      5  H   UNL     1      33.682  16.582  -1.340  1.00  0.00     0.210 HD
ENDBRANCH   3   4
ENDBRANCH   2   3
BRANCH   2   6
ATOM      6  O   UNL     1      32.805  18.657   2.253  1.00  0.00    -0.388 OA
ATOM      7  H   UNL     1      32.686  19.477   1.704  1.00  0.00     0.211 HD
ENDBRANCH   2   6
ENDBRANCH   1   2
BRANCH   1   8
ATOM      8  C   UNL     1      30.387  16.335   2.580  1.00  0.00     0.214 C 
BRANCH   8   9
ATOM      9  C   UNL     1      29.743  15.111   1.959  1.00  0.00     0.189 C 
ATOM     10  O   UNL     1      29.760  14.047   2.559  1.00  0.00    -0.294 OA
BRANCH   9  11
ATOM     11  C   UNL     1      29.121  15.168   0.590  1.00  0.00     0.234 C 
BRANCH  11  12
ATOM     12  O   UNL     1      30.069  15.582  -0.356  1.00  0.00    -0.388 OA
ATOM     13  H   UNL     1      29.988  14.964  -1.129  1.00  0.00     0.211 HD
ENDBRANCH  11  12
ENDBRANCH   9  11
ENDBRANCH   8   9
BRANCH   8  14
ATOM     14  O   UNL     1      29.786  17.492   2.052  1.00  0.00    -0.382 OA
ATOM     15  H   UNL     1      30.513  18.092   1.735  1.00  0.00     0.211 HD
ENDBRANCH   8  14
ENDBRANCH   1   8
BRANCH   1  16
ATOM     16  O   UNL     1      32.340  15.175   1.787  1.00  0.00    -0.387 OA
ATOM     17  H   UNL     1      33.025  14.771   2.381  1.00  0.00     0.211 HD
ENDBRANCH   1  16
TORSDOF 10
ENDMDL
MODEL 2
REMARK VINA RESULT:    -3.683      1.168      1.942
REMARK INTER + INTRA:          -6.658
REMARK INTER:                  -6.101
REMARK INTRA:                  -0.557
REMARK UNBOUND:                -1.360
REMARK SMILES O=C(CO)[C@H](O)[C@@H](O)[C@@H](O)CO
REMARK SMILES IDX 7 1 9 2 11 3 12 4 10 6 5 8 2 9 1 10 3 11 4 12 6 14 8 16
REMARK H PARENT 12 5 10 7 4 13 6 15 8 17
REMARK Flexibility Score: inf
ROOT
ATOM      1  C   UNL     1      32.276  16.170   0.540  1.00  0.00     0.181 C 
ENDROOT
BRANCH   1   2
ATOM      2  C   UNL     1      33.519  16.958   1.033  1.00  0.00     0.171 C 
BRANCH   2   3
ATOM      3  C   UNL     1      33.338  17.469   2.477  1.00  0.00     0.190 C 
BRANCH   3   4
ATOM      4  O   UNL     1      32.755  18.744   2.478  1.00  0.00    -0.394 OA
ATOM      5  H   UNL     1      33.434  19.367   2.849  1.00  0.00     0.210 HD
ENDBRANCH   3   4
ENDBRANCH   2   3
BRANCH   2   6
ATOM      6  O   UNL     1      33.808  18.038   0.181  1.00  0.00    -0.388 OA
ATOM      7  H   UNL     1      33.731  17.712  -0.754  1.00  0.00     0.211 HD
ENDBRANCH   2   6
ENDBRANCH   1   2
BRANCH   1   8
ATOM      8  C   UNL     1      31.211  15.985   1.658  1.00  0.00     0.214 C 
BRANCH   8   9
ATOM      9  C   UNL     1      30.433  14.690   1.530  1.00  0.00     0.189 C 
ATOM     10  O   UNL     1      30.959  13.633   1.842  1.00  0.00    -0.294 OA
BRANCH   9  11
ATOM     11  C   UNL     1      29.032  14.674   0.979  1.00  0.00     0.234 C 
BRANCH  11  12
ATOM     12  O   UNL     1      28.932  15.544  -0.115  1.00  0.00    -0.388 OA
ATOM     13  H   UNL     1      29.480  15.149  -0.843  1.00  0.00     0.211 HD
ENDBRANCH  11  12
ENDBRANCH   9  11
ENDBRANCH   8   9
BRANCH   8  14
ATOM     14  O   UNL     1      30.312  17.067   1.669  1.00  0.00    -0.382 OA
ATOM     15  H   UNL     1      30.803  17.871   1.353  1.00  0.00     0.211 HD
ENDBRANCH   8  14
ENDBRANCH   1   8
BRANCH   1  16
ATOM     16  O   UNL     1      31.688  16.874  -0.527  1.00  0.00    -0.387 OA
ATOM     17  H   UNL     1      31.195  17.642  -0.137  1.00  0.00     0.211 HD
ENDBRANCH   1  16
TORSDOF 10
ENDMDL
MODEL 3
REMARK VINA RESULT:    -3.594      0.630      3.892
REMARK INTER + INTRA:          -6.529
REMARK INTER:                  -5.099
REMARK INTRA:                  -1.429
REMARK UNBOUND:                -1.360
REMARK SMILES O=C(CO)[C@H](O)[C@@H](O)[C@@H](O)CO
REMARK SMILES IDX 7 1 9 2 11 3 12 4 10 6 5 8 2 9 1 10 3 11 4 12 6 14 8 16
REMARK H PARENT 12 5 10 7 4 13 6 15 8 17
REMARK Flexibility Score: inf
ROOT
ATOM      1  C   UNL     1      30.822  15.966   2.480  1.00  0.00     0.181 C 
ENDROOT
BRANCH   1   2
ATOM      2  C   UNL     1      30.105  14.757   1.822  1.00  0.00     0.171 C 
BRANCH   2   3
ATOM      3  C   UNL     1      29.264  15.184   0.601  1.00  0.00     0.190 C 
BRANCH   3   4
ATOM      4  O   UNL     1      30.096  15.606  -0.446  1.00  0.00    -0.394 OA
ATOM      5  H   UNL     1      29.503  15.816  -1.214  1.00  0.00     0.210 HD
ENDBRANCH   3   4
ENDBRANCH   2   3
BRANCH   2   6
ATOM      6  O   UNL     1      29.288  14.084   2.747  1.00  0.00    -0.388 OA
ATOM      7  H   UNL     1      28.747  13.420   2.243  1.00  0.00     0.211 HD
ENDBRANCH   2   6
ENDBRANCH   1   2
BRANCH   1   8
ATOM      8  C   UNL     1      32.360  15.937   2.255  1.00  0.00     0.214 C 
BRANCH   8   9
ATOM      9  C   UNL     1      32.924  17.278   1.829  1.00  0.00     0.189 C 
ATOM     10  O   UNL     1      32.989  18.193   2.637  1.00  0.00    -0.294 OA
BRANCH   9  11
ATOM     11  C   UNL     1      33.367  17.523   0.412  1.00  0.00     0.234 C 
BRANCH  11  12
ATOM     12  O   UNL     1      32.252  17.646  -0.429  1.00  0.00    -0.388 OA
ATOM     13  H   UNL     1      31.465  17.349   0.098  1.00  0.00     0.211 HD
ENDBRANCH  11  12
ENDBRANCH   9  11
ENDBRANCH   8   9
BRANCH   8  14
ATOM     14  O   UNL     1      32.701  14.966   1.297  1.00  0.00    -0.382 OA
ATOM     15  H   UNL     1      33.228  14.260   1.757  1.00  0.00     0.211 HD
ENDBRANCH   8  14
ENDBRANCH   1   8
BRANCH   1  16
ATOM     16  O   UNL     1      30.309  17.154   1.925  1.00  0.00    -0.387 OA
ATOM     17  H   UNL     1      29.721  16.895   1.168  1.00  0.00     0.211 HD
ENDBRANCH   1  16
TORSDOF 10
ENDMDL
MODEL 4
REMARK VINA RESULT:    -3.575      1.709      2.799
REMARK INTER + INTRA:          -6.502
REMARK INTER:                  -5.166
REMARK INTRA:                  -1.336
REMARK UNBOUND:                -1.360
REMARK SMILES O=C(CO)[C@H](O)[C@@H](O)[C@@H](O)CO
REMARK SMILES IDX 7 1 9 2 11 3 12 4 10 6 5 8 2 9 1 10 3 11 4 12 6 14 8 16
REMARK H PARENT 12 5 10 7 4 13 6 15 8 17
REMARK Flexibility Score: inf
ROOT
ATOM      1  C   UNL     1      32.006  15.490   0.810  1.00  0.00     0.181 C 
ENDROOT
BRANCH   1   2
ATOM      2  C   UNL     1      33.125  16.041  -0.114  1.00  0.00     0.171 C 
BRANCH   2   3
ATOM      3  C   UNL     1      32.546  16.801  -1.325  1.00  0.00     0.190 C 
BRANCH   3   4
ATOM      4  O   UNL     1      32.196  18.109  -0.962  1.00  0.00    -0.394 OA
ATOM      5  H   UNL     1      32.926  18.448  -0.380  1.00  0.00     0.210 HD
ENDBRANCH   3   4
ENDBRANCH   2   3
BRANCH   2   6
ATOM      6  O   UNL     1      33.969  15.009  -0.562  1.00  0.00    -0.388 OA
ATOM      7  H   UNL     1      34.351  15.291  -1.435  1.00  0.00     0.211 HD
ENDBRANCH   2   6
ENDBRANCH   1   2
BRANCH   1   8
ATOM      8  C   UNL     1      32.058  16.108   2.236  1.00  0.00     0.214 C 
BRANCH   8   9
ATOM      9  C   UNL     1      30.733  16.696   2.678  1.00  0.00     0.189 C 
ATOM     10  O   UNL     1      29.833  15.955   3.046  1.00  0.00    -0.294 OA
BRANCH   9  11
ATOM     11  C   UNL     1      30.484  18.180   2.631  1.00  0.00     0.234 C 
BRANCH  11  12
ATOM     12  O   UNL     1      30.887  18.699   1.393  1.00  0.00    -0.388 OA
ATOM     13  H   UNL     1      31.439  17.998   0.957  1.00  0.00     0.211 HD
ENDBRANCH  11  12
ENDBRANCH   9  11
ENDBRANCH   8   9
BRANCH   8  14
ATOM     14  O   UNL     1      33.053  17.100   2.310  1.00  0.00    -0.382 OA
ATOM     15  H   UNL     1      32.618  17.977   2.140  1.00  0.00     0.211 HD
ENDBRANCH   8  14
ENDBRANCH   1   8
BRANCH   1  16
ATOM     16  O   UNL     1      30.757  15.790   0.237  1.00  0.00    -0.387 OA
ATOM     17  H   UNL     1      30.676  15.249  -0.592  1.00  0.00     0.211 HD
ENDBRANCH   1  16
TORSDOF 10
ENDMDL
MODEL 5
REMARK VINA RESULT:    -3.504     16.498     17.467
REMARK INTER + INTRA:          -6.400
REMARK INTER:                  -5.838
REMARK INTRA:                  -0.562
REMARK UNBOUND:                -1.360
REMARK SMILES O=C(CO)[C@H](O)[C@@H](O)[C@@H](O)CO
REMARK SMILES IDX 7 1 9 2 11 3 12 4 10 6 5 8 2 9 1 10 3 11 4 12 6 14 8 16
REMARK H PARENT 12 5 10 7 4 13 6 15 8 17
REMARK Flexibility Score: inf
ROOT
ATOM      1  C   UNL     1      29.857  13.960 -16.357  1.00  0.00     0.181 C 
ENDROOT
BRANCH   1   2
ATOM      2  C   UNL     1      31.019  12.940 -16.220  1.00  0.00     0.171 C 
BRANCH   2   3
ATOM      3  C   UNL     1      30.876  12.075 -14.950  1.00  0.00     0.190 C 
BRANCH   3   4
ATOM      4  O   UNL     1      31.810  12.468 -13.981  1.00  0.00    -0.394 OA
ATOM      5  H   UNL     1      31.952  11.684 -13.389  1.00  0.00     0.210 HD
ENDBRANCH   3   4
ENDBRANCH   2   3
BRANCH   2   6
ATOM      6  O   UNL     1      32.267  13.588 -16.214  1.00  0.00    -0.388 OA
ATOM      7  H   UNL     1      32.729  13.357 -17.063  1.00  0.00     0.211 HD
ENDBRANCH   2   6
ENDBRANCH   1   2
BRANCH   1   8
ATOM      8  C   UNL     1      28.843  13.863 -15.183  1.00  0.00     0.214 C 
BRANCH   8   9
ATOM      9  C   UNL     1      27.398  13.875 -15.641  1.00  0.00     0.189 C 
ATOM     10  O   UNL     1      26.662  12.944 -15.353  1.00  0.00    -0.294 OA
BRANCH   9  11
ATOM     11  C   UNL     1      26.859  14.996 -16.490  1.00  0.00     0.234 C 
BRANCH  11  12
ATOM     12  O   UNL     1      27.313  16.231 -16.006  1.00  0.00    -0.388 OA
ATOM     13  H   UNL     1      26.504  16.773 -15.811  1.00  0.00     0.211 HD
ENDBRANCH  11  12
ENDBRANCH   9  11
ENDBRANCH   8   9
BRANCH   8  14
ATOM     14  O   UNL     1      29.047  14.909 -14.265  1.00  0.00    -0.382 OA
ATOM     15  H   UNL     1      29.434  14.515 -13.439  1.00  0.00     0.211 HD
ENDBRANCH   8  14
ENDBRANCH   1   8
BRANCH   1  16
ATOM     16  O   UNL     1      30.396  15.260 -16.378  1.00  0.00    -0.387 OA
ATOM     17  H   UNL     1      30.236  15.659 -15.483  1.00  0.00     0.211 HD
ENDBRANCH   1  16
TORSDOF 10
ENDMDL
MODEL 6
REMARK VINA RESULT:    -3.502     16.788     18.124
REMARK INTER + INTRA:          -6.397
REMARK INTER:                  -5.653
REMARK INTRA:                  -0.744
REMARK UNBOUND:                -1.360
REMARK SMILES O=C(CO)[C@H](O)[C@@H](O)[C@@H](O)CO
REMARK SMILES IDX 7 1 9 2 11 3 12 4 10 6 5 8 2 9 1 10 3 11 4 12 6 14 8 16
REMARK H PARENT 12 5 10 7 4 13 6 15 8 17
REMARK Flexibility Score: inf
ROOT
ATOM      1  C   UNL     1      28.589  14.599 -15.584  1.00  0.00     0.181 C 
ENDROOT
BRANCH   1   2
ATOM      2  C   UNL     1      27.672  15.736 -16.106  1.00  0.00     0.171 C 
BRANCH   2   3
ATOM      3  C   UNL     1      26.364  15.185 -16.712  1.00  0.00     0.190 C 
BRANCH   3   4
ATOM      4  O   UNL     1      25.440  16.221 -16.910  1.00  0.00    -0.394 OA
ATOM      5  H   UNL     1      24.948  16.332 -16.055  1.00  0.00     0.210 HD
ENDBRANCH   3   4
ENDBRANCH   2   3
BRANCH   2   6
ATOM      6  O   UNL     1      28.336  16.531 -17.058  1.00  0.00    -0.388 OA
ATOM      7  H   UNL     1      28.642  17.357 -16.598  1.00  0.00     0.211 HD
ENDBRANCH   2   6
ENDBRANCH   1   2
BRANCH   1   8
ATOM      8  C   UNL     1      29.738  14.263 -16.576  1.00  0.00     0.214 C 
BRANCH   8   9
ATOM      9  C   UNL     1      30.237  12.837 -16.449  1.00  0.00     0.189 C 
ATOM     10  O   UNL     1      29.578  11.920 -16.916  1.00  0.00    -0.294 OA
BRANCH   9  11
ATOM     11  C   UNL     1      31.511  12.520 -15.713  1.00  0.00     0.234 C 
BRANCH  11  12
ATOM     12  O   UNL     1      31.357  12.778 -14.344  1.00  0.00    -0.388 OA
ATOM     13  H   UNL     1      30.987  11.951 -13.939  1.00  0.00     0.211 HD
ENDBRANCH  11  12
ENDBRANCH   9  11
ENDBRANCH   8   9
BRANCH   8  14
ATOM     14  O   UNL     1      30.817  15.148 -16.403  1.00  0.00    -0.382 OA
ATOM     15  H   UNL     1      30.579  16.005 -16.847  1.00  0.00     0.211 HD
ENDBRANCH   8  14
ENDBRANCH   1   8
BRANCH   1  16
ATOM     16  O   UNL     1      29.157  15.001 -14.361  1.00  0.00    -0.387 OA
ATOM     17  H   UNL     1      30.039  15.409 -14.565  1.00  0.00     0.211 HD
ENDBRANCH   1  16
TORSDOF 10
ENDMDL
MODEL 7
REMARK VINA RESULT:    -3.497      1.914      3.447
REMARK INTER + INTRA:          -6.390
REMARK INTER:                  -5.715
REMARK INTRA:                  -0.675
REMARK UNBOUND:                -1.360
REMARK SMILES O=C(CO)[C@H](O)[C@@H](O)[C@@H](O)CO
REMARK SMILES IDX 7 1 9 2 11 3 12 4 10 6 5 8 2 9 1 10 3 11 4 12 6 14 8 16
REMARK H PARENT 12 5 10 7 4 13 6 15 8 17
REMARK Flexibility Score: inf
ROOT
ATOM      1  C   UNL     1      32.454  17.347   2.084  1.00  0.00     0.181 C 
ENDROOT
BRANCH   1   2
ATOM      2  C   UNL     1      31.266  18.290   2.411  1.00  0.00     0.171 C 
BRANCH   2   3
ATOM      3  C   UNL     1      30.094  17.530   3.065  1.00  0.00     0.190 C 
BRANCH   3   4
ATOM      4  O   UNL     1      28.937  17.641   2.280  1.00  0.00    -0.394 OA
ATOM      5  H   UNL     1      28.456  16.776   2.360  1.00  0.00     0.210 HD
ENDBRANCH   3   4
ENDBRANCH   2   3
BRANCH   2   6
ATOM      6  O   UNL     1      30.813  18.957   1.258  1.00  0.00    -0.388 OA
ATOM      7  H   UNL     1      31.537  19.569   0.961  1.00  0.00     0.211 HD
ENDBRANCH   2   6
ENDBRANCH   1   2
BRANCH   1   8
ATOM      8  C   UNL     1      32.042  16.179   1.144  1.00  0.00     0.214 C 
BRANCH   8   9
ATOM      9  C   UNL     1      32.942  16.045  -0.069  1.00  0.00     0.189 C 
ATOM     10  O   UNL     1      34.015  15.469   0.033  1.00  0.00    -0.294 OA
BRANCH   9  11
ATOM     11  C   UNL     1      32.561  16.651  -1.393  1.00  0.00     0.234 C 
BRANCH  11  12
ATOM     12  O   UNL     1      32.206  17.996  -1.225  1.00  0.00    -0.388 OA
ATOM     13  H   UNL     1      33.054  18.509  -1.167  1.00  0.00     0.211 HD
ENDBRANCH  11  12
ENDBRANCH   9  11
ENDBRANCH   8   9
BRANCH   8  14
ATOM     14  O   UNL     1      30.711  16.333   0.718  1.00  0.00    -0.382 OA
ATOM     15  H   UNL     1      30.548  15.674  -0.008  1.00  0.00     0.211 HD
ENDBRANCH   8  14
ENDBRANCH   1   8
BRANCH   1  16
ATOM     16  O   UNL     1      33.465  18.096   1.452  1.00  0.00    -0.387 OA
ATOM     17  H   UNL     1      34.297  17.970   1.980  1.00  0.00     0.211 HD
ENDBRANCH   1  16
TORSDOF 10
ENDMDL
MODEL 8
REMARK VINA RESULT:    -3.497     15.628     16.893
REMARK INTER + INTRA:          -6.390
REMARK INTER:                  -5.478
REMARK INTRA:                  -0.911
REMARK UNBOUND:                -1.360
REMARK SMILES O=C(CO)[C@H](O)[C@@H](O)[C@@H](O)CO
REMARK SMILES IDX 7 1 9 2 11 3 12 4 10 6 5 8 2 9 1 10 3 11 4 12 6 14 8 16
REMARK H PARENT 12 5 10 7 4 13 6 15 8 17
REMARK Flexibility Score: inf
ROOT
ATOM      1  C   UNL     1      28.466  12.677 -15.054  1.00  0.00     0.181 C 
ENDROOT
BRANCH   1   2
ATOM      2  C   UNL     1      28.495  14.211 -15.291  1.00  0.00     0.171 C 
BRANCH   2   3
ATOM      3  C   UNL     1      29.217  14.575 -16.605  1.00  0.00     0.190 C 
BRANCH   3   4
ATOM      4  O   UNL     1      30.438  15.208 -16.336  1.00  0.00    -0.394 OA
ATOM      5  H   UNL     1      30.220  16.125 -16.025  1.00  0.00     0.210 HD
ENDBRANCH   3   4
ENDBRANCH   2   3
BRANCH   2   6
ATOM      6  O   UNL     1      29.105  14.881 -14.215  1.00  0.00    -0.388 OA
ATOM      7  H   UNL     1      28.430  15.495 -13.823  1.00  0.00     0.211 HD
ENDBRANCH   2   6
ENDBRANCH   1   2
BRANCH   1   8
ATOM      8  C   UNL     1      29.879  12.036 -15.148  1.00  0.00     0.214 C 
BRANCH   8   9
ATOM      9  C   UNL     1      29.919  10.607 -14.647  1.00  0.00     0.189 C 
ATOM     10  O   UNL     1      29.239   9.752 -15.195  1.00  0.00    -0.294 OA
BRANCH   9  11
ATOM     11  C   UNL     1      30.749  10.223 -13.451  1.00  0.00     0.234 C 
BRANCH  11  12
ATOM     12  O   UNL     1      30.154  10.701 -12.275  1.00  0.00    -0.388 OA
ATOM     13  H   UNL     1      29.964  11.664 -12.425  1.00  0.00     0.211 HD
ENDBRANCH  11  12
ENDBRANCH   9  11
ENDBRANCH   8   9
BRANCH   8  14
ATOM     14  O   UNL     1      30.819  12.804 -14.437  1.00  0.00    -0.382 OA
ATOM     15  H   UNL     1      30.380  13.122 -13.604  1.00  0.00     0.211 HD
ENDBRANCH   8  14
ENDBRANCH   1   8
BRANCH   1  16
ATOM     16  O   UNL     1      27.945  12.427 -13.771  1.00  0.00    -0.387 OA
ATOM     17  H   UNL     1      28.717  12.325 -13.155  1.00  0.00     0.211 HD
ENDBRANCH   1  16
TORSDOF 10
ENDMDL
MODEL 9
REMARK VINA RESULT:    -3.418     14.470     16.099
REMARK INTER + INTRA:          -6.276
REMARK INTER:                  -5.472
REMARK INTRA:                  -0.804
REMARK UNBOUND:                -1.360
REMARK SMILES O=C(CO)[C@H](O)[C@@H](O)[C@@H](O)CO
REMARK SMILES IDX 7 1 9 2 11 3 12 4 10 6 5 8 2 9 1 10 3 11 4 12 6 14 8 16
REMARK H PARENT 12 5 10 7 4 13 6 15 8 17
REMARK Flexibility Score: inf
ROOT
ATOM      1  C   UNL     1      32.788  10.356 -12.921  1.00  0.00     0.181 C 
ENDROOT
BRANCH   1   2
ATOM      2  C   UNL     1      32.071  10.053 -11.579  1.00  0.00     0.171 C 
BRANCH   2   3
ATOM      3  C   UNL     1      30.693   9.397 -11.800  1.00  0.00     0.190 C 
BRANCH   3   4
ATOM      4  O   UNL     1      30.198   8.875 -10.596  1.00  0.00    -0.394 OA
ATOM      5  H   UNL     1      29.207   8.915 -10.655  1.00  0.00     0.210 HD
ENDBRANCH   3   4
ENDBRANCH   2   3
BRANCH   2   6
ATOM      6  O   UNL     1      31.922  11.219 -10.806  1.00  0.00    -0.388 OA
ATOM      7  H   UNL     1      31.722  11.968 -11.428  1.00  0.00     0.211 HD
ENDBRANCH   2   6
ENDBRANCH   1   2
BRANCH   1   8
ATOM      8  C   UNL     1      32.015  11.392 -13.785  1.00  0.00     0.214 C 
BRANCH   8   9
ATOM      9  C   UNL     1      32.417  11.368 -15.246  1.00  0.00     0.189 C 
ATOM     10  O   UNL     1      32.073  10.434 -15.955  1.00  0.00    -0.294 OA
BRANCH   9  11
ATOM     11  C   UNL     1      33.277  12.454 -15.835  1.00  0.00     0.234 C 
BRANCH  11  12
ATOM     12  O   UNL     1      34.313  12.784 -14.952  1.00  0.00    -0.388 OA
ATOM     13  H   UNL     1      34.130  13.705 -14.630  1.00  0.00     0.211 HD
ENDBRANCH  11  12
ENDBRANCH   9  11
ENDBRANCH   8   9
BRANCH   8  14
ATOM     14  O   UNL     1      32.192  12.691 -13.276  1.00  0.00    -0.382 OA
ATOM     15  H   UNL     1      32.386  13.292 -14.044  1.00  0.00     0.211 HD
ENDBRANCH   8  14
ENDBRANCH   1   8
BRANCH   1  16
ATOM     16  O   UNL     1      34.069  10.871 -12.644  1.00  0.00    -0.387 OA
ATOM     17  H   UNL     1      33.964  11.842 -12.468  1.00  0.00     0.211 HD
ENDBRANCH   1  16
TORSDOF 10
ENDMDL
