MODEL 1
REMARK VINA RESULT:    -4.028      0.000      0.000
REMARK INTER + INTRA:          -7.207
REMARK INTER:                  -6.383
REMARK INTRA:                  -0.824
REMARK UNBOUND:                -0.824
REMARK SMILES CCCCCCCCCCCC(=O)[O-]
REMARK SMILES IDX 7 1 8 2 9 3 10 4 11 5 12 6 13 7 14 8 6 9 5 10 4 11 3 12 2 13
REMARK SMILES IDX 1 14
REMARK H PARENT
REMARK Flexibility Score: inf
ROOT
ATOM      1  C   UNL     1      26.424   2.130  43.538  1.00  0.00     0.000 C 
ENDROOT
BRANCH   1   2
ATOM      2  C   UNL     1      25.731   2.306  42.178  1.00  0.00     0.000 C 
BRANCH   2   3
ATOM      3  C   UNL     1      26.340   3.443  41.344  1.00  0.00     0.000 C 
BRANCH   3   4
ATOM      4  C   UNL     1      26.614   2.983  39.906  1.00  0.00     0.006 C 
BRANCH   4   5
ATOM      5  C   UNL     1      25.615   1.906  39.475  1.00  0.00     0.053 C 
BRANCH   5   6
ATOM      6  C   UNL     1      26.330   0.741  38.866  1.00  0.00     0.041 C 
ATOM      7  O   UNL     1      27.408   0.326  39.369  1.00  0.00    -0.550 OA
ATOM      8  O   UNL     1      25.781   0.080  37.775  1.00  0.00    -0.550 OA
ENDBRANCH   5   6
ENDBRANCH   4   5
ENDBRANCH   3   4
ENDBRANCH   2   3
ENDBRANCH   1   2
BRANCH   1   9
ATOM      9  C   UNL     1      26.228   0.721  44.123  1.00  0.00     0.000 C 
BRANCH   9  10
ATOM     10  C   UNL     1      26.242  -0.374  43.043  1.00  0.00    -0.000 C 
BRANCH  10  11
ATOM     11  C   UNL     1      27.571  -1.142  42.992  1.00  0.00    -0.000 C 
BRANCH  11  12
ATOM     12  C   UNL     1      27.990  -1.609  44.390  1.00  0.00    -0.000 C 
BRANCH  12  13
ATOM     13  C   UNL     1      27.823  -3.126  44.538  1.00  0.00    -0.003 C 
ATOM     14  C   UNL     1      27.761  -3.809  43.174  1.00  0.00     0.004 C 
ENDBRANCH  12  13
ENDBRANCH  11  12
ENDBRANCH  10  11
ENDBRANCH   9  10
ENDBRANCH   1   9
TORSDOF 10
ENDMDL
MODEL 2
REMARK VINA RESULT:    -3.885      6.999      8.526
REMARK INTER + INTRA:          -6.981
REMARK INTER:                  -5.799
REMARK INTRA:                  -1.182
REMARK UNBOUND:                -0.824
REMARK SMILES CCCCCCCCCCCC(=O)[O-]
REMARK SMILES IDX 7 1 8 2 9 3 10 4 11 5 12 6 13 7 14 8 6 9 5 10 4 11 3 12 2 13
REMARK SMILES IDX 1 14
REMARK H PARENT
REMARK Flexibility Score: inf
ROOT
ATOM      1  C   UNL     1      23.533  -2.377  36.456  1.00  0.00     0.000 C 
ENDROOT
BRANCH   1   2
ATOM      2  C   UNL     1      24.757  -2.727  35.595  1.00  0.00     0.000 C 
BRANCH   2   3
ATOM      3  C   UNL     1      26.064  -2.755  36.403  1.00  0.00     0.000 C 
BRANCH   3   4
ATOM      4  C   UNL     1      27.139  -3.576  35.680  1.00  0.00     0.006 C 
BRANCH   4   5
ATOM      5  C   UNL     1      28.247  -4.003  36.646  1.00  0.00     0.053 C 
BRANCH   5   6
ATOM      6  C   UNL     1      29.510  -3.251  36.361  1.00  0.00     0.041 C 
ATOM      7  O   UNL     1      30.264  -2.900  37.306  1.00  0.00    -0.550 OA
ATOM      8  O   UNL     1      29.879  -2.984  35.049  1.00  0.00    -0.550 OA
ENDBRANCH   5   6
ENDBRANCH   4   5
ENDBRANCH   3   4
ENDBRANCH   2   3
ENDBRANCH   1   2
BRANCH   1   9
ATOM      9  C   UNL     1      22.525  -3.534  36.548  1.00  0.00     0.000 C 
BRANCH   9  10
ATOM     10  C   UNL     1      22.391  -4.309  35.226  1.00  0.00    -0.000 C 
BRANCH  10  11
ATOM     11  C   UNL     1      22.453  -5.831  35.420  1.00  0.00    -0.000 C 
BRANCH  11  12
ATOM     12  C   UNL     1      23.395  -6.476  34.398  1.00  0.00    -0.000 C 
BRANCH  12  13
ATOM     13  C   UNL     1      24.859  -6.333  34.830  1.00  0.00    -0.003 C 
ATOM     14  C   UNL     1      25.031  -6.654  36.312  1.00  0.00     0.004 C 
ENDBRANCH  12  13
ENDBRANCH  11  12
ENDBRANCH  10  11
ENDBRANCH   9  10
ENDBRANCH   1   9
TORSDOF 10
ENDMDL
MODEL 3
REMARK VINA RESULT:    -3.881      6.477      8.560
REMARK INTER + INTRA:          -6.974
REMARK INTER:                  -5.738
REMARK INTRA:                  -1.236
REMARK UNBOUND:                -0.824
REMARK SMILES CCCCCCCCCCCC(=O)[O-]
REMARK SMILES IDX 7 1 8 2 9 3 10 4 11 5 12 6 13 7 14 8 6 9 5 10 4 11 3 12 2 13
REMARK SMILES IDX 1 14
REMARK H PARENT
REMARK Flexibility Score: inf
ROOT
ATOM      1  C   UNL     1      22.941  -5.254  34.867  1.00  0.00     0.000 C 
ENDROOT
BRANCH   1   2
ATOM      2  C   UNL     1      22.152  -4.878  36.132  1.00  0.00     0.000 C 
BRANCH   2   3
ATOM      3  C   UNL     1      22.607  -3.543  36.741  1.00  0.00     0.000 C 
BRANCH   3   4
ATOM      4  C   UNL     1      23.855  -3.011  36.026  1.00  0.00     0.006 C 
BRANCH   4   5
ATOM      5  C   UNL     1      24.016  -1.505  36.249  1.00  0.00     0.053 C 
BRANCH   5   6
ATOM      6  C   UNL     1      25.318  -1.210  36.924  1.00  0.00     0.041 C 
ATOM      7  O   UNL     1      26.274  -2.025  36.839  1.00  0.00    -0.550 OA
ATOM      8  O   UNL     1      25.494  -0.012  37.605  1.00  0.00    -0.550 OA
ENDBRANCH   5   6
ENDBRANCH   4   5
ENDBRANCH   3   4
ENDBRANCH   2   3
ENDBRANCH   1   2
BRANCH   1   9
ATOM      9  C   UNL     1      23.519  -6.678  34.933  1.00  0.00     0.000 C 
BRANCH   9  10
ATOM     10  C   UNL     1      24.400  -6.901  36.173  1.00  0.00    -0.000 C 
BRANCH  10  11
ATOM     11  C   UNL     1      25.902  -6.864  35.850  1.00  0.00    -0.000 C 
BRANCH  11  12
ATOM     12  C   UNL     1      26.519  -5.525  36.267  1.00  0.00    -0.000 C 
BRANCH  12  13
ATOM     13  C   UNL     1      27.309  -4.899  35.112  1.00  0.00    -0.003 C 
ATOM     14  C   UNL     1      26.783  -5.377  33.761  1.00  0.00     0.004 C 
ENDBRANCH  12  13
ENDBRANCH  11  12
ENDBRANCH  10  11
ENDBRANCH   9  10
ENDBRANCH   1   9
TORSDOF 10
ENDMDL
MODEL 4
REMARK VINA RESULT:    -3.841      3.002      6.172
REMARK INTER + INTRA:          -6.911
REMARK INTER:                  -6.198
REMARK INTRA:                  -0.713
REMARK UNBOUND:                -0.824
REMARK SMILES CCCCCCCCCCCC(=O)[O-]
REMARK SMILES IDX 7 1 8 2 9 3 10 4 11 5 12 6 13 7 14 8 6 9 5 10 4 11 3 12 2 13
REMARK SMILES IDX 1 14
REMARK H PARENT
REMARK Flexibility Score: inf
ROOT
ATOM      1  C   UNL     1      26.749  -0.353  42.699  1.00  0.00     0.000 C 
ENDROOT
BRANCH   1   2
ATOM      2  C   UNL     1      27.817  -1.413  43.014  1.00  0.00     0.000 C 
BRANCH   2   3
ATOM      3  C   UNL     1      27.943  -1.700  44.518  1.00  0.00     0.000 C 
BRANCH   3   4
ATOM      4  C   UNL     1      28.024  -3.209  44.782  1.00  0.00     0.006 C 
BRANCH   4   5
ATOM      5  C   UNL     1      27.772  -4.006  43.500  1.00  0.00     0.053 C 
BRANCH   5   6
ATOM      6  C   UNL     1      26.638  -4.964  43.692  1.00  0.00     0.041 C 
ATOM      7  O   UNL     1      25.655  -4.645  44.411  1.00  0.00    -0.550 OA
ATOM      8  O   UNL     1      26.644  -6.189  43.038  1.00  0.00    -0.550 OA
ENDBRANCH   5   6
ENDBRANCH   4   5
ENDBRANCH   3   4
ENDBRANCH   2   3
ENDBRANCH   1   2
BRANCH   1   9
ATOM      9  C   UNL     1      26.405   0.520  43.918  1.00  0.00     0.000 C 
BRANCH   9  10
ATOM     10  C   UNL     1      26.417   2.022  43.590  1.00  0.00    -0.000 C 
BRANCH  10  11
ATOM     11  C   UNL     1      25.418   2.398  42.485  1.00  0.00    -0.000 C 
BRANCH  11  12
ATOM     12  C   UNL     1      26.101   3.216  41.384  1.00  0.00    -0.000 C 
BRANCH  12  13
ATOM     13  C   UNL     1      26.286   2.381  40.111  1.00  0.00    -0.003 C 
ATOM     14  C   UNL     1      24.986   2.291  39.316  1.00  0.00     0.004 C 
ENDBRANCH  12  13
ENDBRANCH  11  12
ENDBRANCH  10  11
ENDBRANCH   9  10
ENDBRANCH   1   9
TORSDOF 10
ENDMDL
MODEL 5
REMARK VINA RESULT:    -3.834      6.817      9.069
REMARK INTER + INTRA:          -6.900
REMARK INTER:                  -5.690
REMARK INTRA:                  -1.210
REMARK UNBOUND:                -0.824
REMARK SMILES CCCCCCCCCCCC(=O)[O-]
REMARK SMILES IDX 7 1 8 2 9 3 10 4 11 5 12 6 13 7 14 8 6 9 5 10 4 11 3 12 2 13
REMARK SMILES IDX 1 14
REMARK H PARENT
REMARK Flexibility Score: inf
ROOT
ATOM      1  C   UNL     1      25.044  -6.688  36.310  1.00  0.00     0.000 C 
ENDROOT
BRANCH   1   2
ATOM      2  C   UNL     1      26.328  -5.846  36.384  1.00  0.00     0.000 C 
BRANCH   2   3
ATOM      3  C   UNL     1      26.606  -5.071  35.087  1.00  0.00     0.000 C 
BRANCH   3   4
ATOM      4  C   UNL     1      27.717  -4.035  35.294  1.00  0.00     0.006 C 
BRANCH   4   5
ATOM      5  C   UNL     1      27.573  -3.337  36.649  1.00  0.00     0.053 C 
BRANCH   5   6
ATOM      6  C   UNL     1      28.901  -3.236  37.332  1.00  0.00     0.041 C 
ATOM      7  O   UNL     1      29.944  -3.026  36.658  1.00  0.00    -0.550 OA
ATOM      8  O   UNL     1      28.980  -3.322  38.715  1.00  0.00    -0.550 OA
ENDBRANCH   5   6
ENDBRANCH   4   5
ENDBRANCH   3   4
ENDBRANCH   2   3
ENDBRANCH   1   2
BRANCH   1   9
ATOM      9  C   UNL     1      24.482  -6.784  34.882  1.00  0.00     0.000 C 
BRANCH   9  10
ATOM     10  C   UNL     1      22.999  -6.385  34.802  1.00  0.00    -0.000 C 
BRANCH  10  11
ATOM     11  C   UNL     1      22.784  -4.869  34.922  1.00  0.00    -0.000 C 
BRANCH  11  12
ATOM     12  C   UNL     1      22.085  -4.516  36.239  1.00  0.00    -0.000 C 
BRANCH  12  13
ATOM     13  C   UNL     1      22.589  -3.177  36.789  1.00  0.00    -0.003 C 
ATOM     14  C   UNL     1      23.909  -2.775  36.137  1.00  0.00     0.004 C 
ENDBRANCH  12  13
ENDBRANCH  11  12
ENDBRANCH  10  11
ENDBRANCH   9  10
ENDBRANCH   1   9
TORSDOF 10
ENDMDL
MODEL 6
REMARK VINA RESULT:    -3.818      5.126      7.670
REMARK INTER + INTRA:          -6.874
REMARK INTER:                  -5.863
REMARK INTRA:                  -1.011
REMARK UNBOUND:                -0.824
REMARK SMILES CCCCCCCCCCCC(=O)[O-]
REMARK SMILES IDX 7 1 8 2 9 3 10 4 11 5 12 6 13 7 14 8 6 9 5 10 4 11 3 12 2 13
REMARK SMILES IDX 1 14
REMARK H PARENT
REMARK Flexibility Score: inf
ROOT
ATOM      1  C   UNL     1      25.229  -6.246  44.281  1.00  0.00     0.000 C 
ENDROOT
BRANCH   1   2
ATOM      2  C   UNL     1      25.912  -4.883  44.080  1.00  0.00     0.000 C 
BRANCH   2   3
ATOM      3  C   UNL     1      27.392  -5.012  43.689  1.00  0.00     0.000 C 
BRANCH   3   4
ATOM      4  C   UNL     1      28.303  -4.521  44.821  1.00  0.00     0.006 C 
BRANCH   4   5
ATOM      5  C   UNL     1      27.700  -3.300  45.521  1.00  0.00     0.053 C 
BRANCH   5   6
ATOM      6  C   UNL     1      28.355  -2.043  45.040  1.00  0.00     0.041 C 
ATOM      7  O   UNL     1      27.970  -1.498  43.971  1.00  0.00    -0.550 OA
ATOM      8  O   UNL     1      29.354  -1.446  45.796  1.00  0.00    -0.550 OA
ENDBRANCH   5   6
ENDBRANCH   4   5
ENDBRANCH   3   4
ENDBRANCH   2   3
ENDBRANCH   1   2
BRANCH   1   9
ATOM      9  C   UNL     1      25.460  -6.820  45.689  1.00  0.00     0.000 C 
BRANCH   9  10
ATOM     10  C   UNL     1      24.853  -5.938  46.793  1.00  0.00    -0.000 C 
BRANCH  10  11
ATOM     11  C   UNL     1      25.882  -5.523  47.855  1.00  0.00    -0.000 C 
BRANCH  11  12
ATOM     12  C   UNL     1      25.193  -5.167  49.177  1.00  0.00    -0.000 C 
BRANCH  12  13
ATOM     13  C   UNL     1      23.785  -5.770  49.245  1.00  0.00    -0.003 C 
ATOM     14  C   UNL     1      22.806  -4.810  49.915  1.00  0.00     0.004 C 
ENDBRANCH  12  13
ENDBRANCH  11  12
ENDBRANCH  10  11
ENDBRANCH   9  10
ENDBRANCH   1   9
TORSDOF 10
ENDMDL
MODEL 7
REMARK VINA RESULT:    -3.790      3.189      5.977
REMARK INTER + INTRA:          -6.830
REMARK INTER:                  -6.062
REMARK INTRA:                  -0.769
REMARK UNBOUND:                -0.824
REMARK SMILES CCCCCCCCCCCC(=O)[O-]
REMARK SMILES IDX 7 1 8 2 9 3 10 4 11 5 12 6 13 7 14 8 6 9 5 10 4 11 3 12 2 13
REMARK SMILES IDX 1 14
REMARK H PARENT
REMARK Flexibility Score: inf
ROOT
ATOM      1  C   UNL     1      25.875   1.440  43.468  1.00  0.00     0.000 C 
ENDROOT
BRANCH   1   2
ATOM      2  C   UNL     1      26.371   0.176  42.750  1.00  0.00     0.000 C 
BRANCH   2   3
ATOM      3  C   UNL     1      26.722  -0.961  43.722  1.00  0.00     0.000 C 
BRANCH   3   4
ATOM      4  C   UNL     1      27.875  -1.813  43.176  1.00  0.00     0.006 C 
BRANCH   4   5
ATOM      5  C   UNL     1      27.846  -3.223  43.772  1.00  0.00     0.053 C 
BRANCH   5   6
ATOM      6  C   UNL     1      28.006  -3.167  45.259  1.00  0.00     0.041 C 
ATOM      7  O   UNL     1      27.199  -3.780  46.007  1.00  0.00    -0.550 OA
ATOM      8  O   UNL     1      29.077  -2.482  45.819  1.00  0.00    -0.550 OA
ENDBRANCH   5   6
ENDBRANCH   4   5
ENDBRANCH   3   4
ENDBRANCH   2   3
ENDBRANCH   1   2
BRANCH   1   9
ATOM      9  C   UNL     1      26.346   2.733  42.782  1.00  0.00     0.000 C 
BRANCH   9  10
ATOM     10  C   UNL     1      25.542   3.054  41.510  1.00  0.00    -0.000 C 
BRANCH  10  11
ATOM     11  C   UNL     1      26.364   2.874  40.226  1.00  0.00    -0.000 C 
BRANCH  11  12
ATOM     12  C   UNL     1      25.516   2.246  39.115  1.00  0.00    -0.000 C 
BRANCH  12  13
ATOM     13  C   UNL     1      25.972   0.813  38.816  1.00  0.00    -0.003 C 
ATOM     14  C   UNL     1      27.439   0.612  39.185  1.00  0.00     0.004 C 
ENDBRANCH  12  13
ENDBRANCH  11  12
ENDBRANCH  10  11
ENDBRANCH   9  10
ENDBRANCH   1   9
TORSDOF 10
ENDMDL
MODEL 8
REMARK VINA RESULT:    -3.765      6.831      9.210
REMARK INTER + INTRA:          -6.791
REMARK INTER:                  -5.384
REMARK INTRA:                  -1.407
REMARK UNBOUND:                -0.824
REMARK SMILES CCCCCCCCCCCC(=O)[O-]
REMARK SMILES IDX 7 1 8 2 9 3 10 4 11 5 12 6 13 7 14 8 6 9 5 10 4 11 3 12 2 13
REMARK SMILES IDX 1 14
REMARK H PARENT
REMARK Flexibility Score: inf
ROOT
ATOM      1  C   UNL     1      25.008  -5.977  45.799  1.00  0.00     0.000 C 
ENDROOT
BRANCH   1   2
ATOM      2  C   UNL     1      25.856  -7.004  46.565  1.00  0.00     0.000 C 
BRANCH   2   3
ATOM      3  C   UNL     1      26.365  -6.468  47.912  1.00  0.00     0.000 C 
BRANCH   3   4
ATOM      4  C   UNL     1      25.646  -5.168  48.292  1.00  0.00     0.006 C 
BRANCH   4   5
ATOM      5  C   UNL     1      24.907  -5.318  49.625  1.00  0.00     0.053 C 
BRANCH   5   6
ATOM      6  C   UNL     1      23.428  -5.226  49.418  1.00  0.00     0.041 C 
ATOM      7  O   UNL     1      22.851  -6.008  48.618  1.00  0.00    -0.550 OA
ATOM      8  O   UNL     1      22.679  -4.312  50.147  1.00  0.00    -0.550 OA
ENDBRANCH   5   6
ENDBRANCH   4   5
ENDBRANCH   3   4
ENDBRANCH   2   3
ENDBRANCH   1   2
BRANCH   1   9
ATOM      9  C   UNL     1      25.358  -5.920  44.302  1.00  0.00     0.000 C 
BRANCH   9  10
ATOM     10  C   UNL     1      25.787  -4.515  43.848  1.00  0.00    -0.000 C 
BRANCH  10  11
ATOM     11  C   UNL     1      27.312  -4.334  43.833  1.00  0.00    -0.000 C 
BRANCH  11  12
ATOM     12  C   UNL     1      27.737  -3.180  44.747  1.00  0.00    -0.000 C 
BRANCH  12  13
ATOM     13  C   UNL     1      28.238  -3.704  46.099  1.00  0.00    -0.003 C 
ATOM     14  C   UNL     1      29.147  -4.916  45.918  1.00  0.00     0.004 C 
ENDBRANCH  12  13
ENDBRANCH  11  12
ENDBRANCH  10  11
ENDBRANCH   9  10
ENDBRANCH   1   9
TORSDOF 10
ENDMDL
MODEL 9
REMARK VINA RESULT:    -3.731      7.231      9.583
REMARK INTER + INTRA:          -6.736
REMARK INTER:                  -5.390
REMARK INTRA:                  -1.346
REMARK UNBOUND:                -0.824
REMARK SMILES CCCCCCCCCCCC(=O)[O-]
REMARK SMILES IDX 7 1 8 2 9 3 10 4 11 5 12 6 13 7 14 8 6 9 5 10 4 11 3 12 2 13
REMARK SMILES IDX 1 14
REMARK H PARENT
REMARK Flexibility Score: inf
ROOT
ATOM      1  C   UNL     1      24.400  -7.011  34.864  1.00  0.00     0.000 C 
ENDROOT
BRANCH   1   2
ATOM      2  C   UNL     1      24.660  -6.928  36.376  1.00  0.00     0.000 C 
BRANCH   2   3
ATOM      3  C   UNL     1      25.959  -6.180  36.715  1.00  0.00     0.000 C 
BRANCH   3   4
ATOM      4  C   UNL     1      26.863  -6.064  35.482  1.00  0.00     0.006 C 
BRANCH   4   5
ATOM      5  C   UNL     1      27.870  -4.922  35.643  1.00  0.00     0.053 C 
BRANCH   5   6
ATOM      6  C   UNL     1      28.868  -5.249  36.709  1.00  0.00     0.041 C 
ATOM      7  O   UNL     1      29.176  -4.388  37.574  1.00  0.00    -0.550 OA
ATOM      8  O   UNL     1      29.419  -6.522  36.779  1.00  0.00    -0.550 OA
ENDBRANCH   5   6
ENDBRANCH   4   5
ENDBRANCH   3   4
ENDBRANCH   2   3
ENDBRANCH   1   2
BRANCH   1   9
ATOM      9  C   UNL     1      23.054  -6.384  34.461  1.00  0.00     0.000 C 
BRANCH   9  10
ATOM     10  C   UNL     1      22.344  -5.700  35.641  1.00  0.00    -0.000 C 
BRANCH  10  11
ATOM     11  C   UNL     1      22.270  -4.173  35.487  1.00  0.00    -0.000 C 
BRANCH  11  12
ATOM     12  C   UNL     1      22.683  -3.470  36.784  1.00  0.00    -0.000 C 
BRANCH  12  13
ATOM     13  C   UNL     1      23.928  -2.602  36.568  1.00  0.00    -0.003 C 
ATOM     14  C   UNL     1      24.643  -2.976  35.272  1.00  0.00     0.004 C 
ENDBRANCH  12  13
ENDBRANCH  11  12
ENDBRANCH  10  11
ENDBRANCH   9  10
ENDBRANCH   1   9
TORSDOF 10
ENDMDL
