MODEL 1
REMARK VINA RESULT:    -4.747      0.000      0.000
REMARK INTER + INTRA:          -6.867
REMARK INTER:                  -5.856
REMARK INTRA:                  -1.011
REMARK UNBOUND:                -1.011
REMARK SMILES CC(C)=CCC[C@@H](C)c1ccc(C)cc1
REMARK SMILES IDX 6 1 7 2 8 3 9 4 13 5 12 6 11 7 14 8 10 9 15 10 5 11 4 12
REMARK SMILES IDX 2 13 1 14 3 15
REMARK H PARENT
REMARK Flexibility Score: inf
ROOT
ATOM      1  C   UNL     1      22.756  11.017  29.758  1.00  0.00     0.012 C 
ENDROOT
BRANCH   1   2
ATOM      2  C   UNL     1      21.726   9.925  30.128  1.00  0.00     0.016 C 
ATOM      3  C   UNL     1      22.308   8.509  29.996  1.00  0.00     0.013 C 
BRANCH   2   4
ATOM      4  C   UNL     1      21.201  10.149  31.535  1.00  0.00    -0.045 A 
ATOM      5  C   UNL     1      19.735  10.748  35.554  1.00  0.00     0.044 C 
ATOM      6  C   UNL     1      20.244  10.571  34.155  1.00  0.00    -0.051 A 
ATOM      7  C   UNL     1      19.344  10.401  33.092  1.00  0.00     0.004 A 
ATOM      8  C   UNL     1      21.623  10.503  33.906  1.00  0.00     0.004 A 
ATOM      9  C   UNL     1      19.817  10.199  31.792  1.00  0.00     0.004 A 
ATOM     10  C   UNL     1      22.096  10.300  32.607  1.00  0.00     0.004 A 
ENDBRANCH   2   4
ENDBRANCH   1   2
BRANCH   1  11
ATOM     11  C   UNL     1      22.105  12.388  29.516  1.00  0.00     0.028 C 
BRANCH  11  12
ATOM     12  C   UNL     1      21.595  12.492  28.100  1.00  0.00    -0.028 C 
ATOM     13  C   UNL     1      20.298  12.375  27.745  1.00  0.00    -0.080 C 
ATOM     14  C   UNL     1      19.201  12.177  28.766  1.00  0.00     0.039 C 
ATOM     15  C   UNL     1      19.942  12.463  26.283  1.00  0.00     0.039 C 
ENDBRANCH  11  12
ENDBRANCH   1  11
TORSDOF 4
ENDMDL
MODEL 2
REMARK VINA RESULT:    -4.573      6.181      9.049
REMARK INTER + INTRA:          -6.653
REMARK INTER:                  -5.673
REMARK INTRA:                  -0.980
REMARK UNBOUND:                -1.011
REMARK SMILES CC(C)=CCC[C@@H](C)c1ccc(C)cc1
REMARK SMILES IDX 6 1 7 2 8 3 9 4 13 5 12 6 11 7 14 8 10 9 15 10 5 11 4 12
REMARK SMILES IDX 2 13 1 14 3 15
REMARK H PARENT
REMARK Flexibility Score: inf
ROOT
ATOM      1  C   UNL     1      18.605   8.307  38.481  1.00  0.00     0.012 C 
ENDROOT
BRANCH   1   2
ATOM      2  C   UNL     1      19.469   8.291  39.763  1.00  0.00     0.016 C 
ATOM      3  C   UNL     1      20.965   8.122  39.453  1.00  0.00     0.013 C 
BRANCH   2   4
ATOM      4  C   UNL     1      19.239   9.554  40.572  1.00  0.00    -0.045 A 
ATOM      5  C   UNL     1      18.545  13.124  42.903  1.00  0.00     0.044 C 
ATOM      6  C   UNL     1      18.816  11.891  42.094  1.00  0.00    -0.051 A 
ATOM      7  C   UNL     1      18.803  11.948  40.693  1.00  0.00     0.004 A 
ATOM      8  C   UNL     1      19.015  10.657  42.731  1.00  0.00     0.004 A 
ATOM      9  C   UNL     1      19.019  10.792  39.937  1.00  0.00     0.004 A 
ATOM     10  C   UNL     1      19.230   9.501  41.976  1.00  0.00     0.004 A 
ENDBRANCH   2   4
ENDBRANCH   1   2
BRANCH   1  11
ATOM     11  C   UNL     1      19.428   8.583  37.214  1.00  0.00     0.028 C 
BRANCH  11  12
ATOM     12  C   UNL     1      19.104   9.945  36.654  1.00  0.00    -0.028 C 
ATOM     13  C   UNL     1      19.998  10.948  36.518  1.00  0.00    -0.080 C 
ATOM     14  C   UNL     1      21.457  10.775  36.872  1.00  0.00     0.039 C 
ATOM     15  C   UNL     1      19.518  12.271  35.976  1.00  0.00     0.039 C 
ENDBRANCH  11  12
ENDBRANCH   1  11
TORSDOF 4
ENDMDL
MODEL 3
REMARK VINA RESULT:    -4.566      3.034      6.092
REMARK INTER + INTRA:          -6.645
REMARK INTER:                  -5.852
REMARK INTRA:                  -0.793
REMARK UNBOUND:                -1.011
REMARK SMILES CC(C)=CCC[C@@H](C)c1ccc(C)cc1
REMARK SMILES IDX 6 1 7 2 8 3 9 4 13 5 12 6 11 7 14 8 10 9 15 10 5 11 4 12
REMARK SMILES IDX 2 13 1 14 3 15
REMARK H PARENT
REMARK Flexibility Score: inf
ROOT
ATOM      1  C   UNL     1      20.964   9.320  35.624  1.00  0.00     0.012 C 
ENDROOT
BRANCH   1   2
ATOM      2  C   UNL     1      19.536   9.075  36.162  1.00  0.00     0.016 C 
ATOM      3  C   UNL     1      19.175   7.582  36.196  1.00  0.00     0.013 C 
BRANCH   2   4
ATOM      4  C   UNL     1      19.380   9.685  37.544  1.00  0.00    -0.045 A 
ATOM      5  C   UNL     1      18.901  11.388  41.485  1.00  0.00     0.044 C 
ATOM      6  C   UNL     1      19.098  10.801  40.119  1.00  0.00    -0.051 A 
ATOM      7  C   UNL     1      19.060  11.624  38.984  1.00  0.00     0.004 A 
ATOM      8  C   UNL     1      19.251   9.416  39.960  1.00  0.00     0.004 A 
ATOM      9  C   UNL     1      19.207  11.074  37.708  1.00  0.00     0.004 A 
ATOM     10  C   UNL     1      19.397   8.864  38.684  1.00  0.00     0.004 A 
ENDBRANCH   2   4
ENDBRANCH   1   2
BRANCH   1  11
ATOM     11  C   UNL     1      21.001  10.363  34.496  1.00  0.00     0.028 C 
BRANCH  11  12
ATOM     12  C   UNL     1      19.660  10.458  33.814  1.00  0.00    -0.028 C 
ATOM     13  C   UNL     1      19.478  10.411  32.476  1.00  0.00    -0.080 C 
ATOM     14  C   UNL     1      20.627  10.198  31.518  1.00  0.00     0.039 C 
ATOM     15  C   UNL     1      18.078  10.559  31.935  1.00  0.00     0.039 C 
ENDBRANCH  11  12
ENDBRANCH   1  11
TORSDOF 4
ENDMDL
MODEL 4
REMARK VINA RESULT:    -4.455      2.528      7.719
REMARK INTER + INTRA:          -6.507
REMARK INTER:                  -5.772
REMARK INTRA:                  -0.735
REMARK UNBOUND:                -1.011
REMARK SMILES CC(C)=CCC[C@@H](C)c1ccc(C)cc1
REMARK SMILES IDX 6 1 7 2 8 3 9 4 13 5 12 6 11 7 14 8 10 9 15 10 5 11 4 12
REMARK SMILES IDX 2 13 1 14 3 15
REMARK H PARENT
REMARK Flexibility Score: inf
ROOT
ATOM      1  C   UNL     1      19.578  11.301  36.408  1.00  0.00     0.012 C 
ENDROOT
BRANCH   1   2
ATOM      2  C   UNL     1      20.092   9.979  35.795  1.00  0.00     0.016 C 
ATOM      3  C   UNL     1      19.114   8.814  36.021  1.00  0.00     0.013 C 
BRANCH   2   4
ATOM      4  C   UNL     1      20.368  10.155  34.313  1.00  0.00    -0.045 A 
ATOM      5  C   UNL     1      21.180  10.699  30.105  1.00  0.00     0.044 C 
ATOM      6  C   UNL     1      20.900  10.479  31.562  1.00  0.00    -0.051 A 
ATOM      7  C   UNL     1      19.581  10.330  32.014  1.00  0.00     0.004 A 
ATOM      8  C   UNL     1      21.949  10.492  32.493  1.00  0.00     0.004 A 
ATOM      9  C   UNL     1      19.316  10.163  33.376  1.00  0.00     0.004 A 
ATOM     10  C   UNL     1      21.685  10.325  33.855  1.00  0.00     0.004 A 
ENDBRANCH   2   4
ENDBRANCH   1   2
BRANCH   1  11
ATOM     11  C   UNL     1      18.470  11.082  37.448  1.00  0.00     0.028 C 
BRANCH  11  12
ATOM     12  C   UNL     1      18.913  11.561  38.808  1.00  0.00    -0.028 C 
ATOM     13  C   UNL     1      19.187  10.750  39.852  1.00  0.00    -0.080 C 
ATOM     14  C   UNL     1      19.128   9.244  39.734  1.00  0.00     0.039 C 
ATOM     15  C   UNL     1      19.583  11.376  41.165  1.00  0.00     0.039 C 
ENDBRANCH  11  12
ENDBRANCH   1  11
TORSDOF 4
ENDMDL
MODEL 5
REMARK VINA RESULT:    -4.426      2.617      7.988
REMARK INTER + INTRA:          -6.472
REMARK INTER:                  -5.814
REMARK INTRA:                  -0.658
REMARK UNBOUND:                -1.011
REMARK SMILES CC(C)=CCC[C@@H](C)c1ccc(C)cc1
REMARK SMILES IDX 6 1 7 2 8 3 9 4 13 5 12 6 11 7 14 8 10 9 15 10 5 11 4 12
REMARK SMILES IDX 2 13 1 14 3 15
REMARK H PARENT
REMARK Flexibility Score: inf
ROOT
ATOM      1  C   UNL     1      19.462   9.335  36.254  1.00  0.00     0.012 C 
ENDROOT
BRANCH   1   2
ATOM      2  C   UNL     1      19.753  10.716  35.622  1.00  0.00     0.016 C 
ATOM      3  C   UNL     1      20.747  11.539  36.456  1.00  0.00     0.013 C 
BRANCH   2   4
ATOM      4  C   UNL     1      20.267  10.549  34.203  1.00  0.00    -0.045 A 
ATOM      5  C   UNL     1      21.700  10.033  30.161  1.00  0.00     0.044 C 
ATOM      6  C   UNL     1      21.202  10.243  31.559  1.00  0.00    -0.051 A 
ATOM      7  C   UNL     1      22.109  10.415  32.615  1.00  0.00     0.004 A 
ATOM      8  C   UNL     1      19.827  10.198  31.834  1.00  0.00     0.004 A 
ATOM      9  C   UNL     1      21.647  10.574  33.924  1.00  0.00     0.004 A 
ATOM     10  C   UNL     1      19.364  10.356  33.143  1.00  0.00     0.004 A 
ENDBRANCH   2   4
ENDBRANCH   1   2
BRANCH   1  11
ATOM     11  C   UNL     1      18.383   9.398  37.346  1.00  0.00     0.028 C 
BRANCH  11  12
ATOM     12  C   UNL     1      18.746   8.506  38.505  1.00  0.00    -0.028 C 
ATOM     13  C   UNL     1      19.179   8.949  39.706  1.00  0.00    -0.080 C 
ATOM     14  C   UNL     1      19.288  10.423  40.023  1.00  0.00     0.039 C 
ATOM     15  C   UNL     1      19.542   7.935  40.759  1.00  0.00     0.039 C 
ENDBRANCH  11  12
ENDBRANCH   1  11
TORSDOF 4
ENDMDL
MODEL 6
REMARK VINA RESULT:    -4.352      1.522      3.448
REMARK INTER + INTRA:          -6.380
REMARK INTER:                  -5.825
REMARK INTRA:                  -0.555
REMARK UNBOUND:                -1.011
REMARK SMILES CC(C)=CCC[C@@H](C)c1ccc(C)cc1
REMARK SMILES IDX 6 1 7 2 8 3 9 4 13 5 12 6 11 7 14 8 10 9 15 10 5 11 4 12
REMARK SMILES IDX 2 13 1 14 3 15
REMARK H PARENT
REMARK Flexibility Score: inf
ROOT
ATOM      1  C   UNL     1      21.003  10.322  32.659  1.00  0.00     0.012 C 
ENDROOT
BRANCH   1   2
ATOM      2  C   UNL     1      19.559  10.530  33.171  1.00  0.00     0.016 C 
ATOM      3  C   UNL     1      18.559   9.579  32.494  1.00  0.00     0.013 C 
BRANCH   2   4
ATOM      4  C   UNL     1      19.505  10.364  34.679  1.00  0.00    -0.045 A 
ATOM      5  C   UNL     1      19.399   9.910  38.974  1.00  0.00     0.044 C 
ATOM      6  C   UNL     1      19.406  10.077  37.484  1.00  0.00    -0.051 A 
ATOM      7  C   UNL     1      19.083   8.996  36.650  1.00  0.00     0.004 A 
ATOM      8  C   UNL     1      19.804  11.293  36.909  1.00  0.00     0.004 A 
ATOM      9  C   UNL     1      19.125   9.139  35.261  1.00  0.00     0.004 A 
ATOM     10  C   UNL     1      19.847  11.437  35.520  1.00  0.00     0.004 A 
ENDBRANCH   2   4
ENDBRANCH   1   2
BRANCH   1  11
ATOM     11  C   UNL     1      21.068  10.112  31.139  1.00  0.00     0.028 C 
BRANCH  11  12
ATOM     12  C   UNL     1      21.976  11.131  30.498  1.00  0.00    -0.028 C 
ATOM     13  C   UNL     1      21.617  11.941  29.479  1.00  0.00    -0.080 C 
ATOM     14  C   UNL     1      20.217  11.939  28.908  1.00  0.00     0.039 C 
ATOM     15  C   UNL     1      22.647  12.886  28.914  1.00  0.00     0.039 C 
ENDBRANCH  11  12
ENDBRANCH   1  11
TORSDOF 4
ENDMDL
MODEL 7
REMARK VINA RESULT:    -4.295      6.472      9.407
REMARK INTER + INTRA:          -6.310
REMARK INTER:                  -4.772
REMARK INTRA:                  -1.538
REMARK UNBOUND:                -1.011
REMARK SMILES CC(C)=CCC[C@@H](C)c1ccc(C)cc1
REMARK SMILES IDX 6 1 7 2 8 3 9 4 13 5 12 6 11 7 14 8 10 9 15 10 5 11 4 12
REMARK SMILES IDX 2 13 1 14 3 15
REMARK H PARENT
REMARK Flexibility Score: inf
ROOT
ATOM      1  C   UNL     1      20.018  11.880  39.018  1.00  0.00     0.012 C 
ENDROOT
BRANCH   1   2
ATOM      2  C   UNL     1      20.096  11.465  40.505  1.00  0.00     0.016 C 
ATOM      3  C   UNL     1      18.811  11.813  41.274  1.00  0.00     0.013 C 
BRANCH   2   4
ATOM      4  C   UNL     1      20.396   9.982  40.625  1.00  0.00    -0.045 A 
ATOM      5  C   UNL     1      21.254   5.766  41.016  1.00  0.00     0.044 C 
ATOM      6  C   UNL     1      20.936   7.223  40.858  1.00  0.00    -0.051 A 
ATOM      7  C   UNL     1      21.693   8.021  39.987  1.00  0.00     0.004 A 
ATOM      8  C   UNL     1      19.926   7.815  41.631  1.00  0.00     0.004 A 
ATOM      9  C   UNL     1      21.422   9.386  39.865  1.00  0.00     0.004 A 
ATOM     10  C   UNL     1      19.655   9.181  41.511  1.00  0.00     0.004 A 
ENDBRANCH   2   4
ENDBRANCH   1   2
BRANCH   1  11
ATOM     11  C   UNL     1      18.730  11.397  38.335  1.00  0.00     0.028 C 
BRANCH  11  12
ATOM     12  C   UNL     1      19.053  10.559  37.123  1.00  0.00    -0.028 C 
ATOM     13  C   UNL     1      18.873   9.223  37.048  1.00  0.00    -0.080 C 
ATOM     14  C   UNL     1      18.265   8.431  38.183  1.00  0.00     0.039 C 
ATOM     15  C   UNL     1      19.279   8.512  35.781  1.00  0.00     0.039 C 
ENDBRANCH  11  12
ENDBRANCH   1  11
TORSDOF 4
ENDMDL
MODEL 8
REMARK VINA RESULT:    -4.285      6.469      8.762
REMARK INTER + INTRA:          -6.298
REMARK INTER:                  -4.728
REMARK INTRA:                  -1.569
REMARK UNBOUND:                -1.011
REMARK SMILES CC(C)=CCC[C@@H](C)c1ccc(C)cc1
REMARK SMILES IDX 6 1 7 2 8 3 9 4 13 5 12 6 11 7 14 8 10 9 15 10 5 11 4 12
REMARK SMILES IDX 2 13 1 14 3 15
REMARK H PARENT
REMARK Flexibility Score: inf
ROOT
ATOM      1  C   UNL     1      19.514  12.018  36.635  1.00  0.00     0.012 C 
ENDROOT
BRANCH   1   2
ATOM      2  C   UNL     1      18.941  10.718  37.243  1.00  0.00     0.016 C 
ATOM      3  C   UNL     1      19.672   9.466  36.733  1.00  0.00     0.013 C 
BRANCH   2   4
ATOM      4  C   UNL     1      18.991  10.776  38.759  1.00  0.00    -0.045 A 
ATOM      5  C   UNL     1      19.102  10.902  43.076  1.00  0.00     0.044 C 
ATOM      6  C   UNL     1      19.093  10.866  41.576  1.00  0.00    -0.051 A 
ATOM      7  C   UNL     1      18.778  12.020  40.843  1.00  0.00     0.004 A 
ATOM      8  C   UNL     1      19.330   9.662  40.897  1.00  0.00     0.004 A 
ATOM      9  C   UNL     1      18.734  11.978  39.447  1.00  0.00     0.004 A 
ATOM     10  C   UNL     1      19.285   9.620  39.500  1.00  0.00     0.004 A 
ENDBRANCH   2   4
ENDBRANCH   1   2
BRANCH   1  11
ATOM     11  C   UNL     1      21.048  12.009  36.555  1.00  0.00     0.028 C 
BRANCH  11  12
ATOM     12  C   UNL     1      21.646  12.782  37.704  1.00  0.00    -0.028 C 
ATOM     13  C   UNL     1      22.371  12.230  38.701  1.00  0.00    -0.080 C 
ATOM     14  C   UNL     1      22.705  10.756  38.728  1.00  0.00     0.039 C 
ATOM     15  C   UNL     1      22.873  13.125  39.805  1.00  0.00     0.039 C 
ENDBRANCH  11  12
ENDBRANCH   1  11
TORSDOF 4
ENDMDL
MODEL 9
REMARK VINA RESULT:    -4.218      6.256      8.652
REMARK INTER + INTRA:          -6.215
REMARK INTER:                  -4.648
REMARK INTRA:                  -1.567
REMARK UNBOUND:                -1.011
REMARK SMILES CC(C)=CCC[C@@H](C)c1ccc(C)cc1
REMARK SMILES IDX 6 1 7 2 8 3 9 4 13 5 12 6 11 7 14 8 10 9 15 10 5 11 4 12
REMARK SMILES IDX 2 13 1 14 3 15
REMARK H PARENT
REMARK Flexibility Score: inf
ROOT
ATOM      1  C   UNL     1      18.598  11.601  37.816  1.00  0.00     0.012 C 
ENDROOT
BRANCH   1   2
ATOM      2  C   UNL     1      19.469  11.332  36.567  1.00  0.00     0.016 C 
ATOM      3  C   UNL     1      20.691  12.262  36.499  1.00  0.00     0.013 C 
BRANCH   2   4
ATOM      4  C   UNL     1      19.911   9.880  36.534  1.00  0.00    -0.045 A 
ATOM      5  C   UNL     1      21.194   5.757  36.397  1.00  0.00     0.044 C 
ATOM      6  C   UNL     1      20.751   7.188  36.475  1.00  0.00    -0.051 A 
ATOM      7  C   UNL     1      19.385   7.501  36.543  1.00  0.00     0.004 A 
ATOM      8  C   UNL     1      21.692   8.225  36.411  1.00  0.00     0.004 A 
ATOM      9  C   UNL     1      18.968   8.834  36.579  1.00  0.00     0.004 A 
ATOM     10  C   UNL     1      21.276   9.559  36.446  1.00  0.00     0.004 A 
ENDBRANCH   2   4
ENDBRANCH   1   2
BRANCH   1  11
ATOM     11  C   UNL     1      19.400  11.533  39.124  1.00  0.00     0.028 C 
BRANCH  11  12
ATOM     12  C   UNL     1      19.087  10.264  39.876  1.00  0.00    -0.028 C 
ATOM     13  C   UNL     1      20.007   9.345  40.242  1.00  0.00    -0.080 C 
ATOM     14  C   UNL     1      21.482   9.537  39.972  1.00  0.00     0.039 C 
ATOM     15  C   UNL     1      19.538   8.104  40.957  1.00  0.00     0.039 C 
ENDBRANCH  11  12
ENDBRANCH   1  11
TORSDOF 4
ENDMDL
