MODEL 1
REMARK VINA RESULT:    -7.099      0.000      0.000
REMARK INTER + INTRA:         -11.083
REMARK INTER:                 -10.834
REMARK INTRA:                  -0.249
REMARK UNBOUND:                -0.249
REMARK SMILES OC[C@H]1O[C@H](O[C@@]2(CO)O[C@H](CO)[C@@H](O)[C@H]2O)[C@H](O)[C@@H](O)[C@H]1O
REMARK SMILES IDX 6 1 5 2 3 3 22 4 4 5 20 6 18 7 2 8 1 9 23 11 21 13 19 15
REMARK SMILES IDX 7 17 16 18 10 19 14 20 11 21 8 22 9 23 17 25 15 27 12 29
REMARK SMILES IDX 13 30
REMARK H PARENT 1 10 23 12 21 14 19 16 9 24 17 26 15 28 13 31
REMARK Flexibility Score: inf
ROOT
ATOM      1  O   UNL     1     -12.279 -39.133  38.979  1.00  0.00    -0.313 OA
ENDROOT
BRANCH   1   2
ATOM      2  C   UNL     1     -11.852 -38.066  38.150  1.00  0.00     0.285 C 
ATOM      3  C   UNL     1     -12.146 -37.105  36.010  1.00  0.00     0.178 C 
ATOM      4  C   UNL     1     -12.324 -35.680  36.600  1.00  0.00     0.177 C 
ATOM      5  O   UNL     1     -12.563 -38.115  36.918  1.00  0.00    -0.341 OA
ATOM      6  C   UNL     1     -11.720 -35.553  38.014  1.00  0.00     0.179 C 
ATOM      7  C   UNL     1     -12.140 -36.747  38.886  1.00  0.00     0.202 C 
BRANCH   3   8
ATOM      8  C   UNL     1     -10.749 -37.392  35.414  1.00  0.00     0.191 C 
BRANCH   8   9
ATOM      9  O   UNL     1     -10.822 -37.349  34.015  1.00  0.00    -0.394 OA
ATOM     10  H   UNL     1      -9.939 -37.031  33.696  1.00  0.00     0.210 HD
ENDBRANCH   8   9
ENDBRANCH   3   8
BRANCH   4  11
ATOM     11  O   UNL     1     -11.772 -34.698  35.755  1.00  0.00    -0.387 OA
ATOM     12  H   UNL     1     -10.860 -34.502  36.099  1.00  0.00     0.211 HD
ENDBRANCH   4  11
BRANCH   6  13
ATOM     13  O   UNL     1     -10.320 -35.489  37.955  1.00  0.00    -0.387 OA
ATOM     14  H   UNL     1      -9.968 -35.921  38.777  1.00  0.00     0.211 HD
ENDBRANCH   6  13
BRANCH   7  15
ATOM     15  O   UNL     1     -13.511 -36.673  39.201  1.00  0.00    -0.385 OA
ATOM     16  H   UNL     1     -13.651 -37.241  40.007  1.00  0.00     0.211 HD
ENDBRANCH   7  15
ENDBRANCH   1   2
BRANCH   1  17
ATOM     17  C   UNL     1     -11.663 -39.184  40.272  1.00  0.00     0.224 C 
ATOM     18  C   UNL     1     -11.564 -40.646  40.737  1.00  0.00     0.208 C 
ATOM     19  O   UNL     1     -12.376 -38.452  41.263  1.00  0.00    -0.337 OA
ATOM     20  C   UNL     1     -12.730 -40.787  41.686  1.00  0.00     0.180 C 
ATOM     21  C   UNL     1     -12.916 -39.359  42.200  1.00  0.00     0.179 C 
BRANCH  17  22
ATOM     22  C   UNL     1     -10.263 -38.557  40.152  1.00  0.00     0.225 C 
BRANCH  22  23
ATOM     23  O   UNL     1      -9.505 -38.784  41.311  1.00  0.00    -0.391 OA
ATOM     24  H   UNL     1      -8.566 -38.553  41.086  1.00  0.00     0.210 HD
ENDBRANCH  22  23
ENDBRANCH  17  22
BRANCH  18  25
ATOM     25  O   UNL     1     -11.654 -41.548  39.657  1.00  0.00    -0.385 OA
ATOM     26  H   UNL     1     -11.714 -42.456  40.055  1.00  0.00     0.211 HD
ENDBRANCH  18  25
BRANCH  20  27
ATOM     27  O   UNL     1     -13.884 -41.202  40.995  1.00  0.00    -0.387 OA
ATOM     28  H   UNL     1     -14.194 -42.034  41.431  1.00  0.00     0.211 HD
ENDBRANCH  20  27
BRANCH  21  29
ATOM     29  C   UNL     1     -12.231 -39.144  43.561  1.00  0.00     0.191 C 
BRANCH  29  30
ATOM     30  O   UNL     1     -11.516 -37.937  43.556  1.00  0.00    -0.394 OA
ATOM     31  H   UNL     1     -11.685 -37.504  44.432  1.00  0.00     0.210 HD
ENDBRANCH  29  30
ENDBRANCH  21  29
ENDBRANCH   1  17
TORSDOF 13
ENDMDL
MODEL 2
REMARK VINA RESULT:    -7.024      1.595      3.289
REMARK INTER + INTRA:         -10.969
REMARK INTER:                  -9.987
REMARK INTRA:                  -0.982
REMARK UNBOUND:                -0.249
REMARK SMILES OC[C@H]1O[C@H](O[C@@]2(CO)O[C@H](CO)[C@@H](O)[C@H]2O)[C@H](O)[C@@H](O)[C@H]1O
REMARK SMILES IDX 6 1 5 2 3 3 22 4 4 5 20 6 18 7 2 8 1 9 23 11 21 13 19 15
REMARK SMILES IDX 7 17 16 18 10 19 14 20 11 21 8 22 9 23 17 25 15 27 12 29
REMARK SMILES IDX 13 30
REMARK H PARENT 1 10 23 12 21 14 19 16 9 24 17 26 15 28 13 31
REMARK Flexibility Score: inf
ROOT
ATOM      1  O   UNL     1     -11.904 -37.206  40.401  1.00  0.00    -0.313 OA
ENDROOT
BRANCH   1   2
ATOM      2  C   UNL     1     -11.875 -37.188  38.984  1.00  0.00     0.285 C 
ATOM      3  C   UNL     1     -12.128 -35.769  37.109  1.00  0.00     0.178 C 
ATOM      4  C   UNL     1     -10.818 -36.286  36.456  1.00  0.00     0.177 C 
ATOM      5  O   UNL     1     -12.089 -35.857  38.527  1.00  0.00    -0.341 OA
ATOM      6  C   UNL     1     -10.402 -37.670  36.997  1.00  0.00     0.179 C 
ATOM      7  C   UNL     1     -10.497 -37.698  38.530  1.00  0.00     0.202 C 
BRANCH   3   8
ATOM      8  C   UNL     1     -13.427 -36.364  36.521  1.00  0.00     0.191 C 
BRANCH   8   9
ATOM      9  O   UNL     1     -14.527 -35.898  37.255  1.00  0.00    -0.394 OA
ATOM     10  H   UNL     1     -14.373 -36.169  38.196  1.00  0.00     0.210 HD
ENDBRANCH   8   9
ENDBRANCH   3   8
BRANCH   4  11
ATOM     11  O   UNL     1     -10.925 -36.334  35.053  1.00  0.00    -0.387 OA
ATOM     12  H   UNL     1     -10.003 -36.247  34.691  1.00  0.00     0.211 HD
ENDBRANCH   4  11
BRANCH   6  13
ATOM     13  O   UNL     1     -11.215 -38.680  36.461  1.00  0.00    -0.387 OA
ATOM     14  H   UNL     1     -10.614 -39.382  36.097  1.00  0.00     0.211 HD
ENDBRANCH   6  13
BRANCH   7  15
ATOM     15  O   UNL     1      -9.487 -36.900  39.104  1.00  0.00    -0.385 OA
ATOM     16  H   UNL     1      -8.930 -37.504  39.667  1.00  0.00     0.211 HD
ENDBRANCH   7  15
ENDBRANCH   1   2
BRANCH   1  17
ATOM     17  C   UNL     1     -12.839 -38.125  40.979  1.00  0.00     0.224 C 
ATOM     18  C   UNL     1     -12.235 -38.741  42.251  1.00  0.00     0.208 C 
ATOM     19  O   UNL     1     -13.198 -39.186  40.100  1.00  0.00    -0.337 OA
ATOM     20  C   UNL     1     -11.747 -40.092  41.782  1.00  0.00     0.180 C 
ATOM     21  C   UNL     1     -12.681 -40.396  40.611  1.00  0.00     0.179 C 
BRANCH  17  22
ATOM     22  C   UNL     1     -14.124 -37.346  41.311  1.00  0.00     0.225 C 
BRANCH  22  23
ATOM     23  O   UNL     1     -13.902 -36.419  42.340  1.00  0.00    -0.391 OA
ATOM     24  H   UNL     1     -13.667 -36.944  43.149  1.00  0.00     0.210 HD
ENDBRANCH  22  23
ENDBRANCH  17  22
BRANCH  18  25
ATOM     25  O   UNL     1     -11.186 -37.955  42.769  1.00  0.00    -0.385 OA
ATOM     26  H   UNL     1     -11.610 -37.151  43.169  1.00  0.00     0.211 HD
ENDBRANCH  18  25
BRANCH  20  27
ATOM     27  O   UNL     1     -10.418 -40.008  41.326  1.00  0.00    -0.387 OA
ATOM     28  H   UNL     1      -9.866 -39.739  42.102  1.00  0.00     0.211 HD
ENDBRANCH  20  27
BRANCH  21  29
ATOM     29  C   UNL     1     -13.850 -41.306  41.030  1.00  0.00     0.191 C 
BRANCH  29  30
ATOM     30  O   UNL     1     -14.588 -41.693  39.901  1.00  0.00    -0.394 OA
ATOM     31  H   UNL     1     -13.929 -41.914  39.195  1.00  0.00     0.210 HD
ENDBRANCH  29  30
ENDBRANCH  21  29
ENDBRANCH   1  17
TORSDOF 13
ENDMDL
MODEL 3
REMARK VINA RESULT:    -7.012      1.624      2.639
REMARK INTER + INTRA:         -10.950
REMARK INTER:                  -9.850
REMARK INTRA:                  -1.100
REMARK UNBOUND:                -0.249
REMARK SMILES OC[C@H]1O[C@H](O[C@@]2(CO)O[C@H](CO)[C@@H](O)[C@H]2O)[C@H](O)[C@@H](O)[C@H]1O
REMARK SMILES IDX 6 1 5 2 3 3 22 4 4 5 20 6 18 7 2 8 1 9 23 11 21 13 19 15
REMARK SMILES IDX 7 17 16 18 10 19 14 20 11 21 8 22 9 23 17 25 15 27 12 29
REMARK SMILES IDX 13 30
REMARK H PARENT 1 10 23 12 21 14 19 16 9 24 17 26 15 28 13 31
REMARK Flexibility Score: inf
ROOT
ATOM      1  O   UNL     1     -11.808 -37.089  39.359  1.00  0.00    -0.313 OA
ENDROOT
BRANCH   1   2
ATOM      2  C   UNL     1     -11.438 -37.434  38.036  1.00  0.00     0.285 C 
ATOM      3  C   UNL     1     -12.321 -37.960  35.905  1.00  0.00     0.178 C 
ATOM      4  C   UNL     1     -11.370 -36.962  35.190  1.00  0.00     0.177 C 
ATOM      5  O   UNL     1     -12.610 -37.560  37.238  1.00  0.00    -0.341 OA
ATOM      6  C   UNL     1     -10.126 -36.630  36.040  1.00  0.00     0.179 C 
ATOM      7  C   UNL     1     -10.532 -36.318  37.488  1.00  0.00     0.202 C 
BRANCH   3   8
ATOM      8  C   UNL     1     -11.894 -39.443  35.818  1.00  0.00     0.191 C 
BRANCH   8   9
ATOM      9  O   UNL     1     -12.213 -39.945  34.550  1.00  0.00    -0.394 OA
ATOM     10  H   UNL     1     -13.092 -40.395  34.637  1.00  0.00     0.210 HD
ENDBRANCH   8   9
ENDBRANCH   3   8
BRANCH   4  11
ATOM     11  O   UNL     1     -10.972 -37.443  33.928  1.00  0.00    -0.387 OA
ATOM     12  H   UNL     1     -10.129 -36.972  33.693  1.00  0.00     0.211 HD
ENDBRANCH   4  11
BRANCH   6  13
ATOM     13  O   UNL     1      -9.215 -37.697  36.031  1.00  0.00    -0.387 OA
ATOM     14  H   UNL     1      -8.319 -37.322  35.824  1.00  0.00     0.211 HD
ENDBRANCH   6  13
BRANCH   7  15
ATOM     15  O   UNL     1     -11.210 -35.085  37.559  1.00  0.00    -0.385 OA
ATOM     16  H   UNL     1     -10.734 -34.535  38.239  1.00  0.00     0.211 HD
ENDBRANCH   7  15
ENDBRANCH   1   2
BRANCH   1  17
ATOM     17  C   UNL     1     -12.169 -38.194  40.197  1.00  0.00     0.224 C 
ATOM     18  C   UNL     1     -13.689 -38.189  40.428  1.00  0.00     0.208 C 
ATOM     19  O   UNL     1     -11.528 -38.166  41.468  1.00  0.00    -0.337 OA
ATOM     20  C   UNL     1     -13.828 -37.570  41.799  1.00  0.00     0.180 C 
ATOM     21  C   UNL     1     -12.500 -37.930  42.464  1.00  0.00     0.179 C 
BRANCH  17  22
ATOM     22  C   UNL     1     -11.732 -39.488  39.488  1.00  0.00     0.225 C 
BRANCH  22  23
ATOM     23  O   UNL     1     -11.123 -40.377  40.386  1.00  0.00    -0.391 OA
ATOM     24  H   UNL     1     -10.311 -40.726  39.933  1.00  0.00     0.210 HD
ENDBRANCH  22  23
ENDBRANCH  17  22
BRANCH  18  25
ATOM     25  O   UNL     1     -14.367 -37.444  39.443  1.00  0.00    -0.385 OA
ATOM     26  H   UNL     1     -13.669 -37.079  38.838  1.00  0.00     0.211 HD
ENDBRANCH  18  25
BRANCH  20  27
ATOM     27  O   UNL     1     -13.952 -36.171  41.700  1.00  0.00    -0.387 OA
ATOM     28  H   UNL     1     -14.226 -35.845  42.593  1.00  0.00     0.211 HD
ENDBRANCH  20  27
BRANCH  21  29
ATOM     29  C   UNL     1     -12.623 -39.180  43.354  1.00  0.00     0.191 C 
BRANCH  29  30
ATOM     30  O   UNL     1     -11.474 -39.975  43.231  1.00  0.00    -0.394 OA
ATOM     31  H   UNL     1     -10.698 -39.358  43.268  1.00  0.00     0.210 HD
ENDBRANCH  29  30
ENDBRANCH  21  29
ENDBRANCH   1  17
TORSDOF 13
ENDMDL
MODEL 4
REMARK VINA RESULT:    -7.000      1.398      6.189
REMARK INTER + INTRA:         -10.933
REMARK INTER:                 -10.598
REMARK INTRA:                  -0.335
REMARK UNBOUND:                -0.249
REMARK SMILES OC[C@H]1O[C@H](O[C@@]2(CO)O[C@H](CO)[C@@H](O)[C@H]2O)[C@H](O)[C@@H](O)[C@H]1O
REMARK SMILES IDX 6 1 5 2 3 3 22 4 4 5 20 6 18 7 2 8 1 9 23 11 21 13 19 15
REMARK SMILES IDX 7 17 16 18 10 19 14 20 11 21 8 22 9 23 17 25 15 27 12 29
REMARK SMILES IDX 13 30
REMARK H PARENT 1 10 23 12 21 14 19 16 9 24 17 26 15 28 13 31
REMARK Flexibility Score: inf
ROOT
ATOM      1  O   UNL     1     -12.610 -36.904  39.355  1.00  0.00    -0.313 OA
ENDROOT
BRANCH   1   2
ATOM      2  C   UNL     1     -12.150 -37.820  40.332  1.00  0.00     0.285 C 
ATOM      3  C   UNL     1     -12.661 -38.733  42.453  1.00  0.00     0.178 C 
ATOM      4  C   UNL     1     -12.432 -40.187  41.958  1.00  0.00     0.177 C 
ATOM      5  O   UNL     1     -13.084 -37.873  41.405  1.00  0.00    -0.341 OA
ATOM      6  C   UNL     1     -11.548 -40.241  40.695  1.00  0.00     0.179 C 
ATOM      7  C   UNL     1     -12.017 -39.200  39.666  1.00  0.00     0.202 C 
BRANCH   3   8
ATOM      8  C   UNL     1     -11.496 -38.132  43.271  1.00  0.00     0.191 C 
BRANCH   8   9
ATOM      9  O   UNL     1     -10.605 -39.153  43.631  1.00  0.00    -0.394 OA
ATOM     10  H   UNL     1     -10.143 -38.848  44.453  1.00  0.00     0.210 HD
ENDBRANCH   8   9
ENDBRANCH   3   8
BRANCH   4  11
ATOM     11  O   UNL     1     -11.872 -40.994  42.967  1.00  0.00    -0.387 OA
ATOM     12  H   UNL     1     -11.895 -40.462  43.807  1.00  0.00     0.211 HD
ENDBRANCH   4  11
BRANCH   6  13
ATOM     13  O   UNL     1     -10.203 -40.005  41.015  1.00  0.00    -0.387 OA
ATOM     14  H   UNL     1      -9.779 -39.581  40.223  1.00  0.00     0.211 HD
ENDBRANCH   6  13
BRANCH   7  15
ATOM     15  O   UNL     1     -13.257 -39.575  39.111  1.00  0.00    -0.385 OA
ATOM     16  H   UNL     1     -13.902 -38.849  39.331  1.00  0.00     0.211 HD
ENDBRANCH   7  15
ENDBRANCH   1   2
BRANCH   1  17
ATOM     17  C   UNL     1     -11.674 -36.607  38.311  1.00  0.00     0.224 C 
ATOM     18  C   UNL     1     -12.058 -35.278  37.639  1.00  0.00     0.208 C 
ATOM     19  O   UNL     1     -11.619 -37.612  37.304  1.00  0.00    -0.337 OA
ATOM     20  C   UNL     1     -12.770 -35.720  36.382  1.00  0.00     0.180 C 
ATOM     21  C   UNL     1     -12.139 -37.084  36.103  1.00  0.00     0.179 C 
BRANCH  17  22
ATOM     22  C   UNL     1     -10.275 -36.510  38.944  1.00  0.00     0.225 C 
BRANCH  22  23
ATOM     23  O   UNL     1      -9.359 -35.920  38.061  1.00  0.00    -0.391 OA
ATOM     24  H   UNL     1      -9.453 -34.938  38.167  1.00  0.00     0.210 HD
ENDBRANCH  22  23
ENDBRANCH  17  22
BRANCH  18  25
ATOM     25  O   UNL     1     -12.888 -34.493  38.464  1.00  0.00    -0.385 OA
ATOM     26  H   UNL     1     -12.621 -33.548  38.311  1.00  0.00     0.211 HD
ENDBRANCH  18  25
BRANCH  20  27
ATOM     27  O   UNL     1     -14.149 -35.869  36.620  1.00  0.00    -0.387 OA
ATOM     28  H   UNL     1     -14.427 -35.102  37.180  1.00  0.00     0.211 HD
ENDBRANCH  20  27
BRANCH  21  29
ATOM     29  C   UNL     1     -11.009 -36.992  35.063  1.00  0.00     0.191 C 
BRANCH  29  30
ATOM     30  O   UNL     1      -9.834 -37.565  35.574  1.00  0.00    -0.394 OA
ATOM     31  H   UNL     1      -9.134 -37.439  34.884  1.00  0.00     0.210 HD
ENDBRANCH  29  30
ENDBRANCH  21  29
ENDBRANCH   1  17
TORSDOF 13
ENDMDL
MODEL 5
REMARK VINA RESULT:    -6.902      1.558      6.132
REMARK INTER + INTRA:         -10.783
REMARK INTER:                  -9.692
REMARK INTRA:                  -1.091
REMARK UNBOUND:                -0.249
REMARK SMILES OC[C@H]1O[C@H](O[C@@]2(CO)O[C@H](CO)[C@@H](O)[C@H]2O)[C@H](O)[C@@H](O)[C@H]1O
REMARK SMILES IDX 6 1 5 2 3 3 22 4 4 5 20 6 18 7 2 8 1 9 23 11 21 13 19 15
REMARK SMILES IDX 7 17 16 18 10 19 14 20 11 21 8 22 9 23 17 25 15 27 12 29
REMARK SMILES IDX 13 30
REMARK H PARENT 1 10 23 12 21 14 19 16 9 24 17 26 15 28 13 31
REMARK Flexibility Score: inf
ROOT
ATOM      1  O   UNL     1     -13.316 -38.486  38.801  1.00  0.00    -0.313 OA
ENDROOT
BRANCH   1   2
ATOM      2  C   UNL     1     -12.698 -39.264  39.811  1.00  0.00     0.285 C 
ATOM      3  C   UNL     1     -12.886 -39.907  42.079  1.00  0.00     0.178 C 
ATOM      4  C   UNL     1     -12.680 -41.409  41.741  1.00  0.00     0.177 C 
ATOM      5  O   UNL     1     -13.476 -39.194  41.001  1.00  0.00    -0.341 OA
ATOM      6  C   UNL     1     -11.975 -41.610  40.384  1.00  0.00     0.179 C 
ATOM      7  C   UNL     1     -12.613 -40.716  39.309  1.00  0.00     0.202 C 
BRANCH   3   8
ATOM      8  C   UNL     1     -11.640 -39.190  42.645  1.00  0.00     0.191 C 
BRANCH   8   9
ATOM      9  O   UNL     1     -12.031 -37.994  43.261  1.00  0.00    -0.394 OA
ATOM     10  H   UNL     1     -11.321 -37.331  43.067  1.00  0.00     0.210 HD
ENDBRANCH   8   9
ENDBRANCH   3   8
BRANCH   4  11
ATOM     11  O   UNL     1     -11.962 -42.072  42.754  1.00  0.00    -0.387 OA
ATOM     12  H   UNL     1     -12.307 -41.732  43.622  1.00  0.00     0.211 HD
ENDBRANCH   4  11
BRANCH   6  13
ATOM     13  O   UNL     1     -10.607 -41.315  40.482  1.00  0.00    -0.387 OA
ATOM     14  H   UNL     1     -10.160 -41.710  39.687  1.00  0.00     0.211 HD
ENDBRANCH   6  13
BRANCH   7  15
ATOM     15  O   UNL     1     -13.904 -41.177  38.983  1.00  0.00    -0.385 OA
ATOM     16  H   UNL     1     -13.875 -41.461  38.029  1.00  0.00     0.211 HD
ENDBRANCH   7  15
ENDBRANCH   1   2
BRANCH   1  17
ATOM     17  C   UNL     1     -12.586 -37.322  38.397  1.00  0.00     0.224 C 
ATOM     18  C   UNL     1     -13.200 -36.076  39.055  1.00  0.00     0.208 C 
ATOM     19  O   UNL     1     -12.583 -37.123  36.988  1.00  0.00    -0.337 OA
ATOM     20  C   UNL     1     -14.047 -35.485  37.952  1.00  0.00     0.180 C 
ATOM     21  C   UNL     1     -13.330 -35.963  36.689  1.00  0.00     0.179 C 
BRANCH  17  22
ATOM     22  C   UNL     1     -11.123 -37.504  38.841  1.00  0.00     0.225 C 
BRANCH  22  23
ATOM     23  O   UNL     1     -10.372 -36.345  38.598  1.00  0.00    -0.391 OA
ATOM     24  H   UNL     1      -9.417 -36.618  38.607  1.00  0.00     0.210 HD
ENDBRANCH  22  23
ENDBRANCH  17  22
BRANCH  18  25
ATOM     25  O   UNL     1     -13.970 -36.406  40.189  1.00  0.00    -0.385 OA
ATOM     26  H   UNL     1     -14.896 -36.558  39.863  1.00  0.00     0.211 HD
ENDBRANCH  18  25
BRANCH  20  27
ATOM     27  O   UNL     1     -15.351 -36.012  37.992  1.00  0.00    -0.387 OA
ATOM     28  H   UNL     1     -15.344 -36.835  37.443  1.00  0.00     0.211 HD
ENDBRANCH  20  27
BRANCH  21  29
ATOM     29  C   UNL     1     -12.386 -34.888  36.122  1.00  0.00     0.191 C 
BRANCH  29  30
ATOM     30  O   UNL     1     -11.163 -35.466  35.752  1.00  0.00    -0.394 OA
ATOM     31  H   UNL     1     -10.546 -34.717  35.549  1.00  0.00     0.210 HD
ENDBRANCH  29  30
ENDBRANCH  21  29
ENDBRANCH   1  17
TORSDOF 13
ENDMDL
MODEL 6
REMARK VINA RESULT:    -6.799      1.596      5.929
REMARK INTER + INTRA:         -10.626
REMARK INTER:                  -9.336
REMARK INTRA:                  -1.290
REMARK UNBOUND:                -0.249
REMARK SMILES OC[C@H]1O[C@H](O[C@@]2(CO)O[C@H](CO)[C@@H](O)[C@H]2O)[C@H](O)[C@@H](O)[C@H]1O
REMARK SMILES IDX 6 1 5 2 3 3 22 4 4 5 20 6 18 7 2 8 1 9 23 11 21 13 19 15
REMARK SMILES IDX 7 17 16 18 10 19 14 20 11 21 8 22 9 23 17 25 15 27 12 29
REMARK SMILES IDX 13 30
REMARK H PARENT 1 10 23 12 21 14 19 16 9 24 17 26 15 28 13 31
REMARK Flexibility Score: inf
ROOT
ATOM      1  O   UNL     1     -12.836 -38.273  38.249  1.00  0.00    -0.313 OA
ENDROOT
BRANCH   1   2
ATOM      2  C   UNL     1     -12.414 -38.436  39.592  1.00  0.00     0.285 C 
ATOM      3  C   UNL     1     -13.209 -38.810  41.788  1.00  0.00     0.178 C 
ATOM      4  C   UNL     1     -12.182 -39.947  42.039  1.00  0.00     0.177 C 
ATOM      5  O   UNL     1     -13.549 -38.691  40.413  1.00  0.00    -0.341 OA
ATOM      6  C   UNL     1     -10.969 -39.858  41.089  1.00  0.00     0.179 C 
ATOM      7  C   UNL     1     -11.435 -39.620  39.644  1.00  0.00     0.202 C 
BRANCH   3   8
ATOM      8  C   UNL     1     -12.842 -37.449  42.421  1.00  0.00     0.191 C 
BRANCH   8   9
ATOM      9  O   UNL     1     -13.840 -36.512  42.123  1.00  0.00    -0.394 OA
ATOM     10  H   UNL     1     -14.278 -36.283  42.982  1.00  0.00     0.210 HD
ENDBRANCH   8   9
ENDBRANCH   3   8
BRANCH   4  11
ATOM     11  O   UNL     1     -11.741 -39.959  43.375  1.00  0.00    -0.387 OA
ATOM     12  H   UNL     1     -10.781 -39.701  43.365  1.00  0.00     0.211 HD
ENDBRANCH   4  11
BRANCH   6  13
ATOM     13  O   UNL     1     -10.106 -38.823  41.476  1.00  0.00    -0.387 OA
ATOM     14  H   UNL     1     -10.625 -37.976  41.445  1.00  0.00     0.211 HD
ENDBRANCH   6  13
BRANCH   7  15
ATOM     15  O   UNL     1     -12.062 -40.772  39.128  1.00  0.00    -0.385 OA
ATOM     16  H   UNL     1     -13.005 -40.753  39.448  1.00  0.00     0.211 HD
ENDBRANCH   7  15
ENDBRANCH   1   2
BRANCH   1  17
ATOM     17  C   UNL     1     -13.276 -36.954  37.904  1.00  0.00     0.224 C 
ATOM     18  C   UNL     1     -12.847 -36.628  36.464  1.00  0.00     0.208 C 
ATOM     19  O   UNL     1     -12.752 -35.946  38.761  1.00  0.00    -0.337 OA
ATOM     20  C   UNL     1     -11.615 -35.777  36.656  1.00  0.00     0.180 C 
ATOM     21  C   UNL     1     -11.859 -35.139  38.024  1.00  0.00     0.179 C 
BRANCH  17  22
ATOM     22  C   UNL     1     -14.810 -36.919  38.034  1.00  0.00     0.225 C 
BRANCH  22  23
ATOM     23  O   UNL     1     -15.204 -36.261  39.208  1.00  0.00    -0.391 OA
ATOM     24  H   UNL     1     -14.541 -36.503  39.906  1.00  0.00     0.210 HD
ENDBRANCH  22  23
ENDBRANCH  17  22
BRANCH  18  25
ATOM     25  O   UNL     1     -12.570 -37.794  35.723  1.00  0.00    -0.385 OA
ATOM     26  H   UNL     1     -11.581 -37.840  35.633  1.00  0.00     0.211 HD
ENDBRANCH  18  25
BRANCH  20  27
ATOM     27  O   UNL     1     -10.459 -36.579  36.700  1.00  0.00    -0.387 OA
ATOM     28  H   UNL     1      -9.823 -36.200  36.043  1.00  0.00     0.211 HD
ENDBRANCH  20  27
BRANCH  21  29
ATOM     29  C   UNL     1     -12.445 -33.721  37.901  1.00  0.00     0.191 C 
BRANCH  29  30
ATOM     30  O   UNL     1     -13.545 -33.578  38.760  1.00  0.00    -0.394 OA
ATOM     31  H   UNL     1     -13.429 -34.246  39.483  1.00  0.00     0.210 HD
ENDBRANCH  29  30
ENDBRANCH  21  29
ENDBRANCH   1  17
TORSDOF 13
ENDMDL
MODEL 7
REMARK VINA RESULT:    -6.764      1.531      5.837
REMARK INTER + INTRA:         -10.572
REMARK INTER:                  -9.581
REMARK INTRA:                  -0.990
REMARK UNBOUND:                -0.249
REMARK SMILES OC[C@H]1O[C@H](O[C@@]2(CO)O[C@H](CO)[C@@H](O)[C@H]2O)[C@H](O)[C@@H](O)[C@H]1O
REMARK SMILES IDX 6 1 5 2 3 3 22 4 4 5 20 6 18 7 2 8 1 9 23 11 21 13 19 15
REMARK SMILES IDX 7 17 16 18 10 19 14 20 11 21 8 22 9 23 17 25 15 27 12 29
REMARK SMILES IDX 13 30
REMARK H PARENT 1 10 23 12 21 14 19 16 9 24 17 26 15 28 13 31
REMARK Flexibility Score: inf
ROOT
ATOM      1  O   UNL     1     -11.067 -38.637  38.216  1.00  0.00    -0.313 OA
ENDROOT
BRANCH   1   2
ATOM      2  C   UNL     1     -11.585 -38.851  39.517  1.00  0.00     0.285 C 
ATOM      3  C   UNL     1     -11.923 -40.513  41.165  1.00  0.00     0.178 C 
ATOM      4  C   UNL     1     -11.322 -39.621  42.285  1.00  0.00     0.177 C 
ATOM      5  O   UNL     1     -11.377 -40.209  39.889  1.00  0.00    -0.341 OA
ATOM      6  C   UNL     1     -11.356 -38.123  41.919  1.00  0.00     0.179 C 
ATOM      7  C   UNL     1     -10.849 -37.909  40.484  1.00  0.00     0.202 C 
BRANCH   3   8
ATOM      8  C   UNL     1     -13.467 -40.577  41.142  1.00  0.00     0.191 C 
BRANCH   8   9
ATOM      9  O   UNL     1     -13.884 -41.359  40.056  1.00  0.00    -0.394 OA
ATOM     10  H   UNL     1     -13.480 -42.255  40.182  1.00  0.00     0.210 HD
ENDBRANCH   8   9
ENDBRANCH   3   8
BRANCH   4  11
ATOM     11  O   UNL     1     -11.975 -39.827  43.515  1.00  0.00    -0.387 OA
ATOM     12  H   UNL     1     -12.779 -39.242  43.515  1.00  0.00     0.211 HD
ENDBRANCH   4  11
BRANCH   6  13
ATOM     13  O   UNL     1     -12.656 -37.609  42.035  1.00  0.00    -0.387 OA
ATOM     14  H   UNL     1     -12.674 -37.025  42.838  1.00  0.00     0.211 HD
ENDBRANCH   6  13
BRANCH   7  15
ATOM     15  O   UNL     1      -9.462 -38.145  40.407  1.00  0.00    -0.385 OA
ATOM     16  H   UNL     1      -9.270 -38.420  39.469  1.00  0.00     0.211 HD
ENDBRANCH   7  15
ENDBRANCH   1   2
BRANCH   1  17
ATOM     17  C   UNL     1     -12.009 -38.139  37.259  1.00  0.00     0.224 C 
ATOM     18  C   UNL     1     -11.294 -37.202  36.272  1.00  0.00     0.208 C 
ATOM     19  O   UNL     1     -13.085 -37.420  37.852  1.00  0.00    -0.337 OA
ATOM     20  C   UNL     1     -11.640 -35.826  36.791  1.00  0.00     0.180 C 
ATOM     21  C   UNL     1     -12.980 -36.060  37.490  1.00  0.00     0.179 C 
BRANCH  17  22
ATOM     22  C   UNL     1     -12.613 -39.346  36.519  1.00  0.00     0.225 C 
BRANCH  22  23
ATOM     23  O   UNL     1     -11.649 -39.993  35.732  1.00  0.00    -0.391 OA
ATOM     24  H   UNL     1     -10.763 -39.682  36.056  1.00  0.00     0.210 HD
ENDBRANCH  22  23
ENDBRANCH  17  22
BRANCH  18  25
ATOM     25  O   UNL     1      -9.902 -37.421  36.254  1.00  0.00    -0.385 OA
ATOM     26  H   UNL     1      -9.730 -38.173  36.880  1.00  0.00     0.211 HD
ENDBRANCH  18  25
BRANCH  20  27
ATOM     27  O   UNL     1     -10.681 -35.392  37.724  1.00  0.00    -0.387 OA
ATOM     28  H   UNL     1     -10.952 -35.757  38.603  1.00  0.00     0.211 HD
ENDBRANCH  20  27
BRANCH  21  29
ATOM     29  C   UNL     1     -14.171 -35.685  36.591  1.00  0.00     0.191 C 
BRANCH  29  30
ATOM     30  O   UNL     1     -15.378 -35.943  37.257  1.00  0.00    -0.394 OA
ATOM     31  H   UNL     1     -15.152 -36.069  38.214  1.00  0.00     0.210 HD
ENDBRANCH  29  30
ENDBRANCH  21  29
ENDBRANCH   1  17
TORSDOF 13
ENDMDL
MODEL 8
REMARK VINA RESULT:    -6.763      1.545      5.872
REMARK INTER + INTRA:         -10.570
REMARK INTER:                  -9.407
REMARK INTRA:                  -1.163
REMARK UNBOUND:                -0.249
REMARK SMILES OC[C@H]1O[C@H](O[C@@]2(CO)O[C@H](CO)[C@@H](O)[C@H]2O)[C@H](O)[C@@H](O)[C@H]1O
REMARK SMILES IDX 6 1 5 2 3 3 22 4 4 5 20 6 18 7 2 8 1 9 23 11 21 13 19 15
REMARK SMILES IDX 7 17 16 18 10 19 14 20 11 21 8 22 9 23 17 25 15 27 12 29
REMARK SMILES IDX 13 30
REMARK H PARENT 1 10 23 12 21 14 19 16 9 24 17 26 15 28 13 31
REMARK Flexibility Score: inf
ROOT
ATOM      1  O   UNL     1     -11.321 -38.924  39.049  1.00  0.00    -0.313 OA
ENDROOT
BRANCH   1   2
ATOM      2  C   UNL     1     -11.712 -38.625  40.378  1.00  0.00     0.285 C 
ATOM      3  C   UNL     1     -13.566 -38.626  41.846  1.00  0.00     0.178 C 
ATOM      4  C   UNL     1     -12.769 -39.353  42.962  1.00  0.00     0.177 C 
ATOM      5  O   UNL     1     -13.087 -38.952  40.548  1.00  0.00    -0.341 OA
ATOM      6  C   UNL     1     -11.244 -39.194  42.789  1.00  0.00     0.179 C 
ATOM      7  C   UNL     1     -10.839 -39.460  41.330  1.00  0.00     0.202 C 
BRANCH   3   8
ATOM      8  C   UNL     1     -13.725 -37.102  42.046  1.00  0.00     0.191 C 
BRANCH   8   9
ATOM      9  O   UNL     1     -14.804 -36.641  41.278  1.00  0.00    -0.394 OA
ATOM     10  H   UNL     1     -15.414 -36.172  41.902  1.00  0.00     0.210 HD
ENDBRANCH   8   9
ENDBRANCH   3   8
BRANCH   4  11
ATOM     11  O   UNL     1     -13.152 -38.910  44.242  1.00  0.00    -0.387 OA
ATOM     12  H   UNL     1     -12.561 -38.144  44.471  1.00  0.00     0.211 HD
ENDBRANCH   4  11
BRANCH   6  13
ATOM     13  O   UNL     1     -10.831 -37.905  43.159  1.00  0.00    -0.387 OA
ATOM     14  H   UNL     1     -10.259 -37.998  43.966  1.00  0.00     0.211 HD
ENDBRANCH   6  13
BRANCH   7  15
ATOM     15  O   UNL     1     -10.977 -40.827  41.019  1.00  0.00    -0.385 OA
ATOM     16  H   UNL     1     -10.299 -41.315  41.562  1.00  0.00     0.211 HD
ENDBRANCH   7  15
ENDBRANCH   1   2
BRANCH   1  17
ATOM     17  C   UNL     1     -11.630 -37.914  38.082  1.00  0.00     0.224 C 
ATOM     18  C   UNL     1     -12.755 -38.413  37.159  1.00  0.00     0.208 C 
ATOM     19  O   UNL     1     -10.518 -37.556  37.269  1.00  0.00    -0.337 OA
ATOM     20  C   UNL     1     -12.013 -38.861  35.922  1.00  0.00     0.180 C 
ATOM     21  C   UNL     1     -10.762 -37.982  35.946  1.00  0.00     0.179 C 
BRANCH  17  22
ATOM     22  C   UNL     1     -12.073 -36.651  38.843  1.00  0.00     0.225 C 
BRANCH  22  23
ATOM     23  O   UNL     1     -13.434 -36.386  38.636  1.00  0.00    -0.391 OA
ATOM     24  H   UNL     1     -13.916 -36.738  39.430  1.00  0.00     0.210 HD
ENDBRANCH  22  23
ENDBRANCH  17  22
BRANCH  18  25
ATOM     25  O   UNL     1     -13.485 -39.467  37.745  1.00  0.00    -0.385 OA
ATOM     26  H   UNL     1     -13.511 -40.196  37.071  1.00  0.00     0.211 HD
ENDBRANCH  18  25
BRANCH  20  27
ATOM     27  O   UNL     1     -11.650 -40.216  36.026  1.00  0.00    -0.387 OA
ATOM     28  H   UNL     1     -11.118 -40.432  35.220  1.00  0.00     0.211 HD
ENDBRANCH  20  27
BRANCH  21  29
ATOM     29  C   UNL     1     -10.909 -36.748  35.038  1.00  0.00     0.191 C 
BRANCH  29  30
ATOM     30  O   UNL     1     -10.684 -35.577  35.777  1.00  0.00    -0.394 OA
ATOM     31  H   UNL     1     -11.012 -34.824  35.220  1.00  0.00     0.210 HD
ENDBRANCH  29  30
ENDBRANCH  21  29
ENDBRANCH   1  17
TORSDOF 13
ENDMDL
MODEL 9
REMARK VINA RESULT:    -6.697      1.429      2.816
REMARK INTER + INTRA:         -10.469
REMARK INTER:                  -9.329
REMARK INTRA:                  -1.141
REMARK UNBOUND:                -0.249
REMARK SMILES OC[C@H]1O[C@H](O[C@@]2(CO)O[C@H](CO)[C@@H](O)[C@H]2O)[C@H](O)[C@@H](O)[C@H]1O
REMARK SMILES IDX 6 1 5 2 3 3 22 4 4 5 20 6 18 7 2 8 1 9 23 11 21 13 19 15
REMARK SMILES IDX 7 17 16 18 10 19 14 20 11 21 8 22 9 23 17 25 15 27 12 29
REMARK SMILES IDX 13 30
REMARK H PARENT 1 10 23 12 21 14 19 16 9 24 17 26 15 28 13 31
REMARK Flexibility Score: inf
ROOT
ATOM      1  O   UNL     1     -12.941 -38.198  39.823  1.00  0.00    -0.313 OA
ENDROOT
BRANCH   1   2
ATOM      2  C   UNL     1     -12.175 -37.713  38.734  1.00  0.00     0.285 C 
ATOM      3  C   UNL     1     -12.137 -37.557  36.374  1.00  0.00     0.178 C 
ATOM      4  C   UNL     1     -11.796 -36.043  36.412  1.00  0.00     0.177 C 
ATOM      5  O   UNL     1     -12.872 -37.967  37.519  1.00  0.00    -0.341 OA
ATOM      6  C   UNL     1     -11.169 -35.619  37.757  1.00  0.00     0.179 C 
ATOM      7  C   UNL     1     -11.971 -36.202  38.931  1.00  0.00     0.202 C 
BRANCH   3   8
ATOM      8  C   UNL     1     -10.939 -38.487  36.082  1.00  0.00     0.191 C 
BRANCH   8   9
ATOM      9  O   UNL     1     -11.403 -39.793  35.873  1.00  0.00    -0.394 OA
ATOM     10  H   UNL     1     -10.609 -40.385  35.913  1.00  0.00     0.210 HD
ENDBRANCH   8   9
ENDBRANCH   3   8
BRANCH   4  11
ATOM     11  O   UNL     1     -10.943 -35.679  35.352  1.00  0.00    -0.387 OA
ATOM     12  H   UNL     1     -11.439 -35.021  34.796  1.00  0.00     0.211 HD
ENDBRANCH   4  11
BRANCH   6  13
ATOM     13  O   UNL     1      -9.836 -36.049  37.844  1.00  0.00    -0.387 OA
ATOM     14  H   UNL     1      -9.631 -36.550  37.011  1.00  0.00     0.211 HD
ENDBRANCH   6  13
BRANCH   7  15
ATOM     15  O   UNL     1     -13.225 -35.568  39.038  1.00  0.00    -0.385 OA
ATOM     16  H   UNL     1     -13.238 -34.841  38.357  1.00  0.00     0.211 HD
ENDBRANCH   7  15
ENDBRANCH   1   2
BRANCH   1  17
ATOM     17  C   UNL     1     -12.979 -39.624  39.953  1.00  0.00     0.224 C 
ATOM     18  C   UNL     1     -13.290 -40.000  41.411  1.00  0.00     0.208 C 
ATOM     19  O   UNL     1     -11.758 -40.254  39.584  1.00  0.00    -0.337 OA
ATOM     20  C   UNL     1     -11.932 -40.346  41.974  1.00  0.00     0.180 C 
ATOM     21  C   UNL     1     -11.166 -40.814  40.736  1.00  0.00     0.179 C 
BRANCH  17  22
ATOM     22  C   UNL     1     -14.076 -40.155  39.012  1.00  0.00     0.225 C 
BRANCH  22  23
ATOM     23  O   UNL     1     -13.519 -40.830  37.915  1.00  0.00    -0.391 OA
ATOM     24  H   UNL     1     -13.895 -40.405  37.100  1.00  0.00     0.210 HD
ENDBRANCH  22  23
ENDBRANCH  17  22
BRANCH  18  25
ATOM     25  O   UNL     1     -13.892 -38.935  42.111  1.00  0.00    -0.385 OA
ATOM     26  H   UNL     1     -13.151 -38.369  42.451  1.00  0.00     0.211 HD
ENDBRANCH  18  25
BRANCH  20  27
ATOM     27  O   UNL     1     -11.314 -39.204  42.517  1.00  0.00    -0.387 OA
ATOM     28  H   UNL     1     -11.863 -38.921  43.290  1.00  0.00     0.211 HD
ENDBRANCH  20  27
BRANCH  21  29
ATOM     29  C   UNL     1     -11.164 -42.347  40.607  1.00  0.00     0.191 C 
BRANCH  29  30
ATOM     30  O   UNL     1     -11.528 -42.723  39.306  1.00  0.00    -0.394 OA
ATOM     31  H   UNL     1     -11.108 -43.605  39.137  1.00  0.00     0.210 HD
ENDBRANCH  29  30
ENDBRANCH  21  29
ENDBRANCH   1  17
TORSDOF 13
ENDMDL
