MODEL 1
REMARK VINA RESULT:    -6.037      0.000      0.000
REMARK INTER + INTRA:         -10.833
REMARK INTER:                  -8.860
REMARK INTRA:                  -1.972
REMARK UNBOUND:                -1.972
REMARK SMILES O=c1c(O[C@@H]2O[C@@H](CO)[C@@H](O)[C@@H](O)[C@@H]2O)c(-c2ccc(O)c(O)c2)oc2cc(O)cc(O)c12
REMARK SMILES IDX 4 1 3 2 16 3 25 4 2 5 26 6 1 7 33 8 27 9 31 10 28 11 30 12
REMARK SMILES IDX 17 13 18 14 19 15 20 16 24 17 22 18 21 19 23 21 32 23 29 25
REMARK SMILES IDX 5 27 14 28 6 29 12 30 7 31 10 32 15 33 13 35 8 37 9 38 11 40
REMARK H PARENT 21 20 23 22 32 24 29 26 15 34 13 36 9 39 11 41
REMARK Flexibility Score: inf
ROOT
ATOM      1  O   UNL     1      15.400  37.773 122.934  1.00  0.00    -0.454 OA
ENDROOT
BRANCH   1   2
ATOM      2  C   UNL     1      14.397  38.033 123.890  1.00  0.00     0.214 A 
ATOM      3  C   UNL     1      13.401  37.051 124.084  1.00  0.00     0.180 A 
ATOM      4  O   UNL     1      12.489  37.200 125.037  1.00  0.00    -0.452 OA
ATOM      5  C   UNL     1      14.351  39.197 124.690  1.00  0.00     0.239 A 
ATOM      6  C   UNL     1      12.426  38.266 125.825  1.00  0.00     0.146 A 
ATOM      7  O   UNL     1      15.198  40.118 124.528  1.00  0.00    -0.285 OA
ATOM      8  C   UNL     1      13.349  39.326 125.678  1.00  0.00     0.111 A 
ATOM      9  C   UNL     1      11.426  38.329 126.801  1.00  0.00     0.094 A 
ATOM     10  C   UNL     1      13.238  40.456 126.525  1.00  0.00     0.134 A 
ATOM     11  C   UNL     1      11.322  39.441 127.635  1.00  0.00     0.123 A 
ATOM     12  C   UNL     1      12.222  40.501 127.495  1.00  0.00     0.093 A 
BRANCH   3  13
ATOM     13  C   UNL     1      13.347  35.825 123.254  1.00  0.00     0.025 A 
ATOM     14  C   UNL     1      14.157  34.713 123.549  1.00  0.00     0.016 A 
ATOM     15  C   UNL     1      14.109  33.573 122.746  1.00  0.00     0.051 A 
ATOM     16  C   UNL     1      13.261  33.531 121.630  1.00  0.00     0.157 A 
ATOM     17  C   UNL     1      12.514  35.786 122.124  1.00  0.00     0.062 A 
ATOM     18  C   UNL     1      12.463  34.640 121.318  1.00  0.00     0.158 A 
BRANCH  16  19
ATOM     19  O   UNL     1      13.210  32.395 120.825  1.00  0.00    -0.504 OA
ATOM     20  H   UNL     1      12.435  31.743 120.876  1.00  0.00     0.293 HD
ENDBRANCH  16  19
BRANCH  18  21
ATOM     21  O   UNL     1      11.621  34.596 120.207  1.00  0.00    -0.504 OA
ATOM     22  H   UNL     1      11.556  33.771 119.623  1.00  0.00     0.293 HD
ENDBRANCH  18  21
ENDBRANCH   3  13
BRANCH  10  23
ATOM     23  O   UNL     1      14.122  41.530 126.414  1.00  0.00    -0.507 OA
ATOM     24  H   UNL     1      15.006  41.548 126.910  1.00  0.00     0.293 HD
ENDBRANCH  10  23
BRANCH  11  25
ATOM     25  O   UNL     1      10.317  39.485 128.600  1.00  0.00    -0.508 OA
ATOM     26  H   UNL     1      10.489  39.849 129.529  1.00  0.00     0.293 HD
ENDBRANCH  11  25
ENDBRANCH   1   2
BRANCH   1  27
ATOM     27  C   UNL     1      15.501  38.308 121.610  1.00  0.00     0.339 C 
ATOM     28  C   UNL     1      16.901  38.925 121.399  1.00  0.00     0.214 C 
ATOM     29  O   UNL     1      15.215  37.321 120.624  1.00  0.00    -0.332 OA
ATOM     30  C   UNL     1      17.968  37.817 121.367  1.00  0.00     0.180 C 
ATOM     31  C   UNL     1      16.134  36.240 120.683  1.00  0.00     0.179 C 
ATOM     32  C   UNL     1      17.567  36.724 120.361  1.00  0.00     0.177 C 
BRANCH  28  33
ATOM     33  O   UNL     1      17.193  39.826 122.437  1.00  0.00    -0.384 OA
ATOM     34  H   UNL     1      18.061  40.254 122.212  1.00  0.00     0.211 HD
ENDBRANCH  28  33
BRANCH  30  35
ATOM     35  O   UNL     1      19.217  38.354 121.008  1.00  0.00    -0.387 OA
ATOM     36  H   UNL     1      19.198  38.494 120.026  1.00  0.00     0.211 HD
ENDBRANCH  30  35
BRANCH  31  37
ATOM     37  C   UNL     1      15.674  35.154 119.701  1.00  0.00     0.191 C 
BRANCH  37  38
ATOM     38  O   UNL     1      16.726  34.264 119.433  1.00  0.00    -0.394 OA
ATOM     39  H   UNL     1      16.386  33.633 118.747  1.00  0.00     0.210 HD
ENDBRANCH  37  38
ENDBRANCH  31  37
BRANCH  32  40
ATOM     40  O   UNL     1      17.618  37.229 119.046  1.00  0.00    -0.387 OA
ATOM     41  H   UNL     1      18.575  37.387 118.835  1.00  0.00     0.211 HD
ENDBRANCH  32  40
ENDBRANCH   1  27
TORSDOF 12
ENDMDL
MODEL 2
REMARK VINA RESULT:    -6.002      2.006      2.578
REMARK INTER + INTRA:         -10.782
REMARK INTER:                  -8.873
REMARK INTRA:                  -1.909
REMARK UNBOUND:                -1.972
REMARK SMILES O=c1c(O[C@@H]2O[C@@H](CO)[C@@H](O)[C@@H](O)[C@@H]2O)c(-c2ccc(O)c(O)c2)oc2cc(O)cc(O)c12
REMARK SMILES IDX 4 1 3 2 16 3 25 4 2 5 26 6 1 7 33 8 27 9 31 10 28 11 30 12
REMARK SMILES IDX 17 13 18 14 19 15 20 16 24 17 22 18 21 19 23 21 32 23 29 25
REMARK SMILES IDX 5 27 14 28 6 29 12 30 7 31 10 32 15 33 13 35 8 37 9 38 11 40
REMARK H PARENT 21 20 23 22 32 24 29 26 15 34 13 36 9 39 11 41
REMARK Flexibility Score: inf
ROOT
ATOM      1  O   UNL     1      14.326  38.099 124.747  1.00  0.00    -0.454 OA
ENDROOT
BRANCH   1   2
ATOM      2  C   UNL     1      13.387  38.740 125.582  1.00  0.00     0.214 A 
ATOM      3  C   UNL     1      12.286  37.984 126.036  1.00  0.00     0.180 A 
ATOM      4  O   UNL     1      11.424  38.509 126.900  1.00  0.00    -0.452 OA
ATOM      5  C   UNL     1      13.505  40.080 126.018  1.00  0.00     0.239 A 
ATOM      6  C   UNL     1      11.511  39.753 127.353  1.00  0.00     0.146 A 
ATOM      7  O   UNL     1      14.453  40.805 125.609  1.00  0.00    -0.285 OA
ATOM      8  C   UNL     1      12.553  40.605 126.920  1.00  0.00     0.111 A 
ATOM      9  C   UNL     1      10.553  40.212 128.262  1.00  0.00     0.094 A 
ATOM     10  C   UNL     1      12.602  41.933 127.411  1.00  0.00     0.134 A 
ATOM     11  C   UNL     1      10.607  41.518 128.746  1.00  0.00     0.123 A 
ATOM     12  C   UNL     1      11.625  42.376 128.319  1.00  0.00     0.093 A 
BRANCH   3  13
ATOM     13  C   UNL     1      12.061  36.591 125.588  1.00  0.00     0.025 A 
ATOM     14  C   UNL     1      12.858  35.536 126.069  1.00  0.00     0.016 A 
ATOM     15  C   UNL     1      12.647  34.231 125.621  1.00  0.00     0.051 A 
ATOM     16  C   UNL     1      11.644  33.962 124.678  1.00  0.00     0.157 A 
ATOM     17  C   UNL     1      11.071  36.320 124.628  1.00  0.00     0.062 A 
ATOM     18  C   UNL     1      10.857  35.009 124.180  1.00  0.00     0.158 A 
BRANCH  16  19
ATOM     19  O   UNL     1      11.430  32.662 124.228  1.00  0.00    -0.504 OA
ATOM     20  H   UNL     1      12.183  32.100 123.849  1.00  0.00     0.293 HD
ENDBRANCH  16  19
BRANCH  18  21
ATOM     21  O   UNL     1       9.861  34.739 123.241  1.00  0.00    -0.504 OA
ATOM     22  H   UNL     1       9.991  34.939 122.257  1.00  0.00     0.293 HD
ENDBRANCH  18  21
ENDBRANCH   3  13
BRANCH  10  23
ATOM     23  O   UNL     1      13.607  42.813 127.008  1.00  0.00    -0.507 OA
ATOM     24  H   UNL     1      14.144  42.659 126.162  1.00  0.00     0.293 HD
ENDBRANCH  10  23
BRANCH  11  25
ATOM     25  O   UNL     1       9.641  41.958 129.649  1.00  0.00    -0.508 OA
ATOM     26  H   UNL     1       9.286  41.356 130.381  1.00  0.00     0.293 HD
ENDBRANCH  11  25
ENDBRANCH   1   2
BRANCH   1  27
ATOM     27  C   UNL     1      14.393  38.141 123.317  1.00  0.00     0.339 C 
ATOM     28  C   UNL     1      15.767  38.687 122.873  1.00  0.00     0.214 C 
ATOM     29  O   UNL     1      14.133  36.864 122.744  1.00  0.00    -0.332 OA
ATOM     30  C   UNL     1      16.874  37.671 123.205  1.00  0.00     0.180 C 
ATOM     31  C   UNL     1      15.091  35.900 123.155  1.00  0.00     0.179 C 
ATOM     32  C   UNL     1      16.502  36.284 122.652  1.00  0.00     0.177 C 
BRANCH  28  33
ATOM     33  O   UNL     1      16.038  39.903 123.526  1.00  0.00    -0.384 OA
ATOM     34  H   UNL     1      15.963  40.620 122.842  1.00  0.00     0.211 HD
ENDBRANCH  28  33
BRANCH  30  35
ATOM     35  O   UNL     1      18.098  38.087 122.653  1.00  0.00    -0.387 OA
ATOM     36  H   UNL     1      18.788  37.446 122.968  1.00  0.00     0.211 HD
ENDBRANCH  30  35
BRANCH  31  37
ATOM     37  C   UNL     1      14.660  34.526 122.623  1.00  0.00     0.191 C 
BRANCH  37  38
ATOM     38  O   UNL     1      13.978  34.668 121.406  1.00  0.00    -0.394 OA
ATOM     39  H   UNL     1      14.646  34.496 120.693  1.00  0.00     0.210 HD
ENDBRANCH  37  38
ENDBRANCH  31  37
BRANCH  32  40
ATOM     40  O   UNL     1      16.520  36.300 121.242  1.00  0.00    -0.387 OA
ATOM     41  H   UNL     1      16.807  37.210 120.969  1.00  0.00     0.211 HD
ENDBRANCH  32  40
ENDBRANCH   1  27
TORSDOF 12
ENDMDL
MODEL 3
REMARK VINA RESULT:    -5.985      1.537      4.783
REMARK INTER + INTRA:         -10.756
REMARK INTER:                  -9.339
REMARK INTRA:                  -1.417
REMARK UNBOUND:                -1.972
REMARK SMILES O=c1c(O[C@@H]2O[C@@H](CO)[C@@H](O)[C@@H](O)[C@@H]2O)c(-c2ccc(O)c(O)c2)oc2cc(O)cc(O)c12
REMARK SMILES IDX 4 1 3 2 16 3 25 4 2 5 26 6 1 7 33 8 27 9 31 10 28 11 30 12
REMARK SMILES IDX 17 13 18 14 19 15 20 16 24 17 22 18 21 19 23 21 32 23 29 25
REMARK SMILES IDX 5 27 14 28 6 29 12 30 7 31 10 32 15 33 13 35 8 37 9 38 11 40
REMARK H PARENT 21 20 23 22 32 24 29 26 15 34 13 36 9 39 11 41
REMARK Flexibility Score: inf
ROOT
ATOM      1  O   UNL     1      13.672  36.711 123.345  1.00  0.00    -0.454 OA
ENDROOT
BRANCH   1   2
ATOM      2  C   UNL     1      13.792  37.928 124.048  1.00  0.00     0.214 A 
ATOM      3  C   UNL     1      14.635  38.921 123.505  1.00  0.00     0.180 A 
ATOM      4  O   UNL     1      14.711  40.119 124.074  1.00  0.00    -0.452 OA
ATOM      5  C   UNL     1      13.092  38.224 125.240  1.00  0.00     0.239 A 
ATOM      6  C   UNL     1      14.052  40.445 125.178  1.00  0.00     0.146 A 
ATOM      7  O   UNL     1      12.355  37.354 125.781  1.00  0.00    -0.285 OA
ATOM      8  C   UNL     1      13.219  39.503 125.824  1.00  0.00     0.111 A 
ATOM      9  C   UNL     1      14.199  41.734 125.699  1.00  0.00     0.094 A 
ATOM     10  C   UNL     1      12.547  39.883 127.012  1.00  0.00     0.134 A 
ATOM     11  C   UNL     1      13.533  42.105 126.866  1.00  0.00     0.123 A 
ATOM     12  C   UNL     1      12.713  41.181 127.522  1.00  0.00     0.093 A 
BRANCH   3  13
ATOM     13  C   UNL     1      15.443  38.675 122.288  1.00  0.00     0.025 A 
ATOM     14  C   UNL     1      14.829  38.473 121.039  1.00  0.00     0.016 A 
ATOM     15  C   UNL     1      15.603  38.222 119.905  1.00  0.00     0.051 A 
ATOM     16  C   UNL     1      17.000  38.159 120.004  1.00  0.00     0.157 A 
ATOM     17  C   UNL     1      16.841  38.591 122.386  1.00  0.00     0.062 A 
ATOM     18  C   UNL     1      17.620  38.342 121.247  1.00  0.00     0.158 A 
BRANCH  16  19
ATOM     19  O   UNL     1      17.777  37.910 118.875  1.00  0.00    -0.504 OA
ATOM     20  H   UNL     1      17.391  37.974 117.940  1.00  0.00     0.293 HD
ENDBRANCH  16  19
BRANCH  18  21
ATOM     21  O   UNL     1      19.010  38.278 121.344  1.00  0.00    -0.504 OA
ATOM     22  H   UNL     1      19.468  37.700 122.038  1.00  0.00     0.293 HD
ENDBRANCH  18  21
ENDBRANCH   3  13
BRANCH  10  23
ATOM     23  O   UNL     1      11.718  38.986 127.688  1.00  0.00    -0.507 OA
ATOM     24  H   UNL     1      12.070  38.384 128.423  1.00  0.00     0.293 HD
ENDBRANCH  10  23
BRANCH  11  25
ATOM     25  O   UNL     1      13.694  43.394 127.371  1.00  0.00    -0.508 OA
ATOM     26  H   UNL     1      13.995  44.161 126.783  1.00  0.00     0.293 HD
ENDBRANCH  11  25
ENDBRANCH   1   2
BRANCH   1  27
ATOM     27  C   UNL     1      14.565  35.592 123.381  1.00  0.00     0.339 C 
ATOM     28  C   UNL     1      13.932  34.442 124.194  1.00  0.00     0.214 C 
ATOM     29  O   UNL     1      14.920  35.165 122.070  1.00  0.00    -0.332 OA
ATOM     30  C   UNL     1      12.729  33.855 123.435  1.00  0.00     0.180 C 
ATOM     31  C   UNL     1      13.784  34.739 121.331  1.00  0.00     0.179 C 
ATOM     32  C   UNL     1      13.136  33.501 121.993  1.00  0.00     0.177 C 
BRANCH  28  33
ATOM     33  O   UNL     1      13.507  34.915 125.449  1.00  0.00    -0.384 OA
ATOM     34  H   UNL     1      12.547  35.153 125.357  1.00  0.00     0.211 HD
ENDBRANCH  28  33
BRANCH  30  35
ATOM     35  O   UNL     1      12.256  32.704 124.088  1.00  0.00    -0.387 OA
ATOM     36  H   UNL     1      12.740  31.931 123.696  1.00  0.00     0.211 HD
ENDBRANCH  30  35
BRANCH  31  37
ATOM     37  C   UNL     1      14.221  34.441 119.890  1.00  0.00     0.191 C 
BRANCH  37  38
ATOM     38  O   UNL     1      15.309  33.556 119.886  1.00  0.00    -0.394 OA
ATOM     39  H   UNL     1      15.977  33.936 120.513  1.00  0.00     0.210 HD
ENDBRANCH  37  38
ENDBRANCH  31  37
BRANCH  32  40
ATOM     40  O   UNL     1      14.047  32.426 121.993  1.00  0.00    -0.387 OA
ATOM     41  H   UNL     1      14.798  32.685 122.588  1.00  0.00     0.211 HD
ENDBRANCH  32  40
ENDBRANCH   1  27
TORSDOF 12
ENDMDL
MODEL 4
REMARK VINA RESULT:    -5.809      1.847      6.720
REMARK INTER + INTRA:         -10.498
REMARK INTER:                  -8.570
REMARK INTRA:                  -1.928
REMARK UNBOUND:                -1.972
REMARK SMILES O=c1c(O[C@@H]2O[C@@H](CO)[C@@H](O)[C@@H](O)[C@@H]2O)c(-c2ccc(O)c(O)c2)oc2cc(O)cc(O)c12
REMARK SMILES IDX 4 1 3 2 16 3 25 4 2 5 26 6 1 7 33 8 27 9 31 10 28 11 30 12
REMARK SMILES IDX 17 13 18 14 19 15 20 16 24 17 22 18 21 19 23 21 32 23 29 25
REMARK SMILES IDX 5 27 14 28 6 29 12 30 7 31 10 32 15 33 13 35 8 37 9 38 11 40
REMARK H PARENT 21 20 23 22 32 24 29 26 15 34 13 36 9 39 11 41
REMARK Flexibility Score: inf
ROOT
ATOM      1  O   UNL     1      14.015  38.627 124.159  1.00  0.00    -0.454 OA
ENDROOT
BRANCH   1   2
ATOM      2  C   UNL     1      14.808  37.823 123.315  1.00  0.00     0.214 A 
ATOM      3  C   UNL     1      14.472  36.457 123.202  1.00  0.00     0.180 A 
ATOM      4  O   UNL     1      15.124  35.675 122.349  1.00  0.00    -0.452 OA
ATOM      5  C   UNL     1      15.891  38.311 122.548  1.00  0.00     0.239 A 
ATOM      6  C   UNL     1      16.130  36.098 121.594  1.00  0.00     0.146 A 
ATOM      7  O   UNL     1      16.249  39.516 122.644  1.00  0.00    -0.285 OA
ATOM      8  C   UNL     1      16.571  37.439 121.670  1.00  0.00     0.111 A 
ATOM      9  C   UNL     1      16.752  35.196 120.726  1.00  0.00     0.094 A 
ATOM     10  C   UNL     1      17.661  37.849 120.862  1.00  0.00     0.134 A 
ATOM     11  C   UNL     1      17.821  35.604 119.930  1.00  0.00     0.123 A 
ATOM     12  C   UNL     1      18.276  36.925 120.001  1.00  0.00     0.093 A 
BRANCH   3  13
ATOM     13  C   UNL     1      13.384  35.855 124.006  1.00  0.00     0.025 A 
ATOM     14  C   UNL     1      13.656  35.212 125.228  1.00  0.00     0.016 A 
ATOM     15  C   UNL     1      12.622  34.631 125.965  1.00  0.00     0.051 A 
ATOM     16  C   UNL     1      11.304  34.675 125.487  1.00  0.00     0.157 A 
ATOM     17  C   UNL     1      12.066  35.878 123.522  1.00  0.00     0.062 A 
ATOM     18  C   UNL     1      11.026  35.297 124.263  1.00  0.00     0.158 A 
BRANCH  16  19
ATOM     19  O   UNL     1      10.270  34.097 126.219  1.00  0.00    -0.504 OA
ATOM     20  H   UNL     1      10.315  34.014 127.228  1.00  0.00     0.293 HD
ENDBRANCH  16  19
BRANCH  18  21
ATOM     21  O   UNL     1       9.715  35.338 123.789  1.00  0.00    -0.504 OA
ATOM     22  H   UNL     1       9.248  36.216 123.596  1.00  0.00     0.293 HD
ENDBRANCH  18  21
ENDBRANCH   3  13
BRANCH  10  23
ATOM     23  O   UNL     1      18.136  39.161 120.907  1.00  0.00    -0.507 OA
ATOM     24  H   UNL     1      17.968  39.816 120.152  1.00  0.00     0.293 HD
ENDBRANCH  10  23
BRANCH  11  25
ATOM     25  O   UNL     1      18.430  34.690 119.073  1.00  0.00    -0.508 OA
ATOM     26  H   UNL     1      19.431  34.541 119.080  1.00  0.00     0.293 HD
ENDBRANCH  11  25
ENDBRANCH   1   2
BRANCH   1  27
ATOM     27  C   UNL     1      14.217  38.892 125.552  1.00  0.00     0.339 C 
ATOM     28  C   UNL     1      14.303  40.415 125.789  1.00  0.00     0.214 C 
ATOM     29  O   UNL     1      13.196  38.300 126.349  1.00  0.00    -0.332 OA
ATOM     30  C   UNL     1      12.930  41.068 125.546  1.00  0.00     0.180 C 
ATOM     31  C   UNL     1      11.914  38.821 126.032  1.00  0.00     0.179 C 
ATOM     32  C   UNL     1      11.845  40.332 126.351  1.00  0.00     0.177 C 
BRANCH  28  33
ATOM     33  O   UNL     1      15.252  40.986 124.923  1.00  0.00    -0.384 OA
ATOM     34  H   UNL     1      14.751  41.559 124.285  1.00  0.00     0.211 HD
ENDBRANCH  28  33
BRANCH  30  35
ATOM     35  O   UNL     1      12.962  42.422 125.922  1.00  0.00    -0.387 OA
ATOM     36  H   UNL     1      12.934  42.954 125.085  1.00  0.00     0.211 HD
ENDBRANCH  30  35
BRANCH  31  37
ATOM     37  C   UNL     1      10.857  38.032 126.817  1.00  0.00     0.191 C 
BRANCH  37  38
ATOM     38  O   UNL     1       9.805  38.877 127.201  1.00  0.00    -0.394 OA
ATOM     39  H   UNL     1      10.121  39.363 128.006  1.00  0.00     0.210 HD
ENDBRANCH  37  38
ENDBRANCH  31  37
BRANCH  32  40
ATOM     40  O   UNL     1      12.037  40.540 127.732  1.00  0.00    -0.387 OA
ATOM     41  H   UNL     1      12.894  41.029 127.832  1.00  0.00     0.211 HD
ENDBRANCH  32  40
ENDBRANCH   1  27
TORSDOF 12
ENDMDL
MODEL 5
REMARK VINA RESULT:    -5.788      2.120      5.261
REMARK INTER + INTRA:         -10.467
REMARK INTER:                  -8.461
REMARK INTRA:                  -2.006
REMARK UNBOUND:                -1.972
REMARK SMILES O=c1c(O[C@@H]2O[C@@H](CO)[C@@H](O)[C@@H](O)[C@@H]2O)c(-c2ccc(O)c(O)c2)oc2cc(O)cc(O)c12
REMARK SMILES IDX 4 1 3 2 16 3 25 4 2 5 26 6 1 7 33 8 27 9 31 10 28 11 30 12
REMARK SMILES IDX 17 13 18 14 19 15 20 16 24 17 22 18 21 19 23 21 32 23 29 25
REMARK SMILES IDX 5 27 14 28 6 29 12 30 7 31 10 32 15 33 13 35 8 37 9 38 11 40
REMARK H PARENT 21 20 23 22 32 24 29 26 15 34 13 36 9 39 11 41
REMARK Flexibility Score: inf
ROOT
ATOM      1  O   UNL     1      12.560  37.474 124.357  1.00  0.00    -0.454 OA
ENDROOT
BRANCH   1   2
ATOM      2  C   UNL     1      13.015  38.698 124.889  1.00  0.00     0.214 A 
ATOM      3  C   UNL     1      14.333  39.099 124.585  1.00  0.00     0.180 A 
ATOM      4  O   UNL     1      14.781  40.285 124.980  1.00  0.00    -0.452 OA
ATOM      5  C   UNL     1      12.218  39.561 125.675  1.00  0.00     0.239 A 
ATOM      6  C   UNL     1      14.058  41.135 125.698  1.00  0.00     0.146 A 
ATOM      7  O   UNL     1      11.046  39.228 126.002  1.00  0.00    -0.285 OA
ATOM      8  C   UNL     1      12.741  40.805 126.093  1.00  0.00     0.111 A 
ATOM      9  C   UNL     1      14.620  42.362 126.064  1.00  0.00     0.094 A 
ATOM     10  C   UNL     1      12.008  41.730 126.876  1.00  0.00     0.134 A 
ATOM     11  C   UNL     1      13.894  43.271 126.831  1.00  0.00     0.123 A 
ATOM     12  C   UNL     1      12.594  42.954 127.239  1.00  0.00     0.093 A 
BRANCH   3  13
ATOM     13  C   UNL     1      15.250  38.231 123.810  1.00  0.00     0.025 A 
ATOM     14  C   UNL     1      15.275  38.274 122.404  1.00  0.00     0.016 A 
ATOM     15  C   UNL     1      16.130  37.436 121.687  1.00  0.00     0.051 A 
ATOM     16  C   UNL     1      16.965  36.535 122.363  1.00  0.00     0.157 A 
ATOM     17  C   UNL     1      16.074  37.313 124.482  1.00  0.00     0.062 A 
ATOM     18  C   UNL     1      16.936  36.473 123.763  1.00  0.00     0.158 A 
BRANCH  16  19
ATOM     19  O   UNL     1      17.821  35.697 121.652  1.00  0.00    -0.504 OA
ATOM     20  H   UNL     1      18.828  35.770 121.738  1.00  0.00     0.293 HD
ENDBRANCH  16  19
BRANCH  18  21
ATOM     21  O   UNL     1      17.767  35.575 124.433  1.00  0.00    -0.504 OA
ATOM     22  H   UNL     1      17.630  34.574 124.365  1.00  0.00     0.293 HD
ENDBRANCH  18  21
ENDBRANCH   3  13
BRANCH  10  23
ATOM     23  O   UNL     1      10.707  41.446 127.295  1.00  0.00    -0.507 OA
ATOM     24  H   UNL     1      10.522  40.898 128.128  1.00  0.00     0.293 HD
ENDBRANCH  10  23
BRANCH  11  25
ATOM     25  O   UNL     1      14.472  44.488 127.189  1.00  0.00    -0.508 OA
ATOM     26  H   UNL     1      14.118  45.037 127.961  1.00  0.00     0.293 HD
ENDBRANCH  11  25
ENDBRANCH   1   2
BRANCH   1  27
ATOM     27  C   UNL     1      12.397  36.230 125.048  1.00  0.00     0.339 C 
ATOM     28  C   UNL     1      10.947  35.725 124.881  1.00  0.00     0.214 C 
ATOM     29  O   UNL     1      13.338  35.258 124.604  1.00  0.00    -0.332 OA
ATOM     30  C   UNL     1      10.696  35.304 123.422  1.00  0.00     0.180 C 
ATOM     31  C   UNL     1      13.179  34.965 123.223  1.00  0.00     0.179 C 
ATOM     32  C   UNL     1      11.794  34.332 122.956  1.00  0.00     0.177 C 
BRANCH  28  33
ATOM     33  O   UNL     1      10.039  36.737 125.238  1.00  0.00    -0.384 OA
ATOM     34  H   UNL     1      10.118  36.861 126.221  1.00  0.00     0.211 HD
ENDBRANCH  28  33
BRANCH  30  35
ATOM     35  O   UNL     1       9.438  34.688 123.303  1.00  0.00    -0.387 OA
ATOM     36  H   UNL     1       9.550  33.746 123.595  1.00  0.00     0.211 HD
ENDBRANCH  30  35
BRANCH  31  37
ATOM     37  C   UNL     1      14.317  34.033 122.787  1.00  0.00     0.191 C 
BRANCH  37  38
ATOM     38  O   UNL     1      13.859  33.126 121.820  1.00  0.00    -0.394 OA
ATOM     39  H   UNL     1      14.285  33.394 120.966  1.00  0.00     0.210 HD
ENDBRANCH  37  38
ENDBRANCH  31  37
BRANCH  32  40
ATOM     40  O   UNL     1      11.687  33.107 123.646  1.00  0.00    -0.387 OA
ATOM     41  H   UNL     1      11.182  33.291 124.481  1.00  0.00     0.211 HD
ENDBRANCH  32  40
ENDBRANCH   1  27
TORSDOF 12
ENDMDL
MODEL 6
REMARK VINA RESULT:    -5.768     10.271     13.827
REMARK INTER + INTRA:         -10.438
REMARK INTER:                  -9.004
REMARK INTRA:                  -1.433
REMARK UNBOUND:                -1.972
REMARK SMILES O=c1c(O[C@@H]2O[C@@H](CO)[C@@H](O)[C@@H](O)[C@@H]2O)c(-c2ccc(O)c(O)c2)oc2cc(O)cc(O)c12
REMARK SMILES IDX 4 1 3 2 16 3 25 4 2 5 26 6 1 7 33 8 27 9 31 10 28 11 30 12
REMARK SMILES IDX 17 13 18 14 19 15 20 16 24 17 22 18 21 19 23 21 32 23 29 25
REMARK SMILES IDX 5 27 14 28 6 29 12 30 7 31 10 32 15 33 13 35 8 37 9 38 11 40
REMARK H PARENT 21 20 23 22 32 24 29 26 15 34 13 36 9 39 11 41
REMARK Flexibility Score: inf
ROOT
ATOM      1  O   UNL     1      25.080  31.445 121.423  1.00  0.00    -0.454 OA
ENDROOT
BRANCH   1   2
ATOM      2  C   UNL     1      25.783  32.628 121.731  1.00  0.00     0.214 A 
ATOM      3  C   UNL     1      27.062  32.500 122.314  1.00  0.00     0.180 A 
ATOM      4  O   UNL     1      27.807  33.577 122.537  1.00  0.00    -0.452 OA
ATOM      5  C   UNL     1      25.300  33.928 121.456  1.00  0.00     0.239 A 
ATOM      6  C   UNL     1      27.402  34.812 122.271  1.00  0.00     0.146 A 
ATOM      7  O   UNL     1      24.149  34.092 120.968  1.00  0.00    -0.285 OA
ATOM      8  C   UNL     1      26.117  35.047 121.729  1.00  0.00     0.111 A 
ATOM      9  C   UNL     1      28.262  35.880 122.542  1.00  0.00     0.094 A 
ATOM     10  C   UNL     1      25.713  36.381 121.477  1.00  0.00     0.134 A 
ATOM     11  C   UNL     1      27.862  37.192 122.289  1.00  0.00     0.123 A 
ATOM     12  C   UNL     1      26.591  37.441 121.763  1.00  0.00     0.093 A 
BRANCH   3  13
ATOM     13  C   UNL     1      27.621  31.179 122.680  1.00  0.00     0.025 A 
ATOM     14  C   UNL     1      28.563  30.537 121.856  1.00  0.00     0.016 A 
ATOM     15  C   UNL     1      29.066  29.282 122.204  1.00  0.00     0.051 A 
ATOM     16  C   UNL     1      28.626  28.645 123.374  1.00  0.00     0.157 A 
ATOM     17  C   UNL     1      27.169  30.528 123.840  1.00  0.00     0.062 A 
ATOM     18  C   UNL     1      27.675  29.269 124.192  1.00  0.00     0.158 A 
BRANCH  16  19
ATOM     19  O   UNL     1      29.125  27.393 123.725  1.00  0.00    -0.504 OA
ATOM     20  H   UNL     1      29.905  26.975 123.232  1.00  0.00     0.293 HD
ENDBRANCH  16  19
BRANCH  18  21
ATOM     21  O   UNL     1      27.238  28.633 125.354  1.00  0.00    -0.504 OA
ATOM     22  H   UNL     1      26.638  27.818 125.319  1.00  0.00     0.293 HD
ENDBRANCH  18  21
ENDBRANCH   3  13
BRANCH  10  23
ATOM     23  O   UNL     1      24.452  36.664 120.949  1.00  0.00    -0.507 OA
ATOM     24  H   UNL     1      23.979  36.021 120.325  1.00  0.00     0.293 HD
ENDBRANCH  10  23
BRANCH  11  25
ATOM     25  O   UNL     1      28.733  38.243 122.568  1.00  0.00    -0.508 OA
ATOM     26  H   UNL     1      29.022  38.457 123.514  1.00  0.00     0.293 HD
ENDBRANCH  11  25
ENDBRANCH   1   2
BRANCH   1  27
ATOM     27  C   UNL     1      24.962  30.809 120.145  1.00  0.00     0.339 C 
ATOM     28  C   UNL     1      24.788  29.286 120.333  1.00  0.00     0.214 C 
ATOM     29  O   UNL     1      23.896  31.362 119.381  1.00  0.00    -0.332 OA
ATOM     30  C   UNL     1      23.414  28.983 120.957  1.00  0.00     0.180 C 
ATOM     31  C   UNL     1      22.643  31.186 120.025  1.00  0.00     0.179 C 
ATOM     32  C   UNL     1      22.303  29.684 120.155  1.00  0.00     0.177 C 
BRANCH  28  33
ATOM     33  O   UNL     1      25.801  28.782 121.167  1.00  0.00    -0.384 OA
ATOM     34  H   UNL     1      25.830  27.800 121.025  1.00  0.00     0.211 HD
ENDBRANCH  28  33
BRANCH  30  35
ATOM     35  O   UNL     1      23.182  27.597 120.973  1.00  0.00    -0.387 OA
ATOM     36  H   UNL     1      22.627  27.407 121.774  1.00  0.00     0.211 HD
ENDBRANCH  30  35
BRANCH  31  37
ATOM     37  C   UNL     1      21.571  31.937 119.223  1.00  0.00     0.191 C 
BRANCH  37  38
ATOM     38  O   UNL     1      21.282  33.168 119.831  1.00  0.00    -0.394 OA
ATOM     39  H   UNL     1      21.121  32.971 120.790  1.00  0.00     0.210 HD
ENDBRANCH  37  38
ENDBRANCH  31  37
BRANCH  32  40
ATOM     40  O   UNL     1      22.186  29.106 118.875  1.00  0.00    -0.387 OA
ATOM     41  H   UNL     1      22.816  28.339 118.847  1.00  0.00     0.211 HD
ENDBRANCH  32  40
ENDBRANCH   1  27
TORSDOF 12
ENDMDL
MODEL 7
REMARK VINA RESULT:    -5.622      1.456      4.530
REMARK INTER + INTRA:         -10.223
REMARK INTER:                  -8.309
REMARK INTRA:                  -1.914
REMARK UNBOUND:                -1.972
REMARK SMILES O=c1c(O[C@@H]2O[C@@H](CO)[C@@H](O)[C@@H](O)[C@@H]2O)c(-c2ccc(O)c(O)c2)oc2cc(O)cc(O)c12
REMARK SMILES IDX 4 1 3 2 16 3 25 4 2 5 26 6 1 7 33 8 27 9 31 10 28 11 30 12
REMARK SMILES IDX 17 13 18 14 19 15 20 16 24 17 22 18 21 19 23 21 32 23 29 25
REMARK SMILES IDX 5 27 14 28 6 29 12 30 7 31 10 32 15 33 13 35 8 37 9 38 11 40
REMARK H PARENT 21 20 23 22 32 24 29 26 15 34 13 36 9 39 11 41
REMARK Flexibility Score: inf
ROOT
ATOM      1  O   UNL     1      13.538  36.332 122.805  1.00  0.00    -0.454 OA
ENDROOT
BRANCH   1   2
ATOM      2  C   UNL     1      13.414  37.333 123.791  1.00  0.00     0.214 A 
ATOM      3  C   UNL     1      14.375  38.366 123.805  1.00  0.00     0.180 A 
ATOM      4  O   UNL     1      14.253  39.384 124.650  1.00  0.00    -0.452 OA
ATOM      5  C   UNL     1      12.366  37.381 124.739  1.00  0.00     0.239 A 
ATOM      6  C   UNL     1      13.272  39.480 125.538  1.00  0.00     0.146 A 
ATOM      7  O   UNL     1      11.506  36.461 124.788  1.00  0.00    -0.285 OA
ATOM      8  C   UNL     1      12.287  38.471 125.634  1.00  0.00     0.111 A 
ATOM      9  C   UNL     1      13.231  40.592 126.384  1.00  0.00     0.094 A 
ATOM     10  C   UNL     1      11.266  38.599 126.609  1.00  0.00     0.134 A 
ATOM     11  C   UNL     1      12.223  40.717 127.339  1.00  0.00     0.123 A 
ATOM     12  C   UNL     1      11.247  39.722 127.453  1.00  0.00     0.093 A 
BRANCH   3  13
ATOM     13  C   UNL     1      15.531  38.365 122.879  1.00  0.00     0.025 A 
ATOM     14  C   UNL     1      16.828  38.073 123.339  1.00  0.00     0.016 A 
ATOM     15  C   UNL     1      17.911  38.095 122.458  1.00  0.00     0.051 A 
ATOM     16  C   UNL     1      17.716  38.420 121.108  1.00  0.00     0.157 A 
ATOM     17  C   UNL     1      15.344  38.709 121.530  1.00  0.00     0.062 A 
ATOM     18  C   UNL     1      16.430  38.729 120.644  1.00  0.00     0.158 A 
BRANCH  16  19
ATOM     19  O   UNL     1      18.793  38.444 120.226  1.00  0.00    -0.504 OA
ATOM     20  H   UNL     1      19.716  38.737 120.522  1.00  0.00     0.293 HD
ENDBRANCH  16  19
BRANCH  18  21
ATOM     21  O   UNL     1      16.238  39.053 119.301  1.00  0.00    -0.504 OA
ATOM     22  H   UNL     1      15.658  39.836 119.022  1.00  0.00     0.293 HD
ENDBRANCH  18  21
ENDBRANCH   3  13
BRANCH  10  23
ATOM     23  O   UNL     1      10.275  37.626 126.746  1.00  0.00    -0.507 OA
ATOM     24  H   UNL     1      10.196  36.849 126.099  1.00  0.00     0.293 HD
ENDBRANCH  10  23
BRANCH  11  25
ATOM     25  O   UNL     1      12.200  41.832 128.175  1.00  0.00    -0.508 OA
ATOM     26  H   UNL     1      11.697  41.827 129.053  1.00  0.00     0.293 HD
ENDBRANCH  11  25
ENDBRANCH   1   2
BRANCH   1  27
ATOM     27  C   UNL     1      14.011  34.992 122.977  1.00  0.00     0.339 C 
ATOM     28  C   UNL     1      13.002  33.997 122.366  1.00  0.00     0.214 C 
ATOM     29  O   UNL     1      15.310  34.821 122.420  1.00  0.00    -0.332 OA
ATOM     30  C   UNL     1      12.992  34.127 120.832  1.00  0.00     0.180 C 
ATOM     31  C   UNL     1      15.317  35.064 121.020  1.00  0.00     0.179 C 
ATOM     32  C   UNL     1      14.427  34.035 120.285  1.00  0.00     0.177 C 
BRANCH  28  33
ATOM     33  O   UNL     1      11.711  34.249 122.864  1.00  0.00    -0.384 OA
ATOM     34  H   UNL     1      11.093  34.231 122.087  1.00  0.00     0.211 HD
ENDBRANCH  28  33
BRANCH  30  35
ATOM     35  O   UNL     1      12.204  33.112 120.263  1.00  0.00    -0.387 OA
ATOM     36  H   UNL     1      12.809  32.348 120.073  1.00  0.00     0.211 HD
ENDBRANCH  30  35
BRANCH  31  37
ATOM     37  C   UNL     1      16.767  35.010 120.522  1.00  0.00     0.191 C 
BRANCH  37  38
ATOM     38  O   UNL     1      16.845  34.274 119.330  1.00  0.00    -0.394 OA
ATOM     39  H   UNL     1      16.069  34.557 118.780  1.00  0.00     0.210 HD
ENDBRANCH  37  38
ENDBRANCH  31  37
BRANCH  32  40
ATOM     40  O   UNL     1      14.940  32.736 120.474  1.00  0.00    -0.387 OA
ATOM     41  H   UNL     1      14.162  32.119 120.487  1.00  0.00     0.211 HD
ENDBRANCH  32  40
ENDBRANCH   1  27
TORSDOF 12
ENDMDL
MODEL 8
REMARK VINA RESULT:    -5.503      1.963      5.136
REMARK INTER + INTRA:         -10.048
REMARK INTER:                  -8.156
REMARK INTRA:                  -1.893
REMARK UNBOUND:                -1.972
REMARK SMILES O=c1c(O[C@@H]2O[C@@H](CO)[C@@H](O)[C@@H](O)[C@@H]2O)c(-c2ccc(O)c(O)c2)oc2cc(O)cc(O)c12
REMARK SMILES IDX 4 1 3 2 16 3 25 4 2 5 26 6 1 7 33 8 27 9 31 10 28 11 30 12
REMARK SMILES IDX 17 13 18 14 19 15 20 16 24 17 22 18 21 19 23 21 32 23 29 25
REMARK SMILES IDX 5 27 14 28 6 29 12 30 7 31 10 32 15 33 13 35 8 37 9 38 11 40
REMARK H PARENT 21 20 23 22 32 24 29 26 15 34 13 36 9 39 11 41
REMARK Flexibility Score: inf
ROOT
ATOM      1  O   UNL     1      13.028  37.601 124.586  1.00  0.00    -0.454 OA
ENDROOT
BRANCH   1   2
ATOM      2  C   UNL     1      13.179  38.939 125.005  1.00  0.00     0.214 A 
ATOM      3  C   UNL     1      14.014  39.779 124.238  1.00  0.00     0.180 A 
ATOM      4  O   UNL     1      14.116  41.071 124.531  1.00  0.00    -0.452 OA
ATOM      5  C   UNL     1      12.515  39.496 126.122  1.00  0.00     0.239 A 
ATOM      6  C   UNL     1      13.492  41.638 125.554  1.00  0.00     0.146 A 
ATOM      7  O   UNL     1      11.787  38.775 126.858  1.00  0.00    -0.285 OA
ATOM      8  C   UNL     1      12.669  40.870 126.411  1.00  0.00     0.111 A 
ATOM      9  C   UNL     1      13.664  43.007 125.779  1.00  0.00     0.094 A 
ATOM     10  C   UNL     1      12.035  41.508 127.505  1.00  0.00     0.134 A 
ATOM     11  C   UNL     1      13.035  43.631 126.855  1.00  0.00     0.123 A 
ATOM     12  C   UNL     1      12.226  42.883 127.717  1.00  0.00     0.093 A 
BRANCH   3  13
ATOM     13  C   UNL     1      14.784  39.264 123.083  1.00  0.00     0.025 A 
ATOM     14  C   UNL     1      14.166  39.042 121.839  1.00  0.00     0.016 A 
ATOM     15  C   UNL     1      14.901  38.537 120.765  1.00  0.00     0.051 A 
ATOM     16  C   UNL     1      16.261  38.235 120.921  1.00  0.00     0.157 A 
ATOM     17  C   UNL     1      16.142  38.941 123.240  1.00  0.00     0.062 A 
ATOM     18  C   UNL     1      16.882  38.437 122.161  1.00  0.00     0.158 A 
BRANCH  16  19
ATOM     19  O   UNL     1      16.999  37.731 119.853  1.00  0.00    -0.504 OA
ATOM     20  H   UNL     1      16.749  36.860 119.399  1.00  0.00     0.293 HD
ENDBRANCH  16  19
BRANCH  18  21
ATOM     21  O   UNL     1      18.236  38.135 122.314  1.00  0.00    -0.504 OA
ATOM     22  H   UNL     1      18.722  38.305 123.186  1.00  0.00     0.293 HD
ENDBRANCH  18  21
ENDBRANCH   3  13
BRANCH  10  23
ATOM     23  O   UNL     1      11.218  40.790 128.381  1.00  0.00    -0.507 OA
ATOM     24  H   UNL     1      10.964  39.826 128.205  1.00  0.00     0.293 HD
ENDBRANCH  10  23
BRANCH  11  25
ATOM     25  O   UNL     1      13.221  44.997 127.064  1.00  0.00    -0.508 OA
ATOM     26  H   UNL     1      12.683  45.689 126.558  1.00  0.00     0.293 HD
ENDBRANCH  11  25
ENDBRANCH   1   2
BRANCH   1  27
ATOM     27  C   UNL     1      13.511  36.423 125.242  1.00  0.00     0.339 C 
ATOM     28  C   UNL     1      12.369  35.393 125.377  1.00  0.00     0.214 C 
ATOM     29  O   UNL     1      14.631  35.868 124.561  1.00  0.00    -0.332 OA
ATOM     30  C   UNL     1      11.986  34.841 123.991  1.00  0.00     0.180 C 
ATOM     31  C   UNL     1      14.299  35.474 123.238  1.00  0.00     0.179 C 
ATOM     32  C   UNL     1      13.242  34.345 123.255  1.00  0.00     0.177 C 
BRANCH  28  33
ATOM     33  O   UNL     1      11.243  35.994 125.967  1.00  0.00    -0.384 OA
ATOM     34  H   UNL     1      11.494  36.218 126.902  1.00  0.00     0.211 HD
ENDBRANCH  28  33
BRANCH  30  35
ATOM     35  O   UNL     1      11.069  33.785 124.125  1.00  0.00    -0.387 OA
ATOM     36  H   UNL     1      11.589  32.984 124.394  1.00  0.00     0.211 HD
ENDBRANCH  30  35
BRANCH  31  37
ATOM     37  C   UNL     1      15.583  35.031 122.523  1.00  0.00     0.191 C 
BRANCH  37  38
ATOM     38  O   UNL     1      16.709  35.397 123.275  1.00  0.00    -0.394 OA
ATOM     39  H   UNL     1      16.396  35.496 124.211  1.00  0.00     0.210 HD
ENDBRANCH  37  38
ENDBRANCH  31  37
BRANCH  32  40
ATOM     40  O   UNL     1      13.768  33.207 123.898  1.00  0.00    -0.387 OA
ATOM     41  H   UNL     1      13.278  33.110 124.756  1.00  0.00     0.211 HD
ENDBRANCH  32  40
ENDBRANCH   1  27
TORSDOF 12
ENDMDL
MODEL 9
REMARK VINA RESULT:    -5.405      2.038      7.802
REMARK INTER + INTRA:          -9.905
REMARK INTER:                  -8.069
REMARK INTRA:                  -1.836
REMARK UNBOUND:                -1.972
REMARK SMILES O=c1c(O[C@@H]2O[C@@H](CO)[C@@H](O)[C@@H](O)[C@@H]2O)c(-c2ccc(O)c(O)c2)oc2cc(O)cc(O)c12
REMARK SMILES IDX 4 1 3 2 16 3 25 4 2 5 26 6 1 7 33 8 27 9 31 10 28 11 30 12
REMARK SMILES IDX 17 13 18 14 19 15 20 16 24 17 22 18 21 19 23 21 32 23 29 25
REMARK SMILES IDX 5 27 14 28 6 29 12 30 7 31 10 32 15 33 13 35 8 37 9 38 11 40
REMARK H PARENT 21 20 23 22 32 24 29 26 15 34 13 36 9 39 11 41
REMARK Flexibility Score: inf
ROOT
ATOM      1  O   UNL     1      13.194  36.329 124.037  1.00  0.00    -0.454 OA
ENDROOT
BRANCH   1   2
ATOM      2  C   UNL     1      14.272  36.889 123.322  1.00  0.00     0.214 A 
ATOM      3  C   UNL     1      14.667  38.204 123.649  1.00  0.00     0.180 A 
ATOM      4  O   UNL     1      15.735  38.746 123.075  1.00  0.00    -0.452 OA
ATOM      5  C   UNL     1      15.001  36.200 122.326  1.00  0.00     0.239 A 
ATOM      6  C   UNL     1      16.461  38.125 122.154  1.00  0.00     0.146 A 
ATOM      7  O   UNL     1      14.662  35.037 121.975  1.00  0.00    -0.285 OA
ATOM      8  C   UNL     1      16.118  36.822 121.724  1.00  0.00     0.111 A 
ATOM      9  C   UNL     1      17.569  38.780 121.609  1.00  0.00     0.094 A 
ATOM     10  C   UNL     1      16.906  36.200 120.725  1.00  0.00     0.134 A 
ATOM     11  C   UNL     1      18.344  38.163 120.629  1.00  0.00     0.123 A 
ATOM     12  C   UNL     1      18.011  36.879 120.186  1.00  0.00     0.093 A 
BRANCH   3  13
ATOM     13  C   UNL     1      13.927  39.013 124.645  1.00  0.00     0.025 A 
ATOM     14  C   UNL     1      13.189  40.146 124.255  1.00  0.00     0.016 A 
ATOM     15  C   UNL     1      12.513  40.910 125.208  1.00  0.00     0.051 A 
ATOM     16  C   UNL     1      12.573  40.560 126.565  1.00  0.00     0.157 A 
ATOM     17  C   UNL     1      14.000  38.678 126.007  1.00  0.00     0.062 A 
ATOM     18  C   UNL     1      13.319  39.443 126.965  1.00  0.00     0.158 A 
BRANCH  16  19
ATOM     19  O   UNL     1      11.900  41.319 127.519  1.00  0.00    -0.504 OA
ATOM     20  H   UNL     1      11.223  40.902 128.148  1.00  0.00     0.293 HD
ENDBRANCH  16  19
BRANCH  18  21
ATOM     21  O   UNL     1      13.378  39.097 128.315  1.00  0.00    -0.504 OA
ATOM     22  H   UNL     1      13.307  39.796 129.045  1.00  0.00     0.293 HD
ENDBRANCH  18  21
ENDBRANCH   3  13
BRANCH  10  23
ATOM     23  O   UNL     1      16.602  34.918 120.264  1.00  0.00    -0.507 OA
ATOM     24  H   UNL     1      17.254  34.148 120.360  1.00  0.00     0.293 HD
ENDBRANCH  10  23
BRANCH  11  25
ATOM     25  O   UNL     1      19.443  38.834 120.096  1.00  0.00    -0.508 OA
ATOM     26  H   UNL     1      20.266  38.337 119.780  1.00  0.00     0.293 HD
ENDBRANCH  11  25
ENDBRANCH   1   2
BRANCH   1  27
ATOM     27  C   UNL     1      11.861  36.100 123.567  1.00  0.00     0.339 C 
ATOM     28  C   UNL     1      11.469  34.625 123.802  1.00  0.00     0.214 C 
ATOM     29  O   UNL     1      10.931  36.987 124.180  1.00  0.00    -0.332 OA
ATOM     30  C   UNL     1      11.317  34.350 125.309  1.00  0.00     0.180 C 
ATOM     31  C   UNL     1      10.887  36.810 125.588  1.00  0.00     0.179 C 
ATOM     32  C   UNL     1      10.382  35.393 125.945  1.00  0.00     0.177 C 
BRANCH  28  33
ATOM     33  O   UNL     1      12.451  33.773 123.268  1.00  0.00    -0.384 OA
ATOM     34  H   UNL     1      11.998  33.191 122.602  1.00  0.00     0.211 HD
ENDBRANCH  28  33
BRANCH  30  35
ATOM     35  O   UNL     1      10.798  33.061 125.518  1.00  0.00    -0.387 OA
ATOM     36  H   UNL     1      11.562  32.430 125.461  1.00  0.00     0.211 HD
ENDBRANCH  30  35
BRANCH  31  37
ATOM     37  C   UNL     1       9.984  37.896 126.189  1.00  0.00     0.191 C 
BRANCH  37  38
ATOM     38  O   UNL     1       9.229  37.370 127.248  1.00  0.00    -0.394 OA
ATOM     39  H   UNL     1       9.119  36.403 127.055  1.00  0.00     0.210 HD
ENDBRANCH  37  38
ENDBRANCH  31  37
BRANCH  32  40
ATOM     40  O   UNL     1       9.065  35.221 125.473  1.00  0.00    -0.387 OA
ATOM     41  H   UNL     1       8.518  35.945 125.876  1.00  0.00     0.211 HD
ENDBRANCH  32  40
ENDBRANCH   1  27
TORSDOF 12
ENDMDL
