MODEL 1
REMARK VINA RESULT:    -4.006      0.000      0.000
REMARK INTER + INTRA:          -8.238
REMARK INTER:                  -7.051
REMARK INTRA:                  -1.187
REMARK UNBOUND:                -1.187
REMARK SMILES CCCCCCCCCCCCCCC(=O)[O-]
REMARK SMILES IDX 9 1 10 2 11 3 12 4 13 5 14 6 15 7 16 8 17 9 8 10 7 11 6 12
REMARK SMILES IDX 5 13 4 14 3 15 2 16 1 17
REMARK H PARENT
REMARK Flexibility Score: inf
ROOT
ATOM      1  C   UNL     1     128.445 121.804 120.945  1.00  0.00     0.000 C 
ENDROOT
BRANCH   1   2
ATOM      2  C   UNL     1     127.375 121.085 120.114  1.00  0.00     0.000 C 
BRANCH   2   3
ATOM      3  C   UNL     1     127.963 120.548 118.803  1.00  0.00     0.000 C 
BRANCH   3   4
ATOM      4  C   UNL     1     126.898 120.513 117.696  1.00  0.00     0.000 C 
BRANCH   4   5
ATOM      5  C   UNL     1     125.485 120.804 118.224  1.00  0.00     0.006 C 
BRANCH   5   6
ATOM      6  C   UNL     1     124.688 121.730 117.297  1.00  0.00     0.053 C 
BRANCH   6   7
ATOM      7  C   UNL     1     123.368 122.074 117.914  1.00  0.00     0.041 C 
ATOM      8  O   UNL     1     122.817 123.177 117.657  1.00  0.00    -0.550 OA
ATOM      9  O   UNL     1     122.723 121.157 118.733  1.00  0.00    -0.550 OA
ENDBRANCH   6   7
ENDBRANCH   5   6
ENDBRANCH   4   5
ENDBRANCH   3   4
ENDBRANCH   2   3
ENDBRANCH   1   2
BRANCH   1  10
ATOM     10  C   UNL     1     129.746 121.967 120.145  1.00  0.00     0.000 C 
BRANCH  10  11
ATOM     11  C   UNL     1     130.712 122.986 120.772  1.00  0.00    -0.000 C 
BRANCH  11  12
ATOM     12  C   UNL     1     132.191 122.559 120.779  1.00  0.00    -0.000 C 
BRANCH  12  13
ATOM     13  C   UNL     1     132.375 121.039 120.942  1.00  0.00    -0.000 C 
BRANCH  13  14
ATOM     14  C   UNL     1     133.014 120.392 119.695  1.00  0.00    -0.000 C 
BRANCH  14  15
ATOM     15  C   UNL     1     132.067 119.442 118.942  1.00  0.00    -0.000 C 
BRANCH  15  16
ATOM     16  C   UNL     1     131.582 120.019 117.605  1.00  0.00    -0.003 C 
ATOM     17  C   UNL     1     131.193 118.906 116.635  1.00  0.00     0.004 C 
ENDBRANCH  15  16
ENDBRANCH  14  15
ENDBRANCH  13  14
ENDBRANCH  12  13
ENDBRANCH  11  12
ENDBRANCH  10  11
ENDBRANCH   1  10
TORSDOF 13
ENDMDL
MODEL 2
REMARK VINA RESULT:    -3.988      3.327      6.807
REMARK INTER + INTRA:          -8.206
REMARK INTER:                  -6.313
REMARK INTRA:                  -1.893
REMARK UNBOUND:                -1.187
REMARK SMILES CCCCCCCCCCCCCCC(=O)[O-]
REMARK SMILES IDX 9 1 10 2 11 3 12 4 13 5 14 6 15 7 16 8 17 9 8 10 7 11 6 12
REMARK SMILES IDX 5 13 4 14 3 15 2 16 1 17
REMARK H PARENT
REMARK Flexibility Score: inf
ROOT
ATOM      1  C   UNL     1     124.969 120.775 117.383  1.00  0.00     0.000 C 
ENDROOT
BRANCH   1   2
ATOM      2  C   UNL     1     126.460 120.792 117.740  1.00  0.00     0.000 C 
BRANCH   2   3
ATOM      3  C   UNL     1     126.997 119.369 117.933  1.00  0.00     0.000 C 
BRANCH   3   4
ATOM      4  C   UNL     1     128.515 119.382 118.175  1.00  0.00     0.000 C 
BRANCH   4   5
ATOM      5  C   UNL     1     129.111 120.798 118.121  1.00  0.00     0.006 C 
BRANCH   5   6
ATOM      6  C   UNL     1     130.623 120.811 118.374  1.00  0.00     0.053 C 
BRANCH   6   7
ATOM      7  C   UNL     1     130.916 121.299 119.758  1.00  0.00     0.041 C 
ATOM      8  O   UNL     1     130.410 122.376 120.172  1.00  0.00    -0.550 OA
ATOM      9  O   UNL     1     131.708 120.539 120.610  1.00  0.00    -0.550 OA
ENDBRANCH   6   7
ENDBRANCH   5   6
ENDBRANCH   4   5
ENDBRANCH   3   4
ENDBRANCH   2   3
ENDBRANCH   1   2
BRANCH   1  10
ATOM     10  C   UNL     1     124.477 122.179 117.003  1.00  0.00     0.000 C 
BRANCH  10  11
ATOM     11  C   UNL     1     123.307 122.662 117.877  1.00  0.00    -0.000 C 
BRANCH  11  12
ATOM     12  C   UNL     1     122.968 121.749 119.070  1.00  0.00    -0.000 C 
BRANCH  12  13
ATOM     13  C   UNL     1     123.362 122.363 120.426  1.00  0.00    -0.000 C 
BRANCH  13  14
ATOM     14  C   UNL     1     124.772 121.926 120.874  1.00  0.00    -0.000 C 
BRANCH  14  15
ATOM     15  C   UNL     1     124.884 120.421 121.175  1.00  0.00    -0.000 C 
BRANCH  15  16
ATOM     16  C   UNL     1     126.316 119.985 121.512  1.00  0.00    -0.003 C 
ATOM     17  C   UNL     1     127.297 121.141 121.342  1.00  0.00     0.004 C 
ENDBRANCH  15  16
ENDBRANCH  14  15
ENDBRANCH  13  14
ENDBRANCH  12  13
ENDBRANCH  11  12
ENDBRANCH  10  11
ENDBRANCH   1  10
TORSDOF 13
ENDMDL
MODEL 3
REMARK VINA RESULT:    -3.954      1.581      3.377
REMARK INTER + INTRA:          -8.146
REMARK INTER:                  -6.902
REMARK INTRA:                  -1.244
REMARK UNBOUND:                -1.187
REMARK SMILES CCCCCCCCCCCCCCC(=O)[O-]
REMARK SMILES IDX 9 1 10 2 11 3 12 4 13 5 14 6 15 7 16 8 17 9 8 10 7 11 6 12
REMARK SMILES IDX 5 13 4 14 3 15 2 16 1 17
REMARK H PARENT
REMARK Flexibility Score: inf
ROOT
ATOM      1  C   UNL     1     126.191 120.323 119.319  1.00  0.00     0.000 C 
ENDROOT
BRANCH   1   2
ATOM      2  C   UNL     1     126.167 120.704 117.834  1.00  0.00     0.000 C 
BRANCH   2   3
ATOM      3  C   UNL     1     124.729 120.814 117.316  1.00  0.00     0.000 C 
BRANCH   3   4
ATOM      4  C   UNL     1     124.360 122.276 117.021  1.00  0.00     0.000 C 
BRANCH   4   5
ATOM      5  C   UNL     1     123.102 122.734 117.777  1.00  0.00     0.006 C 
BRANCH   5   6
ATOM      6  C   UNL     1     123.254 122.618 119.298  1.00  0.00     0.053 C 
BRANCH   6   7
ATOM      7  C   UNL     1     122.140 121.801 119.872  1.00  0.00     0.041 C 
ATOM      8  O   UNL     1     121.715 120.787 119.257  1.00  0.00    -0.550 OA
ATOM      9  O   UNL     1     121.603 122.130 121.111  1.00  0.00    -0.550 OA
ENDBRANCH   6   7
ENDBRANCH   5   6
ENDBRANCH   4   5
ENDBRANCH   3   4
ENDBRANCH   2   3
ENDBRANCH   1   2
BRANCH   1  10
ATOM     10  C   UNL     1     127.201 121.183 120.092  1.00  0.00     0.000 C 
BRANCH  10  11
ATOM     11  C   UNL     1     128.138 120.352 120.985  1.00  0.00    -0.000 C 
BRANCH  11  12
ATOM     12  C   UNL     1     129.412 119.838 120.289  1.00  0.00    -0.000 C 
BRANCH  12  13
ATOM     13  C   UNL     1     129.757 120.627 119.012  1.00  0.00    -0.000 C 
BRANCH  13  14
ATOM     14  C   UNL     1     131.217 121.126 119.013  1.00  0.00    -0.000 C 
BRANCH  14  15
ATOM     15  C   UNL     1     131.805 121.306 120.424  1.00  0.00    -0.000 C 
BRANCH  15  16
ATOM     16  C   UNL     1     131.925 122.779 120.836  1.00  0.00    -0.003 C 
ATOM     17  C   UNL     1     130.549 123.401 121.059  1.00  0.00     0.004 C 
ENDBRANCH  15  16
ENDBRANCH  14  15
ENDBRANCH  13  14
ENDBRANCH  12  13
ENDBRANCH  11  12
ENDBRANCH  10  11
ENDBRANCH   1  10
TORSDOF 13
ENDMDL
MODEL 4
REMARK VINA RESULT:    -3.941      1.392      2.546
REMARK INTER + INTRA:          -8.122
REMARK INTER:                  -6.988
REMARK INTRA:                  -1.134
REMARK UNBOUND:                -1.187
REMARK SMILES CCCCCCCCCCCCCCC(=O)[O-]
REMARK SMILES IDX 9 1 10 2 11 3 12 4 13 5 14 6 15 7 16 8 17 9 8 10 7 11 6 12
REMARK SMILES IDX 5 13 4 14 3 15 2 16 1 17
REMARK H PARENT
REMARK Flexibility Score: inf
ROOT
ATOM      1  C   UNL     1     128.039 120.745 118.492  1.00  0.00     0.000 C 
ENDROOT
BRANCH   1   2
ATOM      2  C   UNL     1     126.752 120.341 117.762  1.00  0.00     0.000 C 
BRANCH   2   3
ATOM      3  C   UNL     1     125.534 121.058 118.356  1.00  0.00     0.000 C 
BRANCH   3   4
ATOM      4  C   UNL     1     124.617 121.595 117.246  1.00  0.00     0.000 C 
BRANCH   4   5
ATOM      5  C   UNL     1     123.526 122.535 117.783  1.00  0.00     0.006 C 
BRANCH   5   6
ATOM      6  C   UNL     1     123.421 122.505 119.312  1.00  0.00     0.053 C 
BRANCH   6   7
ATOM      7  C   UNL     1     122.210 121.735 119.737  1.00  0.00     0.041 C 
ATOM      8  O   UNL     1     121.567 122.079 120.763  1.00  0.00    -0.550 OA
ATOM      9  O   UNL     1     121.763 120.666 118.970  1.00  0.00    -0.550 OA
ENDBRANCH   6   7
ENDBRANCH   5   6
ENDBRANCH   4   5
ENDBRANCH   3   4
ENDBRANCH   2   3
ENDBRANCH   1   2
BRANCH   1  10
ATOM     10  C   UNL     1     127.769 121.001 119.983  1.00  0.00     0.000 C 
BRANCH  10  11
ATOM     11  C   UNL     1     128.912 121.761 120.677  1.00  0.00    -0.000 C 
BRANCH  11  12
ATOM     12  C   UNL     1     130.192 121.918 119.836  1.00  0.00    -0.000 C 
BRANCH  12  13
ATOM     13  C   UNL     1     131.398 122.400 120.664  1.00  0.00    -0.000 C 
BRANCH  13  14
ATOM     14  C   UNL     1     132.553 121.378 120.658  1.00  0.00    -0.000 C 
BRANCH  14  15
ATOM     15  C   UNL     1     132.289 120.156 119.761  1.00  0.00    -0.000 C 
BRANCH  15  16
ATOM     16  C   UNL     1     132.262 118.836 120.544  1.00  0.00    -0.003 C 
ATOM     17  C   UNL     1     130.867 118.550 121.091  1.00  0.00     0.004 C 
ENDBRANCH  15  16
ENDBRANCH  14  15
ENDBRANCH  13  14
ENDBRANCH  12  13
ENDBRANCH  11  12
ENDBRANCH  10  11
ENDBRANCH   1  10
TORSDOF 13
ENDMDL
MODEL 5
REMARK VINA RESULT:    -3.925     10.069     12.222
REMARK INTER + INTRA:          -8.094
REMARK INTER:                  -5.870
REMARK INTRA:                  -2.224
REMARK UNBOUND:                -1.187
REMARK SMILES CCCCCCCCCCCCCCC(=O)[O-]
REMARK SMILES IDX 9 1 10 2 11 3 12 4 13 5 14 6 15 7 16 8 17 9 8 10 7 11 6 12
REMARK SMILES IDX 5 13 4 14 3 15 2 16 1 17
REMARK H PARENT
REMARK Flexibility Score: inf
ROOT
ATOM      1  C   UNL     1     123.202 127.706 126.043  1.00  0.00     0.000 C 
ENDROOT
BRANCH   1   2
ATOM      2  C   UNL     1     123.175 129.215 126.317  1.00  0.00     0.000 C 
BRANCH   2   3
ATOM      3  C   UNL     1     124.196 129.598 127.395  1.00  0.00     0.000 C 
BRANCH   3   4
ATOM      4  C   UNL     1     125.432 130.264 126.770  1.00  0.00     0.000 C 
BRANCH   4   5
ATOM      5  C   UNL     1     126.748 129.617 127.228  1.00  0.00     0.006 C 
BRANCH   5   6
ATOM      6  C   UNL     1     127.648 129.214 126.054  1.00  0.00     0.053 C 
BRANCH   6   7
ATOM      7  C   UNL     1     128.917 130.007 126.073  1.00  0.00     0.041 C 
ATOM      8  O   UNL     1     129.224 130.735 125.093  1.00  0.00    -0.550 OA
ATOM      9  O   UNL     1     129.735 129.981 127.195  1.00  0.00    -0.550 OA
ENDBRANCH   6   7
ENDBRANCH   5   6
ENDBRANCH   4   5
ENDBRANCH   3   4
ENDBRANCH   2   3
ENDBRANCH   1   2
BRANCH   1  10
ATOM     10  C   UNL     1     124.182 127.370 124.910  1.00  0.00     0.000 C 
BRANCH  10  11
ATOM     11  C   UNL     1     125.365 126.503 125.376  1.00  0.00    -0.000 C 
BRANCH  11  12
ATOM     12  C   UNL     1     124.974 125.140 125.975  1.00  0.00    -0.000 C 
BRANCH  12  13
ATOM     13  C   UNL     1     125.804 124.771 127.218  1.00  0.00    -0.000 C 
BRANCH  13  14
ATOM     14  C   UNL     1     126.587 125.978 127.774  1.00  0.00    -0.000 C 
BRANCH  14  15
ATOM     15  C   UNL     1     125.992 126.552 129.072  1.00  0.00    -0.000 C 
BRANCH  15  16
ATOM     16  C   UNL     1     124.727 125.813 129.527  1.00  0.00    -0.003 C 
ATOM     17  C   UNL     1     123.525 126.753 129.566  1.00  0.00     0.004 C 
ENDBRANCH  15  16
ENDBRANCH  14  15
ENDBRANCH  13  14
ENDBRANCH  12  13
ENDBRANCH  11  12
ENDBRANCH  10  11
ENDBRANCH   1  10
TORSDOF 13
ENDMDL
MODEL 6
REMARK VINA RESULT:    -3.901      1.980      5.035
REMARK INTER + INTRA:          -8.053
REMARK INTER:                  -6.301
REMARK INTRA:                  -1.752
REMARK UNBOUND:                -1.187
REMARK SMILES CCCCCCCCCCCCCCC(=O)[O-]
REMARK SMILES IDX 9 1 10 2 11 3 12 4 13 5 14 6 15 7 16 8 17 9 8 10 7 11 6 12
REMARK SMILES IDX 5 13 4 14 3 15 2 16 1 17
REMARK H PARENT
REMARK Flexibility Score: inf
ROOT
ATOM      1  C   UNL     1     129.269 120.783 118.046  1.00  0.00     0.000 C 
ENDROOT
BRANCH   1   2
ATOM      2  C   UNL     1     128.665 119.380 118.172  1.00  0.00     0.000 C 
BRANCH   2   3
ATOM      3  C   UNL     1     127.233 119.345 117.626  1.00  0.00     0.000 C 
BRANCH   3   4
ATOM      4  C   UNL     1     126.595 120.742 117.664  1.00  0.00     0.000 C 
BRANCH   4   5
ATOM      5  C   UNL     1     125.060 120.694 117.615  1.00  0.00     0.006 C 
BRANCH   5   6
ATOM      6  C   UNL     1     124.445 122.000 117.097  1.00  0.00     0.053 C 
BRANCH   6   7
ATOM      7  C   UNL     1     123.115 122.241 117.741  1.00  0.00     0.041 C 
ATOM      8  O   UNL     1     122.761 123.410 118.046  1.00  0.00    -0.550 OA
ATOM      9  O   UNL     1     122.247 121.179 117.960  1.00  0.00    -0.550 OA
ENDBRANCH   6   7
ENDBRANCH   5   6
ENDBRANCH   4   5
ENDBRANCH   3   4
ENDBRANCH   2   3
ENDBRANCH   1   2
BRANCH   1  10
ATOM     10  C   UNL     1     129.833 121.264 119.391  1.00  0.00     0.000 C 
BRANCH  10  11
ATOM     11  C   UNL     1     129.049 120.722 120.598  1.00  0.00    -0.000 C 
BRANCH  11  12
ATOM     12  C   UNL     1     127.865 121.597 121.048  1.00  0.00    -0.000 C 
BRANCH  12  13
ATOM     13  C   UNL     1     126.571 120.791 121.264  1.00  0.00    -0.000 C 
BRANCH  13  14
ATOM     14  C   UNL     1     125.311 121.677 121.176  1.00  0.00    -0.000 C 
BRANCH  14  15
ATOM     15  C   UNL     1     124.003 120.877 121.054  1.00  0.00    -0.000 C 
BRANCH  15  16
ATOM     16  C   UNL     1     122.798 121.608 121.661  1.00  0.00    -0.003 C 
ATOM     17  C   UNL     1     123.246 122.680 122.650  1.00  0.00     0.004 C 
ENDBRANCH  15  16
ENDBRANCH  14  15
ENDBRANCH  13  14
ENDBRANCH  12  13
ENDBRANCH  11  12
ENDBRANCH  10  11
ENDBRANCH   1  10
TORSDOF 13
ENDMDL
MODEL 7
REMARK VINA RESULT:    -3.887      3.768      7.781
REMARK INTER + INTRA:          -8.027
REMARK INTER:                  -6.467
REMARK INTRA:                  -1.560
REMARK UNBOUND:                -1.187
REMARK SMILES CCCCCCCCCCCCCCC(=O)[O-]
REMARK SMILES IDX 9 1 10 2 11 3 12 4 13 5 14 6 15 7 16 8 17 9 8 10 7 11 6 12
REMARK SMILES IDX 5 13 4 14 3 15 2 16 1 17
REMARK H PARENT
REMARK Flexibility Score: inf
ROOT
ATOM      1  C   UNL     1     125.821 119.884 119.191  1.00  0.00     0.000 C 
ENDROOT
BRANCH   1   2
ATOM      2  C   UNL     1     127.052 120.773 119.405  1.00  0.00     0.000 C 
BRANCH   2   3
ATOM      3  C   UNL     1     127.912 120.839 118.137  1.00  0.00     0.000 C 
BRANCH   3   4
ATOM      4  C   UNL     1     129.407 120.892 118.488  1.00  0.00     0.000 C 
BRANCH   4   5
ATOM      5  C   UNL     1     129.661 121.365 119.928  1.00  0.00     0.006 C 
BRANCH   5   6
ATOM      6  C   UNL     1     131.078 121.916 120.127  1.00  0.00     0.053 C 
BRANCH   6   7
ATOM      7  C   UNL     1     132.025 120.808 120.464  1.00  0.00     0.041 C 
ATOM      8  O   UNL     1     133.266 120.964 120.308  1.00  0.00    -0.550 OA
ATOM      9  O   UNL     1     131.543 119.620 120.997  1.00  0.00    -0.550 OA
ENDBRANCH   6   7
ENDBRANCH   5   6
ENDBRANCH   4   5
ENDBRANCH   3   4
ENDBRANCH   2   3
ENDBRANCH   1   2
BRANCH   1  10
ATOM     10  C   UNL     1     125.531 119.696 117.695  1.00  0.00     0.000 C 
BRANCH  10  11
ATOM     11  C   UNL     1     124.267 120.441 117.231  1.00  0.00    -0.000 C 
BRANCH  11  12
ATOM     12  C   UNL     1     124.451 121.952 117.003  1.00  0.00    -0.000 C 
BRANCH  12  13
ATOM     13  C   UNL     1     123.348 122.798 117.666  1.00  0.00    -0.000 C 
BRANCH  13  14
ATOM     14  C   UNL     1     123.423 122.749 119.206  1.00  0.00    -0.000 C 
BRANCH  14  15
ATOM     15  C   UNL     1     122.201 122.084 119.861  1.00  0.00    -0.000 C 
BRANCH  15  16
ATOM     16  C   UNL     1     122.580 120.940 120.810  1.00  0.00    -0.003 C 
ATOM     17  C   UNL     1     122.209 119.585 120.214  1.00  0.00     0.004 C 
ENDBRANCH  15  16
ENDBRANCH  14  15
ENDBRANCH  13  14
ENDBRANCH  12  13
ENDBRANCH  11  12
ENDBRANCH  10  11
ENDBRANCH   1  10
TORSDOF 13
ENDMDL
MODEL 8
REMARK VINA RESULT:    -3.835      3.684      7.723
REMARK INTER + INTRA:          -7.935
REMARK INTER:                  -6.771
REMARK INTRA:                  -1.164
REMARK UNBOUND:                -1.187
REMARK SMILES CCCCCCCCCCCCCCC(=O)[O-]
REMARK SMILES IDX 9 1 10 2 11 3 12 4 13 5 14 6 15 7 16 8 17 9 8 10 7 11 6 12
REMARK SMILES IDX 5 13 4 14 3 15 2 16 1 17
REMARK H PARENT
REMARK Flexibility Score: inf
ROOT
ATOM      1  C   UNL     1     126.121 120.083 119.116  1.00  0.00     0.000 C 
ENDROOT
BRANCH   1   2
ATOM      2  C   UNL     1     126.765 121.042 120.125  1.00  0.00     0.000 C 
BRANCH   2   3
ATOM      3  C   UNL     1     128.091 120.479 120.650  1.00  0.00     0.000 C 
BRANCH   3   4
ATOM      4  C   UNL     1     129.029 120.108 119.492  1.00  0.00     0.000 C 
BRANCH   4   5
ATOM      5  C   UNL     1     129.947 121.268 119.077  1.00  0.00     0.006 C 
BRANCH   5   6
ATOM      6  C   UNL     1     131.159 121.422 120.004  1.00  0.00     0.053 C 
BRANCH   6   7
ATOM      7  C   UNL     1     131.188 122.794 120.601  1.00  0.00     0.041 C 
ATOM      8  O   UNL     1     130.132 123.310 121.055  1.00  0.00    -0.550 OA
ATOM      9  O   UNL     1     132.390 123.482 120.702  1.00  0.00    -0.550 OA
ENDBRANCH   6   7
ENDBRANCH   5   6
ENDBRANCH   4   5
ENDBRANCH   3   4
ENDBRANCH   2   3
ENDBRANCH   1   2
BRANCH   1  10
ATOM     10  C   UNL     1     125.898 120.776 117.763  1.00  0.00     0.000 C 
BRANCH  10  11
ATOM     11  C   UNL     1     124.411 120.888 117.384  1.00  0.00    -0.000 C 
BRANCH  11  12
ATOM     12  C   UNL     1     123.943 122.305 117.005  1.00  0.00    -0.000 C 
BRANCH  12  13
ATOM     13  C   UNL     1     123.149 122.995 118.130  1.00  0.00    -0.000 C 
BRANCH  13  14
ATOM     14  C   UNL     1     122.710 122.001 119.226  1.00  0.00    -0.000 C 
BRANCH  14  15
ATOM     15  C   UNL     1     123.339 122.285 120.601  1.00  0.00    -0.000 C 
BRANCH  15  16
ATOM     16  C   UNL     1     122.331 122.177 121.752  1.00  0.00    -0.003 C 
ATOM     17  C   UNL     1     122.943 122.656 123.066  1.00  0.00     0.004 C 
ENDBRANCH  15  16
ENDBRANCH  14  15
ENDBRANCH  13  14
ENDBRANCH  12  13
ENDBRANCH  11  12
ENDBRANCH  10  11
ENDBRANCH   1  10
TORSDOF 13
ENDMDL
MODEL 9
REMARK VINA RESULT:    -3.787     10.198     12.720
REMARK INTER + INTRA:          -7.852
REMARK INTER:                  -5.712
REMARK INTRA:                  -2.140
REMARK UNBOUND:                -1.187
REMARK SMILES CCCCCCCCCCCCCCC(=O)[O-]
REMARK SMILES IDX 9 1 10 2 11 3 12 4 13 5 14 6 15 7 16 8 17 9 8 10 7 11 6 12
REMARK SMILES IDX 5 13 4 14 3 15 2 16 1 17
REMARK H PARENT
REMARK Flexibility Score: inf
ROOT
ATOM      1  C   UNL     1     125.084 125.978 125.420  1.00  0.00     0.000 C 
ENDROOT
BRANCH   1   2
ATOM      2  C   UNL     1     123.893 126.898 125.718  1.00  0.00     0.000 C 
BRANCH   2   3
ATOM      3  C   UNL     1     124.206 128.347 125.329  1.00  0.00     0.000 C 
BRANCH   3   4
ATOM      4  C   UNL     1     125.722 128.585 125.264  1.00  0.00     0.000 C 
BRANCH   4   5
ATOM      5  C   UNL     1     126.261 129.320 126.502  1.00  0.00     0.006 C 
BRANCH   5   6
ATOM      6  C   UNL     1     127.712 128.945 126.825  1.00  0.00     0.053 C 
BRANCH   6   7
ATOM      7  C   UNL     1     128.628 130.085 126.509  1.00  0.00     0.041 C 
ATOM      8  O   UNL     1     129.830 130.057 126.885  1.00  0.00    -0.550 OA
ATOM      9  O   UNL     1     128.168 131.157 125.755  1.00  0.00    -0.550 OA
ENDBRANCH   6   7
ENDBRANCH   5   6
ENDBRANCH   4   5
ENDBRANCH   3   4
ENDBRANCH   2   3
ENDBRANCH   1   2
BRANCH   1  10
ATOM     10  C   UNL     1     125.399 125.079 126.625  1.00  0.00     0.000 C 
BRANCH  10  11
ATOM     11  C   UNL     1     126.492 125.660 127.538  1.00  0.00    -0.000 C 
BRANCH  11  12
ATOM     12  C   UNL     1     125.973 126.333 128.823  1.00  0.00    -0.000 C 
BRANCH  12  13
ATOM     13  C   UNL     1     124.681 125.689 129.357  1.00  0.00    -0.000 C 
BRANCH  13  14
ATOM     14  C   UNL     1     123.501 126.683 129.378  1.00  0.00    -0.000 C 
BRANCH  14  15
ATOM     15  C   UNL     1     123.924 128.145 129.152  1.00  0.00    -0.000 C 
BRANCH  15  16
ATOM     16  C   UNL     1     123.696 129.029 130.384  1.00  0.00    -0.003 C 
ATOM     17  C   UNL     1     122.961 128.265 131.482  1.00  0.00     0.004 C 
ENDBRANCH  15  16
ENDBRANCH  14  15
ENDBRANCH  13  14
ENDBRANCH  12  13
ENDBRANCH  11  12
ENDBRANCH  10  11
ENDBRANCH   1  10
TORSDOF 13
ENDMDL
