MODEL 1
REMARK VINA RESULT:    -3.311      0.000      0.000
REMARK INTER + INTRA:          -4.537
REMARK INTER:                  -4.279
REMARK INTRA:                  -0.258
REMARK UNBOUND:                -0.258
REMARK SMILES CCCCCCC(=O)[O-]
REMARK SMILES IDX 5 1 6 2 7 3 8 4 9 5 4 6 3 7 2 8 1 9
REMARK H PARENT
REMARK Flexibility Score: inf
ROOT
ATOM      1  C   UNL     1     -10.983   9.241 -18.910  1.00  0.00     0.006 C 
ENDROOT
BRANCH   1   2
ATOM      2  C   UNL     1      -9.743   8.340 -18.902  1.00  0.00     0.053 C 
BRANCH   2   3
ATOM      3  C   UNL     1      -8.825   8.723 -17.784  1.00  0.00     0.041 C 
ATOM      4  O   UNL     1      -9.291   9.213 -16.722  1.00  0.00    -0.550 OA
ATOM      5  O   UNL     1      -7.451   8.585 -17.934  1.00  0.00    -0.550 OA
ENDBRANCH   2   3
ENDBRANCH   1   2
BRANCH   1   6
ATOM      6  C   UNL     1     -12.252   8.497 -19.355  1.00  0.00     0.000 C 
BRANCH   6   7
ATOM      7  C   UNL     1     -12.022   6.985 -19.522  1.00  0.00    -0.000 C 
BRANCH   7   8
ATOM      8  C   UNL     1     -12.386   6.486 -20.930  1.00  0.00    -0.003 C 
ATOM      9  C   UNL     1     -13.107   7.545 -21.763  1.00  0.00     0.004 C 
ENDBRANCH   7   8
ENDBRANCH   6   7
ENDBRANCH   1   6
TORSDOF 5
ENDMDL
MODEL 2
REMARK VINA RESULT:    -3.266      0.374      1.107
REMARK INTER + INTRA:          -4.479
REMARK INTER:                  -4.203
REMARK INTRA:                  -0.275
REMARK UNBOUND:                -0.258
REMARK SMILES CCCCCCC(=O)[O-]
REMARK SMILES IDX 5 1 6 2 7 3 8 4 9 5 4 6 3 7 2 8 1 9
REMARK H PARENT
REMARK Flexibility Score: inf
ROOT
ATOM      1  C   UNL     1     -11.253   9.231 -18.891  1.00  0.00     0.006 C 
ENDROOT
BRANCH   1   2
ATOM      2  C   UNL     1      -9.904   8.603 -19.265  1.00  0.00     0.053 C 
BRANCH   2   3
ATOM      3  C   UNL     1      -8.985   8.597 -18.084  1.00  0.00     0.041 C 
ATOM      4  O   UNL     1      -7.919   7.928 -18.115  1.00  0.00    -0.550 OA
ATOM      5  O   UNL     1      -9.330   9.291 -16.931  1.00  0.00    -0.550 OA
ENDBRANCH   2   3
ENDBRANCH   1   2
BRANCH   1   6
ATOM      6  C   UNL     1     -12.447   8.376 -19.341  1.00  0.00     0.000 C 
BRANCH   6   7
ATOM      7  C   UNL     1     -12.076   6.896 -19.534  1.00  0.00    -0.000 C 
BRANCH   7   8
ATOM      8  C   UNL     1     -12.396   6.388 -20.949  1.00  0.00    -0.003 C 
ATOM      9  C   UNL     1     -13.110   7.434 -21.803  1.00  0.00     0.004 C 
ENDBRANCH   7   8
ENDBRANCH   6   7
ENDBRANCH   1   6
TORSDOF 5
ENDMDL
MODEL 3
REMARK VINA RESULT:    -3.198      3.189      4.890
REMARK INTER + INTRA:          -4.391
REMARK INTER:                  -4.180
REMARK INTRA:                  -0.212
REMARK UNBOUND:                -0.258
REMARK SMILES CCCCCCC(=O)[O-]
REMARK SMILES IDX 5 1 6 2 7 3 8 4 9 5 4 6 3 7 2 8 1 9
REMARK H PARENT
REMARK Flexibility Score: inf
ROOT
ATOM      1  C   UNL     1     -12.398   8.387 -19.379  1.00  0.00     0.006 C 
ENDROOT
BRANCH   1   2
ATOM      2  C   UNL     1     -11.995   6.952 -19.739  1.00  0.00     0.053 C 
BRANCH   2   3
ATOM      3  C   UNL     1     -12.445   6.615 -21.126  1.00  0.00     0.041 C 
ATOM      4  O   UNL     1     -12.021   5.574 -21.694  1.00  0.00    -0.550 OA
ATOM      5  O   UNL     1     -13.293   7.477 -21.810  1.00  0.00    -0.550 OA
ENDBRANCH   2   3
ENDBRANCH   1   2
BRANCH   1   6
ATOM      6  C   UNL     1     -11.191   9.268 -19.021  1.00  0.00     0.000 C 
BRANCH   6   7
ATOM      7  C   UNL     1      -9.885   8.463 -18.906  1.00  0.00    -0.000 C 
BRANCH   7   8
ATOM      8  C   UNL     1      -9.287   8.510 -17.492  1.00  0.00    -0.003 C 
ATOM      9  C   UNL     1      -8.878   9.922 -17.071  1.00  0.00     0.004 C 
ENDBRANCH   7   8
ENDBRANCH   6   7
ENDBRANCH   1   6
TORSDOF 5
ENDMDL
MODEL 4
REMARK VINA RESULT:    -3.179      1.834      2.559
REMARK INTER + INTRA:          -4.366
REMARK INTER:                  -4.228
REMARK INTRA:                  -0.138
REMARK UNBOUND:                -0.258
REMARK SMILES CCCCCCC(=O)[O-]
REMARK SMILES IDX 5 1 6 2 7 3 8 4 9 5 4 6 3 7 2 8 1 9
REMARK H PARENT
REMARK Flexibility Score: inf
ROOT
ATOM      1  C   UNL     1      -9.372   8.985 -17.244  1.00  0.00     0.006 C 
ENDROOT
BRANCH   1   2
ATOM      2  C   UNL     1      -8.218   9.993 -17.304  1.00  0.00     0.053 C 
BRANCH   2   3
ATOM      3  C   UNL     1      -8.095  10.725 -16.004  1.00  0.00     0.041 C 
ATOM      4  O   UNL     1      -8.590  10.239 -14.955  1.00  0.00    -0.550 OA
ATOM      5  O   UNL     1      -7.473  11.967 -15.963  1.00  0.00    -0.550 OA
ENDBRANCH   2   3
ENDBRANCH   1   2
BRANCH   1   6
ATOM      6  C   UNL     1     -10.145   8.891 -18.568  1.00  0.00     0.000 C 
BRANCH   6   7
ATOM      7  C   UNL     1     -10.513   7.444 -18.936  1.00  0.00    -0.000 C 
BRANCH   7   8
ATOM      8  C   UNL     1     -11.976   7.304 -19.386  1.00  0.00    -0.003 C 
ATOM      9  C   UNL     1     -12.720   8.638 -19.397  1.00  0.00     0.004 C 
ENDBRANCH   7   8
ENDBRANCH   6   7
ENDBRANCH   1   6
TORSDOF 5
ENDMDL
MODEL 5
REMARK VINA RESULT:    -3.178      3.082      4.635
REMARK INTER + INTRA:          -4.366
REMARK INTER:                  -4.033
REMARK INTRA:                  -0.332
REMARK UNBOUND:                -0.258
REMARK SMILES CCCCCCC(=O)[O-]
REMARK SMILES IDX 5 1 6 2 7 3 8 4 9 5 4 6 3 7 2 8 1 9
REMARK H PARENT
REMARK Flexibility Score: inf
ROOT
ATOM      1  C   UNL     1     -12.759   8.091 -20.100  1.00  0.00     0.006 C 
ENDROOT
BRANCH   1   2
ATOM      2  C   UNL     1     -13.114   7.713 -21.543  1.00  0.00     0.053 C 
BRANCH   2   3
ATOM      3  C   UNL     1     -11.872   7.560 -22.364  1.00  0.00     0.041 C 
ATOM      4  O   UNL     1     -11.634   6.476 -22.957  1.00  0.00    -0.550 OA
ATOM      5  O   UNL     1     -10.953   8.600 -22.433  1.00  0.00    -0.550 OA
ENDBRANCH   2   3
ENDBRANCH   1   2
BRANCH   1   6
ATOM      6  C   UNL     1     -11.959   6.995 -19.381  1.00  0.00     0.000 C 
BRANCH   6   7
ATOM      7  C   UNL     1     -10.597   7.496 -18.870  1.00  0.00    -0.000 C 
BRANCH   7   8
ATOM      8  C   UNL     1     -10.541   9.026 -18.746  1.00  0.00    -0.003 C 
ATOM      9  C   UNL     1      -9.535   9.497 -17.697  1.00  0.00     0.004 C 
ENDBRANCH   7   8
ENDBRANCH   6   7
ENDBRANCH   1   6
TORSDOF 5
ENDMDL
MODEL 6
REMARK VINA RESULT:    -3.132      3.034      4.457
REMARK INTER + INTRA:          -4.305
REMARK INTER:                  -3.977
REMARK INTRA:                  -0.328
REMARK UNBOUND:                -0.258
REMARK SMILES CCCCCCC(=O)[O-]
REMARK SMILES IDX 5 1 6 2 7 3 8 4 9 5 4 6 3 7 2 8 1 9
REMARK H PARENT
REMARK Flexibility Score: inf
ROOT
ATOM      1  C   UNL     1     -12.765   6.909 -21.504  1.00  0.00     0.006 C 
ENDROOT
BRANCH   1   2
ATOM      2  C   UNL     1     -12.318   5.824 -20.517  1.00  0.00     0.053 C 
BRANCH   2   3
ATOM      3  C   UNL     1     -11.148   5.069 -21.064  1.00  0.00     0.041 C 
ATOM      4  O   UNL     1     -10.074   5.006 -20.412  1.00  0.00    -0.550 OA
ATOM      5  O   UNL     1     -11.228   4.478 -22.319  1.00  0.00    -0.550 OA
ENDBRANCH   2   3
ENDBRANCH   1   2
BRANCH   1   6
ATOM      6  C   UNL     1     -12.854   8.299 -20.854  1.00  0.00     0.000 C 
BRANCH   6   7
ATOM      7  C   UNL     1     -12.490   8.277 -19.359  1.00  0.00    -0.000 C 
BRANCH   7   8
ATOM      8  C   UNL     1     -11.227   9.094 -19.048  1.00  0.00    -0.003 C 
ATOM      9  C   UNL     1     -10.057   8.222 -18.594  1.00  0.00     0.004 C 
ENDBRANCH   7   8
ENDBRANCH   6   7
ENDBRANCH   1   6
TORSDOF 5
ENDMDL
MODEL 7
REMARK VINA RESULT:    -3.113     11.029     11.894
REMARK INTER + INTRA:          -4.281
REMARK INTER:                  -4.047
REMARK INTRA:                  -0.234
REMARK UNBOUND:                -0.258
REMARK SMILES CCCCCCC(=O)[O-]
REMARK SMILES IDX 5 1 6 2 7 3 8 4 9 5 4 6 3 7 2 8 1 9
REMARK H PARENT
REMARK Flexibility Score: inf
ROOT
ATOM      1  C   UNL     1      -2.171   3.610 -22.613  1.00  0.00     0.006 C 
ENDROOT
BRANCH   1   2
ATOM      2  C   UNL     1      -1.269   3.342 -23.824  1.00  0.00     0.053 C 
BRANCH   2   3
ATOM      3  C   UNL     1      -0.179   4.365 -23.900  1.00  0.00     0.041 C 
ATOM      4  O   UNL     1      -0.458   5.572 -24.125  1.00  0.00    -0.550 OA
ATOM      5  O   UNL     1       1.149   3.977 -23.771  1.00  0.00    -0.550 OA
ENDBRANCH   2   3
ENDBRANCH   1   2
BRANCH   1   6
ATOM      6  C   UNL     1      -2.908   2.349 -22.136  1.00  0.00     0.000 C 
BRANCH   6   7
ATOM      7  C   UNL     1      -2.923   1.235 -23.197  1.00  0.00    -0.000 C 
BRANCH   7   8
ATOM      8  C   UNL     1      -2.286  -0.069 -22.691  1.00  0.00    -0.003 C 
ATOM      9  C   UNL     1      -1.075  -0.494 -23.520  1.00  0.00     0.004 C 
ENDBRANCH   7   8
ENDBRANCH   6   7
ENDBRANCH   1   6
TORSDOF 5
ENDMDL
MODEL 8
REMARK VINA RESULT:    -3.086      2.481      2.949
REMARK INTER + INTRA:          -4.246
REMARK INTER:                  -3.960
REMARK INTRA:                  -0.286
REMARK UNBOUND:                -0.258
REMARK SMILES CCCCCCC(=O)[O-]
REMARK SMILES IDX 5 1 6 2 7 3 8 4 9 5 4 6 3 7 2 8 1 9
REMARK H PARENT
REMARK Flexibility Score: inf
ROOT
ATOM      1  C   UNL     1     -10.393   7.554 -18.633  1.00  0.00     0.006 C 
ENDROOT
BRANCH   1   2
ATOM      2  C   UNL     1      -9.104   7.087 -19.320  1.00  0.00     0.053 C 
BRANCH   2   3
ATOM      3  C   UNL     1      -9.178   5.625 -19.630  1.00  0.00     0.041 C 
ATOM      4  O   UNL     1      -8.271   4.847 -19.234  1.00  0.00    -0.550 OA
ATOM      5  O   UNL     1     -10.224   5.130 -20.399  1.00  0.00    -0.550 OA
ENDBRANCH   2   3
ENDBRANCH   1   2
BRANCH   1   6
ATOM      6  C   UNL     1     -10.892   8.905 -19.169  1.00  0.00     0.000 C 
BRANCH   6   7
ATOM      7  C   UNL     1     -12.381   8.875 -19.554  1.00  0.00    -0.000 C 
BRANCH   7   8
ATOM      8  C   UNL     1     -12.783   7.565 -20.248  1.00  0.00    -0.003 C 
ATOM      9  C   UNL     1     -12.934   7.721 -21.761  1.00  0.00     0.004 C 
ENDBRANCH   7   8
ENDBRANCH   6   7
ENDBRANCH   1   6
TORSDOF 5
ENDMDL
MODEL 9
REMARK VINA RESULT:    -3.081      1.547      1.913
REMARK INTER + INTRA:          -4.240
REMARK INTER:                  -3.969
REMARK INTRA:                  -0.271
REMARK UNBOUND:                -0.258
REMARK SMILES CCCCCCC(=O)[O-]
REMARK SMILES IDX 5 1 6 2 7 3 8 4 9 5 4 6 3 7 2 8 1 9
REMARK H PARENT
REMARK Flexibility Score: inf
ROOT
ATOM      1  C   UNL     1      -9.867   9.875 -18.072  1.00  0.00     0.006 C 
ENDROOT
BRANCH   1   2
ATOM      2  C   UNL     1      -8.964   8.912 -17.292  1.00  0.00     0.053 C 
BRANCH   2   3
ATOM      3  C   UNL     1      -7.613   8.827 -17.931  1.00  0.00     0.041 C 
ATOM      4  O   UNL     1      -6.898   9.857 -18.037  1.00  0.00    -0.550 OA
ATOM      5  O   UNL     1      -7.167   7.620 -18.454  1.00  0.00    -0.550 OA
ENDBRANCH   2   3
ENDBRANCH   1   2
BRANCH   1   6
ATOM      6  C   UNL     1     -10.441   9.243 -19.350  1.00  0.00     0.000 C 
BRANCH   6   7
ATOM      7  C   UNL     1     -10.869   7.780 -19.144  1.00  0.00    -0.000 C 
BRANCH   7   8
ATOM      8  C   UNL     1     -12.341   7.538 -19.515  1.00  0.00    -0.003 C 
ATOM      9  C   UNL     1     -13.202   8.790 -19.354  1.00  0.00     0.004 C 
ENDBRANCH   7   8
ENDBRANCH   6   7
ENDBRANCH   1   6
TORSDOF 5
ENDMDL
