MODEL 1
REMARK VINA RESULT:    -3.857      0.000      0.000
REMARK INTER + INTRA:          -5.570
REMARK INTER:                  -4.984
REMARK INTRA:                  -0.585
REMARK UNBOUND:                -0.585
REMARK SMILES C=CC(=O)CCCCC
REMARK SMILES IDX 6 1 7 2 8 3 9 4 5 5 3 6 4 7 2 8 1 9
REMARK H PARENT
REMARK Flexibility Score: inf
ROOT
ATOM      1  C   UNL     1       8.127  -2.003  47.074  1.00  0.00     0.008 C 
ENDROOT
BRANCH   1   2
ATOM      2  C   UNL     1       7.376  -0.666  47.089  1.00  0.00     0.000 C 
BRANCH   2   3
ATOM      3  C   UNL     1       5.884  -0.870  46.806  1.00  0.00    -0.003 C 
ATOM      4  C   UNL     1       5.571  -2.338  46.529  1.00  0.00     0.004 C 
ENDBRANCH   2   3
ENDBRANCH   1   2
BRANCH   1   5
ATOM      5  C   UNL     1       8.846  -2.245  48.405  1.00  0.00     0.080 C 
BRANCH   5   6
ATOM      6  C   UNL     1       7.923  -2.895  49.392  1.00  0.00     0.155 C 
ATOM      7  O   UNL     1       7.800  -4.150  49.389  1.00  0.00    -0.295 OA
BRANCH   6   8
ATOM      8  C   UNL     1       7.204  -2.072  50.385  1.00  0.00     0.039 C 
ATOM      9  C   UNL     1       5.876  -2.052  50.470  1.00  0.00     0.012 C 
ENDBRANCH   6   8
ENDBRANCH   5   6
ENDBRANCH   1   5
TORSDOF 5
ENDMDL
MODEL 2
REMARK VINA RESULT:    -3.848      1.648      3.488
REMARK INTER + INTRA:          -5.558
REMARK INTER:                  -4.986
REMARK INTRA:                  -0.572
REMARK UNBOUND:                -0.585
REMARK SMILES C=CC(=O)CCCCC
REMARK SMILES IDX 6 1 7 2 8 3 9 4 5 5 3 6 4 7 2 8 1 9
REMARK H PARENT
REMARK Flexibility Score: inf
ROOT
ATOM      1  C   UNL     1       7.311  -2.837  49.703  1.00  0.00     0.008 C 
ENDROOT
BRANCH   1   2
ATOM      2  C   UNL     1       8.748  -2.489  49.297  1.00  0.00     0.000 C 
BRANCH   2   3
ATOM      3  C   UNL     1       9.113  -3.138  47.957  1.00  0.00    -0.003 C 
ATOM      4  C   UNL     1       8.451  -4.504  47.807  1.00  0.00     0.004 C 
ENDBRANCH   2   3
ENDBRANCH   1   2
BRANCH   1   5
ATOM      5  C   UNL     1       6.351  -1.692  49.365  1.00  0.00     0.080 C 
BRANCH   5   6
ATOM      6  C   UNL     1       5.719  -1.913  48.023  1.00  0.00     0.155 C 
ATOM      7  O   UNL     1       4.927  -2.881  47.865  1.00  0.00    -0.295 OA
BRANCH   6   8
ATOM      8  C   UNL     1       5.989  -0.975  46.916  1.00  0.00     0.039 C 
ATOM      9  C   UNL     1       7.021  -0.133  46.926  1.00  0.00     0.012 C 
ENDBRANCH   6   8
ENDBRANCH   5   6
ENDBRANCH   1   5
TORSDOF 5
ENDMDL
MODEL 3
REMARK VINA RESULT:    -3.829      1.047      2.436
REMARK INTER + INTRA:          -5.534
REMARK INTER:                  -4.965
REMARK INTRA:                  -0.569
REMARK UNBOUND:                -0.585
REMARK SMILES C=CC(=O)CCCCC
REMARK SMILES IDX 6 1 7 2 8 3 9 4 5 5 3 6 4 7 2 8 1 9
REMARK H PARENT
REMARK Flexibility Score: inf
ROOT
ATOM      1  C   UNL     1       5.887  -1.621  48.871  1.00  0.00     0.008 C 
ENDROOT
BRANCH   1   2
ATOM      2  C   UNL     1       5.445  -2.139  47.498  1.00  0.00     0.000 C 
BRANCH   2   3
ATOM      3  C   UNL     1       5.891  -1.187  46.382  1.00  0.00    -0.003 C 
ATOM      4  C   UNL     1       6.894  -0.161  46.900  1.00  0.00     0.004 C 
ENDBRANCH   2   3
ENDBRANCH   1   2
BRANCH   1   5
ATOM      5  C   UNL     1       6.225  -2.781  49.813  1.00  0.00     0.080 C 
BRANCH   5   6
ATOM      6  C   UNL     1       7.590  -3.323  49.513  1.00  0.00     0.155 C 
ATOM      7  O   UNL     1       7.750  -4.570  49.409  1.00  0.00    -0.295 OA
BRANCH   6   8
ATOM      8  C   UNL     1       8.722  -2.401  49.295  1.00  0.00     0.039 C 
ATOM      9  C   UNL     1       9.603  -2.568  48.311  1.00  0.00     0.012 C 
ENDBRANCH   6   8
ENDBRANCH   5   6
ENDBRANCH   1   5
TORSDOF 5
ENDMDL
MODEL 4
REMARK VINA RESULT:    -3.828      1.877      3.049
REMARK INTER + INTRA:          -5.532
REMARK INTER:                  -4.928
REMARK INTRA:                  -0.604
REMARK UNBOUND:                -0.585
REMARK SMILES C=CC(=O)CCCCC
REMARK SMILES IDX 6 1 7 2 8 3 9 4 5 5 3 6 4 7 2 8 1 9
REMARK H PARENT
REMARK Flexibility Score: inf
ROOT
ATOM      1  C   UNL     1       8.329  -2.130  47.328  1.00  0.00     0.008 C 
ENDROOT
BRANCH   1   2
ATOM      2  C   UNL     1       9.453  -2.383  48.340  1.00  0.00     0.000 C 
BRANCH   2   3
ATOM      3  C   UNL     1       9.325  -3.774  48.969  1.00  0.00    -0.003 C 
ATOM      4  C   UNL     1       8.470  -4.695  48.103  1.00  0.00     0.004 C 
ENDBRANCH   2   3
ENDBRANCH   1   2
BRANCH   1   5
ATOM      5  C   UNL     1       7.378  -1.036  47.824  1.00  0.00     0.080 C 
BRANCH   5   6
ATOM      6  C   UNL     1       6.011  -1.600  48.075  1.00  0.00     0.155 C 
ATOM      7  O   UNL     1       5.142  -1.544  47.162  1.00  0.00    -0.295 OA
BRANCH   6   8
ATOM      8  C   UNL     1       5.706  -2.253  49.363  1.00  0.00     0.039 C 
ATOM      9  C   UNL     1       6.247  -1.856  50.513  1.00  0.00     0.012 C 
ENDBRANCH   6   8
ENDBRANCH   5   6
ENDBRANCH   1   5
TORSDOF 5
ENDMDL
MODEL 5
REMARK VINA RESULT:    -3.811      0.936      1.296
REMARK INTER + INTRA:          -5.510
REMARK INTER:                  -4.935
REMARK INTRA:                  -0.575
REMARK UNBOUND:                -0.585
REMARK SMILES C=CC(=O)CCCCC
REMARK SMILES IDX 6 1 7 2 8 3 9 4 5 5 3 6 4 7 2 8 1 9
REMARK H PARENT
REMARK Flexibility Score: inf
ROOT
ATOM      1  C   UNL     1       8.946  -2.750  47.756  1.00  0.00     0.008 C 
ENDROOT
BRANCH   1   2
ATOM      2  C   UNL     1       7.976  -2.119  46.751  1.00  0.00     0.000 C 
BRANCH   2   3
ATOM      3  C   UNL     1       7.542  -0.721  47.208  1.00  0.00    -0.003 C 
ATOM      4  C   UNL     1       6.078  -0.460  46.870  1.00  0.00     0.004 C 
ENDBRANCH   2   3
ENDBRANCH   1   2
BRANCH   1   5
ATOM      5  C   UNL     1       8.505  -2.471  49.196  1.00  0.00     0.080 C 
BRANCH   5   6
ATOM      6  C   UNL     1       7.427  -3.427  49.611  1.00  0.00     0.155 C 
ATOM      7  O   UNL     1       7.693  -4.656  49.704  1.00  0.00    -0.295 OA
BRANCH   6   8
ATOM      8  C   UNL     1       6.082  -2.923  49.951  1.00  0.00     0.039 C 
ATOM      9  C   UNL     1       5.884  -1.727  50.502  1.00  0.00     0.012 C 
ENDBRANCH   6   8
ENDBRANCH   5   6
ENDBRANCH   1   5
TORSDOF 5
ENDMDL
MODEL 6
REMARK VINA RESULT:    -3.755      1.991      3.164
REMARK INTER + INTRA:          -5.438
REMARK INTER:                  -4.834
REMARK INTRA:                  -0.603
REMARK UNBOUND:                -0.585
REMARK SMILES C=CC(=O)CCCCC
REMARK SMILES IDX 6 1 7 2 8 3 9 4 5 5 3 6 4 7 2 8 1 9
REMARK H PARENT
REMARK Flexibility Score: inf
ROOT
ATOM      1  C   UNL     1       7.358  -0.837  47.154  1.00  0.00     0.008 C 
ENDROOT
BRANCH   1   2
ATOM      2  C   UNL     1       8.198  -1.649  48.147  1.00  0.00     0.000 C 
BRANCH   2   3
ATOM      3  C   UNL     1       8.942  -2.785  47.437  1.00  0.00    -0.003 C 
ATOM      4  C   UNL     1       8.390  -4.147  47.846  1.00  0.00     0.004 C 
ENDBRANCH   2   3
ENDBRANCH   1   2
BRANCH   1   5
ATOM      5  C   UNL     1       5.874  -0.871  47.531  1.00  0.00     0.080 C 
BRANCH   5   6
ATOM      6  C   UNL     1       5.268  -2.193  47.166  1.00  0.00     0.155 C 
ATOM      7  O   UNL     1       5.228  -2.541  45.954  1.00  0.00    -0.295 OA
BRANCH   6   8
ATOM      8  C   UNL     1       4.767  -3.094  48.222  1.00  0.00     0.039 C 
ATOM      9  C   UNL     1       5.113  -2.959  49.501  1.00  0.00     0.012 C 
ENDBRANCH   6   8
ENDBRANCH   5   6
ENDBRANCH   1   5
TORSDOF 5
ENDMDL
MODEL 7
REMARK VINA RESULT:    -3.749      1.409      2.817
REMARK INTER + INTRA:          -5.430
REMARK INTER:                  -4.841
REMARK INTRA:                  -0.590
REMARK UNBOUND:                -0.585
REMARK SMILES C=CC(=O)CCCCC
REMARK SMILES IDX 6 1 7 2 8 3 9 4 5 5 3 6 4 7 2 8 1 9
REMARK H PARENT
REMARK Flexibility Score: inf
ROOT
ATOM      1  C   UNL     1       7.383  -0.871  47.431  1.00  0.00     0.008 C 
ENDROOT
BRANCH   1   2
ATOM      2  C   UNL     1       8.181  -2.145  47.130  1.00  0.00     0.000 C 
BRANCH   2   3
ATOM      3  C   UNL     1       9.317  -2.335  48.141  1.00  0.00    -0.003 C 
ATOM      4  C   UNL     1       9.190  -3.668  48.871  1.00  0.00     0.004 C 
ENDBRANCH   2   3
ENDBRANCH   1   2
BRANCH   1   5
ATOM      5  C   UNL     1       5.878  -1.155  47.450  1.00  0.00     0.080 C 
BRANCH   5   6
ATOM      6  C   UNL     1       5.530  -2.078  48.580  1.00  0.00     0.155 C 
ATOM      7  O   UNL     1       4.999  -3.194  48.325  1.00  0.00    -0.295 OA
BRANCH   6   8
ATOM      8  C   UNL     1       5.851  -1.699  49.970  1.00  0.00     0.039 C 
ATOM      9  C   UNL     1       6.195  -2.594  50.895  1.00  0.00     0.012 C 
ENDBRANCH   6   8
ENDBRANCH   5   6
ENDBRANCH   1   5
TORSDOF 5
ENDMDL
MODEL 8
REMARK VINA RESULT:    -3.694      1.292      3.129
REMARK INTER + INTRA:          -5.360
REMARK INTER:                  -4.818
REMARK INTRA:                  -0.542
REMARK UNBOUND:                -0.585
REMARK SMILES C=CC(=O)CCCCC
REMARK SMILES IDX 6 1 7 2 8 3 9 4 5 5 3 6 4 7 2 8 1 9
REMARK H PARENT
REMARK Flexibility Score: inf
ROOT
ATOM      1  C   UNL     1       7.743  -2.475  49.932  1.00  0.00     0.008 C 
ENDROOT
BRANCH   1   2
ATOM      2  C   UNL     1       6.348  -1.908  50.225  1.00  0.00     0.000 C 
BRANCH   2   3
ATOM      3  C   UNL     1       5.318  -3.034  50.375  1.00  0.00    -0.003 C 
ATOM      4  C   UNL     1       4.680  -3.380  49.033  1.00  0.00     0.004 C 
ENDBRANCH   2   3
ENDBRANCH   1   2
BRANCH   1   5
ATOM      5  C   UNL     1       8.348  -1.828  48.683  1.00  0.00     0.080 C 
BRANCH   5   6
ATOM      6  C   UNL     1       7.676  -2.343  47.445  1.00  0.00     0.155 C 
ATOM      7  O   UNL     1       7.643  -3.586  47.231  1.00  0.00    -0.295 OA
BRANCH   6   8
ATOM      8  C   UNL     1       7.022  -1.403  46.514  1.00  0.00     0.039 C 
ATOM      9  C   UNL     1       6.466  -0.263  46.920  1.00  0.00     0.012 C 
ENDBRANCH   6   8
ENDBRANCH   5   6
ENDBRANCH   1   5
TORSDOF 5
ENDMDL
MODEL 9
REMARK VINA RESULT:    -3.690      1.442      3.406
REMARK INTER + INTRA:          -5.354
REMARK INTER:                  -4.782
REMARK INTRA:                  -0.572
REMARK UNBOUND:                -0.585
REMARK SMILES C=CC(=O)CCCCC
REMARK SMILES IDX 6 1 7 2 8 3 9 4 5 5 3 6 4 7 2 8 1 9
REMARK H PARENT
REMARK Flexibility Score: inf
ROOT
ATOM      1  C   UNL     1       7.523  -3.266  48.936  1.00  0.00     0.008 C 
ENDROOT
BRANCH   1   2
ATOM      2  C   UNL     1       7.374  -2.089  49.908  1.00  0.00     0.000 C 
BRANCH   2   3
ATOM      3  C   UNL     1       5.948  -2.014  50.465  1.00  0.00    -0.003 C 
ATOM      4  C   UNL     1       5.218  -3.342  50.294  1.00  0.00     0.004 C 
ENDBRANCH   2   3
ENDBRANCH   1   2
BRANCH   1   5
ATOM      5  C   UNL     1       7.756  -2.772  47.505  1.00  0.00     0.080 C 
BRANCH   5   6
ATOM      6  C   UNL     1       6.449  -2.543  46.808  1.00  0.00     0.155 C 
ATOM      7  O   UNL     1       5.681  -3.521  46.597  1.00  0.00    -0.295 OA
BRANCH   6   8
ATOM      8  C   UNL     1       6.050  -1.177  46.415  1.00  0.00     0.039 C 
ATOM      9  C   UNL     1       6.646  -0.089  46.900  1.00  0.00     0.012 C 
ENDBRANCH   6   8
ENDBRANCH   5   6
ENDBRANCH   1   5
TORSDOF 5
ENDMDL
