MODEL 1
REMARK VINA RESULT:    -4.551      0.000      0.000
REMARK INTER + INTRA:          -6.792
REMARK INTER:                  -6.945
REMARK INTRA:                   0.153
REMARK UNBOUND:                 0.153
REMARK SMILES CC1=CCC[C@@H](C)C(=O)C[C@H](C(C)C)C(=O)C1
REMARK SMILES IDX 8 1 9 2 6 3 7 4 5 5 4 6 3 7 2 8 1 9 10 11 11 12 15 13 16 14
REMARK SMILES IDX 17 15 12 17 13 18 14 19
REMARK H PARENT
REMARK Flexibility Score: 70.00
ROOT
ATOM      1  C   UNL     1      16.935 -30.218  21.853  1.00  0.00     0.136 C 
ATOM      2  O   UNL     1      16.531 -29.104  21.557  1.00  0.00    -0.299 OA
ENDROOT
BRANCH   1   3
ATOM      3  C   UNL     1      18.365 -30.579  21.475  1.00  0.00     0.053 C 
ATOM      4  C   UNL     1      19.184 -29.401  20.925  1.00  0.00     0.016 C 
BRANCH   3   5
ATOM      5  C   UNL     1      18.421 -31.837  20.583  1.00  0.00     0.015 C 
BRANCH   5   6
ATOM      6  C   UNL     1      18.631 -33.163  21.341  1.00  0.00     0.028 C 
BRANCH   6   7
ATOM      7  C   UNL     1      17.974 -34.298  20.598  1.00  0.00    -0.028 C 
ATOM      8  C   UNL     1      16.718 -34.747  20.835  1.00  0.00    -0.070 CG0
ATOM      9  C   UNL     1      16.251 -35.970  20.088  1.00  0.00     0.039 C 
ATOM     10  G   UNL     1      15.755 -34.042  21.778  1.00  0.00     0.000 G0
ENDBRANCH   6   7
ENDBRANCH   5   6
ENDBRANCH   3   5
ENDBRANCH   1   3
BRANCH   1  11
ATOM     11  C   UNL     1      15.996 -31.167  22.572  1.00  0.00     0.087 C 
BRANCH  11  12
ATOM     12  C   UNL     1      14.746 -31.624  21.758  1.00  0.00     0.066 C 
BRANCH  12  13
ATOM     13  C   UNL     1      14.886 -33.008  21.131  1.00  0.00     0.140 C 
ATOM     14  O   UNL     1      14.368 -33.249  20.051  1.00  0.00    -0.299 OA
BRANCH  13  15
ATOM     15  C   UNL     1      15.735 -34.065  21.796  1.00  0.00     0.106 CG0
ATOM     16  G   UNL     1      16.705 -34.735  20.835  1.00  0.00     0.000 G0
ENDBRANCH  13  15
ENDBRANCH  12  13
BRANCH  12  17
ATOM     17  C   UNL     1      13.389 -31.403  22.503  1.00  0.00    -0.006 C 
ATOM     18  C   UNL     1      13.569 -30.524  23.751  1.00  0.00     0.008 C 
ATOM     19  C   UNL     1      12.257 -30.850  21.624  1.00  0.00     0.008 C 
ENDBRANCH  12  17
ENDBRANCH  11  12
ENDBRANCH   1  11
TORSDOF 1
ENDMDL
MODEL 2
REMARK VINA RESULT:    -4.536      2.059      4.757
REMARK INTER + INTRA:          -6.769
REMARK INTER:                  -6.589
REMARK INTRA:                  -0.180
REMARK UNBOUND:                 0.153
REMARK SMILES CC1=CCC[C@@H](C)C(=O)C[C@H](C(C)C)C(=O)C1
REMARK SMILES IDX 8 1 9 2 6 3 7 4 5 5 4 6 3 7 2 8 1 9 10 11 11 12 15 13 16 14
REMARK SMILES IDX 17 15 12 17 13 18 14 19
REMARK H PARENT
REMARK Flexibility Score: 70.00
ROOT
ATOM      1  C   UNL     1      14.259 -32.815  20.986  1.00  0.00     0.136 C 
ATOM      2  O   UNL     1      13.842 -32.865  19.839  1.00  0.00    -0.299 OA
ENDROOT
BRANCH   1   3
ATOM      3  C   UNL     1      13.948 -31.568  21.803  1.00  0.00     0.053 C 
ATOM      4  C   UNL     1      12.572 -30.951  21.504  1.00  0.00     0.016 C 
BRANCH   3   5
ATOM      5  C   UNL     1      15.103 -30.546  21.750  1.00  0.00     0.015 C 
BRANCH   5   6
ATOM      6  C   UNL     1      15.806 -30.290  23.098  1.00  0.00     0.028 C 
BRANCH   6   7
ATOM      7  C   UNL     1      17.295 -30.484  22.957  1.00  0.00    -0.028 C 
ATOM      8  C   UNL     1      17.964 -31.599  23.333  1.00  0.00    -0.070 CG0
ATOM      9  C   UNL     1      19.468 -31.588  23.235  1.00  0.00     0.039 C 
ATOM     10  G   UNL     1      17.261 -32.865  23.799  1.00  0.00     0.000 G0
ENDBRANCH   6   7
ENDBRANCH   5   6
ENDBRANCH   3   5
ENDBRANCH   1   3
BRANCH   1  11
ATOM     11  C   UNL     1      15.056 -33.988  21.525  1.00  0.00     0.087 C 
BRANCH  11  12
ATOM     12  C   UNL     1      16.606 -33.851  21.427  1.00  0.00     0.066 C 
BRANCH  12  13
ATOM     13  C   UNL     1      17.327 -33.992  22.764  1.00  0.00     0.140 C 
ATOM     14  O   UNL     1      18.015 -34.976  22.992  1.00  0.00    -0.299 OA
BRANCH  13  15
ATOM     15  C   UNL     1      17.266 -32.881  23.786  1.00  0.00     0.106 CG0
ATOM     16  G   UNL     1      17.974 -31.616  23.327  1.00  0.00     0.000 G0
ENDBRANCH  13  15
ENDBRANCH  12  13
BRANCH  12  17
ATOM     17  C   UNL     1      17.246 -34.691  20.274  1.00  0.00    -0.006 C 
ATOM     18  C   UNL     1      16.349 -35.875  19.877  1.00  0.00     0.008 C 
ATOM     19  C   UNL     1      17.635 -33.881  19.028  1.00  0.00     0.008 C 
ENDBRANCH  12  17
ENDBRANCH  11  12
ENDBRANCH   1  11
TORSDOF 1
ENDMDL
MODEL 3
REMARK VINA RESULT:    -4.462      1.509      1.681
REMARK INTER + INTRA:          -6.656
REMARK INTER:                  -6.509
REMARK INTRA:                  -0.147
REMARK UNBOUND:                 0.153
REMARK SMILES CC1=CCC[C@@H](C)C(=O)C[C@H](C(C)C)C(=O)C1
REMARK SMILES IDX 8 1 9 2 6 3 7 4 5 5 4 6 3 7 2 8 1 9 10 11 11 12 15 13 16 14
REMARK SMILES IDX 17 15 12 17 13 18 14 19
REMARK H PARENT
REMARK Flexibility Score: 70.00
ROOT
ATOM      1  C   UNL     1      16.961 -29.981  22.070  1.00  0.00     0.136 C 
ATOM      2  O   UNL     1      16.951 -28.869  21.564  1.00  0.00    -0.299 OA
ENDROOT
BRANCH   1   3
ATOM      3  C   UNL     1      18.104 -30.919  21.706  1.00  0.00     0.053 C 
ATOM      4  C   UNL     1      19.499 -30.361  22.032  1.00  0.00     0.016 C 
BRANCH   3   5
ATOM      5  C   UNL     1      17.976 -31.444  20.261  1.00  0.00     0.015 C 
BRANCH   5   6
ATOM      6  C   UNL     1      17.577 -32.929  20.143  1.00  0.00     0.028 C 
BRANCH   6   7
ATOM      7  C   UNL     1      17.917 -33.664  21.415  1.00  0.00    -0.028 C 
ATOM      8  C   UNL     1      17.015 -34.029  22.357  1.00  0.00    -0.070 CG0
ATOM      9  C   UNL     1      17.533 -34.652  23.628  1.00  0.00     0.039 C 
ATOM     10  G   UNL     1      15.514 -33.881  22.163  1.00  0.00     0.000 G0
ENDBRANCH   6   7
ENDBRANCH   5   6
ENDBRANCH   3   5
ENDBRANCH   1   3
BRANCH   1  11
ATOM     11  C   UNL     1      15.842 -30.359  23.023  1.00  0.00     0.087 C 
BRANCH  11  12
ATOM     12  C   UNL     1      14.782 -31.353  22.456  1.00  0.00     0.066 C 
BRANCH  12  13
ATOM     13  C   UNL     1      14.905 -32.771  23.005  1.00  0.00     0.140 C 
ATOM     14  O   UNL     1      14.461 -33.044  24.111  1.00  0.00    -0.299 OA
BRANCH  13  15
ATOM     15  C   UNL     1      15.500 -33.870  22.157  1.00  0.00     0.106 CG0
ATOM     16  G   UNL     1      17.002 -34.017  22.348  1.00  0.00     0.000 G0
ENDBRANCH  13  15
ENDBRANCH  12  13
BRANCH  12  17
ATOM     17  C   UNL     1      13.321 -30.797  22.468  1.00  0.00    -0.006 C 
ATOM     18  C   UNL     1      13.287 -29.316  22.883  1.00  0.00     0.008 C 
ATOM     19  C   UNL     1      12.547 -30.997  21.156  1.00  0.00     0.008 C 
ENDBRANCH  12  17
ENDBRANCH  11  12
ENDBRANCH   1  11
TORSDOF 1
ENDMDL
MODEL 4
REMARK VINA RESULT:    -4.262      2.618      4.639
REMARK INTER + INTRA:          -6.351
REMARK INTER:                  -5.948
REMARK INTRA:                  -0.402
REMARK UNBOUND:                 0.153
REMARK SMILES CC1=CCC[C@@H](C)C(=O)C[C@H](C(C)C)C(=O)C1
REMARK SMILES IDX 8 1 9 2 6 3 7 4 5 5 4 6 3 7 2 8 1 9 10 11 11 12 15 13 16 14
REMARK SMILES IDX 17 15 12 17 13 18 14 19
REMARK H PARENT
REMARK Flexibility Score: 70.00
ROOT
ATOM      1  C   UNL     1      15.352 -32.984  21.460  1.00  0.00     0.136 C 
ATOM      2  O   UNL     1      14.379 -32.921  20.724  1.00  0.00    -0.299 OA
ENDROOT
BRANCH   1   3
ATOM      3  C   UNL     1      15.882 -31.686  22.053  1.00  0.00     0.053 C 
ATOM      4  C   UNL     1      17.083 -31.097  21.295  1.00  0.00     0.016 C 
BRANCH   3   5
ATOM      5  C   UNL     1      16.113 -31.802  23.574  1.00  0.00     0.015 C 
BRANCH   5   6
ATOM      6  C   UNL     1      17.592 -31.856  24.005  1.00  0.00     0.028 C 
BRANCH   6   7
ATOM      7  C   UNL     1      17.823 -33.018  24.937  1.00  0.00    -0.028 C 
ATOM      8  C   UNL     1      18.446 -34.170  24.592  1.00  0.00    -0.070 CG0
ATOM      9  C   UNL     1      18.490 -35.282  25.607  1.00  0.00     0.039 C 
ATOM     10  G   UNL     1      19.138 -34.362  23.251  1.00  0.00     0.000 G0
ENDBRANCH   6   7
ENDBRANCH   5   6
ENDBRANCH   3   5
ENDBRANCH   1   3
BRANCH   1  11
ATOM     11  C   UNL     1      15.969 -34.342  21.739  1.00  0.00     0.087 C 
BRANCH  11  12
ATOM     12  C   UNL     1      17.440 -34.526  21.252  1.00  0.00     0.066 C 
BRANCH  12  13
ATOM     13  C   UNL     1      18.350 -35.206  22.270  1.00  0.00     0.140 C 
ATOM     14  O   UNL     1      18.495 -36.419  22.253  1.00  0.00    -0.299 OA
BRANCH  13  15
ATOM     15  C   UNL     1      19.145 -34.380  23.255  1.00  0.00     0.106 CG0
ATOM     16  G   UNL     1      18.425 -34.186  24.580  1.00  0.00     0.000 G0
ENDBRANCH  13  15
ENDBRANCH  12  13
BRANCH  12  17
ATOM     17  C   UNL     1      17.561 -35.112  19.808  1.00  0.00    -0.006 C 
ATOM     18  C   UNL     1      16.405 -36.076  19.494  1.00  0.00     0.008 C 
ATOM     19  C   UNL     1      17.690 -34.061  18.696  1.00  0.00     0.008 C 
ENDBRANCH  12  17
ENDBRANCH  11  12
ENDBRANCH   1  11
TORSDOF 1
ENDMDL
MODEL 5
REMARK VINA RESULT:    -4.205      2.198      3.150
REMARK INTER + INTRA:          -6.264
REMARK INTER:                  -6.161
REMARK INTRA:                  -0.104
REMARK UNBOUND:                 0.153
REMARK SMILES CC1=CCC[C@@H](C)C(=O)C[C@H](C(C)C)C(=O)C1
REMARK SMILES IDX 8 1 9 2 6 3 7 4 5 5 4 6 3 7 2 8 1 9 10 11 11 12 15 13 16 14
REMARK SMILES IDX 17 15 12 17 13 18 14 19
REMARK H PARENT
REMARK Flexibility Score: 70.00
ROOT
ATOM      1  C   UNL     1      16.955 -33.494  24.297  1.00  0.00     0.136 C 
ATOM      2  O   UNL     1      17.723 -32.641  24.714  1.00  0.00    -0.299 OA
ENDROOT
BRANCH   1   3
ATOM      3  C   UNL     1      17.418 -34.945  24.326  1.00  0.00     0.053 C 
ATOM      4  C   UNL     1      17.322 -35.605  25.710  1.00  0.00     0.016 C 
BRANCH   3   5
ATOM      5  C   UNL     1      18.797 -35.118  23.657  1.00  0.00     0.015 C 
BRANCH   5   6
ATOM      6  C   UNL     1      18.879 -34.624  22.199  1.00  0.00     0.028 C 
BRANCH   6   7
ATOM      7  C   UNL     1      17.958 -35.433  21.321  1.00  0.00    -0.028 C 
ATOM      8  C   UNL     1      16.937 -34.917  20.595  1.00  0.00    -0.070 CG0
ATOM      9  C   UNL     1      16.035 -35.876  19.863  1.00  0.00     0.039 C 
ATOM     10  G   UNL     1      16.700 -33.422  20.455  1.00  0.00     0.000 G0
ENDBRANCH   6   7
ENDBRANCH   5   6
ENDBRANCH   3   5
ENDBRANCH   1   3
BRANCH   1  11
ATOM     11  C   UNL     1      15.596 -33.062  23.779  1.00  0.00     0.087 C 
BRANCH  11  12
ATOM     12  C   UNL     1      15.615 -32.165  22.503  1.00  0.00     0.066 C 
BRANCH  12  13
ATOM     13  C   UNL     1      15.465 -32.941  21.198  1.00  0.00     0.140 C 
ATOM     14  O   UNL     1      14.358 -33.118  20.711  1.00  0.00    -0.299 OA
BRANCH  13  15
ATOM     15  C   UNL     1      16.687 -33.425  20.453  1.00  0.00     0.106 CG0
ATOM     16  G   UNL     1      16.922 -34.919  20.609  1.00  0.00     0.000 G0
ENDBRANCH  13  15
ENDBRANCH  12  13
BRANCH  12  17
ATOM     17  C   UNL     1      14.693 -30.907  22.598  1.00  0.00    -0.006 C 
ATOM     18  C   UNL     1      13.515 -31.144  23.558  1.00  0.00     0.008 C 
ATOM     19  C   UNL     1      15.420 -29.604  22.964  1.00  0.00     0.008 C 
ENDBRANCH  12  17
ENDBRANCH  11  12
ENDBRANCH   1  11
TORSDOF 1
ENDMDL
MODEL 6
REMARK VINA RESULT:    -4.083      1.645      4.179
REMARK INTER + INTRA:          -6.079
REMARK INTER:                  -6.037
REMARK INTRA:                  -0.042
REMARK UNBOUND:                 0.153
REMARK SMILES CC1=CCC[C@@H](C)C(=O)C[C@H](C(C)C)C(=O)C1
REMARK SMILES IDX 8 1 9 2 6 3 7 4 5 5 4 6 3 7 2 8 1 9 10 11 11 12 15 13 16 14
REMARK SMILES IDX 17 15 12 17 13 18 14 19
REMARK H PARENT
REMARK Flexibility Score: 70.00
ROOT
ATOM      1  C   UNL     1      18.549 -32.030  21.300  1.00  0.00     0.136 C 
ATOM      2  O   UNL     1      19.739 -32.112  21.563  1.00  0.00    -0.299 OA
ENDROOT
BRANCH   1   3
ATOM      3  C   UNL     1      17.816 -30.757  21.703  1.00  0.00     0.053 C 
ATOM      4  C   UNL     1      18.326 -29.492  20.997  1.00  0.00     0.016 C 
BRANCH   3   5
ATOM      5  C   UNL     1      17.724 -30.611  23.236  1.00  0.00     0.015 C 
BRANCH   5   6
ATOM      6  C   UNL     1      16.432 -31.169  23.866  1.00  0.00     0.028 C 
BRANCH   6   7
ATOM      7  C   UNL     1      15.235 -30.775  23.037  1.00  0.00    -0.028 C 
ATOM      8  C   UNL     1      14.473 -31.640  22.326  1.00  0.00    -0.070 CG0
ATOM      9  C   UNL     1      13.385 -31.072  21.453  1.00  0.00     0.039 C 
ATOM     10  G   UNL     1      14.643 -33.149  22.412  1.00  0.00     0.000 G0
ENDBRANCH   6   7
ENDBRANCH   5   6
ENDBRANCH   3   5
ENDBRANCH   1   3
BRANCH   1  11
ATOM     11  C   UNL     1      17.877 -33.192  20.594  1.00  0.00     0.087 C 
BRANCH  11  12
ATOM     12  C   UNL     1      16.922 -34.055  21.475  1.00  0.00     0.066 C 
BRANCH  12  13
ATOM     13  C   UNL     1      15.442 -33.738  21.279  1.00  0.00     0.140 C 
ATOM     14  O   UNL     1      14.886 -34.018  20.227  1.00  0.00    -0.299 OA
BRANCH  13  15
ATOM     15  C   UNL     1      14.630 -33.154  22.411  1.00  0.00     0.106 CG0
ATOM     16  G   UNL     1      14.482 -31.643  22.314  1.00  0.00     0.000 G0
ENDBRANCH  13  15
ENDBRANCH  12  13
BRANCH  12  17
ATOM     17  C   UNL     1      17.247 -35.584  21.454  1.00  0.00    -0.006 C 
ATOM     18  C   UNL     1      17.257 -36.137  20.019  1.00  0.00     0.008 C 
ATOM     19  C   UNL     1      18.543 -35.975  22.180  1.00  0.00     0.008 C 
ENDBRANCH  12  17
ENDBRANCH  11  12
ENDBRANCH   1  11
TORSDOF 1
ENDMDL
MODEL 7
REMARK VINA RESULT:    -4.049      1.660      4.213
REMARK INTER + INTRA:          -6.027
REMARK INTER:                  -6.379
REMARK INTRA:                   0.352
REMARK UNBOUND:                 0.153
REMARK SMILES CC1=CCC[C@@H](C)C(=O)C[C@H](C(C)C)C(=O)C1
REMARK SMILES IDX 8 1 9 2 6 3 7 4 5 5 4 6 3 7 2 8 1 9 10 11 11 12 15 13 16 14
REMARK SMILES IDX 17 15 12 17 13 18 14 19
REMARK H PARENT
REMARK Flexibility Score: 70.00
ROOT
ATOM      1  C   UNL     1      15.888 -30.225  22.515  1.00  0.00     0.136 C 
ATOM      2  O   UNL     1      16.411 -29.983  23.593  1.00  0.00    -0.299 OA
ENDROOT
BRANCH   1   3
ATOM      3  C   UNL     1      14.389 -30.490  22.495  1.00  0.00     0.053 C 
ATOM      4  C   UNL     1      13.597 -29.687  23.540  1.00  0.00     0.016 C 
BRANCH   3   5
ATOM      5  C   UNL     1      14.074 -32.000  22.513  1.00  0.00     0.015 C 
BRANCH   5   6
ATOM      6  C   UNL     1      14.521 -32.772  21.255  1.00  0.00     0.028 C 
BRANCH   6   7
ATOM      7  C   UNL     1      15.428 -33.915  21.640  1.00  0.00    -0.028 C 
ATOM      8  C   UNL     1      16.703 -34.064  21.208  1.00  0.00    -0.070 CG0
ATOM      9  C   UNL     1      17.435 -35.325  21.588  1.00  0.00     0.039 C 
ATOM     10  G   UNL     1      17.431 -32.997  20.405  1.00  0.00     0.000 G0
ENDBRANCH   6   7
ENDBRANCH   5   6
ENDBRANCH   3   5
ENDBRANCH   1   3
BRANCH   1  11
ATOM     11  C   UNL     1      16.757 -30.248  21.272  1.00  0.00     0.087 C 
BRANCH  11  12
ATOM     12  C   UNL     1      18.228 -30.722  21.486  1.00  0.00     0.066 C 
BRANCH  12  13
ATOM     13  C   UNL     1      18.441 -32.213  21.238  1.00  0.00     0.140 C 
ATOM     14  O   UNL     1      19.381 -32.795  21.757  1.00  0.00    -0.299 OA
BRANCH  13  15
ATOM     15  C   UNL     1      17.446 -33.000  20.417  1.00  0.00     0.106 CG0
ATOM     16  G   UNL     1      16.708 -34.051  21.231  1.00  0.00     0.000 G0
ENDBRANCH  13  15
ENDBRANCH  12  13
BRANCH  12  17
ATOM     17  C   UNL     1      19.295 -29.810  20.801  1.00  0.00    -0.006 C 
ATOM     18  C   UNL     1      18.781 -28.370  20.636  1.00  0.00     0.008 C 
ATOM     19  C   UNL     1      20.671 -29.806  21.483  1.00  0.00     0.008 C 
ENDBRANCH  12  17
ENDBRANCH  11  12
ENDBRANCH   1  11
TORSDOF 1
ENDMDL
MODEL 8
REMARK VINA RESULT:    -4.000      2.181      3.787
REMARK INTER + INTRA:          -5.951
REMARK INTER:                  -5.655
REMARK INTRA:                  -0.296
REMARK UNBOUND:                 0.153
REMARK SMILES CC1=CCC[C@@H](C)C(=O)C[C@H](C(C)C)C(=O)C1
REMARK SMILES IDX 8 1 9 2 6 3 7 4 5 5 4 6 3 7 2 8 1 9 10 11 11 12 15 13 16 14
REMARK SMILES IDX 17 15 12 17 13 18 14 19
REMARK H PARENT
REMARK Flexibility Score: 70.00
ROOT
ATOM      1  C   UNL     1      16.427 -33.267  20.539  1.00  0.00     0.136 C 
ATOM      2  O   UNL     1      15.298 -33.677  20.321  1.00  0.00    -0.299 OA
ENDROOT
BRANCH   1   3
ATOM      3  C   UNL     1      17.598 -34.145  20.117  1.00  0.00     0.053 C 
ATOM      4  C   UNL     1      17.720 -34.337  18.598  1.00  0.00     0.016 C 
BRANCH   3   5
ATOM      5  C   UNL     1      17.635 -35.469  20.909  1.00  0.00     0.015 C 
BRANCH   5   6
ATOM      6  C   UNL     1      17.758 -35.309  22.437  1.00  0.00     0.028 C 
BRANCH   6   7
ATOM      7  C   UNL     1      19.046 -34.606  22.787  1.00  0.00    -0.028 C 
ATOM      8  C   UNL     1      19.133 -33.505  23.570  1.00  0.00    -0.070 CG0
ATOM      9  C   UNL     1      20.482 -32.852  23.725  1.00  0.00     0.039 C 
ATOM     10  G   UNL     1      17.943 -32.939  24.330  1.00  0.00     0.000 G0
ENDBRANCH   6   7
ENDBRANCH   5   6
ENDBRANCH   3   5
ENDBRANCH   1   3
BRANCH   1  11
ATOM     11  C   UNL     1      16.596 -31.917  21.212  1.00  0.00     0.087 C 
BRANCH  11  12
ATOM     12  C   UNL     1      16.165 -31.853  22.709  1.00  0.00     0.066 C 
BRANCH  12  13
ATOM     13  C   UNL     1      17.331 -31.710  23.684  1.00  0.00     0.140 C 
ATOM     14  O   UNL     1      17.743 -30.602  23.993  1.00  0.00    -0.299 OA
BRANCH  13  15
ATOM     15  C   UNL     1      17.930 -32.932  24.341  1.00  0.00     0.106 CG0
ATOM     16  G   UNL     1      19.113 -33.497  23.569  1.00  0.00     0.000 G0
ENDBRANCH  13  15
ENDBRANCH  12  13
BRANCH  12  17
ATOM     17  C   UNL     1      14.986 -30.866  22.988  1.00  0.00    -0.006 C 
ATOM     18  C   UNL     1      14.777 -29.894  21.815  1.00  0.00     0.008 C 
ATOM     19  C   UNL     1      13.657 -31.541  23.360  1.00  0.00     0.008 C 
ENDBRANCH  12  17
ENDBRANCH  11  12
ENDBRANCH   1  11
TORSDOF 1
ENDMDL
MODEL 9
REMARK VINA RESULT:    -3.958      1.477      3.963
REMARK INTER + INTRA:          -5.888
REMARK INTER:                  -5.946
REMARK INTRA:                   0.058
REMARK UNBOUND:                 0.153
REMARK SMILES CC1=CCC[C@@H](C)C(=O)C[C@H](C(C)C)C(=O)C1
REMARK SMILES IDX 8 1 9 2 6 3 7 4 5 5 4 6 3 7 2 8 1 9 10 11 11 12 15 13 16 14
REMARK SMILES IDX 17 15 12 17 13 18 14 19
REMARK H PARENT
REMARK Flexibility Score: 70.00
ROOT
ATOM      1  C   UNL     1      17.715 -30.535  21.250  1.00  0.00     0.136 C 
ATOM      2  O   UNL     1      18.555 -29.688  21.511  1.00  0.00    -0.299 OA
ENDROOT
BRANCH   1   3
ATOM      3  C   UNL     1      16.305 -30.328  21.786  1.00  0.00     0.053 C 
ATOM      4  C   UNL     1      15.824 -28.869  21.734  1.00  0.00     0.016 C 
BRANCH   3   5
ATOM      5  C   UNL     1      16.114 -30.989  23.167  1.00  0.00     0.015 C 
BRANCH   5   6
ATOM      6  C   UNL     1      14.989 -32.041  23.234  1.00  0.00     0.028 C 
BRANCH   6   7
ATOM      7  C   UNL     1      14.165 -32.005  21.972  1.00  0.00    -0.028 C 
ATOM      8  C   UNL     1      14.328 -32.847  20.923  1.00  0.00    -0.070 CG0
ATOM      9  C   UNL     1      13.503 -32.603  19.686  1.00  0.00     0.039 C 
ATOM     10  G   UNL     1      15.266 -34.043  20.965  1.00  0.00     0.000 G0
ENDBRANCH   6   7
ENDBRANCH   5   6
ENDBRANCH   3   5
ENDBRANCH   1   3
BRANCH   1  11
ATOM     11  C   UNL     1      18.122 -31.734  20.413  1.00  0.00     0.087 C 
BRANCH  11  12
ATOM     12  C   UNL     1      17.731 -33.126  20.997  1.00  0.00     0.066 C 
BRANCH  12  13
ATOM     13  C   UNL     1      16.579 -33.805  20.261  1.00  0.00     0.140 C 
ATOM     14  O   UNL     1      16.733 -34.214  19.119  1.00  0.00    -0.299 OA
BRANCH  13  15
ATOM     15  C   UNL     1      15.265 -34.053  20.963  1.00  0.00     0.106 CG0
ATOM     16  G   UNL     1      14.338 -32.848  20.926  1.00  0.00     0.000 G0
ENDBRANCH  13  15
ENDBRANCH  12  13
BRANCH  12  17
ATOM     17  C   UNL     1      18.949 -34.067  21.265  1.00  0.00    -0.006 C 
ATOM     18  C   UNL     1      19.801 -33.563  22.442  1.00  0.00     0.008 C 
ATOM     19  C   UNL     1      18.587 -35.546  21.469  1.00  0.00     0.008 C 
ENDBRANCH  12  17
ENDBRANCH  11  12
ENDBRANCH   1  11
TORSDOF 1
ENDMDL
