MODEL 1
REMARK VINA RESULT:    -4.714      0.000      0.000
REMARK INTER + INTRA:          -6.161
REMARK INTER:                  -6.092
REMARK INTRA:                  -0.069
REMARK UNBOUND:                -0.069
REMARK SMILES CCCCCCC(=O)[O-]
REMARK SMILES IDX 5 1 6 2 7 3 8 4 9 5 4 6 3 7 2 8 1 9
REMARK H PARENT
REMARK Flexibility Score: inf
ROOT
ATOM      1  C   UNL     1      96.927 124.020 125.127  1.00  0.00     0.006 C 
ENDROOT
BRANCH   1   2
ATOM      2  C   UNL     1      97.822 125.248 125.316  1.00  0.00     0.053 C 
BRANCH   2   3
ATOM      3  C   UNL     1      98.606 125.136 126.586  1.00  0.00     0.041 C 
ATOM      4  O   UNL     1      98.441 125.976 127.509  1.00  0.00    -0.550 OA
ATOM      5  O   UNL     1      99.481 124.073 126.771  1.00  0.00    -0.550 OA
ENDBRANCH   2   3
ENDBRANCH   1   2
BRANCH   1   6
ATOM      6  C   UNL     1      95.913 124.249 123.996  1.00  0.00     0.000 C 
BRANCH   6   7
ATOM      7  C   UNL     1      95.440 122.937 123.351  1.00  0.00    -0.000 C 
BRANCH   7   8
ATOM      8  C   UNL     1      93.920 122.743 123.453  1.00  0.00    -0.003 C 
ATOM      9  C   UNL     1      93.354 122.145 122.168  1.00  0.00     0.004 C 
ENDBRANCH   7   8
ENDBRANCH   6   7
ENDBRANCH   1   6
TORSDOF 5
ENDMDL
MODEL 2
REMARK VINA RESULT:    -4.381      1.315      2.080
REMARK INTER + INTRA:          -5.731
REMARK INTER:                  -5.585
REMARK INTRA:                  -0.146
REMARK UNBOUND:                -0.069
REMARK SMILES CCCCCCC(=O)[O-]
REMARK SMILES IDX 5 1 6 2 7 3 8 4 9 5 4 6 3 7 2 8 1 9
REMARK H PARENT
REMARK Flexibility Score: inf
ROOT
ATOM      1  C   UNL     1      95.926 123.286 123.826  1.00  0.00     0.006 C 
ENDROOT
BRANCH   1   2
ATOM      2  C   UNL     1      96.379 124.719 124.120  1.00  0.00     0.053 C 
BRANCH   2   3
ATOM      3  C   UNL     1      97.385 124.735 125.228  1.00  0.00     0.041 C 
ATOM      4  O   UNL     1      97.527 123.728 125.970  1.00  0.00    -0.550 OA
ATOM      5  O   UNL     1      98.203 125.843 125.408  1.00  0.00    -0.550 OA
ENDBRANCH   2   3
ENDBRANCH   1   2
BRANCH   1   6
ATOM      6  C   UNL     1      94.393 123.196 123.774  1.00  0.00     0.000 C 
BRANCH   6   7
ATOM      7  C   UNL     1      93.899 121.935 123.048  1.00  0.00    -0.000 C 
BRANCH   7   8
ATOM      8  C   UNL     1      93.037 122.260 121.819  1.00  0.00    -0.003 C 
ATOM      9  C   UNL     1      93.708 121.780 120.535  1.00  0.00     0.004 C 
ENDBRANCH   7   8
ENDBRANCH   6   7
ENDBRANCH   1   6
TORSDOF 5
ENDMDL
MODEL 3
REMARK VINA RESULT:    -4.094     10.187     10.988
REMARK INTER + INTRA:          -5.360
REMARK INTER:                  -5.182
REMARK INTRA:                  -0.178
REMARK UNBOUND:                -0.069
REMARK SMILES CCCCCCC(=O)[O-]
REMARK SMILES IDX 5 1 6 2 7 3 8 4 9 5 4 6 3 7 2 8 1 9
REMARK H PARENT
REMARK Flexibility Score: inf
ROOT
ATOM      1  C   UNL     1      87.544 123.694 130.935  1.00  0.00     0.006 C 
ENDROOT
BRANCH   1   2
ATOM      2  C   UNL     1      88.207 122.943 129.776  1.00  0.00     0.053 C 
BRANCH   2   3
ATOM      3  C   UNL     1      88.567 121.551 130.190  1.00  0.00     0.041 C 
ATOM      4  O   UNL     1      89.309 121.358 131.189  1.00  0.00    -0.550 OA
ATOM      5  O   UNL     1      88.040 120.464 129.504  1.00  0.00    -0.550 OA
ENDBRANCH   2   3
ENDBRANCH   1   2
BRANCH   1   6
ATOM      6  C   UNL     1      86.516 124.709 130.414  1.00  0.00     0.000 C 
BRANCH   6   7
ATOM      7  C   UNL     1      86.746 125.082 128.942  1.00  0.00    -0.000 C 
BRANCH   7   8
ATOM      8  C   UNL     1      85.508 125.717 128.291  1.00  0.00    -0.003 C 
ATOM      9  C   UNL     1      84.812 124.732 127.355  1.00  0.00     0.004 C 
ENDBRANCH   7   8
ENDBRANCH   6   7
ENDBRANCH   1   6
TORSDOF 5
ENDMDL
MODEL 4
REMARK VINA RESULT:    -4.061      2.000      3.335
REMARK INTER + INTRA:          -5.317
REMARK INTER:                  -5.206
REMARK INTRA:                  -0.112
REMARK UNBOUND:                -0.069
REMARK SMILES CCCCCCC(=O)[O-]
REMARK SMILES IDX 5 1 6 2 7 3 8 4 9 5 4 6 3 7 2 8 1 9
REMARK H PARENT
REMARK Flexibility Score: inf
ROOT
ATOM      1  C   UNL     1      94.146 123.159 123.995  1.00  0.00     0.006 C 
ENDROOT
BRANCH   1   2
ATOM      2  C   UNL     1      95.462 123.874 123.676  1.00  0.00     0.053 C 
BRANCH   2   3
ATOM      3  C   UNL     1      96.550 123.400 124.588  1.00  0.00     0.041 C 
ATOM      4  O   UNL     1      97.003 122.231 124.481  1.00  0.00    -0.550 OA
ATOM      5  O   UNL     1      97.100 124.269 125.523  1.00  0.00    -0.550 OA
ENDBRANCH   2   3
ENDBRANCH   1   2
BRANCH   1   6
ATOM      6  C   UNL     1      93.925 121.969 123.048  1.00  0.00     0.000 C 
BRANCH   6   7
ATOM      7  C   UNL     1      93.000 122.313 121.871  1.00  0.00    -0.000 C 
BRANCH   7   8
ATOM      8  C   UNL     1      93.570 121.857 120.519  1.00  0.00    -0.003 C 
ATOM      9  C   UNL     1      92.760 122.433 119.359  1.00  0.00     0.004 C 
ENDBRANCH   7   8
ENDBRANCH   6   7
ENDBRANCH   1   6
TORSDOF 5
ENDMDL
MODEL 5
REMARK VINA RESULT:    -3.927      4.691      6.599
REMARK INTER + INTRA:          -5.144
REMARK INTER:                  -5.046
REMARK INTRA:                  -0.098
REMARK UNBOUND:                -0.069
REMARK SMILES CCCCCCC(=O)[O-]
REMARK SMILES IDX 5 1 6 2 7 3 8 4 9 5 4 6 3 7 2 8 1 9
REMARK H PARENT
REMARK Flexibility Score: inf
ROOT
ATOM      1  C   UNL     1      93.850 121.897 122.477  1.00  0.00     0.006 C 
ENDROOT
BRANCH   1   2
ATOM      2  C   UNL     1      92.749 122.400 121.538  1.00  0.00     0.053 C 
BRANCH   2   3
ATOM      3  C   UNL     1      93.131 122.166 120.110  1.00  0.00     0.041 C 
ATOM      4  O   UNL     1      92.461 122.686 119.181  1.00  0.00    -0.550 OA
ATOM      5  O   UNL     1      94.260 121.414 119.807  1.00  0.00    -0.550 OA
ENDBRANCH   2   3
ENDBRANCH   1   2
BRANCH   1   6
ATOM      6  C   UNL     1      94.246 122.984 123.488  1.00  0.00     0.000 C 
BRANCH   6   7
ATOM      7  C   UNL     1      95.768 123.095 123.671  1.00  0.00    -0.000 C 
BRANCH   7   8
ATOM      8  C   UNL     1      96.213 124.505 124.085  1.00  0.00    -0.003 C 
ATOM      9  C   UNL     1      97.264 124.448 125.191  1.00  0.00     0.004 C 
ENDBRANCH   7   8
ENDBRANCH   6   7
ENDBRANCH   1   6
TORSDOF 5
ENDMDL
MODEL 6
REMARK VINA RESULT:    -3.912      3.592      5.582
REMARK INTER + INTRA:          -5.124
REMARK INTER:                  -4.999
REMARK INTRA:                  -0.125
REMARK UNBOUND:                -0.069
REMARK SMILES CCCCCCC(=O)[O-]
REMARK SMILES IDX 5 1 6 2 7 3 8 4 9 5 4 6 3 7 2 8 1 9
REMARK H PARENT
REMARK Flexibility Score: inf
ROOT
ATOM      1  C   UNL     1      95.621 124.147 124.004  1.00  0.00     0.006 C 
ENDROOT
BRANCH   1   2
ATOM      2  C   UNL     1      95.336 122.865 123.216  1.00  0.00     0.053 C 
BRANCH   2   3
ATOM      3  C   UNL     1      93.861 122.639 123.099  1.00  0.00     0.041 C 
ATOM      4  O   UNL     1      93.058 123.337 123.770  1.00  0.00    -0.550 OA
ATOM      5  O   UNL     1      93.373 121.692 122.208  1.00  0.00    -0.550 OA
ENDBRANCH   2   3
ENDBRANCH   1   2
BRANCH   1   6
ATOM      6  C   UNL     1      96.878 123.988 124.873  1.00  0.00     0.000 C 
BRANCH   6   7
ATOM      7  C   UNL     1      97.541 125.333 125.207  1.00  0.00    -0.000 C 
BRANCH   7   8
ATOM      8  C   UNL     1      98.486 125.244 126.415  1.00  0.00    -0.003 C 
ATOM      9  C   UNL     1      99.154 123.874 126.490  1.00  0.00     0.004 C 
ENDBRANCH   7   8
ENDBRANCH   6   7
ENDBRANCH   1   6
TORSDOF 5
ENDMDL
MODEL 7
REMARK VINA RESULT:    -3.828     10.998     11.870
REMARK INTER + INTRA:          -5.017
REMARK INTER:                  -4.766
REMARK INTRA:                  -0.251
REMARK UNBOUND:                -0.069
REMARK SMILES CCCCCCC(=O)[O-]
REMARK SMILES IDX 5 1 6 2 7 3 8 4 9 5 4 6 3 7 2 8 1 9
REMARK H PARENT
REMARK Flexibility Score: inf
ROOT
ATOM      1  C   UNL     1      86.330 124.825 130.563  1.00  0.00     0.006 C 
ENDROOT
BRANCH   1   2
ATOM      2  C   UNL     1      86.669 124.555 129.094  1.00  0.00     0.053 C 
BRANCH   2   3
ATOM      3  C   UNL     1      85.810 125.389 128.196  1.00  0.00     0.041 C 
ATOM      4  O   UNL     1      85.987 126.633 128.125  1.00  0.00    -0.550 OA
ATOM      5  O   UNL     1      84.847 124.784 127.398  1.00  0.00    -0.550 OA
ENDBRANCH   2   3
ENDBRANCH   1   2
BRANCH   1   6
ATOM      6  C   UNL     1      87.209 123.974 131.493  1.00  0.00     0.000 C 
BRANCH   6   7
ATOM      7  C   UNL     1      88.402 123.339 130.762  1.00  0.00    -0.000 C 
BRANCH   7   8
ATOM      8  C   UNL     1      88.659 121.889 131.199  1.00  0.00    -0.003 C 
ATOM      9  C   UNL     1      87.349 121.162 131.490  1.00  0.00     0.004 C 
ENDBRANCH   7   8
ENDBRANCH   6   7
ENDBRANCH   1   6
TORSDOF 5
ENDMDL
MODEL 8
REMARK VINA RESULT:    -3.827     11.729     12.393
REMARK INTER + INTRA:          -5.016
REMARK INTER:                  -4.849
REMARK INTRA:                  -0.167
REMARK UNBOUND:                -0.069
REMARK SMILES CCCCCCC(=O)[O-]
REMARK SMILES IDX 5 1 6 2 7 3 8 4 9 5 4 6 3 7 2 8 1 9
REMARK H PARENT
REMARK Flexibility Score: inf
ROOT
ATOM      1  C   UNL     1      83.894 124.018 127.079  1.00  0.00     0.006 C 
ENDROOT
BRANCH   1   2
ATOM      2  C   UNL     1      85.299 124.255 127.642  1.00  0.00     0.053 C 
BRANCH   2   3
ATOM      3  C   UNL     1      85.373 125.585 128.324  1.00  0.00     0.041 C 
ATOM      4  O   UNL     1      86.230 126.434 127.965  1.00  0.00    -0.550 OA
ATOM      5  O   UNL     1      84.461 125.905 129.322  1.00  0.00    -0.550 OA
ENDBRANCH   2   3
ENDBRANCH   1   2
BRANCH   1   6
ATOM      6  C   UNL     1      83.850 124.315 125.572  1.00  0.00     0.000 C 
BRANCH   6   7
ATOM      7  C   UNL     1      84.527 123.220 124.733  1.00  0.00    -0.000 C 
BRANCH   7   8
ATOM      8  C   UNL     1      83.636 121.984 124.546  1.00  0.00    -0.003 C 
ATOM      9  C   UNL     1      83.131 121.882 123.109  1.00  0.00     0.004 C 
ENDBRANCH   7   8
ENDBRANCH   6   7
ENDBRANCH   1   6
TORSDOF 5
ENDMDL
MODEL 9
REMARK VINA RESULT:    -3.757     10.953     12.006
REMARK INTER + INTRA:          -4.924
REMARK INTER:                  -4.612
REMARK INTRA:                  -0.312
REMARK UNBOUND:                -0.069
REMARK SMILES CCCCCCC(=O)[O-]
REMARK SMILES IDX 5 1 6 2 7 3 8 4 9 5 4 6 3 7 2 8 1 9
REMARK H PARENT
REMARK Flexibility Score: inf
ROOT
ATOM      1  C   UNL     1      88.715 121.786 131.120  1.00  0.00     0.006 C 
ENDROOT
BRANCH   1   2
ATOM      2  C   UNL     1      87.468 120.960 131.451  1.00  0.00     0.053 C 
BRANCH   2   3
ATOM      3  C   UNL     1      87.061 120.132 130.273  1.00  0.00     0.041 C 
ATOM      4  O   UNL     1      87.784 120.095 129.243  1.00  0.00    -0.550 OA
ATOM      5  O   UNL     1      85.908 119.359 130.333  1.00  0.00    -0.550 OA
ENDBRANCH   2   3
ENDBRANCH   1   2
BRANCH   1   6
ATOM      6  C   UNL     1      88.422 123.290 131.235  1.00  0.00     0.000 C 
BRANCH   6   7
ATOM      7  C   UNL     1      87.540 123.811 130.090  1.00  0.00    -0.000 C 
BRANCH   7   8
ATOM      8  C   UNL     1      86.383 124.690 130.587  1.00  0.00    -0.003 C 
ATOM      9  C   UNL     1      86.437 124.865 132.103  1.00  0.00     0.004 C 
ENDBRANCH   7   8
ENDBRANCH   6   7
ENDBRANCH   1   6
TORSDOF 5
ENDMDL
