MODEL 1
REMARK VINA RESULT:    -2.750      0.000      0.000
REMARK INTER + INTRA:          -3.501
REMARK INTER:                  -3.393
REMARK INTRA:                  -0.108
REMARK UNBOUND:                -0.108
REMARK SMILES CCCCCC(=O)[O-]
REMARK SMILES IDX 4 1 5 2 6 3 7 4 8 5 3 6 2 7 1 8
REMARK H PARENT
REMARK Flexibility Score: inf
ROOT
ATOM      1  C   UNL     1      18.978  23.632  46.240  1.00  0.00     0.006 C 
ENDROOT
BRANCH   1   2
ATOM      2  C   UNL     1      19.943  22.948  45.266  1.00  0.00     0.053 C 
BRANCH   2   3
ATOM      3  C   UNL     1      21.025  22.236  46.014  1.00  0.00     0.041 C 
ATOM      4  O   UNL     1      20.731  21.398  46.906  1.00  0.00    -0.550 OA
ATOM      5  O   UNL     1      22.358  22.534  45.760  1.00  0.00    -0.550 OA
ENDBRANCH   2   3
ENDBRANCH   1   2
BRANCH   1   6
ATOM      6  C   UNL     1      17.979  24.523  45.490  1.00  0.00     0.000 C 
BRANCH   6   7
ATOM      7  C   UNL     1      17.746  24.008  44.065  1.00  0.00    -0.003 C 
ATOM      8  C   UNL     1      17.919  25.125  43.040  1.00  0.00     0.004 C 
ENDBRANCH   6   7
ENDBRANCH   1   6
TORSDOF 4
ENDMDL
MODEL 2
REMARK VINA RESULT:    -2.711      3.028      4.332
REMARK INTER + INTRA:          -3.453
REMARK INTER:                  -3.336
REMARK INTRA:                  -0.117
REMARK UNBOUND:                -0.108
REMARK SMILES CCCCCC(=O)[O-]
REMARK SMILES IDX 4 1 5 2 6 3 7 4 8 5 3 6 2 7 1 8
REMARK H PARENT
REMARK Flexibility Score: inf
ROOT
ATOM      1  C   UNL     1      19.720  23.618  44.915  1.00  0.00     0.006 C 
ENDROOT
BRANCH   1   2
ATOM      2  C   UNL     1      19.061  24.917  44.439  1.00  0.00     0.053 C 
BRANCH   2   3
ATOM      3  C   UNL     1      17.970  24.622  43.460  1.00  0.00     0.041 C 
ATOM      4  O   UNL     1      16.876  24.140  43.856  1.00  0.00    -0.550 OA
ATOM      5  O   UNL     1      18.178  24.832  42.102  1.00  0.00    -0.550 OA
ENDBRANCH   2   3
ENDBRANCH   1   2
BRANCH   1   6
ATOM      6  C   UNL     1      19.269  23.262  46.337  1.00  0.00     0.000 C 
BRANCH   6   7
ATOM      7  C   UNL     1      20.258  22.298  47.002  1.00  0.00    -0.003 C 
ATOM      8  C   UNL     1      21.390  21.927  46.049  1.00  0.00     0.004 C 
ENDBRANCH   6   7
ENDBRANCH   1   6
TORSDOF 4
ENDMDL
MODEL 3
REMARK VINA RESULT:    -2.501      1.666      2.271
REMARK INTER + INTRA:          -3.193
REMARK INTER:                  -2.978
REMARK INTRA:                  -0.215
REMARK UNBOUND:                -0.108
REMARK SMILES CCCCCC(=O)[O-]
REMARK SMILES IDX 4 1 5 2 6 3 7 4 8 5 3 6 2 7 1 8
REMARK H PARENT
REMARK Flexibility Score: inf
ROOT
ATOM      1  C   UNL     1      19.956  22.172  46.048  1.00  0.00     0.006 C 
ENDROOT
BRANCH   1   2
ATOM      2  C   UNL     1      21.445  22.045  46.382  1.00  0.00     0.053 C 
BRANCH   2   3
ATOM      3  C   UNL     1      22.267  22.844  45.421  1.00  0.00     0.041 C 
ATOM      4  O   UNL     1      21.728  23.370  44.412  1.00  0.00    -0.550 OA
ATOM      5  O   UNL     1      23.638  22.965  45.611  1.00  0.00    -0.550 OA
ENDBRANCH   2   3
ENDBRANCH   1   2
BRANCH   1   6
ATOM      6  C   UNL     1      19.218  22.979  47.124  1.00  0.00     0.000 C 
BRANCH   6   7
ATOM      7  C   UNL     1      18.537  24.211  46.515  1.00  0.00    -0.003 C 
ATOM      8  C   UNL     1      18.242  24.001  45.033  1.00  0.00     0.004 C 
ENDBRANCH   6   7
ENDBRANCH   1   6
TORSDOF 4
ENDMDL
MODEL 4
REMARK VINA RESULT:    -2.448     17.972     18.866
REMARK INTER + INTRA:          -3.128
REMARK INTER:                  -3.061
REMARK INTRA:                  -0.067
REMARK UNBOUND:                -0.108
REMARK SMILES CCCCCC(=O)[O-]
REMARK SMILES IDX 4 1 5 2 6 3 7 4 8 5 3 6 2 7 1 8
REMARK H PARENT
REMARK Flexibility Score: inf
ROOT
ATOM      1  C   UNL     1      30.298  23.922  31.242  1.00  0.00     0.006 C 
ENDROOT
BRANCH   1   2
ATOM      2  C   UNL     1      31.074  24.470  30.040  1.00  0.00     0.053 C 
BRANCH   2   3
ATOM      3  C   UNL     1      31.006  23.512  28.893  1.00  0.00     0.041 C 
ATOM      4  O   UNL     1      31.927  22.672  28.714  1.00  0.00    -0.550 OA
ATOM      5  O   UNL     1      29.951  23.579  27.992  1.00  0.00    -0.550 OA
ENDBRANCH   2   3
ENDBRANCH   1   2
BRANCH   1   6
ATOM      6  C   UNL     1      30.314  24.921  32.407  1.00  0.00     0.000 C 
BRANCH   6   7
ATOM      7  C   UNL     1      31.738  25.123  32.938  1.00  0.00    -0.003 C 
ATOM      8  C   UNL     1      31.761  25.125  34.464  1.00  0.00     0.004 C 
ENDBRANCH   6   7
ENDBRANCH   1   6
TORSDOF 4
ENDMDL
MODEL 5
REMARK VINA RESULT:    -2.099     18.143     19.036
REMARK INTER + INTRA:          -2.697
REMARK INTER:                  -2.595
REMARK INTRA:                  -0.102
REMARK UNBOUND:                -0.108
REMARK SMILES CCCCCC(=O)[O-]
REMARK SMILES IDX 4 1 5 2 6 3 7 4 8 5 3 6 2 7 1 8
REMARK H PARENT
REMARK Flexibility Score: inf
ROOT
ATOM      1  C   UNL     1      30.535  23.993  29.824  1.00  0.00     0.006 C 
ENDROOT
BRANCH   1   2
ATOM      2  C   UNL     1      31.011  25.124  30.740  1.00  0.00     0.053 C 
BRANCH   2   3
ATOM      3  C   UNL     1      30.569  24.879  32.148  1.00  0.00     0.041 C 
ATOM      4  O   UNL     1      29.348  24.712  32.408  1.00  0.00    -0.550 OA
ATOM      5  O   UNL     1      31.498  24.885  33.181  1.00  0.00    -0.550 OA
ENDBRANCH   2   3
ENDBRANCH   1   2
BRANCH   1   6
ATOM      6  C   UNL     1      31.706  23.395  29.034  1.00  0.00     0.000 C 
BRANCH   6   7
ATOM      7  C   UNL     1      31.527  23.622  27.529  1.00  0.00    -0.003 C 
ATOM      8  C   UNL     1      30.102  24.061  27.204  1.00  0.00     0.004 C 
ENDBRANCH   6   7
ENDBRANCH   1   6
TORSDOF 4
ENDMDL
MODEL 6
REMARK VINA RESULT:    -2.071     18.321     19.246
REMARK INTER + INTRA:          -2.662
REMARK INTER:                  -2.576
REMARK INTRA:                  -0.086
REMARK UNBOUND:                -0.108
REMARK SMILES CCCCCC(=O)[O-]
REMARK SMILES IDX 4 1 5 2 6 3 7 4 8 5 3 6 2 7 1 8
REMARK H PARENT
REMARK Flexibility Score: inf
ROOT
ATOM      1  C   UNL     1      30.812  23.800  29.712  1.00  0.00     0.006 C 
ENDROOT
BRANCH   1   2
ATOM      2  C   UNL     1      30.239  25.066  30.355  1.00  0.00     0.053 C 
BRANCH   2   3
ATOM      3  C   UNL     1      30.198  24.926  31.844  1.00  0.00     0.041 C 
ATOM      4  O   UNL     1      29.098  24.769  32.435  1.00  0.00    -0.550 OA
ATOM      5  O   UNL     1      31.371  25.018  32.584  1.00  0.00    -0.550 OA
ENDBRANCH   2   3
ENDBRANCH   1   2
BRANCH   1   6
ATOM      6  C   UNL     1      30.265  23.609  28.292  1.00  0.00     0.000 C 
BRANCH   6   7
ATOM      7  C   UNL     1      31.380  23.754  27.250  1.00  0.00    -0.003 C 
ATOM      8  C   UNL     1      32.641  23.012  27.685  1.00  0.00     0.004 C 
ENDBRANCH   6   7
ENDBRANCH   1   6
TORSDOF 4
ENDMDL
MODEL 7
REMARK VINA RESULT:    -1.937     20.139     21.009
REMARK INTER + INTRA:          -2.497
REMARK INTER:                  -2.275
REMARK INTRA:                  -0.222
REMARK UNBOUND:                -0.108
REMARK SMILES CCCCCC(=O)[O-]
REMARK SMILES IDX 4 1 5 2 6 3 7 4 8 5 3 6 2 7 1 8
REMARK H PARENT
REMARK Flexibility Score: inf
ROOT
ATOM      1  C   UNL     1      31.847  22.817  28.757  1.00  0.00     0.006 C 
ENDROOT
BRANCH   1   2
ATOM      2  C   UNL     1      32.881  23.259  27.718  1.00  0.00     0.053 C 
BRANCH   2   3
ATOM      3  C   UNL     1      34.058  23.895  28.388  1.00  0.00     0.041 C 
ATOM      4  O   UNL     1      35.224  23.660  27.978  1.00  0.00    -0.550 OA
ATOM      5  O   UNL     1      33.870  24.708  29.499  1.00  0.00    -0.550 OA
ENDBRANCH   2   3
ENDBRANCH   1   2
BRANCH   1   6
ATOM      6  C   UNL     1      30.488  23.480  28.497  1.00  0.00     0.000 C 
BRANCH   6   7
ATOM      7  C   UNL     1      30.268  24.670  29.438  1.00  0.00    -0.003 C 
ATOM      8  C   UNL     1      30.548  24.285  30.888  1.00  0.00     0.004 C 
ENDBRANCH   6   7
ENDBRANCH   1   6
TORSDOF 4
ENDMDL
MODEL 8
REMARK VINA RESULT:    -1.923     19.348     20.224
REMARK INTER + INTRA:          -2.481
REMARK INTER:                  -2.348
REMARK INTRA:                  -0.133
REMARK UNBOUND:                -0.108
REMARK SMILES CCCCCC(=O)[O-]
REMARK SMILES IDX 4 1 5 2 6 3 7 4 8 5 3 6 2 7 1 8
REMARK H PARENT
REMARK Flexibility Score: inf
ROOT
ATOM      1  C   UNL     1      31.300  25.077  28.809  1.00  0.00     0.006 C 
ENDROOT
BRANCH   1   2
ATOM      2  C   UNL     1      32.552  24.436  29.414  1.00  0.00     0.053 C 
BRANCH   2   3
ATOM      3  C   UNL     1      33.215  23.539  28.418  1.00  0.00     0.041 C 
ATOM      4  O   UNL     1      32.540  22.678  27.795  1.00  0.00    -0.550 OA
ATOM      5  O   UNL     1      34.587  23.619  28.214  1.00  0.00    -0.550 OA
ENDBRANCH   2   3
ENDBRANCH   1   2
BRANCH   1   6
ATOM      6  C   UNL     1      30.157  25.123  29.832  1.00  0.00     0.000 C 
BRANCH   6   7
ATOM      7  C   UNL     1      30.645  24.695  31.221  1.00  0.00    -0.003 C 
ATOM      8  C   UNL     1      29.552  24.877  32.270  1.00  0.00     0.004 C 
ENDBRANCH   6   7
ENDBRANCH   1   6
TORSDOF 4
ENDMDL
