MODEL 1
REMARK VINA RESULT:    22.605      0.000      0.000
REMARK INTER + INTRA:          37.145
REMARK INTER:                  36.481
REMARK INTRA:                   0.664
REMARK UNBOUND:                 0.664
REMARK SMILES C=C(CC[C@H](C(=O)[O-])[C@@H]1[C@@H](O)C[C@@]2(C)C3=CC[C@H](C(=C)C)[C@@](C)(CCC(=O)[O-])C3=CC[C@@]12C)C(C)C
REMARK SMILES IDX 5 1 9 2 22 3 29 4 18 5 23 6 15 7 30 8 17 9 13 10 16 11 31 12
REMARK SMILES IDX 32 13 12 14 14 15 33 16 10 17 24 18 25 19 26 20 27 21 28 22
REMARK SMILES IDX 19 23 20 24 21 25 11 26 6 28 7 29 8 30 4 31 3 32 2 33 1 34
REMARK SMILES IDX 34 35 35 36 36 37
REMARK H PARENT 11 27
REMARK Flexibility Score: inf
ROOT
ATOM      1  C   UNL     1      50.951 -57.487 320.566  1.00  0.00     0.042 C 
ENDROOT
BRANCH   1   2
ATOM      2  C   UNL     1      51.056 -56.834 319.140  1.00  0.00     0.034 C 
ATOM      3  C   UNL     1      47.703 -56.306 314.252  1.00  0.00    -0.000 C 
ATOM      4  C   UNL     1      48.523 -56.447 315.556  1.00  0.00    -0.042 C 
ATOM      5  C   UNL     1      46.797 -55.009 314.305  1.00  0.00     0.028 C 
ATOM      6  C   UNL     1      46.772 -57.545 314.055  1.00  0.00     0.017 C 
ATOM      7  C   UNL     1      48.657 -55.307 316.522  1.00  0.00    -0.042 C 
ATOM      8  C   UNL     1      49.280 -57.538 315.759  1.00  0.00    -0.022 C 
ATOM      9  C   UNL     1      47.578 -53.803 314.846  1.00  0.00     0.036 C 
ATOM     10  C   UNL     1      49.272 -55.524 317.925  1.00  0.00     0.001 C 
ATOM     11  C   UNL     1      48.207 -54.086 316.177  1.00  0.00    -0.022 C 
ATOM     12  C   UNL     1      50.328 -57.573 316.828  1.00  0.00     0.035 C 
ATOM     13  C   UNL     1      49.805 -56.991 318.171  1.00  0.00    -0.014 C 
ATOM     14  C   UNL     1      50.530 -54.662 318.078  1.00  0.00     0.044 C 
ATOM     15  C   UNL     1      48.243 -55.095 319.021  1.00  0.00     0.017 C 
ATOM     16  C   UNL     1      48.677 -57.942 318.675  1.00  0.00     0.013 C 
ATOM     17  C   UNL     1      51.324 -55.305 319.209  1.00  0.00     0.119 C 
BRANCH   3  18
ATOM     18  C   UNL     1      48.727 -56.142 313.050  1.00  0.00     0.018 C 
BRANCH  18  19
ATOM     19  C   UNL     1      50.144 -56.721 313.257  1.00  0.00     0.053 C 
BRANCH  19  20
ATOM     20  C   UNL     1      50.194 -58.173 312.879  1.00  0.00     0.041 C 
ATOM     21  O   UNL     1      51.265 -58.826 313.014  1.00  0.00    -0.550 OA
ATOM     22  O   UNL     1      49.057 -58.813 312.391  1.00  0.00    -0.550 OA
ENDBRANCH  19  20
ENDBRANCH  18  19
ENDBRANCH   3  18
BRANCH   5  23
ATOM     23  C   UNL     1      45.424 -55.157 314.980  1.00  0.00    -0.076 C 
ATOM     24  C   UNL     1      44.263 -55.037 314.311  1.00  0.00     0.008 C 
ATOM     25  C   UNL     1      45.385 -55.479 316.456  1.00  0.00     0.039 C 
ENDBRANCH   5  23
BRANCH  17  26
ATOM     26  O   UNL     1      52.689 -54.981 319.117  1.00  0.00    -0.393 OA
ATOM     27  H   UNL     1      53.129 -55.259 319.964  1.00  0.00     0.210 HD
ENDBRANCH  17  26
ENDBRANCH   1   2
BRANCH   1  28
ATOM     28  C   UNL     1      50.626 -56.471 321.635  1.00  0.00     0.045 C 
ATOM     29  O   UNL     1      51.542 -55.748 322.119  1.00  0.00    -0.550 OA
ATOM     30  O   UNL     1      49.329 -56.346 322.125  1.00  0.00    -0.550 OA
ENDBRANCH   1  28
BRANCH   1  31
ATOM     31  C   UNL     1      49.936 -58.661 320.669  1.00  0.00     0.014 C 
BRANCH  31  32
ATOM     32  C   UNL     1      50.567 -60.054 320.877  1.00  0.00     0.031 C 
BRANCH  32  33
ATOM     33  C   UNL     1      50.839 -60.731 319.545  1.00  0.00    -0.075 C 
ATOM     34  C   UNL     1      49.854 -61.417 318.944  1.00  0.00     0.008 C 
BRANCH  33  35
ATOM     35  C   UNL     1      52.235 -60.729 318.937  1.00  0.00     0.008 C 
ATOM     36  C   UNL     1      52.200 -60.182 317.506  1.00  0.00     0.012 C 
ATOM     37  C   UNL     1      52.874 -62.123 318.981  1.00  0.00     0.012 C 
ENDBRANCH  33  35
ENDBRANCH  32  33
ENDBRANCH  31  32
ENDBRANCH   1  31
TORSDOF 11
ENDMDL
MODEL 2
REMARK VINA RESULT:    23.694      2.099      7.228
REMARK INTER + INTRA:          38.902
REMARK INTER:                  34.484
REMARK INTRA:                   4.418
REMARK UNBOUND:                 0.664
REMARK SMILES C=C(CC[C@H](C(=O)[O-])[C@@H]1[C@@H](O)C[C@@]2(C)C3=CC[C@H](C(=C)C)[C@@](C)(CCC(=O)[O-])C3=CC[C@@]12C)C(C)C
REMARK SMILES IDX 5 1 9 2 22 3 29 4 18 5 23 6 15 7 30 8 17 9 13 10 16 11 31 12
REMARK SMILES IDX 32 13 12 14 14 15 33 16 10 17 24 18 25 19 26 20 27 21 28 22
REMARK SMILES IDX 19 23 20 24 21 25 11 26 6 28 7 29 8 30 4 31 3 32 2 33 1 34
REMARK SMILES IDX 34 35 35 36 36 37
REMARK H PARENT 11 27
REMARK Flexibility Score: inf
ROOT
ATOM      1  C   UNL     1      46.010 -55.402 315.679  1.00  0.00     0.042 C 
ENDROOT
BRANCH   1   2
ATOM      2  C   UNL     1      46.996 -55.158 316.878  1.00  0.00     0.034 C 
ATOM      3  C   UNL     1      50.314 -58.389 320.616  1.00  0.00    -0.000 C 
ATOM      4  C   UNL     1      49.457 -57.594 319.602  1.00  0.00    -0.042 C 
ATOM      5  C   UNL     1      51.766 -58.639 320.037  1.00  0.00     0.028 C 
ATOM      6  C   UNL     1      49.661 -59.776 320.913  1.00  0.00     0.017 C 
ATOM      7  C   UNL     1      50.080 -56.894 318.431  1.00  0.00    -0.042 C 
ATOM      8  C   UNL     1      48.158 -57.365 319.855  1.00  0.00    -0.022 C 
ATOM      9  C   UNL     1      52.336 -57.368 319.390  1.00  0.00     0.036 C 
ATOM     10  C   UNL     1      49.205 -56.306 317.299  1.00  0.00     0.001 C 
ATOM     11  C   UNL     1      51.422 -56.803 318.347  1.00  0.00    -0.022 C 
ATOM     12  C   UNL     1      47.382 -56.341 319.086  1.00  0.00     0.035 C 
ATOM     13  C   UNL     1      47.652 -56.437 317.559  1.00  0.00    -0.014 C 
ATOM     14  C   UNL     1      49.420 -54.791 317.210  1.00  0.00     0.044 C 
ATOM     15  C   UNL     1      49.615 -56.945 315.933  1.00  0.00     0.017 C 
ATOM     16  C   UNL     1      47.097 -57.813 317.079  1.00  0.00     0.013 C 
ATOM     17  C   UNL     1      48.194 -54.252 316.483  1.00  0.00     0.119 C 
BRANCH   3  18
ATOM     18  C   UNL     1      50.453 -57.509 321.930  1.00  0.00     0.018 C 
BRANCH  18  19
ATOM     19  C   UNL     1      50.417 -55.975 321.749  1.00  0.00     0.053 C 
BRANCH  19  20
ATOM     20  C   UNL     1      51.797 -55.424 321.536  1.00  0.00     0.041 C 
ATOM     21  O   UNL     1      52.784 -55.944 322.124  1.00  0.00    -0.550 OA
ATOM     22  O   UNL     1      51.999 -54.345 320.677  1.00  0.00    -0.550 OA
ENDBRANCH  19  20
ENDBRANCH  18  19
ENDBRANCH   3  18
BRANCH   5  23
ATOM     23  C   UNL     1      51.945 -59.873 319.138  1.00  0.00    -0.076 C 
ATOM     24  C   UNL     1      51.596 -61.114 319.522  1.00  0.00     0.008 C 
ATOM     25  C   UNL     1      52.512 -59.671 317.753  1.00  0.00     0.039 C 
ENDBRANCH   5  23
BRANCH  17  26
ATOM     26  O   UNL     1      47.983 -52.895 316.785  1.00  0.00    -0.393 OA
ATOM     27  H   UNL     1      47.340 -52.529 316.121  1.00  0.00     0.210 HD
ENDBRANCH  17  26
ENDBRANCH   1   2
BRANCH   1  28
ATOM     28  C   UNL     1      46.144 -54.346 314.608  1.00  0.00     0.045 C 
ATOM     29  O   UNL     1      45.140 -54.015 313.917  1.00  0.00    -0.550 OA
ATOM     30  O   UNL     1      47.378 -53.757 314.343  1.00  0.00    -0.550 OA
ENDBRANCH   1  28
BRANCH   1  31
ATOM     31  C   UNL     1      46.129 -56.804 315.016  1.00  0.00     0.014 C 
BRANCH  31  32
ATOM     32  C   UNL     1      46.183 -56.794 313.473  1.00  0.00     0.031 C 
BRANCH  32  33
ATOM     33  C   UNL     1      47.617 -56.856 312.978  1.00  0.00    -0.075 C 
ATOM     34  C   UNL     1      48.130 -55.804 312.319  1.00  0.00     0.008 C 
BRANCH  33  35
ATOM     35  C   UNL     1      48.443 -58.126 313.128  1.00  0.00     0.008 C 
ATOM     36  C   UNL     1      49.924 -57.787 313.329  1.00  0.00     0.012 C 
ATOM     37  C   UNL     1      48.247 -59.072 311.937  1.00  0.00     0.012 C 
ENDBRANCH  33  35
ENDBRANCH  32  33
ENDBRANCH  31  32
ENDBRANCH   1  31
TORSDOF 11
ENDMDL
MODEL 3
REMARK VINA RESULT:    23.697      2.328      7.162
REMARK INTER + INTRA:          38.906
REMARK INTER:                  38.578
REMARK INTRA:                   0.328
REMARK UNBOUND:                 0.664
REMARK SMILES C=C(CC[C@H](C(=O)[O-])[C@@H]1[C@@H](O)C[C@@]2(C)C3=CC[C@H](C(=C)C)[C@@](C)(CCC(=O)[O-])C3=CC[C@@]12C)C(C)C
REMARK SMILES IDX 5 1 9 2 22 3 29 4 18 5 23 6 15 7 30 8 17 9 13 10 16 11 31 12
REMARK SMILES IDX 32 13 12 14 14 15 33 16 10 17 24 18 25 19 26 20 27 21 28 22
REMARK SMILES IDX 19 23 20 24 21 25 11 26 6 28 7 29 8 30 4 31 3 32 2 33 1 34
REMARK SMILES IDX 34 35 35 36 36 37
REMARK H PARENT 11 27
REMARK Flexibility Score: inf
ROOT
ATOM      1  C   UNL     1      46.015 -54.936 317.412  1.00  0.00     0.042 C 
ENDROOT
BRANCH   1   2
ATOM      2  C   UNL     1      47.371 -55.016 318.201  1.00  0.00     0.034 C 
ATOM      3  C   UNL     1      50.869 -59.199 320.586  1.00  0.00    -0.000 C 
ATOM      4  C   UNL     1      49.940 -58.153 319.925  1.00  0.00    -0.042 C 
ATOM      5  C   UNL     1      51.942 -59.722 319.547  1.00  0.00     0.028 C 
ATOM      6  C   UNL     1      50.040 -60.422 321.092  1.00  0.00     0.017 C 
ATOM      7  C   UNL     1      50.287 -57.520 318.610  1.00  0.00    -0.042 C 
ATOM      8  C   UNL     1      48.893 -57.659 320.606  1.00  0.00    -0.022 C 
ATOM      9  C   UNL     1      52.551 -58.565 318.741  1.00  0.00     0.036 C 
ATOM     10  C   UNL     1      49.252 -56.663 317.844  1.00  0.00     0.001 C 
ATOM     11  C   UNL     1      51.504 -57.728 318.072  1.00  0.00    -0.022 C 
ATOM     12  C   UNL     1      48.174 -56.428 320.146  1.00  0.00     0.035 C 
ATOM     13  C   UNL     1      47.890 -56.460 318.619  1.00  0.00    -0.014 C 
ATOM     14  C   UNL     1      49.781 -55.233 317.684  1.00  0.00     0.044 C 
ATOM     15  C   UNL     1      49.020 -57.266 316.421  1.00  0.00     0.017 C 
ATOM     16  C   UNL     1      46.896 -57.633 318.361  1.00  0.00     0.013 C 
ATOM     17  C   UNL     1      48.549 -54.375 317.418  1.00  0.00     0.119 C 
BRANCH   3  18
ATOM     18  C   UNL     1      51.643 -58.480 321.772  1.00  0.00     0.018 C 
BRANCH  18  19
ATOM     19  C   UNL     1      51.198 -57.043 322.125  1.00  0.00     0.053 C 
BRANCH  19  20
ATOM     20  C   UNL     1      52.183 -56.033 321.614  1.00  0.00     0.041 C 
ATOM     21  O   UNL     1      53.334 -55.956 322.125  1.00  0.00    -0.550 OA
ATOM     22  O   UNL     1      51.841 -55.185 320.563  1.00  0.00    -0.550 OA
ENDBRANCH  19  20
ENDBRANCH  18  19
ENDBRANCH   3  18
BRANCH   5  23
ATOM     23  C   UNL     1      51.512 -60.889 318.644  1.00  0.00    -0.076 C 
ATOM     24  C   UNL     1      50.362 -61.567 318.821  1.00  0.00     0.008 C 
ATOM     25  C   UNL     1      52.410 -61.268 317.490  1.00  0.00     0.039 C 
ENDBRANCH   5  23
BRANCH  17  26
ATOM     26  O   UNL     1      48.781 -53.034 317.771  1.00  0.00    -0.393 OA
ATOM     27  H   UNL     1      49.533 -53.012 318.420  1.00  0.00     0.210 HD
ENDBRANCH  17  26
ENDBRANCH   1   2
BRANCH   1  28
ATOM     28  C   UNL     1      45.067 -53.924 318.011  1.00  0.00     0.045 C 
ATOM     29  O   UNL     1      45.487 -53.093 318.865  1.00  0.00    -0.550 OA
ATOM     30  O   UNL     1      43.719 -53.920 317.662  1.00  0.00    -0.550 OA
ENDBRANCH   1  28
BRANCH   1  31
ATOM     31  C   UNL     1      46.164 -54.639 315.892  1.00  0.00     0.014 C 
BRANCH  31  32
ATOM     32  C   UNL     1      47.117 -55.586 315.132  1.00  0.00     0.031 C 
BRANCH  32  33
ATOM     33  C   UNL     1      46.517 -56.008 313.803  1.00  0.00    -0.075 C 
ATOM     34  C   UNL     1      45.196 -55.874 313.607  1.00  0.00     0.008 C 
BRANCH  33  35
ATOM     35  C   UNL     1      47.373 -56.674 312.733  1.00  0.00     0.008 C 
ATOM     36  C   UNL     1      47.791 -58.080 313.174  1.00  0.00     0.012 C 
ATOM     37  C   UNL     1      48.596 -55.819 312.375  1.00  0.00     0.012 C 
ENDBRANCH  33  35
ENDBRANCH  32  33
ENDBRANCH  31  32
ENDBRANCH   1  31
TORSDOF 11
ENDMDL
