MODEL 1
REMARK VINA RESULT:    -5.293      0.000      0.000
REMARK INTER + INTRA:          -9.736
REMARK INTER:                  -8.079
REMARK INTRA:                  -1.657
REMARK UNBOUND:                -1.657
REMARK SMILES CC(=O)CCC=C(C)CCC=C(C)CCC=C(C)C
REMARK SMILES IDX 10 1 11 2 12 3 13 4 14 5 15 6 16 7 18 8 17 9 19 10 9 11 7 12
REMARK SMILES IDX 6 13 8 14 5 15 4 16 2 17 3 18 1 19
REMARK H PARENT
REMARK Flexibility Score: inf
ROOT
ATOM      1  C   UNL     1       0.512   1.633  56.667  1.00  0.00     0.032 C 
ENDROOT
BRANCH   1   2
ATOM      2  C   UNL     1       1.501   1.174  55.628  1.00  0.00    -0.028 C 
ATOM      3  C   UNL     1       2.496   0.288  55.866  1.00  0.00    -0.077 C 
ATOM      4  C   UNL     1       2.633  -0.431  57.187  1.00  0.00     0.039 C 
BRANCH   3   5
ATOM      5  C   UNL     1       3.497  -0.008  54.774  1.00  0.00     0.034 C 
BRANCH   5   6
ATOM      6  C   UNL     1       2.869  -0.785  53.609  1.00  0.00     0.032 C 
BRANCH   6   7
ATOM      7  C   UNL     1       2.625  -2.242  53.943  1.00  0.00    -0.028 C 
ATOM      8  C   UNL     1       1.369  -4.341  54.137  1.00  0.00     0.039 C 
ATOM      9  C   UNL     1       1.455  -2.889  53.756  1.00  0.00    -0.080 C 
ATOM     10  C   UNL     1       0.253  -2.209  53.152  1.00  0.00     0.039 C 
ENDBRANCH   6   7
ENDBRANCH   5   6
ENDBRANCH   3   5
ENDBRANCH   1   2
BRANCH   1  11
ATOM     11  C   UNL     1      -0.718   0.724  56.678  1.00  0.00     0.034 C 
BRANCH  11  12
ATOM     12  C   UNL     1      -1.662   1.118  57.801  1.00  0.00    -0.077 C 
ATOM     13  C   UNL     1      -1.554   0.639  59.059  1.00  0.00    -0.028 C 
ATOM     14  C   UNL     1      -2.856   1.974  57.455  1.00  0.00     0.039 C 
BRANCH  13  15
ATOM     15  C   UNL     1      -0.427  -0.233  59.561  1.00  0.00     0.035 C 
BRANCH  15  16
ATOM     16  C   UNL     1       0.100   0.252  60.922  1.00  0.00     0.079 C 
BRANCH  16  17
ATOM     17  C   UNL     1       0.600   1.670  60.845  1.00  0.00     0.130 C 
ATOM     18  O   UNL     1      -0.032   2.566  61.389  1.00  0.00    -0.300 OA
ATOM     19  C   UNL     1       1.866   2.004  60.114  1.00  0.00     0.087 C 
ENDBRANCH  16  17
ENDBRANCH  15  16
ENDBRANCH  13  15
ENDBRANCH  11  12
ENDBRANCH   1  11
TORSDOF 9
ENDMDL
MODEL 2
REMARK VINA RESULT:    -5.164      8.371     11.517
REMARK INTER + INTRA:          -9.538
REMARK INTER:                  -7.104
REMARK INTRA:                  -2.434
REMARK UNBOUND:                -1.657
REMARK SMILES CC(=O)CCC=C(C)CCC=C(C)CCC=C(C)C
REMARK SMILES IDX 10 1 11 2 12 3 13 4 14 5 15 6 16 7 18 8 17 9 19 10 9 11 7 12
REMARK SMILES IDX 6 13 8 14 5 15 4 16 2 17 3 18 1 19
REMARK H PARENT
REMARK Flexibility Score: inf
ROOT
ATOM      1  C   UNL     1      -6.215   2.567  54.439  1.00  0.00     0.032 C 
ENDROOT
BRANCH   1   2
ATOM      2  C   UNL     1      -6.264   3.993  54.922  1.00  0.00    -0.028 C 
ATOM      3  C   UNL     1      -7.390   4.612  55.347  1.00  0.00    -0.077 C 
ATOM      4  C   UNL     1      -8.702   3.880  55.499  1.00  0.00     0.039 C 
BRANCH   3   5
ATOM      5  C   UNL     1      -7.336   6.080  55.698  1.00  0.00     0.034 C 
BRANCH   5   6
ATOM      6  C   UNL     1      -7.420   6.316  57.212  1.00  0.00     0.032 C 
BRANCH   6   7
ATOM      7  C   UNL     1      -6.144   5.932  57.934  1.00  0.00    -0.028 C 
ATOM      8  C   UNL     1      -4.685   4.625  59.412  1.00  0.00     0.039 C 
ATOM      9  C   UNL     1      -6.020   4.879  58.769  1.00  0.00    -0.080 C 
ATOM     10  C   UNL     1      -7.167   3.939  59.047  1.00  0.00     0.039 C 
ENDBRANCH   6   7
ENDBRANCH   5   6
ENDBRANCH   3   5
ENDBRANCH   1   2
BRANCH   1  11
ATOM     11  C   UNL     1      -6.211   2.515  52.911  1.00  0.00     0.034 C 
BRANCH  11  12
ATOM     12  C   UNL     1      -7.618   2.300  52.381  1.00  0.00    -0.077 C 
ATOM     13  C   UNL     1      -8.232   3.165  51.543  1.00  0.00    -0.028 C 
ATOM     14  C   UNL     1      -8.413   1.140  52.929  1.00  0.00     0.039 C 
BRANCH  13  15
ATOM     15  C   UNL     1      -7.579   4.374  50.915  1.00  0.00     0.035 C 
BRANCH  15  16
ATOM     16  C   UNL     1      -7.874   5.654  51.714  1.00  0.00     0.079 C 
BRANCH  16  17
ATOM     17  C   UNL     1      -9.346   5.976  51.716  1.00  0.00     0.130 C 
ATOM     18  O   UNL     1      -9.950   6.056  50.655  1.00  0.00    -0.300 OA
ATOM     19  C   UNL     1     -10.086   6.196  53.001  1.00  0.00     0.087 C 
ENDBRANCH  16  17
ENDBRANCH  15  16
ENDBRANCH  13  15
ENDBRANCH  11  12
ENDBRANCH   1  11
TORSDOF 9
ENDMDL
MODEL 3
REMARK VINA RESULT:    -5.150      3.085      7.518
REMARK INTER + INTRA:          -9.517
REMARK INTER:                  -8.153
REMARK INTRA:                  -1.364
REMARK UNBOUND:                -1.657
REMARK SMILES CC(=O)CCC=C(C)CCC=C(C)CCC=C(C)C
REMARK SMILES IDX 10 1 11 2 12 3 13 4 14 5 15 6 16 7 18 8 17 9 19 10 9 11 7 12
REMARK SMILES IDX 6 13 8 14 5 15 4 16 2 17 3 18 1 19
REMARK H PARENT
REMARK Flexibility Score: inf
ROOT
ATOM      1  C   UNL     1       2.885   0.438  54.378  1.00  0.00     0.032 C 
ENDROOT
BRANCH   1   2
ATOM      2  C   UNL     1       1.757   1.076  55.144  1.00  0.00    -0.028 C 
ATOM      3  C   UNL     1       1.380   0.706  56.390  1.00  0.00    -0.077 C 
ATOM      4  C   UNL     1       2.150  -0.317  57.192  1.00  0.00     0.039 C 
BRANCH   3   5
ATOM      5  C   UNL     1       0.159   1.342  57.011  1.00  0.00     0.034 C 
BRANCH   5   6
ATOM      6  C   UNL     1      -0.202   0.705  58.360  1.00  0.00     0.032 C 
BRANCH   6   7
ATOM      7  C   UNL     1      -0.775   1.706  59.343  1.00  0.00    -0.028 C 
ATOM      8  C   UNL     1      -0.775   3.313  61.197  1.00  0.00     0.039 C 
ATOM      9  C   UNL     1      -0.062   2.345  60.294  1.00  0.00    -0.080 C 
ATOM     10  C   UNL     1       1.423   2.139  60.453  1.00  0.00     0.039 C 
ENDBRANCH   6   7
ENDBRANCH   5   6
ENDBRANCH   3   5
ENDBRANCH   1   2
BRANCH   1  11
ATOM     11  C   UNL     1       2.342  -0.447  53.255  1.00  0.00     0.034 C 
BRANCH  11  12
ATOM     12  C   UNL     1       2.318  -1.902  53.687  1.00  0.00    -0.077 C 
ATOM     13  C   UNL     1       1.222  -2.686  53.587  1.00  0.00    -0.028 C 
ATOM     14  C   UNL     1       3.536  -2.452  54.390  1.00  0.00     0.039 C 
BRANCH  13  15
ATOM     15  C   UNL     1      -0.072  -2.283  52.921  1.00  0.00     0.035 C 
BRANCH  15  16
ATOM     16  C   UNL     1      -0.627  -3.410  52.034  1.00  0.00     0.079 C 
BRANCH  16  17
ATOM     17  C   UNL     1      -2.113  -3.270  51.831  1.00  0.00     0.130 C 
ATOM     18  O   UNL     1      -2.843  -4.234  52.014  1.00  0.00    -0.300 OA
ATOM     19  C   UNL     1      -2.715  -1.963  51.409  1.00  0.00     0.087 C 
ENDBRANCH  16  17
ENDBRANCH  15  16
ENDBRANCH  13  15
ENDBRANCH  11  12
ENDBRANCH   1  11
TORSDOF 9
ENDMDL
MODEL 4
REMARK VINA RESULT:    -5.137      2.370      3.536
REMARK INTER + INTRA:          -9.497
REMARK INTER:                  -7.954
REMARK INTRA:                  -1.542
REMARK UNBOUND:                -1.657
REMARK SMILES CC(=O)CCC=C(C)CCC=C(C)CCC=C(C)C
REMARK SMILES IDX 10 1 11 2 12 3 13 4 14 5 15 6 16 7 18 8 17 9 19 10 9 11 7 12
REMARK SMILES IDX 6 13 8 14 5 15 4 16 2 17 3 18 1 19
REMARK H PARENT
REMARK Flexibility Score: inf
ROOT
ATOM      1  C   UNL     1       1.901  -0.900  58.018  1.00  0.00     0.032 C 
ENDROOT
BRANCH   1   2
ATOM      2  C   UNL     1       2.510  -0.196  56.834  1.00  0.00    -0.028 C 
ATOM      3  C   UNL     1       1.838   0.666  56.036  1.00  0.00    -0.077 C 
ATOM      4  C   UNL     1       0.425   1.106  56.336  1.00  0.00     0.039 C 
BRANCH   3   5
ATOM      5  C   UNL     1       2.523   1.222  54.810  1.00  0.00     0.034 C 
BRANCH   5   6
ATOM      6  C   UNL     1       2.934   0.117  53.827  1.00  0.00     0.032 C 
BRANCH   6   7
ATOM      7  C   UNL     1       1.751  -0.680  53.317  1.00  0.00    -0.028 C 
ATOM      8  C   UNL     1       0.355  -2.660  52.926  1.00  0.00     0.039 C 
ATOM      9  C   UNL     1       1.587  -2.008  53.491  1.00  0.00    -0.080 C 
ATOM     10  C   UNL     1       2.581  -2.844  54.258  1.00  0.00     0.039 C 
ENDBRANCH   6   7
ENDBRANCH   5   6
ENDBRANCH   3   5
ENDBRANCH   1   2
BRANCH   1  11
ATOM     11  C   UNL     1       2.500  -0.375  59.324  1.00  0.00     0.034 C 
BRANCH  11  12
ATOM     12  C   UNL     1       1.463   0.407  60.110  1.00  0.00    -0.077 C 
ATOM     13  C   UNL     1       0.487  -0.182  60.835  1.00  0.00    -0.028 C 
ATOM     14  C   UNL     1       1.443   1.908  59.958  1.00  0.00     0.039 C 
BRANCH  13  15
ATOM     15  C   UNL     1       0.363  -1.668  61.076  1.00  0.00     0.035 C 
BRANCH  15  16
ATOM     16  C   UNL     1       1.097  -2.096  62.358  1.00  0.00     0.079 C 
BRANCH  16  17
ATOM     17  C   UNL     1       0.212  -2.931  63.246  1.00  0.00     0.130 C 
ATOM     18  O   UNL     1      -0.969  -3.077  62.961  1.00  0.00    -0.300 OA
ATOM     19  C   UNL     1       0.757  -3.591  64.478  1.00  0.00     0.087 C 
ENDBRANCH  16  17
ENDBRANCH  15  16
ENDBRANCH  13  15
ENDBRANCH  11  12
ENDBRANCH   1  11
TORSDOF 9
ENDMDL
MODEL 5
REMARK VINA RESULT:    -5.009      1.614      2.286
REMARK INTER + INTRA:          -9.301
REMARK INTER:                  -7.038
REMARK INTRA:                  -2.263
REMARK UNBOUND:                -1.657
REMARK SMILES CC(=O)CCC=C(C)CCC=C(C)CCC=C(C)C
REMARK SMILES IDX 10 1 11 2 12 3 13 4 14 5 15 6 16 7 18 8 17 9 19 10 9 11 7 12
REMARK SMILES IDX 6 13 8 14 5 15 4 16 2 17 3 18 1 19
REMARK H PARENT
REMARK Flexibility Score: inf
ROOT
ATOM      1  C   UNL     1       2.583  -0.411  57.656  1.00  0.00     0.032 C 
ENDROOT
BRANCH   1   2
ATOM      2  C   UNL     1       2.849   0.051  56.248  1.00  0.00    -0.028 C 
ATOM      3  C   UNL     1       2.060   0.918  55.572  1.00  0.00    -0.077 C 
ATOM      4  C   UNL     1       0.886   1.612  56.221  1.00  0.00     0.039 C 
BRANCH   3   5
ATOM      5  C   UNL     1       2.365   1.217  54.123  1.00  0.00     0.034 C 
BRANCH   5   6
ATOM      6  C   UNL     1       2.801  -0.037  53.353  1.00  0.00     0.032 C 
BRANCH   6   7
ATOM      7  C   UNL     1       1.700  -1.073  53.254  1.00  0.00    -0.028 C 
ATOM      8  C   UNL     1       0.627  -3.267  53.494  1.00  0.00     0.039 C 
ATOM      9  C   UNL     1       1.812  -2.356  53.658  1.00  0.00    -0.080 C 
ATOM     10  C   UNL     1       3.073  -2.887  54.293  1.00  0.00     0.039 C 
ENDBRANCH   6   7
ENDBRANCH   5   6
ENDBRANCH   3   5
ENDBRANCH   1   2
BRANCH   1  11
ATOM     11  C   UNL     1       1.875  -1.766  57.655  1.00  0.00     0.034 C 
BRANCH  11  12
ATOM     12  C   UNL     1       0.381  -1.588  57.862  1.00  0.00    -0.077 C 
ATOM     13  C   UNL     1      -0.171  -1.327  59.067  1.00  0.00    -0.028 C 
ATOM     14  C   UNL     1      -0.534  -1.854  56.691  1.00  0.00     0.039 C 
BRANCH  13  15
ATOM     15  C   UNL     1       0.603  -1.045  60.333  1.00  0.00     0.035 C 
BRANCH  15  16
ATOM     16  C   UNL     1       0.120   0.244  61.017  1.00  0.00     0.079 C 
BRANCH  16  17
ATOM     17  C   UNL     1       0.466   1.463  60.201  1.00  0.00     0.130 C 
ATOM     18  O   UNL     1      -0.380   1.964  59.473  1.00  0.00    -0.300 OA
ATOM     19  C   UNL     1       1.833   2.074  60.268  1.00  0.00     0.087 C 
ENDBRANCH  16  17
ENDBRANCH  15  16
ENDBRANCH  13  15
ENDBRANCH  11  12
ENDBRANCH   1  11
TORSDOF 9
ENDMDL
MODEL 6
REMARK VINA RESULT:    -4.990      2.071      3.269
REMARK INTER + INTRA:          -9.272
REMARK INTER:                  -7.206
REMARK INTRA:                  -2.065
REMARK UNBOUND:                -1.657
REMARK SMILES CC(=O)CCC=C(C)CCC=C(C)CCC=C(C)C
REMARK SMILES IDX 10 1 11 2 12 3 13 4 14 5 15 6 16 7 18 8 17 9 19 10 9 11 7 12
REMARK SMILES IDX 6 13 8 14 5 15 4 16 2 17 3 18 1 19
REMARK H PARENT
REMARK Flexibility Score: inf
ROOT
ATOM      1  C   UNL     1       2.062  -0.617  58.082  1.00  0.00     0.032 C 
ENDROOT
BRANCH   1   2
ATOM      2  C   UNL     1       2.495   0.105  56.833  1.00  0.00    -0.028 C 
ATOM      3  C   UNL     1       1.647   0.732  55.986  1.00  0.00    -0.077 C 
ATOM      4  C   UNL     1       0.173   0.876  56.283  1.00  0.00     0.039 C 
BRANCH   3   5
ATOM      5  C   UNL     1       2.187   1.322  54.705  1.00  0.00     0.034 C 
BRANCH   5   6
ATOM      6  C   UNL     1       2.778   0.250  53.778  1.00  0.00     0.032 C 
BRANCH   6   7
ATOM      7  C   UNL     1       1.784  -0.841  53.440  1.00  0.00    -0.028 C 
ATOM      8  C   UNL     1       0.881  -3.119  53.305  1.00  0.00     0.039 C 
ATOM      9  C   UNL     1       1.963  -2.153  53.702  1.00  0.00    -0.080 C 
ATOM     10  C   UNL     1       3.195  -2.667  54.404  1.00  0.00     0.039 C 
ENDBRANCH   6   7
ENDBRANCH   5   6
ENDBRANCH   3   5
ENDBRANCH   1   2
BRANCH   1  11
ATOM     11  C   UNL     1       2.539   0.130  59.329  1.00  0.00     0.034 C 
BRANCH  11  12
ATOM     12  C   UNL     1       1.399   0.921  59.945  1.00  0.00    -0.077 C 
ATOM     13  C   UNL     1       0.472   0.369  60.759  1.00  0.00    -0.028 C 
ATOM     14  C   UNL     1       1.217   2.356  59.514  1.00  0.00     0.039 C 
BRANCH  13  15
ATOM     15  C   UNL     1       0.506  -1.051  61.274  1.00  0.00     0.035 C 
BRANCH  15  16
ATOM     16  C   UNL     1      -0.820  -1.782  61.005  1.00  0.00     0.079 C 
BRANCH  16  17
ATOM     17  C   UNL     1      -0.806  -2.473  59.667  1.00  0.00     0.130 C 
ATOM     18  O   UNL     1      -0.305  -3.585  59.564  1.00  0.00    -0.300 OA
ATOM     19  C   UNL     1      -1.401  -1.821  58.455  1.00  0.00     0.087 C 
ENDBRANCH  16  17
ENDBRANCH  15  16
ENDBRANCH  13  15
ENDBRANCH  11  12
ENDBRANCH   1  11
TORSDOF 9
ENDMDL
MODEL 7
REMARK VINA RESULT:    -4.974      2.477      6.232
REMARK INTER + INTRA:          -9.248
REMARK INTER:                  -6.921
REMARK INTRA:                  -2.327
REMARK UNBOUND:                -1.657
REMARK SMILES CC(=O)CCC=C(C)CCC=C(C)CCC=C(C)C
REMARK SMILES IDX 10 1 11 2 12 3 13 4 14 5 15 6 16 7 18 8 17 9 19 10 9 11 7 12
REMARK SMILES IDX 6 13 8 14 5 15 4 16 2 17 3 18 1 19
REMARK H PARENT
REMARK Flexibility Score: inf
ROOT
ATOM      1  C   UNL     1       1.488  -3.801  55.580  1.00  0.00     0.032 C 
ENDROOT
BRANCH   1   2
ATOM      2  C   UNL     1       2.321  -2.960  56.512  1.00  0.00    -0.028 C 
ATOM      3  C   UNL     1       1.848  -1.900  57.206  1.00  0.00    -0.077 C 
ATOM      4  C   UNL     1       0.384  -1.528  57.208  1.00  0.00     0.039 C 
BRANCH   3   5
ATOM      5  C   UNL     1       2.807  -1.064  58.020  1.00  0.00     0.034 C 
BRANCH   5   6
ATOM      6  C   UNL     1       2.385  -0.969  59.493  1.00  0.00     0.032 C 
BRANCH   6   7
ATOM      7  C   UNL     1       2.087   0.452  59.925  1.00  0.00    -0.028 C 
ATOM      8  C   UNL     1       0.743   2.338  60.735  1.00  0.00     0.039 C 
ATOM      9  C   UNL     1       0.881   0.895  60.337  1.00  0.00    -0.080 C 
ATOM     10  C   UNL     1      -0.314  -0.019  60.437  1.00  0.00     0.039 C 
ENDBRANCH   6   7
ENDBRANCH   5   6
ENDBRANCH   3   5
ENDBRANCH   1   2
BRANCH   1  11
ATOM     11  C   UNL     1       1.839  -3.498  54.122  1.00  0.00     0.034 C 
BRANCH  11  12
ATOM     12  C   UNL     1       0.943  -2.401  53.575  1.00  0.00    -0.077 C 
ATOM     13  C   UNL     1       1.388  -1.156  53.293  1.00  0.00    -0.028 C 
ATOM     14  C   UNL     1      -0.537  -2.677  53.478  1.00  0.00     0.039 C 
BRANCH  13  15
ATOM     15  C   UNL     1       2.833  -0.719  53.348  1.00  0.00     0.035 C 
BRANCH  15  16
ATOM     16  C   UNL     1       3.118   0.135  54.594  1.00  0.00     0.079 C 
BRANCH  16  17
ATOM     17  C   UNL     1       2.243   1.361  54.633  1.00  0.00     0.130 C 
ATOM     18  O   UNL     1       2.273   2.157  53.705  1.00  0.00    -0.300 OA
ATOM     19  C   UNL     1       1.330   1.621  55.794  1.00  0.00     0.087 C 
ENDBRANCH  16  17
ENDBRANCH  15  16
ENDBRANCH  13  15
ENDBRANCH  11  12
ENDBRANCH   1  11
TORSDOF 9
ENDMDL
MODEL 8
REMARK VINA RESULT:    -4.945      8.145     10.981
REMARK INTER + INTRA:          -9.204
REMARK INTER:                  -7.075
REMARK INTRA:                  -2.130
REMARK UNBOUND:                -1.657
REMARK SMILES CC(=O)CCC=C(C)CCC=C(C)CCC=C(C)C
REMARK SMILES IDX 10 1 11 2 12 3 13 4 14 5 15 6 16 7 18 8 17 9 19 10 9 11 7 12
REMARK SMILES IDX 6 13 8 14 5 15 4 16 2 17 3 18 1 19
REMARK H PARENT
REMARK Flexibility Score: inf
ROOT
ATOM      1  C   UNL     1      -6.624   5.883  56.244  1.00  0.00     0.032 C 
ENDROOT
BRANCH   1   2
ATOM      2  C   UNL     1      -7.161   5.928  57.651  1.00  0.00    -0.028 C 
ATOM      3  C   UNL     1      -6.397   5.801  58.760  1.00  0.00    -0.077 C 
ATOM      4  C   UNL     1      -4.890   5.727  58.694  1.00  0.00     0.039 C 
BRANCH   3   5
ATOM      5  C   UNL     1      -7.065   5.746  60.113  1.00  0.00     0.034 C 
BRANCH   5   6
ATOM      6  C   UNL     1      -7.985   4.525  60.255  1.00  0.00     0.032 C 
BRANCH   6   7
ATOM      7  C   UNL     1      -7.231   3.214  60.166  1.00  0.00    -0.028 C 
ATOM      8  C   UNL     1      -6.630   1.003  59.288  1.00  0.00     0.039 C 
ATOM      9  C   UNL     1      -7.464   2.254  59.247  1.00  0.00    -0.080 C 
ATOM     10  C   UNL     1      -8.509   2.413  58.172  1.00  0.00     0.039 C 
ENDBRANCH   6   7
ENDBRANCH   5   6
ENDBRANCH   3   5
ENDBRANCH   1   2
BRANCH   1  11
ATOM     11  C   UNL     1      -7.224   4.706  55.475  1.00  0.00     0.034 C 
BRANCH  11  12
ATOM     12  C   UNL     1      -6.137   3.735  55.051  1.00  0.00    -0.077 C 
ATOM     13  C   UNL     1      -5.876   3.436  53.760  1.00  0.00    -0.028 C 
ATOM     14  C   UNL     1      -5.412   2.967  56.130  1.00  0.00     0.039 C 
BRANCH  13  15
ATOM     15  C   UNL     1      -6.518   4.106  52.568  1.00  0.00     0.035 C 
BRANCH  15  16
ATOM     16  C   UNL     1      -7.659   3.254  51.986  1.00  0.00     0.079 C 
BRANCH  16  17
ATOM     17  C   UNL     1      -8.763   4.116  51.433  1.00  0.00     0.130 C 
ATOM     18  O   UNL     1      -9.617   3.618  50.712  1.00  0.00    -0.300 OA
ATOM     19  C   UNL     1      -8.835   5.579  51.754  1.00  0.00     0.087 C 
ENDBRANCH  16  17
ENDBRANCH  15  16
ENDBRANCH  13  15
ENDBRANCH  11  12
ENDBRANCH   1  11
TORSDOF 9
ENDMDL
MODEL 9
REMARK VINA RESULT:    -4.918      3.393      6.675
REMARK INTER + INTRA:          -9.163
REMARK INTER:                  -6.902
REMARK INTRA:                  -2.261
REMARK UNBOUND:                -1.657
REMARK SMILES CC(=O)CCC=C(C)CCC=C(C)CCC=C(C)C
REMARK SMILES IDX 10 1 11 2 12 3 13 4 14 5 15 6 16 7 18 8 17 9 19 10 9 11 7 12
REMARK SMILES IDX 6 13 8 14 5 15 4 16 2 17 3 18 1 19
REMARK H PARENT
REMARK Flexibility Score: inf
ROOT
ATOM      1  C   UNL     1       3.226   0.150  54.124  1.00  0.00     0.032 C 
ENDROOT
BRANCH   1   2
ATOM      2  C   UNL     1       2.150   0.971  54.784  1.00  0.00    -0.028 C 
ATOM      3  C   UNL     1       1.726   0.788  56.056  1.00  0.00    -0.077 C 
ATOM      4  C   UNL     1       2.391  -0.194  56.991  1.00  0.00     0.039 C 
BRANCH   3   5
ATOM      5  C   UNL     1       0.559   1.598  56.568  1.00  0.00     0.034 C 
BRANCH   5   6
ATOM      6  C   UNL     1      -0.403   0.753  57.416  1.00  0.00     0.032 C 
BRANCH   6   7
ATOM      7  C   UNL     1      -1.481   0.087  56.585  1.00  0.00    -0.028 C 
ATOM      8  C   UNL     1      -2.725  -1.756  55.548  1.00  0.00     0.039 C 
ATOM      9  C   UNL     1      -1.598  -1.245  56.402  1.00  0.00    -0.080 C 
ATOM     10  C   UNL     1      -0.655  -2.227  57.051  1.00  0.00     0.039 C 
ENDBRANCH   6   7
ENDBRANCH   5   6
ENDBRANCH   3   5
ENDBRANCH   1   2
BRANCH   1  11
ATOM     11  C   UNL     1       2.611  -0.929  53.232  1.00  0.00     0.034 C 
BRANCH  11  12
ATOM     12  C   UNL     1       2.595  -2.268  53.947  1.00  0.00    -0.077 C 
ATOM     13  C   UNL     1       1.484  -3.026  54.071  1.00  0.00    -0.028 C 
ATOM     14  C   UNL     1       3.847  -2.699  54.671  1.00  0.00     0.039 C 
BRANCH  13  15
ATOM     15  C   UNL     1       0.155  -2.730  53.417  1.00  0.00     0.035 C 
BRANCH  15  16
ATOM     16  C   UNL     1      -0.354  -3.929  52.600  1.00  0.00     0.079 C 
BRANCH  16  17
ATOM     17  C   UNL     1      -1.603  -3.582  51.832  1.00  0.00     0.130 C 
ATOM     18  O   UNL     1      -2.281  -4.476  51.343  1.00  0.00    -0.300 OA
ATOM     19  C   UNL     1      -2.030  -2.156  51.658  1.00  0.00     0.087 C 
ENDBRANCH  16  17
ENDBRANCH  15  16
ENDBRANCH  13  15
ENDBRANCH  11  12
ENDBRANCH   1  11
TORSDOF 9
ENDMDL
