MODEL 1
REMARK VINA RESULT:    -3.153      0.000      0.000
REMARK INTER + INTRA:          -3.910
REMARK INTER:                  -3.706
REMARK INTRA:                  -0.204
REMARK UNBOUND:                -0.204
REMARK SMILES [NH3+][C@H](CO)C(=O)[O-]
REMARK SMILES IDX 3 1 2 2 1 3 5 7 6 8 7 9 4 10
REMARK H PARENT 1 4 1 5 1 6 4 11
REMARK Flexibility Score: inf
ROOT
ATOM      1  C   UNL     1     140.142 145.371 135.929  1.00  0.00     0.227 C 
ENDROOT
BRANCH   1   2
ATOM      2  C   UNL     1     141.439 146.146 135.631  1.00  0.00     0.253 C 
BRANCH   2   3
ATOM      3  N   UNL     1     142.120 145.580 134.460  1.00  0.00    -0.348 N 
ATOM      4  H   UNL     1     141.493 145.633 133.625  1.00  0.00     0.345 HD
ATOM      5  H   UNL     1     142.346 144.573 134.635  1.00  0.00     0.345 HD
ATOM      6  H   UNL     1     143.004 146.101 134.258  1.00  0.00     0.345 HD
ENDBRANCH   2   3
BRANCH   2   7
ATOM      7  C   UNL     1     141.145 147.605 135.408  1.00  0.00     0.102 C 
ATOM      8  O   UNL     1     140.289 148.194 136.120  1.00  0.00    -0.544 OA
ATOM      9  O   UNL     1     141.807 148.310 134.410  1.00  0.00    -0.544 OA
ENDBRANCH   2   7
ENDBRANCH   1   2
BRANCH   1  10
ATOM     10  O   UNL     1     139.876 145.357 137.306  1.00  0.00    -0.390 OA
ATOM     11  H   UNL     1     140.730 145.579 137.763  1.00  0.00     0.210 HD
ENDBRANCH   1  10
TORSDOF 4
ENDMDL
MODEL 2
REMARK VINA RESULT:    -3.027      1.698      2.751
REMARK INTER + INTRA:          -3.762
REMARK INTER:                  -3.752
REMARK INTRA:                  -0.009
REMARK UNBOUND:                -0.204
REMARK SMILES [NH3+][C@H](CO)C(=O)[O-]
REMARK SMILES IDX 3 1 2 2 1 3 5 7 6 8 7 9 4 10
REMARK H PARENT 1 4 1 5 1 6 4 11
REMARK Flexibility Score: inf
ROOT
ATOM      1  C   UNL     1     141.840 146.330 134.677  1.00  0.00     0.227 C 
ENDROOT
BRANCH   1   2
ATOM      2  C   UNL     1     141.014 145.675 135.798  1.00  0.00     0.253 C 
BRANCH   2   3
ATOM      3  N   UNL     1     141.897 145.056 136.795  1.00  0.00    -0.348 N 
ATOM      4  H   UNL     1     142.653 145.727 137.062  1.00  0.00     0.345 HD
ATOM      5  H   UNL     1     142.345 144.203 136.388  1.00  0.00     0.345 HD
ATOM      6  H   UNL     1     141.358 144.788 137.651  1.00  0.00     0.345 HD
ENDBRANCH   2   3
BRANCH   2   7
ATOM      7  C   UNL     1     140.115 146.688 136.455  1.00  0.00     0.102 C 
ATOM      8  O   UNL     1     140.216 147.909 136.162  1.00  0.00    -0.544 OA
ATOM      9  O   UNL     1     139.176 146.286 137.398  1.00  0.00    -0.544 OA
ENDBRANCH   2   7
ENDBRANCH   1   2
BRANCH   1  10
ATOM     10  O   UNL     1     142.684 145.392 134.066  1.00  0.00    -0.390 OA
ATOM     11  H   UNL     1     143.614 145.660 134.287  1.00  0.00     0.210 HD
ENDBRANCH   1  10
TORSDOF 4
ENDMDL
MODEL 3
REMARK VINA RESULT:    -3.014      3.621      4.160
REMARK INTER + INTRA:          -3.747
REMARK INTER:                  -3.526
REMARK INTRA:                  -0.221
REMARK UNBOUND:                -0.204
REMARK SMILES [NH3+][C@H](CO)C(=O)[O-]
REMARK SMILES IDX 3 1 2 2 1 3 5 7 6 8 7 9 4 10
REMARK H PARENT 1 4 1 5 1 6 4 11
REMARK Flexibility Score: inf
ROOT
ATOM      1  C   UNL     1     137.998 144.918 135.890  1.00  0.00     0.227 C 
ENDROOT
BRANCH   1   2
ATOM      2  C   UNL     1     137.750 144.665 137.389  1.00  0.00     0.253 C 
BRANCH   2   3
ATOM      3  N   UNL     1     138.681 143.652 137.901  1.00  0.00    -0.348 N 
ATOM      4  H   UNL     1     138.228 142.710 137.878  1.00  0.00     0.345 HD
ATOM      5  H   UNL     1     138.929 143.871 138.894  1.00  0.00     0.345 HD
ATOM      6  H   UNL     1     139.554 143.627 137.326  1.00  0.00     0.345 HD
ENDBRANCH   2   3
BRANCH   2   7
ATOM      7  C   UNL     1     137.888 145.944 138.171  1.00  0.00     0.102 C 
ATOM      8  O   UNL     1     137.260 146.095 139.252  1.00  0.00    -0.544 OA
ATOM      9  O   UNL     1     138.697 146.971 137.700  1.00  0.00    -0.544 OA
ENDBRANCH   2   7
ENDBRANCH   1   2
BRANCH   1  10
ATOM     10  O   UNL     1     139.371 144.907 135.604  1.00  0.00    -0.390 OA
ATOM     11  H   UNL     1     139.455 144.803 134.620  1.00  0.00     0.210 HD
ENDBRANCH   1  10
TORSDOF 4
ENDMDL
MODEL 4
REMARK VINA RESULT:    -2.949      4.808      5.178
REMARK INTER + INTRA:          -3.670
REMARK INTER:                  -3.418
REMARK INTRA:                  -0.252
REMARK UNBOUND:                -0.204
REMARK SMILES [NH3+][C@H](CO)C(=O)[O-]
REMARK SMILES IDX 3 1 2 2 1 3 5 7 6 8 7 9 4 10
REMARK H PARENT 1 4 1 5 1 6 4 11
REMARK Flexibility Score: inf
ROOT
ATOM      1  C   UNL     1     137.702 143.611 137.271  1.00  0.00     0.227 C 
ENDROOT
BRANCH   1   2
ATOM      2  C   UNL     1     136.705 144.588 137.922  1.00  0.00     0.253 C 
BRANCH   2   3
ATOM      3  N   UNL     1     135.906 143.904 138.946  1.00  0.00    -0.348 N 
ATOM      4  H   UNL     1     135.432 143.072 138.527  1.00  0.00     0.345 HD
ATOM      5  H   UNL     1     135.169 144.551 139.310  1.00  0.00     0.345 HD
ATOM      6  H   UNL     1     136.512 143.590 139.739  1.00  0.00     0.345 HD
ENDBRANCH   2   3
BRANCH   2   7
ATOM      7  C   UNL     1     137.431 145.761 138.525  1.00  0.00     0.102 C 
ATOM      8  O   UNL     1     137.074 146.221 139.642  1.00  0.00    -0.544 OA
ATOM      9  O   UNL     1     138.492 146.353 137.849  1.00  0.00    -0.544 OA
ENDBRANCH   2   7
ENDBRANCH   1   2
BRANCH   1  10
ATOM     10  O   UNL     1     138.865 143.496 138.046  1.00  0.00    -0.390 OA
ATOM     11  H   UNL     1     138.714 144.036 138.867  1.00  0.00     0.210 HD
ENDBRANCH   1  10
TORSDOF 4
ENDMDL
MODEL 5
REMARK VINA RESULT:    -2.925      2.364      2.787
REMARK INTER + INTRA:          -3.642
REMARK INTER:                  -3.417
REMARK INTRA:                  -0.225
REMARK UNBOUND:                -0.204
REMARK SMILES [NH3+][C@H](CO)C(=O)[O-]
REMARK SMILES IDX 3 1 2 2 1 3 5 7 6 8 7 9 4 10
REMARK H PARENT 1 4 1 5 1 6 4 11
REMARK Flexibility Score: inf
ROOT
ATOM      1  C   UNL     1     138.905 143.972 136.825  1.00  0.00     0.227 C 
ENDROOT
BRANCH   1   2
ATOM      2  C   UNL     1     139.787 145.233 136.840  1.00  0.00     0.253 C 
BRANCH   2   3
ATOM      3  N   UNL     1     140.328 145.500 135.502  1.00  0.00    -0.348 N 
ATOM      4  H   UNL     1     139.636 145.207 134.775  1.00  0.00     0.345 HD
ATOM      5  H   UNL     1     141.206 144.948 135.359  1.00  0.00     0.345 HD
ATOM      6  H   UNL     1     140.539 146.518 135.385  1.00  0.00     0.345 HD
ENDBRANCH   2   3
BRANCH   2   7
ATOM      7  C   UNL     1     139.005 146.421 137.333  1.00  0.00     0.102 C 
ATOM      8  O   UNL     1     138.073 146.263 138.166  1.00  0.00    -0.544 OA
ATOM      9  O   UNL     1     139.296 147.696 136.865  1.00  0.00    -0.544 OA
ENDBRANCH   2   7
ENDBRANCH   1   2
BRANCH   1  10
ATOM     10  O   UNL     1     138.759 143.450 138.118  1.00  0.00    -0.390 OA
ATOM     11  H   UNL     1     139.668 143.418 138.516  1.00  0.00     0.210 HD
ENDBRANCH   1  10
TORSDOF 4
ENDMDL
MODEL 6
REMARK VINA RESULT:    -2.907      5.638      6.859
REMARK INTER + INTRA:          -3.620
REMARK INTER:                  -3.394
REMARK INTRA:                  -0.226
REMARK UNBOUND:                -0.204
REMARK SMILES [NH3+][C@H](CO)C(=O)[O-]
REMARK SMILES IDX 3 1 2 2 1 3 5 7 6 8 7 9 4 10
REMARK H PARENT 1 4 1 5 1 6 4 11
REMARK Flexibility Score: inf
ROOT
ATOM      1  C   UNL     1     137.909 142.772 137.128  1.00  0.00     0.227 C 
ENDROOT
BRANCH   1   2
ATOM      2  C   UNL     1     136.777 141.935 137.752  1.00  0.00     0.253 C 
BRANCH   2   3
ATOM      3  N   UNL     1     137.276 141.168 138.900  1.00  0.00    -0.348 N 
ATOM      4  H   UNL     1     137.024 141.658 139.789  1.00  0.00     0.345 HD
ATOM      5  H   UNL     1     138.319 141.095 138.851  1.00  0.00     0.345 HD
ATOM      6  H   UNL     1     136.863 140.206 138.910  1.00  0.00     0.345 HD
ENDBRANCH   2   3
BRANCH   2   7
ATOM      7  C   UNL     1     135.635 142.820 138.172  1.00  0.00     0.102 C 
ATOM      8  O   UNL     1     134.445 142.442 138.004  1.00  0.00    -0.544 OA
ATOM      9  O   UNL     1     135.883 144.066 138.737  1.00  0.00    -0.544 OA
ENDBRANCH   2   7
ENDBRANCH   1   2
BRANCH   1  10
ATOM     10  O   UNL     1     138.697 143.365 138.125  1.00  0.00    -0.390 OA
ATOM     11  H   UNL     1     139.607 142.977 138.036  1.00  0.00     0.210 HD
ENDBRANCH   1  10
TORSDOF 4
ENDMDL
MODEL 7
REMARK VINA RESULT:    -2.900      3.203      3.843
REMARK INTER + INTRA:          -3.613
REMARK INTER:                  -3.222
REMARK INTRA:                  -0.390
REMARK UNBOUND:                -0.204
REMARK SMILES [NH3+][C@H](CO)C(=O)[O-]
REMARK SMILES IDX 3 1 2 2 1 3 5 7 6 8 7 9 4 10
REMARK H PARENT 1 4 1 5 1 6 4 11
REMARK Flexibility Score: inf
ROOT
ATOM      1  C   UNL     1     137.744 146.080 138.336  1.00  0.00     0.227 C 
ENDROOT
BRANCH   1   2
ATOM      2  C   UNL     1     138.122 146.606 136.940  1.00  0.00     0.253 C 
BRANCH   2   3
ATOM      3  N   UNL     1     139.252 147.540 137.030  1.00  0.00    -0.348 N 
ATOM      4  H   UNL     1     138.913 148.476 137.349  1.00  0.00     0.345 HD
ATOM      5  H   UNL     1     139.691 147.655 136.086  1.00  0.00     0.345 HD
ATOM      6  H   UNL     1     139.970 147.187 137.703  1.00  0.00     0.345 HD
ENDBRANCH   2   3
BRANCH   2   7
ATOM      7  C   UNL     1     138.460 145.466 136.017  1.00  0.00     0.102 C 
ATOM      8  O   UNL     1     139.662 145.149 135.816  1.00  0.00    -0.544 OA
ATOM      9  O   UNL     1     137.449 144.762 135.373  1.00  0.00    -0.544 OA
ENDBRANCH   2   7
ENDBRANCH   1   2
BRANCH   1  10
ATOM     10  O   UNL     1     137.973 144.699 138.427  1.00  0.00    -0.390 OA
ATOM     11  H   UNL     1     138.404 144.426 137.575  1.00  0.00     0.210 HD
ENDBRANCH   1  10
TORSDOF 4
ENDMDL
MODEL 8
REMARK VINA RESULT:    -2.858      3.120      3.421
REMARK INTER + INTRA:          -3.563
REMARK INTER:                  -3.325
REMARK INTRA:                  -0.238
REMARK UNBOUND:                -0.204
REMARK SMILES [NH3+][C@H](CO)C(=O)[O-]
REMARK SMILES IDX 3 1 2 2 1 3 5 7 6 8 7 9 4 10
REMARK H PARENT 1 4 1 5 1 6 4 11
REMARK Flexibility Score: inf
ROOT
ATOM      1  C   UNL     1     139.306 144.579 136.573  1.00  0.00     0.227 C 
ENDROOT
BRANCH   1   2
ATOM      2  C   UNL     1     138.207 145.449 137.209  1.00  0.00     0.253 C 
BRANCH   2   3
ATOM      3  N   UNL     1     137.769 144.875 138.487  1.00  0.00    -0.348 N 
ATOM      4  H   UNL     1     138.348 144.035 138.715  1.00  0.00     0.345 HD
ATOM      5  H   UNL     1     136.769 144.573 138.414  1.00  0.00     0.345 HD
ATOM      6  H   UNL     1     137.862 145.575 139.259  1.00  0.00     0.345 HD
ENDBRANCH   2   3
BRANCH   2   7
ATOM      7  C   UNL     1     138.699 146.858 137.412  1.00  0.00     0.102 C 
ATOM      8  O   UNL     1     138.164 147.596 138.280  1.00  0.00    -0.544 OA
ATOM      9  O   UNL     1     139.739 147.356 136.635  1.00  0.00    -0.544 OA
ENDBRANCH   2   7
ENDBRANCH   1   2
BRANCH   1  10
ATOM     10  O   UNL     1     140.488 144.639 137.325  1.00  0.00    -0.390 OA
ATOM     11  H   UNL     1     141.166 145.085 136.754  1.00  0.00     0.210 HD
ENDBRANCH   1  10
TORSDOF 4
ENDMDL
MODEL 9
REMARK VINA RESULT:    -2.858      4.542      5.586
REMARK INTER + INTRA:          -3.563
REMARK INTER:                  -3.165
REMARK INTRA:                  -0.398
REMARK UNBOUND:                -0.204
REMARK SMILES [NH3+][C@H](CO)C(=O)[O-]
REMARK SMILES IDX 3 1 2 2 1 3 5 7 6 8 7 9 4 10
REMARK H PARENT 1 4 1 5 1 6 4 11
REMARK Flexibility Score: inf
ROOT
ATOM      1  C   UNL     1     138.105 144.962 135.953  1.00  0.00     0.227 C 
ENDROOT
BRANCH   1   2
ATOM      2  C   UNL     1     138.409 144.250 137.284  1.00  0.00     0.253 C 
BRANCH   2   3
ATOM      3  N   UNL     1     137.933 145.052 138.418  1.00  0.00    -0.348 N 
ATOM      4  H   UNL     1     137.193 144.527 138.937  1.00  0.00     0.345 HD
ATOM      5  H   UNL     1     137.515 145.945 138.068  1.00  0.00     0.345 HD
ATOM      6  H   UNL     1     138.720 145.272 139.071  1.00  0.00     0.345 HD
ENDBRANCH   2   3
BRANCH   2   7
ATOM      7  C   UNL     1     137.777 142.884 137.309  1.00  0.00     0.102 C 
ATOM      8  O   UNL     1     138.414 141.884 136.884  1.00  0.00    -0.544 OA
ATOM      9  O   UNL     1     136.484 142.718 137.790  1.00  0.00    -0.544 OA
ENDBRANCH   2   7
ENDBRANCH   1   2
BRANCH   1  10
ATOM     10  O   UNL     1     137.242 144.191 135.161  1.00  0.00    -0.390 OA
ATOM     11  H   UNL     1     136.453 144.760 134.962  1.00  0.00     0.210 HD
ENDBRANCH   1  10
TORSDOF 4
ENDMDL
