MODEL 1
REMARK VINA RESULT:    -5.390      0.000      0.000
REMARK INTER + INTRA:          -5.956
REMARK INTER:                  -5.705
REMARK INTRA:                  -0.251
REMARK UNBOUND:                -0.251
REMARK SMILES CC1=CC[C@@H]2[C@H]3[C@@H](C(C)C)CC[C@]2(C)[C@@H]13
REMARK SMILES IDX 1 1 2 2 3 3 4 4 5 5 6 6 15 7 13 8 12 9 11 10 7 11 14 12 8 13
REMARK SMILES IDX 9 14 10 15
REMARK H PARENT
REMARK Flexibility Score: inf
ROOT
ATOM      1  C   UNL     1      27.650  25.029  12.247  1.00  0.00     0.039 C 
ATOM      2  C   UNL     1      28.960  24.342  12.003  1.00  0.00    -0.073 C 
ATOM      3  C   UNL     1      29.506  24.285  10.761  1.00  0.00    -0.027 C 
ATOM      4  C   UNL     1      30.854  23.584  10.576  1.00  0.00     0.031 C 
ATOM      5  C   UNL     1      31.362  23.008  11.936  1.00  0.00     0.003 C 
ATOM      6  C   UNL     1      30.169  22.272  12.605  1.00  0.00     0.004 C 
ATOM      7  C   UNL     1      29.734  23.658  13.135  1.00  0.00     0.024 C 
ATOM      8  C   UNL     1      31.230  24.048  13.080  1.00  0.00    -0.022 C 
ATOM      9  C   UNL     1      31.939  23.533  14.371  1.00  0.00     0.008 C 
ATOM     10  C   UNL     1      31.870  21.988  14.512  1.00  0.00     0.005 C 
ATOM     11  C   UNL     1      30.621  21.380  13.800  1.00  0.00    -0.005 C 
ATOM     12  C   UNL     1      31.595  25.525  12.803  1.00  0.00     0.012 C 
ENDROOT
BRANCH  11  13
ATOM     13  C   UNL     1      30.777  19.883  13.396  1.00  0.00    -0.014 C 
ATOM     14  C   UNL     1      32.099  19.558  12.679  1.00  0.00     0.007 C 
ATOM     15  C   UNL     1      30.577  18.947  14.596  1.00  0.00     0.007 C 
ENDBRANCH  11  13
TORSDOF 1
ENDMDL
MODEL 2
REMARK VINA RESULT:    -5.301      2.412      5.514
REMARK INTER + INTRA:          -5.862
REMARK INTER:                  -5.600
REMARK INTRA:                  -0.262
REMARK UNBOUND:                -0.251
REMARK SMILES CC1=CC[C@@H]2[C@H]3[C@@H](C(C)C)CC[C@]2(C)[C@@H]13
REMARK SMILES IDX 1 1 2 2 3 3 4 4 5 5 6 6 15 7 13 8 12 9 11 10 7 11 14 12 8 13
REMARK SMILES IDX 9 14 10 15
REMARK H PARENT
REMARK Flexibility Score: inf
ROOT
ATOM      1  C   UNL     1      27.253  23.545  11.523  1.00  0.00     0.039 C 
ATOM      2  C   UNL     1      28.601  24.044  11.950  1.00  0.00    -0.073 C 
ATOM      3  C   UNL     1      29.110  23.741  13.172  1.00  0.00    -0.027 C 
ATOM      4  C   UNL     1      30.498  24.266  13.547  1.00  0.00     0.031 C 
ATOM      5  C   UNL     1      31.088  25.128  12.386  1.00  0.00     0.003 C 
ATOM      6  C   UNL     1      29.972  26.100  11.913  1.00  0.00     0.004 C 
ATOM      7  C   UNL     1      29.456  24.933  11.041  1.00  0.00     0.024 C 
ATOM      8  C   UNL     1      30.918  24.428  11.012  1.00  0.00    -0.022 C 
ATOM      9  C   UNL     1      31.702  25.199   9.905  1.00  0.00     0.008 C 
ATOM     10  C   UNL     1      31.747  26.729  10.164  1.00  0.00     0.005 C 
ATOM     11  C   UNL     1      30.524  27.230  10.993  1.00  0.00    -0.005 C 
ATOM     12  C   UNL     1      31.168  22.905  10.905  1.00  0.00     0.012 C 
ENDROOT
BRANCH  11  13
ATOM     13  C   UNL     1      30.772  28.558  11.769  1.00  0.00    -0.014 C 
ATOM     14  C   UNL     1      31.111  29.760  10.871  1.00  0.00     0.007 C 
ATOM     15  C   UNL     1      29.599  28.901  12.698  1.00  0.00     0.007 C 
ENDBRANCH  11  13
TORSDOF 1
ENDMDL
MODEL 3
REMARK VINA RESULT:    -5.257      2.669      4.708
REMARK INTER + INTRA:          -5.815
REMARK INTER:                  -5.395
REMARK INTRA:                  -0.419
REMARK UNBOUND:                -0.251
REMARK SMILES CC1=CC[C@@H]2[C@H]3[C@@H](C(C)C)CC[C@]2(C)[C@@H]13
REMARK SMILES IDX 1 1 2 2 3 3 4 4 5 5 6 6 15 7 13 8 12 9 11 10 7 11 14 12 8 13
REMARK SMILES IDX 9 14 10 15
REMARK H PARENT
REMARK Flexibility Score: inf
ROOT
ATOM      1  C   UNL     1      31.487  29.005   8.977  1.00  0.00     0.039 C 
ATOM      2  C   UNL     1      31.295  28.287  10.279  1.00  0.00    -0.073 C 
ATOM      3  C   UNL     1      32.125  28.504  11.332  1.00  0.00    -0.027 C 
ATOM      4  C   UNL     1      31.869  27.754  12.642  1.00  0.00     0.031 C 
ATOM      5  C   UNL     1      30.641  26.801  12.495  1.00  0.00     0.003 C 
ATOM      6  C   UNL     1      30.806  26.030  11.157  1.00  0.00     0.004 C 
ATOM      7  C   UNL     1      30.172  27.264  10.477  1.00  0.00     0.024 C 
ATOM      8  C   UNL     1      29.442  27.515  11.818  1.00  0.00    -0.022 C 
ATOM      9  C   UNL     1      28.166  26.620  11.879  1.00  0.00     0.008 C 
ATOM     10  C   UNL     1      28.498  25.105  11.811  1.00  0.00     0.005 C 
ATOM     11  C   UNL     1      29.829  24.820  11.048  1.00  0.00    -0.005 C 
ATOM     12  C   UNL     1      29.111  28.974  12.213  1.00  0.00     0.012 C 
ENDROOT
BRANCH  11  13
ATOM     13  C   UNL     1      30.513  23.472  11.427  1.00  0.00    -0.014 C 
ATOM     14  C   UNL     1      32.047  23.487  11.309  1.00  0.00     0.007 C 
ATOM     15  C   UNL     1      30.092  22.994  12.825  1.00  0.00     0.007 C 
ENDBRANCH  11  13
TORSDOF 1
ENDMDL
MODEL 4
REMARK VINA RESULT:    -5.193      2.161      5.645
REMARK INTER + INTRA:          -5.748
REMARK INTER:                  -5.542
REMARK INTRA:                  -0.206
REMARK UNBOUND:                -0.251
REMARK SMILES CC1=CC[C@@H]2[C@H]3[C@@H](C(C)C)CC[C@]2(C)[C@@H]13
REMARK SMILES IDX 1 1 2 2 3 3 4 4 5 5 6 6 15 7 13 8 12 9 11 10 7 11 14 12 8 13
REMARK SMILES IDX 9 14 10 15
REMARK H PARENT
REMARK Flexibility Score: inf
ROOT
ATOM      1  C   UNL     1      30.890  22.912  14.108  1.00  0.00     0.039 C 
ATOM      2  C   UNL     1      30.601  23.670  12.848  1.00  0.00    -0.073 C 
ATOM      3  C   UNL     1      30.970  23.185  11.634  1.00  0.00    -0.027 C 
ATOM      4  C   UNL     1      30.633  23.996  10.379  1.00  0.00     0.031 C 
ATOM      5  C   UNL     1      29.907  25.324  10.767  1.00  0.00     0.003 C 
ATOM      6  C   UNL     1      30.701  25.965  11.938  1.00  0.00     0.004 C 
ATOM      7  C   UNL     1      29.897  25.030  12.870  1.00  0.00     0.024 C 
ATOM      8  C   UNL     1      28.778  25.077  11.802  1.00  0.00    -0.022 C 
ATOM      9  C   UNL     1      27.931  26.371  12.006  1.00  0.00     0.008 C 
ATOM     10  C   UNL     1      28.774  27.665  11.849  1.00  0.00     0.005 C 
ATOM     11  C   UNL     1      30.279  27.443  12.198  1.00  0.00    -0.005 C 
ATOM     12  C   UNL     1      27.864  23.840  11.640  1.00  0.00     0.012 C 
ENDROOT
BRANCH  11  13
ATOM     13  C   UNL     1      31.252  28.462  11.532  1.00  0.00    -0.014 C 
ATOM     14  C   UNL     1      32.029  27.898  10.330  1.00  0.00     0.007 C 
ATOM     15  C   UNL     1      30.532  29.760  11.139  1.00  0.00     0.007 C 
ENDBRANCH  11  13
TORSDOF 1
ENDMDL
MODEL 5
REMARK VINA RESULT:    -4.725      1.141      1.278
REMARK INTER + INTRA:          -5.253
REMARK INTER:                  -4.992
REMARK INTRA:                  -0.260
REMARK UNBOUND:                -0.251
REMARK SMILES CC1=CC[C@@H]2[C@H]3[C@@H](C(C)C)CC[C@]2(C)[C@@H]13
REMARK SMILES IDX 1 1 2 2 3 3 4 4 5 5 6 6 15 7 13 8 12 9 11 10 7 11 14 12 8 13
REMARK SMILES IDX 9 14 10 15
REMARK H PARENT
REMARK Flexibility Score: inf
ROOT
ATOM      1  C   UNL     1      28.064  26.499  11.878  1.00  0.00     0.039 C 
ATOM      2  C   UNL     1      29.315  25.701  11.662  1.00  0.00    -0.073 C 
ATOM      3  C   UNL     1      29.896  25.619  10.437  1.00  0.00    -0.027 C 
ATOM      4  C   UNL     1      31.182  24.803  10.281  1.00  0.00     0.031 C 
ATOM      5  C   UNL     1      31.588  24.158  11.644  1.00  0.00     0.003 C 
ATOM      6  C   UNL     1      30.312  23.519  12.257  1.00  0.00     0.004 C 
ATOM      7  C   UNL     1      29.984  24.928  12.803  1.00  0.00     0.024 C 
ATOM      8  C   UNL     1      31.510  25.182  12.806  1.00  0.00    -0.022 C 
ATOM      9  C   UNL     1      32.125  24.580  14.107  1.00  0.00     0.008 C 
ATOM     10  C   UNL     1      31.913  23.046  14.211  1.00  0.00     0.005 C 
ATOM     11  C   UNL     1      30.640  22.567  13.445  1.00  0.00    -0.005 C 
ATOM     12  C   UNL     1      32.016  26.625  12.575  1.00  0.00     0.012 C 
ENDROOT
BRANCH  11  13
ATOM     13  C   UNL     1      30.675  21.070  13.012  1.00  0.00    -0.014 C 
ATOM     14  C   UNL     1      32.018  20.618  12.413  1.00  0.00     0.007 C 
ATOM     15  C   UNL     1      30.263  20.137  14.160  1.00  0.00     0.007 C 
ENDBRANCH  11  13
TORSDOF 1
ENDMDL
MODEL 6
REMARK VINA RESULT:    -4.661      2.563      5.892
REMARK INTER + INTRA:          -5.185
REMARK INTER:                  -4.948
REMARK INTRA:                  -0.237
REMARK UNBOUND:                -0.251
REMARK SMILES CC1=CC[C@@H]2[C@H]3[C@@H](C(C)C)CC[C@]2(C)[C@@H]13
REMARK SMILES IDX 1 1 2 2 3 3 4 4 5 5 6 6 15 7 13 8 12 9 11 10 7 11 14 12 8 13
REMARK SMILES IDX 9 14 10 15
REMARK H PARENT
REMARK Flexibility Score: inf
ROOT
ATOM      1  C   UNL     1      32.123  22.654  10.165  1.00  0.00     0.039 C 
ATOM      2  C   UNL     1      31.275  23.723  10.787  1.00  0.00    -0.073 C 
ATOM      3  C   UNL     1      29.929  23.578  10.899  1.00  0.00    -0.027 C 
ATOM      4  C   UNL     1      29.117  24.697  11.558  1.00  0.00     0.031 C 
ATOM      5  C   UNL     1      30.051  25.877  11.976  1.00  0.00     0.003 C 
ATOM      6  C   UNL     1      30.989  26.178  10.775  1.00  0.00     0.004 C 
ATOM      7  C   UNL     1      31.880  25.032  11.305  1.00  0.00     0.024 C 
ATOM      8  C   UNL     1      31.321  25.367  12.708  1.00  0.00    -0.022 C 
ATOM      9  C   UNL     1      32.125  26.564  13.304  1.00  0.00     0.008 C 
ATOM     10  C   UNL     1      32.008  27.849  12.441  1.00  0.00     0.005 C 
ATOM     11  C   UNL     1      31.739  27.534  10.937  1.00  0.00    -0.005 C 
ATOM     12  C   UNL     1      31.189  24.223  13.740  1.00  0.00     0.012 C 
ENDROOT
BRANCH  11  13
ATOM     13  C   UNL     1      31.049  28.689  10.151  1.00  0.00    -0.014 C 
ATOM     14  C   UNL     1      30.636  29.887  11.023  1.00  0.00     0.007 C 
ATOM     15  C   UNL     1      31.906  29.163   8.968  1.00  0.00     0.007 C 
ENDBRANCH  11  13
TORSDOF 1
ENDMDL
MODEL 7
REMARK VINA RESULT:    -4.573      1.143      2.509
REMARK INTER + INTRA:          -5.091
REMARK INTER:                  -4.844
REMARK INTRA:                  -0.247
REMARK UNBOUND:                -0.251
REMARK SMILES CC1=CC[C@@H]2[C@H]3[C@@H](C(C)C)CC[C@]2(C)[C@@H]13
REMARK SMILES IDX 1 1 2 2 3 3 4 4 5 5 6 6 15 7 13 8 12 9 11 10 7 11 14 12 8 13
REMARK SMILES IDX 9 14 10 15
REMARK H PARENT
REMARK Flexibility Score: inf
ROOT
ATOM      1  C   UNL     1      32.081  26.434  13.191  1.00  0.00     0.039 C 
ATOM      2  C   UNL     1      31.232  25.258  12.812  1.00  0.00    -0.073 C 
ATOM      3  C   UNL     1      29.895  25.388  12.617  1.00  0.00    -0.027 C 
ATOM      4  C   UNL     1      29.082  24.153  12.215  1.00  0.00     0.031 C 
ATOM      5  C   UNL     1      30.005  22.897  12.128  1.00  0.00     0.003 C 
ATOM      6  C   UNL     1      30.894  22.882  13.401  1.00  0.00     0.004 C 
ATOM      7  C   UNL     1      31.827  23.855  12.646  1.00  0.00     0.024 C 
ATOM      8  C   UNL     1      31.309  23.199  11.345  1.00  0.00    -0.022 C 
ATOM      9  C   UNL     1      32.107  21.885  11.083  1.00  0.00     0.008 C 
ATOM     10  C   UNL     1      31.934  20.846  12.225  1.00  0.00     0.005 C 
ATOM     11  C   UNL     1      31.620  21.517  13.598  1.00  0.00    -0.005 C 
ATOM     12  C   UNL     1      31.237  24.063  10.064  1.00  0.00     0.012 C 
ENDROOT
BRANCH  11  13
ATOM     13  C   UNL     1      30.880  20.593  14.611  1.00  0.00    -0.014 C 
ATOM     14  C   UNL     1      30.278  19.324  13.984  1.00  0.00     0.007 C 
ATOM     15  C   UNL     1      31.775  20.225  15.803  1.00  0.00     0.007 C 
ENDBRANCH  11  13
TORSDOF 1
ENDMDL
MODEL 8
REMARK VINA RESULT:    -4.280      2.099      3.038
REMARK INTER + INTRA:          -4.781
REMARK INTER:                  -4.553
REMARK INTRA:                  -0.228
REMARK UNBOUND:                -0.251
REMARK SMILES CC1=CC[C@@H]2[C@H]3[C@@H](C(C)C)CC[C@]2(C)[C@@H]13
REMARK SMILES IDX 1 1 2 2 3 3 4 4 5 5 6 6 15 7 13 8 12 9 11 10 7 11 14 12 8 13
REMARK SMILES IDX 9 14 10 15
REMARK H PARENT
REMARK Flexibility Score: inf
ROOT
ATOM      1  C   UNL     1      28.226  28.306  11.545  1.00  0.00     0.039 C 
ATOM      2  C   UNL     1      29.472  27.505  11.312  1.00  0.00    -0.073 C 
ATOM      3  C   UNL     1      30.129  27.555  10.125  1.00  0.00    -0.027 C 
ATOM      4  C   UNL     1      31.406  26.727   9.951  1.00  0.00     0.031 C 
ATOM      5  C   UNL     1      31.709  25.911  11.248  1.00  0.00     0.003 C 
ATOM      6  C   UNL     1      30.382  25.240  11.698  1.00  0.00     0.004 C 
ATOM      7  C   UNL     1      30.049  26.582  12.390  1.00  0.00     0.024 C 
ATOM      8  C   UNL     1      31.576  26.791  12.519  1.00  0.00    -0.022 C 
ATOM      9  C   UNL     1      32.092  26.020  13.773  1.00  0.00     0.008 C 
ATOM     10  C   UNL     1      31.842  24.490  13.676  1.00  0.00     0.005 C 
ATOM     11  C   UNL     1      30.613  24.143  12.780  1.00  0.00    -0.005 C 
ATOM     12  C   UNL     1      32.125  28.237  12.497  1.00  0.00     0.012 C 
ENDROOT
BRANCH  11  13
ATOM     13  C   UNL     1      30.645  22.709  12.171  1.00  0.00    -0.014 C 
ATOM     14  C   UNL     1      31.931  22.383  11.392  1.00  0.00     0.007 C 
ATOM     15  C   UNL     1      30.380  21.634  13.235  1.00  0.00     0.007 C 
ENDBRANCH  11  13
TORSDOF 1
ENDMDL
MODEL 9
REMARK VINA RESULT:    -4.251      1.483      3.144
REMARK INTER + INTRA:          -4.750
REMARK INTER:                  -4.444
REMARK INTRA:                  -0.306
REMARK UNBOUND:                -0.251
REMARK SMILES CC1=CC[C@@H]2[C@H]3[C@@H](C(C)C)CC[C@]2(C)[C@@H]13
REMARK SMILES IDX 1 1 2 2 3 3 4 4 5 5 6 6 15 7 13 8 12 9 11 10 7 11 14 12 8 13
REMARK SMILES IDX 9 14 10 15
REMARK H PARENT
REMARK Flexibility Score: inf
ROOT
ATOM      1  C   UNL     1      32.116  27.630  13.175  1.00  0.00     0.039 C 
ATOM      2  C   UNL     1      31.256  26.659  12.423  1.00  0.00    -0.073 C 
ATOM      3  C   UNL     1      30.040  27.022  11.939  1.00  0.00    -0.027 C 
ATOM      4  C   UNL     1      29.213  25.991  11.165  1.00  0.00     0.031 C 
ATOM      5  C   UNL     1      29.965  24.624  11.102  1.00  0.00     0.003 C 
ATOM      6  C   UNL     1      30.487  24.312  12.532  1.00  0.00     0.004 C 
ATOM      7  C   UNL     1      31.696  25.211  12.184  1.00  0.00     0.024 C 
ATOM      8  C   UNL     1      31.454  24.809  10.710  1.00  0.00    -0.022 C 
ATOM      9  C   UNL     1      32.125  23.427  10.441  1.00  0.00     0.008 C 
ATOM     10  C   UNL     1      31.536  22.297  11.329  1.00  0.00     0.005 C 
ATOM     11  C   UNL     1      30.964  22.836  12.677  1.00  0.00    -0.005 C 
ATOM     12  C   UNL     1      31.822  25.824   9.602  1.00  0.00     0.012 C 
ENDROOT
BRANCH  11  13
ATOM     13  C   UNL     1      29.879  21.925  13.326  1.00  0.00    -0.014 C 
ATOM     14  C   UNL     1      30.446  20.799  14.209  1.00  0.00     0.007 C 
ATOM     15  C   UNL     1      28.843  22.744  14.109  1.00  0.00     0.007 C 
ENDBRANCH  11  13
TORSDOF 1
ENDMDL
