MODEL 1
REMARK VINA RESULT:    -4.781      0.000      0.000
REMARK INTER + INTRA:          -5.148
REMARK INTER:                  -5.061
REMARK INTRA:                  -0.087
REMARK UNBOUND:                -0.087
REMARK SMILES C=C(C)[C@@H]1CC=C(C)C(=O)C1
REMARK SMILES IDX 8 1 7 2 6 3 5 4 4 5 11 6 9 7 10 8 2 9 1 10 3 11
REMARK H PARENT
REMARK Flexibility Score: inf
ROOT
ATOM      1  C   UNL     1     -14.015   6.691 -17.220  1.00  0.00     0.048 C 
ATOM      2  C   UNL     1     -13.009   5.806 -16.537  1.00  0.00    -0.012 C 
ATOM      3  C   UNL     1     -13.035   4.478 -16.745  1.00  0.00    -0.019 C 
ATOM      4  C   UNL     1     -12.040   3.549 -16.100  1.00  0.00     0.036 C 
ATOM      5  C   UNL     1     -11.616   4.068 -14.714  1.00  0.00     0.025 C 
ATOM      6  C   UNL     1     -11.085   5.507 -14.820  1.00  0.00     0.089 C 
ATOM      7  C   UNL     1     -12.072   6.383 -15.542  1.00  0.00     0.158 C 
ATOM      8  O   UNL     1     -12.069   7.625 -15.319  1.00  0.00    -0.295 OA
ENDROOT
BRANCH   5   9
ATOM      9  C   UNL     1     -10.595   3.144 -14.063  1.00  0.00    -0.077 C 
ATOM     10  C   UNL     1     -10.865   2.571 -12.878  1.00  0.00     0.008 C 
ATOM     11  C   UNL     1      -9.269   2.851 -14.718  1.00  0.00     0.039 C 
ENDBRANCH   5   9
TORSDOF 1
ENDMDL
MODEL 2
REMARK VINA RESULT:    -4.757      2.166      4.310
REMARK INTER + INTRA:          -5.123
REMARK INTER:                  -5.024
REMARK INTRA:                  -0.099
REMARK UNBOUND:                -0.087
REMARK SMILES C=C(C)[C@@H]1CC=C(C)C(=O)C1
REMARK SMILES IDX 8 1 7 2 6 3 5 4 4 5 11 6 9 7 10 8 2 9 1 10 3 11
REMARK H PARENT
REMARK Flexibility Score: inf
ROOT
ATOM      1  C   UNL     1     -12.271   3.531 -17.258  1.00  0.00     0.048 C 
ATOM      2  C   UNL     1     -12.437   4.827 -16.514  1.00  0.00    -0.012 C 
ATOM      3  C   UNL     1     -13.406   5.687 -16.875  1.00  0.00    -0.019 C 
ATOM      4  C   UNL     1     -13.627   6.990 -16.153  1.00  0.00     0.036 C 
ATOM      5  C   UNL     1     -12.300   7.560 -15.620  1.00  0.00     0.025 C 
ATOM      6  C   UNL     1     -11.585   6.520 -14.739  1.00  0.00     0.089 C 
ATOM      7  C   UNL     1     -11.457   5.210 -15.467  1.00  0.00     0.158 C 
ATOM      8  O   UNL     1     -10.527   4.420 -15.150  1.00  0.00    -0.295 OA
ENDROOT
BRANCH   5   9
ATOM      9  C   UNL     1     -12.517   8.869 -14.872  1.00  0.00    -0.077 C 
ATOM     10  C   UNL     1     -13.750   9.218 -14.470  1.00  0.00     0.008 C 
ATOM     11  C   UNL     1     -11.370   9.799 -14.567  1.00  0.00     0.039 C 
ENDBRANCH   5   9
TORSDOF 1
ENDMDL
MODEL 3
REMARK VINA RESULT:    -4.622      1.666      4.341
REMARK INTER + INTRA:          -4.979
REMARK INTER:                  -4.883
REMARK INTRA:                  -0.096
REMARK UNBOUND:                -0.087
REMARK SMILES C=C(C)[C@@H]1CC=C(C)C(=O)C1
REMARK SMILES IDX 8 1 7 2 6 3 5 4 4 5 11 6 9 7 10 8 2 9 1 10 3 11
REMARK H PARENT
REMARK Flexibility Score: inf
ROOT
ATOM      1  C   UNL     1      -9.478   2.246 -14.170  1.00  0.00     0.048 C 
ATOM      2  C   UNL     1     -10.420   3.368 -14.512  1.00  0.00    -0.012 C 
ATOM      3  C   UNL     1     -11.380   3.177 -15.433  1.00  0.00    -0.019 C 
ATOM      4  C   UNL     1     -12.360   4.261 -15.800  1.00  0.00     0.036 C 
ATOM      5  C   UNL     1     -11.713   5.653 -15.691  1.00  0.00     0.025 C 
ATOM      6  C   UNL     1     -11.118   5.859 -14.287  1.00  0.00     0.089 C 
ATOM      7  C   UNL     1     -10.209   4.715 -13.926  1.00  0.00     0.158 C 
ATOM      8  O   UNL     1      -9.287   4.905 -13.087  1.00  0.00    -0.295 OA
ENDROOT
BRANCH   5   9
ATOM      9  C   UNL     1     -12.703   6.756 -16.042  1.00  0.00    -0.077 C 
ATOM     10  C   UNL     1     -13.644   6.544 -16.976  1.00  0.00     0.008 C 
ATOM     11  C   UNL     1     -12.654   8.102 -15.363  1.00  0.00     0.039 C 
ENDBRANCH   5   9
TORSDOF 1
ENDMDL
MODEL 4
REMARK VINA RESULT:    -4.573      2.029      3.061
REMARK INTER + INTRA:          -4.927
REMARK INTER:                  -4.830
REMARK INTRA:                  -0.097
REMARK UNBOUND:                -0.087
REMARK SMILES C=C(C)[C@@H]1CC=C(C)C(=O)C1
REMARK SMILES IDX 8 1 7 2 6 3 5 4 4 5 11 6 9 7 10 8 2 9 1 10 3 11
REMARK H PARENT
REMARK Flexibility Score: inf
ROOT
ATOM      1  C   UNL     1     -12.699   9.144 -14.581  1.00  0.00     0.048 C 
ATOM      2  C   UNL     1     -12.559   7.796 -15.233  1.00  0.00    -0.012 C 
ATOM      3  C   UNL     1     -13.429   7.420 -16.187  1.00  0.00    -0.019 C 
ATOM      4  C   UNL     1     -13.323   6.089 -16.884  1.00  0.00     0.036 C 
ATOM      5  C   UNL     1     -12.757   5.013 -15.940  1.00  0.00     0.025 C 
ATOM      6  C   UNL     1     -11.411   5.470 -15.352  1.00  0.00     0.089 C 
ATOM      7  C   UNL     1     -11.540   6.837 -14.738  1.00  0.00     0.158 C 
ATOM      8  O   UNL     1     -10.746   7.175 -13.819  1.00  0.00    -0.295 OA
ENDROOT
BRANCH   5   9
ATOM      9  C   UNL     1     -12.629   3.668 -16.644  1.00  0.00    -0.077 C 
ATOM     10  C   UNL     1     -12.027   3.589 -17.841  1.00  0.00     0.008 C 
ATOM     11  C   UNL     1     -13.171   2.403 -16.026  1.00  0.00     0.039 C 
ENDBRANCH   5   9
TORSDOF 1
ENDMDL
MODEL 5
REMARK VINA RESULT:    -4.292      1.975      2.709
REMARK INTER + INTRA:          -4.631
REMARK INTER:                  -4.534
REMARK INTRA:                  -0.097
REMARK UNBOUND:                -0.087
REMARK SMILES C=C(C)[C@@H]1CC=C(C)C(=O)C1
REMARK SMILES IDX 8 1 7 2 6 3 5 4 4 5 11 6 9 7 10 8 2 9 1 10 3 11
REMARK H PARENT
REMARK Flexibility Score: inf
ROOT
ATOM      1  C   UNL     1     -13.055   5.599 -16.867  1.00  0.00     0.048 C 
ATOM      2  C   UNL     1     -12.220   4.944 -15.801  1.00  0.00    -0.012 C 
ATOM      3  C   UNL     1     -11.435   5.696 -15.010  1.00  0.00    -0.019 C 
ATOM      4  C   UNL     1     -10.592   5.093 -13.917  1.00  0.00     0.036 C 
ATOM      5  C   UNL     1     -10.111   3.682 -14.302  1.00  0.00     0.025 C 
ATOM      6  C   UNL     1     -11.309   2.790 -14.672  1.00  0.00     0.089 C 
ATOM      7  C   UNL     1     -12.169   3.464 -15.707  1.00  0.00     0.158 C 
ATOM      8  O   UNL     1     -12.879   2.755 -16.471  1.00  0.00    -0.295 OA
ENDROOT
BRANCH   5   9
ATOM      9  C   UNL     1      -9.274   3.057 -13.193  1.00  0.00    -0.077 C 
ATOM     10  C   UNL     1      -8.875   1.779 -13.290  1.00  0.00     0.008 C 
ATOM     11  C   UNL     1      -8.877   3.844 -11.969  1.00  0.00     0.039 C 
ENDBRANCH   5   9
TORSDOF 1
ENDMDL
MODEL 6
REMARK VINA RESULT:    -4.220      1.945      4.666
REMARK INTER + INTRA:          -4.554
REMARK INTER:                  -4.459
REMARK INTRA:                  -0.095
REMARK UNBOUND:                -0.087
REMARK SMILES C=C(C)[C@@H]1CC=C(C)C(=O)C1
REMARK SMILES IDX 8 1 7 2 6 3 5 4 4 5 11 6 9 7 10 8 2 9 1 10 3 11
REMARK H PARENT
REMARK Flexibility Score: inf
ROOT
ATOM      1  C   UNL     1     -10.343   2.182 -14.251  1.00  0.00     0.048 C 
ATOM      2  C   UNL     1     -10.990   3.395 -14.861  1.00  0.00    -0.012 C 
ATOM      3  C   UNL     1     -10.539   4.623 -14.550  1.00  0.00    -0.019 C 
ATOM      4  C   UNL     1     -11.139   5.869 -15.145  1.00  0.00     0.036 C 
ATOM      5  C   UNL     1     -12.644   5.686 -15.412  1.00  0.00     0.025 C 
ATOM      6  C   UNL     1     -12.886   4.446 -16.290  1.00  0.00     0.089 C 
ATOM      7  C   UNL     1     -12.202   3.241 -15.704  1.00  0.00     0.158 C 
ATOM      8  O   UNL     1     -12.648   2.092 -15.968  1.00  0.00    -0.295 OA
ENDROOT
BRANCH   5   9
ATOM      9  C   UNL     1     -13.256   6.935 -16.032  1.00  0.00    -0.077 C 
ATOM     10  C   UNL     1     -13.014   8.142 -15.494  1.00  0.00     0.008 C 
ATOM     11  C   UNL     1     -14.142   6.855 -17.250  1.00  0.00     0.039 C 
ENDBRANCH   5   9
TORSDOF 1
ENDMDL
MODEL 7
REMARK VINA RESULT:    -4.100     16.607     18.066
REMARK INTER + INTRA:          -4.427
REMARK INTER:                  -4.329
REMARK INTRA:                  -0.098
REMARK UNBOUND:                -0.087
REMARK SMILES C=C(C)[C@@H]1CC=C(C)C(=O)C1
REMARK SMILES IDX 8 1 7 2 6 3 5 4 4 5 11 6 9 7 10 8 2 9 1 10 3 11
REMARK H PARENT
REMARK Flexibility Score: inf
ROOT
ATOM      1  C   UNL     1     -28.047   5.448 -18.962  1.00  0.00     0.048 C 
ATOM      2  C   UNL     1     -28.027   6.830 -19.556  1.00  0.00    -0.012 C 
ATOM      3  C   UNL     1     -28.840   7.782 -19.064  1.00  0.00    -0.019 C 
ATOM      4  C   UNL     1     -28.847   9.185 -19.610  1.00  0.00     0.036 C 
ATOM      5  C   UNL     1     -28.531   9.196 -21.116  1.00  0.00     0.025 C 
ATOM      6  C   UNL     1     -27.201   8.472 -21.390  1.00  0.00     0.089 C 
ATOM      7  C   UNL     1     -27.203   7.106 -20.759  1.00  0.00     0.158 C 
ATOM      8  O   UNL     1     -26.466   6.205 -21.243  1.00  0.00    -0.295 OA
ENDROOT
BRANCH   5   9
ATOM      9  C   UNL     1     -28.517  10.614 -21.673  1.00  0.00    -0.077 C 
ATOM     10  C   UNL     1     -29.125  11.606 -21.001  1.00  0.00     0.008 C 
ATOM     11  C   UNL     1     -27.833  10.941 -22.977  1.00  0.00     0.039 C 
ENDBRANCH   5   9
TORSDOF 1
ENDMDL
MODEL 8
REMARK VINA RESULT:    -4.064      2.508      4.392
REMARK INTER + INTRA:          -4.388
REMARK INTER:                  -4.296
REMARK INTRA:                  -0.092
REMARK UNBOUND:                -0.087
REMARK SMILES C=C(C)[C@@H]1CC=C(C)C(=O)C1
REMARK SMILES IDX 8 1 7 2 6 3 5 4 4 5 11 6 9 7 10 8 2 9 1 10 3 11
REMARK H PARENT
REMARK Flexibility Score: inf
ROOT
ATOM      1  C   UNL     1      -8.875   5.367 -11.877  1.00  0.00     0.048 C 
ATOM      2  C   UNL     1      -9.655   4.801 -13.032  1.00  0.00    -0.012 C 
ATOM      3  C   UNL     1     -10.365   5.622 -13.826  1.00  0.00    -0.019 C 
ATOM      4  C   UNL     1     -11.149   5.110 -15.005  1.00  0.00     0.036 C 
ATOM      5  C   UNL     1     -11.694   3.695 -14.737  1.00  0.00     0.025 C 
ATOM      6  C   UNL     1     -10.549   2.746 -14.343  1.00  0.00     0.089 C 
ATOM      7  C   UNL     1      -9.741   3.332 -13.217  1.00  0.00     0.158 C 
ATOM      8  O   UNL     1      -9.104   2.558 -12.451  1.00  0.00    -0.295 OA
ENDROOT
BRANCH   5   9
ATOM      9  C   UNL     1     -12.472   3.162 -15.932  1.00  0.00    -0.077 C 
ATOM     10  C   UNL     1     -13.342   2.152 -15.773  1.00  0.00     0.008 C 
ATOM     11  C   UNL     1     -12.289   3.743 -17.312  1.00  0.00     0.039 C 
ENDBRANCH   5   9
TORSDOF 1
ENDMDL
