MODEL 1
REMARK VINA RESULT:    -4.653      0.000      0.000
REMARK INTER + INTRA:          -7.134
REMARK INTER:                  -6.557
REMARK INTRA:                  -0.576
REMARK UNBOUND:                -0.576
REMARK SMILES CCCCCCCCC(=O)[O-]
REMARK SMILES IDX 6 1 7 2 8 3 9 4 10 5 11 6 5 7 4 8 3 9 2 10 1 11
REMARK H PARENT
REMARK Flexibility Score: inf
ROOT
ATOM      1  C   UNL     1      13.919 -12.268  22.488  1.00  0.00     0.000 C 
ENDROOT
BRANCH   1   2
ATOM      2  C   UNL     1      13.179 -10.931  22.296  1.00  0.00     0.006 C 
BRANCH   2   3
ATOM      3  C   UNL     1      13.709 -10.072  21.137  1.00  0.00     0.053 C 
BRANCH   3   4
ATOM      4  C   UNL     1      14.373  -8.820  21.623  1.00  0.00     0.041 C 
ATOM      5  O   UNL     1      13.781  -7.713  21.534  1.00  0.00    -0.550 OA
ATOM      6  O   UNL     1      15.661  -8.873  22.141  1.00  0.00    -0.550 OA
ENDBRANCH   3   4
ENDBRANCH   2   3
ENDBRANCH   1   2
BRANCH   1   7
ATOM      7  C   UNL     1      14.748 -12.309  23.780  1.00  0.00     0.000 C 
BRANCH   7   8
ATOM      8  C   UNL     1      16.243 -12.470  23.469  1.00  0.00    -0.000 C 
BRANCH   8   9
ATOM      9  C   UNL     1      16.533 -12.590  21.962  1.00  0.00    -0.000 C 
BRANCH   9  10
ATOM     10  C   UNL     1      17.773 -11.816  21.477  1.00  0.00    -0.003 C 
ATOM     11  C   UNL     1      19.042 -12.666  21.464  1.00  0.00     0.004 C 
ENDBRANCH   9  10
ENDBRANCH   8   9
ENDBRANCH   7   8
ENDBRANCH   1   7
TORSDOF 7
ENDMDL
MODEL 2
REMARK VINA RESULT:    -3.886      1.764      2.943
REMARK INTER + INTRA:          -6.053
REMARK INTER:                  -5.877
REMARK INTRA:                  -0.176
REMARK UNBOUND:                -0.576
REMARK SMILES CCCCCCCCC(=O)[O-]
REMARK SMILES IDX 6 1 7 2 8 3 9 4 10 5 11 6 5 7 4 8 3 9 2 10 1 11
REMARK H PARENT
REMARK Flexibility Score: inf
ROOT
ATOM      1  C   UNL     1      17.136 -11.328  21.547  1.00  0.00     0.000 C 
ENDROOT
BRANCH   1   2
ATOM      2  C   UNL     1      15.808 -11.013  22.260  1.00  0.00     0.006 C 
BRANCH   2   3
ATOM      3  C   UNL     1      15.339  -9.556  22.115  1.00  0.00     0.053 C 
BRANCH   3   4
ATOM      4  C   UNL     1      13.897  -9.465  21.721  1.00  0.00     0.041 C 
ATOM      5  O   UNL     1      13.516  -8.581  20.911  1.00  0.00    -0.550 OA
ATOM      6  O   UNL     1      12.968 -10.336  22.276  1.00  0.00    -0.550 OA
ENDBRANCH   3   4
ENDBRANCH   2   3
ENDBRANCH   1   2
BRANCH   1   7
ATOM      7  C   UNL     1      17.621 -12.763  21.800  1.00  0.00     0.000 C 
BRANCH   7   8
ATOM      8  C   UNL     1      19.121 -12.787  22.124  1.00  0.00    -0.000 C 
BRANCH   8   9
ATOM      9  C   UNL     1      19.999 -13.053  20.888  1.00  0.00    -0.000 C 
BRANCH   9  10
ATOM     10  C   UNL     1      21.517 -12.999  21.146  1.00  0.00    -0.003 C 
ATOM     11  C   UNL     1      21.877 -13.125  22.626  1.00  0.00     0.004 C 
ENDBRANCH   9  10
ENDBRANCH   8   9
ENDBRANCH   7   8
ENDBRANCH   1   7
TORSDOF 7
ENDMDL
MODEL 3
REMARK VINA RESULT:    -3.885      3.585      5.692
REMARK INTER + INTRA:          -6.052
REMARK INTER:                  -5.733
REMARK INTRA:                  -0.319
REMARK UNBOUND:                -0.576
REMARK SMILES CCCCCCCCC(=O)[O-]
REMARK SMILES IDX 6 1 7 2 8 3 9 4 10 5 11 6 5 7 4 8 3 9 2 10 1 11
REMARK H PARENT
REMARK Flexibility Score: inf
ROOT
ATOM      1  C   UNL     1      17.120 -11.575  21.875  1.00  0.00     0.000 C 
ENDROOT
BRANCH   1   2
ATOM      2  C   UNL     1      18.359 -12.258  21.266  1.00  0.00     0.006 C 
BRANCH   2   3
ATOM      3  C   UNL     1      19.199 -13.062  22.271  1.00  0.00     0.053 C 
BRANCH   3   4
ATOM      4  C   UNL     1      20.660 -13.022  21.942  1.00  0.00     0.041 C 
ATOM      5  O   UNL     1      21.038 -12.926  20.745  1.00  0.00    -0.550 OA
ATOM      6  O   UNL     1      21.604 -13.125  22.956  1.00  0.00    -0.550 OA
ENDBRANCH   3   4
ENDBRANCH   2   3
ENDBRANCH   1   2
BRANCH   1   7
ATOM      7  C   UNL     1      15.807 -12.270  21.488  1.00  0.00     0.000 C 
BRANCH   7   8
ATOM      8  C   UNL     1      14.659 -11.827  22.408  1.00  0.00    -0.000 C 
BRANCH   8   9
ATOM      9  C   UNL     1      14.832 -10.391  22.935  1.00  0.00    -0.000 C 
BRANCH   9  10
ATOM     10  C   UNL     1      13.751  -9.396  22.473  1.00  0.00    -0.003 C 
ATOM     11  C   UNL     1      13.497  -9.445  20.968  1.00  0.00     0.004 C 
ENDBRANCH   9  10
ENDBRANCH   8   9
ENDBRANCH   7   8
ENDBRANCH   1   7
TORSDOF 7
ENDMDL
MODEL 4
REMARK VINA RESULT:    -3.683     13.532     14.688
REMARK INTER + INTRA:          -5.767
REMARK INTER:                  -5.393
REMARK INTRA:                  -0.374
REMARK UNBOUND:                -0.576
REMARK SMILES CCCCCCCCC(=O)[O-]
REMARK SMILES IDX 6 1 7 2 8 3 9 4 10 5 11 6 5 7 4 8 3 9 2 10 1 11
REMARK H PARENT
REMARK Flexibility Score: inf
ROOT
ATOM      1  C   UNL     1      18.960   1.196  27.565  1.00  0.00     0.000 C 
ENDROOT
BRANCH   1   2
ATOM      2  C   UNL     1      19.874   1.765  26.464  1.00  0.00     0.006 C 
BRANCH   2   3
ATOM      3  C   UNL     1      19.512   3.188  26.011  1.00  0.00     0.053 C 
BRANCH   3   4
ATOM      4  C   UNL     1      20.682   3.902  25.408  1.00  0.00     0.041 C 
ATOM      5  O   UNL     1      21.855   3.513  25.650  1.00  0.00    -0.550 OA
ATOM      6  O   UNL     1      20.478   5.018  24.606  1.00  0.00    -0.550 OA
ENDBRANCH   3   4
ENDBRANCH   2   3
ENDBRANCH   1   2
BRANCH   1   7
ATOM      7  C   UNL     1      19.713   0.905  28.872  1.00  0.00     0.000 C 
BRANCH   7   8
ATOM      8  C   UNL     1      21.211   1.210  28.722  1.00  0.00    -0.000 C 
BRANCH   8   9
ATOM      9  C   UNL     1      22.066  -0.056  28.532  1.00  0.00    -0.000 C 
BRANCH   9  10
ATOM     10  C   UNL     1      21.445  -1.349  29.094  1.00  0.00    -0.003 C 
ATOM     11  C   UNL     1      22.122  -2.615  28.571  1.00  0.00     0.004 C 
ENDBRANCH   9  10
ENDBRANCH   8   9
ENDBRANCH   7   8
ENDBRANCH   1   7
TORSDOF 7
ENDMDL
MODEL 5
REMARK VINA RESULT:    -3.550     14.051     15.226
REMARK INTER + INTRA:          -5.580
REMARK INTER:                  -5.036
REMARK INTRA:                  -0.544
REMARK UNBOUND:                -0.576
REMARK SMILES CCCCCCCCC(=O)[O-]
REMARK SMILES IDX 6 1 7 2 8 3 9 4 10 5 11 6 5 7 4 8 3 9 2 10 1 11
REMARK H PARENT
REMARK Flexibility Score: inf
ROOT
ATOM      1  C   UNL     1       9.935  -4.849  35.817  1.00  0.00     0.000 C 
ENDROOT
BRANCH   1   2
ATOM      2  C   UNL     1      11.423  -5.212  35.658  1.00  0.00     0.006 C 
BRANCH   2   3
ATOM      3  C   UNL     1      12.276  -4.118  34.996  1.00  0.00     0.053 C 
BRANCH   3   4
ATOM      4  C   UNL     1      13.091  -3.357  35.996  1.00  0.00     0.041 C 
ATOM      5  O   UNL     1      13.974  -3.946  36.674  1.00  0.00    -0.550 OA
ATOM      6  O   UNL     1      12.853  -2.005  36.203  1.00  0.00    -0.550 OA
ENDBRANCH   3   4
ENDBRANCH   2   3
ENDBRANCH   1   2
BRANCH   1   7
ATOM      7  C   UNL     1       9.267  -4.477  34.485  1.00  0.00     0.000 C 
BRANCH   7   8
ATOM      8  C   UNL     1       8.259  -5.554  34.057  1.00  0.00    -0.000 C 
BRANCH   8   9
ATOM      9  C   UNL     1       8.872  -6.612  33.121  1.00  0.00    -0.000 C 
BRANCH   9  10
ATOM     10  C   UNL     1       9.118  -7.987  33.769  1.00  0.00    -0.003 C 
ATOM     11  C   UNL     1      10.511  -8.544  33.478  1.00  0.00     0.004 C 
ENDBRANCH   9  10
ENDBRANCH   8   9
ENDBRANCH   7   8
ENDBRANCH   1   7
TORSDOF 7
ENDMDL
MODEL 6
REMARK VINA RESULT:    -3.483     13.248     14.194
REMARK INTER + INTRA:          -5.485
REMARK INTER:                  -5.222
REMARK INTRA:                  -0.263
REMARK UNBOUND:                -0.576
REMARK SMILES CCCCCCCCC(=O)[O-]
REMARK SMILES IDX 6 1 7 2 8 3 9 4 10 5 11 6 5 7 4 8 3 9 2 10 1 11
REMARK H PARENT
REMARK Flexibility Score: inf
ROOT
ATOM      1  C   UNL     1      19.801   0.313  29.065  1.00  0.00     0.000 C 
ENDROOT
BRANCH   1   2
ATOM      2  C   UNL     1      19.196   1.244  27.998  1.00  0.00     0.006 C 
BRANCH   2   3
ATOM      3  C   UNL     1      20.231   1.917  27.083  1.00  0.00     0.053 C 
BRANCH   3   4
ATOM      4  C   UNL     1      20.304   3.396  27.309  1.00  0.00     0.041 C 
ATOM      5  O   UNL     1      21.420   3.975  27.359  1.00  0.00    -0.550 OA
ATOM      6  O   UNL     1      19.139   4.129  27.499  1.00  0.00    -0.550 OA
ENDBRANCH   3   4
ENDBRANCH   2   3
ENDBRANCH   1   2
BRANCH   1   7
ATOM      7  C   UNL     1      21.336   0.272  29.018  1.00  0.00     0.000 C 
BRANCH   7   8
ATOM      8  C   UNL     1      21.831  -1.053  28.419  1.00  0.00    -0.000 C 
BRANCH   8   9
ATOM      9  C   UNL     1      21.933  -2.182  29.460  1.00  0.00    -0.000 C 
BRANCH   9  10
ATOM     10  C   UNL     1      21.830  -3.607  28.884  1.00  0.00    -0.003 C 
ATOM     11  C   UNL     1      20.991  -4.544  29.752  1.00  0.00     0.004 C 
ENDBRANCH   9  10
ENDBRANCH   8   9
ENDBRANCH   7   8
ENDBRANCH   1   7
TORSDOF 7
ENDMDL
MODEL 7
REMARK VINA RESULT:    -3.482     13.905     15.034
REMARK INTER + INTRA:          -5.484
REMARK INTER:                  -4.981
REMARK INTRA:                  -0.503
REMARK UNBOUND:                -0.576
REMARK SMILES CCCCCCCCC(=O)[O-]
REMARK SMILES IDX 6 1 7 2 8 3 9 4 10 5 11 6 5 7 4 8 3 9 2 10 1 11
REMARK H PARENT
REMARK Flexibility Score: inf
ROOT
ATOM      1  C   UNL     1       9.723  -4.932  35.577  1.00  0.00     0.000 C 
ENDROOT
BRANCH   1   2
ATOM      2  C   UNL     1      11.193  -5.179  35.191  1.00  0.00     0.006 C 
BRANCH   2   3
ATOM      3  C   UNL     1      11.968  -3.912  34.798  1.00  0.00     0.053 C 
BRANCH   3   4
ATOM      4  C   UNL     1      12.746  -3.348  35.947  1.00  0.00     0.041 C 
ATOM      5  O   UNL     1      12.852  -2.102  36.090  1.00  0.00    -0.550 OA
ATOM      6  O   UNL     1      13.381  -4.200  36.841  1.00  0.00    -0.550 OA
ENDBRANCH   3   4
ENDBRANCH   2   3
ENDBRANCH   1   2
BRANCH   1   7
ATOM      7  C   UNL     1       8.833  -4.618  34.365  1.00  0.00     0.000 C 
BRANCH   7   8
ATOM      8  C   UNL     1       9.019  -5.668  33.261  1.00  0.00    -0.000 C 
BRANCH   8   9
ATOM      9  C   UNL     1       8.570  -7.077  33.690  1.00  0.00    -0.000 C 
BRANCH   9  10
ATOM     10  C   UNL     1       9.350  -8.234  33.038  1.00  0.00    -0.003 C 
ATOM     11  C   UNL     1      10.666  -8.544  33.750  1.00  0.00     0.004 C 
ENDBRANCH   9  10
ENDBRANCH   8   9
ENDBRANCH   7   8
ENDBRANCH   1   7
TORSDOF 7
ENDMDL
MODEL 8
REMARK VINA RESULT:    -3.386     14.102     15.388
REMARK INTER + INTRA:          -5.348
REMARK INTER:                  -4.948
REMARK INTRA:                  -0.400
REMARK UNBOUND:                -0.576
REMARK SMILES CCCCCCCCC(=O)[O-]
REMARK SMILES IDX 6 1 7 2 8 3 9 4 10 5 11 6 5 7 4 8 3 9 2 10 1 11
REMARK H PARENT
REMARK Flexibility Score: inf
ROOT
ATOM      1  C   UNL     1      19.506   2.404  25.768  1.00  0.00     0.000 C 
ENDROOT
BRANCH   1   2
ATOM      2  C   UNL     1      20.033   3.762  25.270  1.00  0.00     0.006 C 
BRANCH   2   3
ATOM      3  C   UNL     1      20.089   4.856  26.347  1.00  0.00     0.053 C 
BRANCH   3   4
ATOM      4  C   UNL     1      18.724   5.256  26.815  1.00  0.00     0.041 C 
ATOM      5  O   UNL     1      17.926   5.828  26.026  1.00  0.00    -0.550 OA
ATOM      6  O   UNL     1      18.346   5.028  28.132  1.00  0.00    -0.550 OA
ENDBRANCH   3   4
ENDBRANCH   2   3
ENDBRANCH   1   2
BRANCH   1   7
ATOM      7  C   UNL     1      20.215   1.922  27.043  1.00  0.00     0.000 C 
BRANCH   7   8
ATOM      8  C   UNL     1      19.224   1.239  27.997  1.00  0.00    -0.000 C 
BRANCH   8   9
ATOM      9  C   UNL     1      19.918   0.374  29.065  1.00  0.00    -0.000 C 
BRANCH   9  10
ATOM     10  C   UNL     1      21.362  -0.039  28.727  1.00  0.00    -0.003 C 
ATOM     11  C   UNL     1      21.663  -1.498  29.070  1.00  0.00     0.004 C 
ENDBRANCH   9  10
ENDBRANCH   8   9
ENDBRANCH   7   8
ENDBRANCH   1   7
TORSDOF 7
ENDMDL
