MODEL 1
REMARK VINA RESULT:    -4.425      0.000      0.000
REMARK INTER + INTRA:         -12.593
REMARK INTER:                 -10.117
REMARK INTRA:                  -2.476
REMARK UNBOUND:                -2.476
REMARK SMILES CCCCCCCCCCCCCCCCCCCCCCCC(=O)[O-]
REMARK SMILES IDX 13 1 14 2 15 3 16 4 17 5 18 6 19 7 20 8 21 9 22 10 23 11
REMARK SMILES IDX 24 12 25 13 26 14 12 15 11 16 10 17 9 18 8 19 7 20 6 21 5 22
REMARK SMILES IDX 4 23 3 24 2 25 1 26
REMARK H PARENT
REMARK Flexibility Score: inf
ROOT
ATOM      1  C   UNL     1      -1.247   6.837 -54.293  1.00  0.00     0.000 C 
ENDROOT
BRANCH   1   2
ATOM      2  C   UNL     1      -0.323   6.621 -55.506  1.00  0.00     0.000 C 
BRANCH   2   3
ATOM      3  C   UNL     1      -0.279   5.155 -55.968  1.00  0.00     0.000 C 
BRANCH   3   4
ATOM      4  C   UNL     1      -0.232   5.015 -57.498  1.00  0.00     0.000 C 
BRANCH   4   5
ATOM      5  C   UNL     1      -0.823   6.235 -58.226  1.00  0.00     0.000 C 
BRANCH   5   6
ATOM      6  C   UNL     1      -1.959   5.854 -59.188  1.00  0.00     0.000 C 
BRANCH   6   7
ATOM      7  C   UNL     1      -2.971   4.881 -58.556  1.00  0.00     0.000 C 
BRANCH   7   8
ATOM      8  C   UNL     1      -4.222   5.593 -58.011  1.00  0.00     0.000 C 
BRANCH   8   9
ATOM      9  C   UNL     1      -4.059   6.204 -56.608  1.00  0.00     0.000 C 
BRANCH   9  10
ATOM     10  C   UNL     1      -4.547   7.658 -56.527  1.00  0.00     0.006 C 
BRANCH  10  11
ATOM     11  C   UNL     1      -3.409   8.636 -56.838  1.00  0.00     0.053 C 
BRANCH  11  12
ATOM     12  C   UNL     1      -3.506   9.126 -58.248  1.00  0.00     0.041 C 
ATOM     13  O   UNL     1      -2.464   9.443 -58.880  1.00  0.00    -0.550 OA
ATOM     14  O   UNL     1      -4.749   9.283 -58.847  1.00  0.00    -0.550 OA
ENDBRANCH  11  12
ENDBRANCH  10  11
ENDBRANCH   9  10
ENDBRANCH   8   9
ENDBRANCH   7   8
ENDBRANCH   6   7
ENDBRANCH   5   6
ENDBRANCH   4   5
ENDBRANCH   3   4
ENDBRANCH   2   3
ENDBRANCH   1   2
BRANCH   1  15
ATOM     15  C   UNL     1      -1.281   5.679 -53.273  1.00  0.00     0.000 C 
BRANCH  15  16
ATOM     16  C   UNL     1      -0.292   5.805 -52.101  1.00  0.00     0.000 C 
BRANCH  16  17
ATOM     17  C   UNL     1      -0.775   5.084 -50.831  1.00  0.00     0.000 C 
BRANCH  17  18
ATOM     18  C   UNL     1      -0.185   5.692 -49.549  1.00  0.00    -0.000 C 
BRANCH  18  19
ATOM     19  C   UNL     1      -1.223   5.826 -48.420  1.00  0.00    -0.000 C 
BRANCH  19  20
ATOM     20  C   UNL     1      -2.643   5.463 -48.885  1.00  0.00    -0.000 C 
BRANCH  20  21
ATOM     21  C   UNL     1      -3.730   6.056 -47.971  1.00  0.00    -0.000 C 
BRANCH  21  22
ATOM     22  C   UNL     1      -5.081   6.235 -48.687  1.00  0.00    -0.000 C 
BRANCH  22  23
ATOM     23  C   UNL     1      -6.006   7.296 -48.063  1.00  0.00    -0.000 C 
BRANCH  23  24
ATOM     24  C   UNL     1      -5.369   8.010 -46.858  1.00  0.00    -0.000 C 
BRANCH  24  25
ATOM     25  C   UNL     1      -4.722   9.350 -47.241  1.00  0.00    -0.003 C 
ATOM     26  C   UNL     1      -3.555   9.725 -46.328  1.00  0.00     0.004 C 
ENDBRANCH  24  25
ENDBRANCH  23  24
ENDBRANCH  22  23
ENDBRANCH  21  22
ENDBRANCH  20  21
ENDBRANCH  19  20
ENDBRANCH  18  19
ENDBRANCH  17  18
ENDBRANCH  16  17
ENDBRANCH  15  16
ENDBRANCH   1  15
TORSDOF 22
ENDMDL
MODEL 2
REMARK VINA RESULT:    -4.209      1.829      2.356
REMARK INTER + INTRA:         -12.098
REMARK INTER:                 -10.325
REMARK INTRA:                  -1.773
REMARK UNBOUND:                -2.476
REMARK SMILES CCCCCCCCCCCCCCCCCCCCCCCC(=O)[O-]
REMARK SMILES IDX 13 1 14 2 15 3 16 4 17 5 18 6 19 7 20 8 21 9 22 10 23 11
REMARK SMILES IDX 24 12 25 13 26 14 12 15 11 16 10 17 9 18 8 19 7 20 6 21 5 22
REMARK SMILES IDX 4 23 3 24 2 25 1 26
REMARK H PARENT
REMARK Flexibility Score: inf
ROOT
ATOM      1  C   UNL     1      -0.423   6.640 -54.340  1.00  0.00     0.000 C 
ENDROOT
BRANCH   1   2
ATOM      2  C   UNL     1      -0.292   5.433 -55.287  1.00  0.00     0.000 C 
BRANCH   2   3
ATOM      3  C   UNL     1      -1.457   5.332 -56.286  1.00  0.00     0.000 C 
BRANCH   3   4
ATOM      4  C   UNL     1      -0.982   5.129 -57.734  1.00  0.00     0.000 C 
BRANCH   4   5
ATOM      5  C   UNL     1      -0.561   6.444 -58.412  1.00  0.00     0.000 C 
BRANCH   5   6
ATOM      6  C   UNL     1      -1.735   7.151 -59.107  1.00  0.00     0.000 C 
BRANCH   6   7
ATOM      7  C   UNL     1      -2.651   6.175 -59.866  1.00  0.00     0.000 C 
BRANCH   7   8
ATOM      8  C   UNL     1      -4.088   6.152 -59.312  1.00  0.00     0.000 C 
BRANCH   8   9
ATOM      9  C   UNL     1      -4.729   7.538 -59.121  1.00  0.00     0.000 C 
BRANCH   9  10
ATOM     10  C   UNL     1      -5.302   7.745 -57.711  1.00  0.00     0.006 C 
BRANCH  10  11
ATOM     11  C   UNL     1      -6.196   6.570 -57.305  1.00  0.00     0.053 C 
BRANCH  11  12
ATOM     12  C   UNL     1      -7.622   6.844 -57.663  1.00  0.00     0.041 C 
ATOM     13  O   UNL     1      -8.449   5.897 -57.740  1.00  0.00    -0.550 OA
ATOM     14  O   UNL     1      -8.029   8.139 -57.962  1.00  0.00    -0.550 OA
ENDBRANCH  11  12
ENDBRANCH  10  11
ENDBRANCH   9  10
ENDBRANCH   8   9
ENDBRANCH   7   8
ENDBRANCH   6   7
ENDBRANCH   5   6
ENDBRANCH   4   5
ENDBRANCH   3   4
ENDBRANCH   2   3
ENDBRANCH   1   2
BRANCH   1  15
ATOM     15  C   UNL     1      -1.488   6.500 -53.232  1.00  0.00     0.000 C 
BRANCH  15  16
ATOM     16  C   UNL     1      -1.252   5.353 -52.233  1.00  0.00     0.000 C 
BRANCH  16  17
ATOM     17  C   UNL     1      -2.325   5.289 -51.132  1.00  0.00     0.000 C 
BRANCH  17  18
ATOM     18  C   UNL     1      -1.720   5.313 -49.720  1.00  0.00    -0.000 C 
BRANCH  18  19
ATOM     19  C   UNL     1      -2.790   5.299 -48.612  1.00  0.00    -0.000 C 
BRANCH  19  20
ATOM     20  C   UNL     1      -4.178   5.700 -49.137  1.00  0.00    -0.000 C 
BRANCH  20  21
ATOM     21  C   UNL     1      -5.145   6.087 -48.003  1.00  0.00    -0.000 C 
BRANCH  21  22
ATOM     22  C   UNL     1      -6.017   7.306 -48.351  1.00  0.00    -0.000 C 
BRANCH  22  23
ATOM     23  C   UNL     1      -5.532   8.639 -47.752  1.00  0.00    -0.000 C 
BRANCH  23  24
ATOM     24  C   UNL     1      -5.117   8.515 -46.275  1.00  0.00    -0.000 C 
BRANCH  24  25
ATOM     25  C   UNL     1      -3.773   9.199 -45.981  1.00  0.00    -0.003 C 
ATOM     26  C   UNL     1      -2.589   8.236 -46.068  1.00  0.00     0.004 C 
ENDBRANCH  24  25
ENDBRANCH  23  24
ENDBRANCH  22  23
ENDBRANCH  21  22
ENDBRANCH  20  21
ENDBRANCH  19  20
ENDBRANCH  18  19
ENDBRANCH  17  18
ENDBRANCH  16  17
ENDBRANCH  15  16
ENDBRANCH   1  15
TORSDOF 22
ENDMDL
MODEL 3
REMARK VINA RESULT:    -4.183      3.199      9.103
REMARK INTER + INTRA:         -12.038
REMARK INTER:                  -9.701
REMARK INTRA:                  -2.337
REMARK UNBOUND:                -2.476
REMARK SMILES CCCCCCCCCCCCCCCCCCCCCCCC(=O)[O-]
REMARK SMILES IDX 13 1 14 2 15 3 16 4 17 5 18 6 19 7 20 8 21 9 22 10 23 11
REMARK SMILES IDX 24 12 25 13 26 14 12 15 11 16 10 17 9 18 8 19 7 20 6 21 5 22
REMARK SMILES IDX 4 23 3 24 2 25 1 26
REMARK H PARENT
REMARK Flexibility Score: inf
ROOT
ATOM      1  C   UNL     1      -1.560   6.780 -54.558  1.00  0.00     0.000 C 
ENDROOT
BRANCH   1   2
ATOM      2  C   UNL     1      -0.593   6.575 -53.377  1.00  0.00     0.000 C 
BRANCH   2   3
ATOM      3  C   UNL     1      -1.160   5.635 -52.300  1.00  0.00     0.000 C 
BRANCH   3   4
ATOM      4  C   UNL     1      -0.241   5.514 -51.073  1.00  0.00     0.000 C 
BRANCH   4   5
ATOM      5  C   UNL     1      -1.007   5.155 -49.789  1.00  0.00     0.000 C 
BRANCH   5   6
ATOM      6  C   UNL     1      -2.528   5.101 -50.006  1.00  0.00     0.000 C 
BRANCH   6   7
ATOM      7  C   UNL     1      -3.317   5.710 -48.832  1.00  0.00     0.000 C 
BRANCH   7   8
ATOM      8  C   UNL     1      -2.494   5.780 -47.533  1.00  0.00     0.000 C 
BRANCH   8   9
ATOM      9  C   UNL     1      -3.148   6.585 -46.396  1.00  0.00     0.000 C 
BRANCH   9  10
ATOM     10  C   UNL     1      -3.551   8.005 -46.820  1.00  0.00     0.006 C 
BRANCH  10  11
ATOM     11  C   UNL     1      -5.022   8.276 -46.494  1.00  0.00     0.053 C 
BRANCH  11  12
ATOM     12  C   UNL     1      -5.875   8.091 -47.710  1.00  0.00     0.041 C 
ATOM     13  O   UNL     1      -6.019   9.035 -48.531  1.00  0.00    -0.550 OA
ATOM     14  O   UNL     1      -6.552   6.895 -47.911  1.00  0.00    -0.550 OA
ENDBRANCH  11  12
ENDBRANCH  10  11
ENDBRANCH   9  10
ENDBRANCH   8   9
ENDBRANCH   7   8
ENDBRANCH   6   7
ENDBRANCH   5   6
ENDBRANCH   4   5
ENDBRANCH   3   4
ENDBRANCH   2   3
ENDBRANCH   1   2
BRANCH   1  15
ATOM     15  C   UNL     1      -1.525   5.681 -55.641  1.00  0.00     0.000 C 
BRANCH  15  16
ATOM     16  C   UNL     1      -0.201   5.562 -56.416  1.00  0.00     0.000 C 
BRANCH  16  17
ATOM     17  C   UNL     1      -0.387   5.672 -57.939  1.00  0.00     0.000 C 
BRANCH  17  18
ATOM     18  C   UNL     1      -1.552   6.599 -58.323  1.00  0.00    -0.000 C 
BRANCH  18  19
ATOM     19  C   UNL     1      -2.033   6.384 -59.770  1.00  0.00    -0.000 C 
BRANCH  19  20
ATOM     20  C   UNL     1      -3.334   5.567 -59.837  1.00  0.00    -0.000 C 
BRANCH  20  21
ATOM     21  C   UNL     1      -3.868   5.197 -58.441  1.00  0.00    -0.000 C 
BRANCH  21  22
ATOM     22  C   UNL     1      -5.280   5.748 -58.175  1.00  0.00    -0.000 C 
BRANCH  22  23
ATOM     23  C   UNL     1      -5.323   7.028 -57.321  1.00  0.00    -0.000 C 
BRANCH  23  24
ATOM     24  C   UNL     1      -5.523   8.301 -58.162  1.00  0.00    -0.000 C 
BRANCH  24  25
ATOM     25  C   UNL     1      -4.290   9.218 -58.146  1.00  0.00    -0.003 C 
ATOM     26  C   UNL     1      -3.429   9.027 -56.898  1.00  0.00     0.004 C 
ENDBRANCH  24  25
ENDBRANCH  23  24
ENDBRANCH  22  23
ENDBRANCH  21  22
ENDBRANCH  20  21
ENDBRANCH  19  20
ENDBRANCH  18  19
ENDBRANCH  17  18
ENDBRANCH  16  17
ENDBRANCH  15  16
ENDBRANCH   1  15
TORSDOF 22
ENDMDL
MODEL 4
REMARK VINA RESULT:    -4.070      1.205      2.151
REMARK INTER + INTRA:         -11.781
REMARK INTER:                  -9.677
REMARK INTRA:                  -2.104
REMARK UNBOUND:                -2.476
REMARK SMILES CCCCCCCCCCCCCCCCCCCCCCCC(=O)[O-]
REMARK SMILES IDX 13 1 14 2 15 3 16 4 17 5 18 6 19 7 20 8 21 9 22 10 23 11
REMARK SMILES IDX 24 12 25 13 26 14 12 15 11 16 10 17 9 18 8 19 7 20 6 21 5 22
REMARK SMILES IDX 4 23 3 24 2 25 1 26
REMARK H PARENT
REMARK Flexibility Score: inf
ROOT
ATOM      1  C   UNL     1      -0.450   6.224 -53.095  1.00  0.00     0.000 C 
ENDROOT
BRANCH   1   2
ATOM      2  C   UNL     1      -0.826   7.155 -54.263  1.00  0.00     0.000 C 
BRANCH   2   3
ATOM      3  C   UNL     1      -1.366   6.391 -55.483  1.00  0.00     0.000 C 
BRANCH   3   4
ATOM      4  C   UNL     1      -0.285   5.555 -56.188  1.00  0.00     0.000 C 
BRANCH   4   5
ATOM      5  C   UNL     1      -0.519   5.437 -57.704  1.00  0.00     0.000 C 
BRANCH   5   6
ATOM      6  C   UNL     1      -0.929   6.774 -58.343  1.00  0.00     0.000 C 
BRANCH   6   7
ATOM      7  C   UNL     1      -1.969   6.601 -59.465  1.00  0.00     0.000 C 
BRANCH   7   8
ATOM      8  C   UNL     1      -2.904   5.400 -59.232  1.00  0.00     0.000 C 
BRANCH   8   9
ATOM      9  C   UNL     1      -4.359   5.770 -58.892  1.00  0.00     0.000 C 
BRANCH   9  10
ATOM     10  C   UNL     1      -4.600   5.933 -57.384  1.00  0.00     0.006 C 
BRANCH  10  11
ATOM     11  C   UNL     1      -4.568   7.410 -56.981  1.00  0.00     0.053 C 
BRANCH  11  12
ATOM     12  C   UNL     1      -5.334   8.241 -57.960  1.00  0.00     0.041 C 
ATOM     13  O   UNL     1      -4.748   9.134 -58.627  1.00  0.00    -0.550 OA
ATOM     14  O   UNL     1      -6.706   8.066 -58.100  1.00  0.00    -0.550 OA
ENDBRANCH  11  12
ENDBRANCH  10  11
ENDBRANCH   9  10
ENDBRANCH   8   9
ENDBRANCH   7   8
ENDBRANCH   6   7
ENDBRANCH   5   6
ENDBRANCH   4   5
ENDBRANCH   3   4
ENDBRANCH   2   3
ENDBRANCH   1   2
BRANCH   1  15
ATOM     15  C   UNL     1      -1.620   5.425 -52.483  1.00  0.00     0.000 C 
BRANCH  15  16
ATOM     16  C   UNL     1      -1.473   5.082 -50.990  1.00  0.00     0.000 C 
BRANCH  16  17
ATOM     17  C   UNL     1      -0.151   5.587 -50.388  1.00  0.00     0.000 C 
BRANCH  17  18
ATOM     18  C   UNL     1      -0.269   5.900 -48.888  1.00  0.00    -0.000 C 
BRANCH  18  19
ATOM     19  C   UNL     1      -1.730   5.974 -48.407  1.00  0.00    -0.000 C 
BRANCH  19  20
ATOM     20  C   UNL     1      -1.837   6.085 -46.877  1.00  0.00    -0.000 C 
BRANCH  20  21
ATOM     21  C   UNL     1      -1.323   7.437 -46.349  1.00  0.00    -0.000 C 
BRANCH  21  22
ATOM     22  C   UNL     1      -2.298   8.102 -45.361  1.00  0.00    -0.000 C 
BRANCH  22  23
ATOM     23  C   UNL     1      -3.290   9.091 -46.001  1.00  0.00    -0.000 C 
BRANCH  23  24
ATOM     24  C   UNL     1      -4.760   8.701 -45.763  1.00  0.00    -0.000 C 
BRANCH  24  25
ATOM     25  C   UNL     1      -5.350   7.892 -46.929  1.00  0.00    -0.003 C 
ATOM     26  C   UNL     1      -5.704   8.763 -48.133  1.00  0.00     0.004 C 
ENDBRANCH  24  25
ENDBRANCH  23  24
ENDBRANCH  22  23
ENDBRANCH  21  22
ENDBRANCH  20  21
ENDBRANCH  19  20
ENDBRANCH  18  19
ENDBRANCH  17  18
ENDBRANCH  16  17
ENDBRANCH  15  16
ENDBRANCH   1  15
TORSDOF 22
ENDMDL
MODEL 5
REMARK VINA RESULT:    -4.049      3.223      9.512
REMARK INTER + INTRA:         -11.733
REMARK INTER:                  -9.654
REMARK INTRA:                  -2.079
REMARK UNBOUND:                -2.476
REMARK SMILES CCCCCCCCCCCCCCCCCCCCCCCC(=O)[O-]
REMARK SMILES IDX 13 1 14 2 15 3 16 4 17 5 18 6 19 7 20 8 21 9 22 10 23 11
REMARK SMILES IDX 24 12 25 13 26 14 12 15 11 16 10 17 9 18 8 19 7 20 6 21 5 22
REMARK SMILES IDX 4 23 3 24 2 25 1 26
REMARK H PARENT
REMARK Flexibility Score: inf
ROOT
ATOM      1  C   UNL     1      -1.203   6.008 -53.071  1.00  0.00     0.000 C 
ENDROOT
BRANCH   1   2
ATOM      2  C   UNL     1      -1.438   5.271 -51.740  1.00  0.00     0.000 C 
BRANCH   2   3
ATOM      3  C   UNL     1      -0.350   5.569 -50.695  1.00  0.00     0.000 C 
BRANCH   3   4
ATOM      4  C   UNL     1      -0.864   5.451 -49.251  1.00  0.00     0.000 C 
BRANCH   4   5
ATOM      5  C   UNL     1      -2.393   5.301 -49.174  1.00  0.00     0.000 C 
BRANCH   5   6
ATOM      6  C   UNL     1      -3.001   6.062 -47.985  1.00  0.00     0.000 C 
BRANCH   6   7
ATOM      7  C   UNL     1      -1.952   6.442 -46.924  1.00  0.00     0.000 C 
BRANCH   7   8
ATOM      8  C   UNL     1      -2.187   7.841 -46.328  1.00  0.00     0.000 C 
BRANCH   8   9
ATOM      9  C   UNL     1      -3.157   7.881 -45.134  1.00  0.00     0.000 C 
BRANCH   9  10
ATOM     10  C   UNL     1      -4.330   8.849 -45.345  1.00  0.00     0.006 C 
BRANCH  10  11
ATOM     11  C   UNL     1      -5.356   8.261 -46.318  1.00  0.00     0.053 C 
BRANCH  11  12
ATOM     12  C   UNL     1      -5.397   9.055 -47.585  1.00  0.00     0.041 C 
ATOM     13  O   UNL     1      -6.130   8.685 -48.540  1.00  0.00    -0.550 OA
ATOM     14  O   UNL     1      -4.588  10.175 -47.733  1.00  0.00    -0.550 OA
ENDBRANCH  11  12
ENDBRANCH  10  11
ENDBRANCH   9  10
ENDBRANCH   8   9
ENDBRANCH   7   8
ENDBRANCH   6   7
ENDBRANCH   5   6
ENDBRANCH   4   5
ENDBRANCH   3   4
ENDBRANCH   2   3
ENDBRANCH   1   2
BRANCH   1  15
ATOM     15  C   UNL     1      -1.446   5.170 -54.344  1.00  0.00     0.000 C 
BRANCH  15  16
ATOM     16  C   UNL     1      -1.435   5.960 -55.665  1.00  0.00     0.000 C 
BRANCH  16  17
ATOM     17  C   UNL     1      -0.195   5.667 -56.527  1.00  0.00     0.000 C 
BRANCH  17  18
ATOM     18  C   UNL     1      -0.464   5.859 -58.028  1.00  0.00    -0.000 C 
BRANCH  18  19
ATOM     19  C   UNL     1      -1.951   5.699 -58.394  1.00  0.00    -0.000 C 
BRANCH  19  20
ATOM     20  C   UNL     1      -2.447   6.818 -59.324  1.00  0.00    -0.000 C 
BRANCH  20  21
ATOM     21  C   UNL     1      -2.589   8.167 -58.596  1.00  0.00    -0.000 C 
BRANCH  21  22
ATOM     22  C   UNL     1      -3.921   8.873 -58.902  1.00  0.00    -0.000 C 
BRANCH  22  23
ATOM     23  C   UNL     1      -5.052   8.579 -57.899  1.00  0.00    -0.000 C 
BRANCH  23  24
ATOM     24  C   UNL     1      -4.563   7.820 -56.653  1.00  0.00    -0.000 C 
BRANCH  24  25
ATOM     25  C   UNL     1      -5.076   6.372 -56.607  1.00  0.00    -0.003 C 
ATOM     26  C   UNL     1      -6.276   6.141 -57.525  1.00  0.00     0.004 C 
ENDBRANCH  24  25
ENDBRANCH  23  24
ENDBRANCH  22  23
ENDBRANCH  21  22
ENDBRANCH  20  21
ENDBRANCH  19  20
ENDBRANCH  18  19
ENDBRANCH  17  18
ENDBRANCH  16  17
ENDBRANCH  15  16
ENDBRANCH   1  15
TORSDOF 22
ENDMDL
MODEL 6
REMARK VINA RESULT:    -3.904      3.772      9.615
REMARK INTER + INTRA:         -11.400
REMARK INTER:                  -8.976
REMARK INTRA:                  -2.425
REMARK UNBOUND:                -2.476
REMARK SMILES CCCCCCCCCCCCCCCCCCCCCCCC(=O)[O-]
REMARK SMILES IDX 13 1 14 2 15 3 16 4 17 5 18 6 19 7 20 8 21 9 22 10 23 11
REMARK SMILES IDX 24 12 25 13 26 14 12 15 11 16 10 17 9 18 8 19 7 20 6 21 5 22
REMARK SMILES IDX 4 23 3 24 2 25 1 26
REMARK H PARENT
REMARK Flexibility Score: inf
ROOT
ATOM      1  C   UNL     1      -1.282   5.698 -53.324  1.00  0.00     0.000 C 
ENDROOT
BRANCH   1   2
ATOM      2  C   UNL     1      -1.979   4.883 -52.219  1.00  0.00     0.000 C 
BRANCH   2   3
ATOM      3  C   UNL     1      -1.317   5.059 -50.843  1.00  0.00     0.000 C 
BRANCH   3   4
ATOM      4  C   UNL     1      -2.328   5.008 -49.685  1.00  0.00     0.000 C 
BRANCH   4   5
ATOM      5  C   UNL     1      -3.780   5.194 -50.156  1.00  0.00     0.000 C 
BRANCH   5   6
ATOM      6  C   UNL     1      -4.687   5.769 -49.056  1.00  0.00     0.000 C 
BRANCH   6   7
ATOM      7  C   UNL     1      -4.235   5.364 -47.642  1.00  0.00     0.000 C 
BRANCH   7   8
ATOM      8  C   UNL     1      -3.993   6.575 -46.723  1.00  0.00     0.000 C 
BRANCH   8   9
ATOM      9  C   UNL     1      -2.550   7.110 -46.725  1.00  0.00     0.000 C 
BRANCH   9  10
ATOM     10  C   UNL     1      -2.337   8.266 -45.737  1.00  0.00     0.006 C 
BRANCH  10  11
ATOM     11  C   UNL     1      -3.378   9.369 -45.953  1.00  0.00     0.053 C 
BRANCH  11  12
ATOM     12  C   UNL     1      -2.716  10.708 -46.043  1.00  0.00     0.041 C 
ATOM     13  O   UNL     1      -3.294  11.661 -46.628  1.00  0.00    -0.550 OA
ATOM     14  O   UNL     1      -1.439  10.890 -45.528  1.00  0.00    -0.550 OA
ENDBRANCH  11  12
ENDBRANCH  10  11
ENDBRANCH   9  10
ENDBRANCH   8   9
ENDBRANCH   7   8
ENDBRANCH   6   7
ENDBRANCH   5   6
ENDBRANCH   4   5
ENDBRANCH   3   4
ENDBRANCH   2   3
ENDBRANCH   1   2
BRANCH   1  15
ATOM     15  C   UNL     1      -1.741   5.389 -54.765  1.00  0.00     0.000 C 
BRANCH  15  16
ATOM     16  C   UNL     1      -1.456   6.494 -55.798  1.00  0.00     0.000 C 
BRANCH  16  17
ATOM     17  C   UNL     1      -0.455   6.056 -56.881  1.00  0.00     0.000 C 
BRANCH  17  18
ATOM     18  C   UNL     1      -0.956   6.356 -58.302  1.00  0.00    -0.000 C 
BRANCH  18  19
ATOM     19  C   UNL     1      -2.071   5.396 -58.757  1.00  0.00    -0.000 C 
BRANCH  19  20
ATOM     20  C   UNL     1      -3.049   6.060 -59.740  1.00  0.00    -0.000 C 
BRANCH  20  21
ATOM     21  C   UNL     1      -4.502   6.032 -59.232  1.00  0.00    -0.000 C 
BRANCH  21  22
ATOM     22  C   UNL     1      -4.604   5.713 -57.730  1.00  0.00    -0.000 C 
BRANCH  22  23
ATOM     23  C   UNL     1      -4.990   6.909 -56.841  1.00  0.00    -0.000 C 
BRANCH  23  24
ATOM     24  C   UNL     1      -4.933   8.253 -57.589  1.00  0.00    -0.000 C 
BRANCH  24  25
ATOM     25  C   UNL     1      -3.620   9.010 -57.341  1.00  0.00    -0.003 C 
ATOM     26  C   UNL     1      -3.026   9.599 -58.621  1.00  0.00     0.004 C 
ENDBRANCH  24  25
ENDBRANCH  23  24
ENDBRANCH  22  23
ENDBRANCH  21  22
ENDBRANCH  20  21
ENDBRANCH  19  20
ENDBRANCH  18  19
ENDBRANCH  17  18
ENDBRANCH  16  17
ENDBRANCH  15  16
ENDBRANCH   1  15
TORSDOF 22
ENDMDL
MODEL 7
REMARK VINA RESULT:    -3.739      3.789      9.623
REMARK INTER + INTRA:         -11.024
REMARK INTER:                  -9.285
REMARK INTRA:                  -1.739
REMARK UNBOUND:                -2.476
REMARK SMILES CCCCCCCCCCCCCCCCCCCCCCCC(=O)[O-]
REMARK SMILES IDX 13 1 14 2 15 3 16 4 17 5 18 6 19 7 20 8 21 9 22 10 23 11
REMARK SMILES IDX 24 12 25 13 26 14 12 15 11 16 10 17 9 18 8 19 7 20 6 21 5 22
REMARK SMILES IDX 4 23 3 24 2 25 1 26
REMARK H PARENT
REMARK Flexibility Score: inf
ROOT
ATOM      1  C   UNL     1      -0.194   5.346 -50.997  1.00  0.00     0.000 C 
ENDROOT
BRANCH   1   2
ATOM      2  C   UNL     1      -0.226   4.890 -49.527  1.00  0.00     0.000 C 
BRANCH   2   3
ATOM      3  C   UNL     1      -0.735   5.986 -48.575  1.00  0.00     0.000 C 
BRANCH   3   4
ATOM      4  C   UNL     1      -1.982   5.556 -47.785  1.00  0.00     0.000 C 
BRANCH   4   5
ATOM      5  C   UNL     1      -3.106   5.025 -48.691  1.00  0.00     0.000 C 
BRANCH   5   6
ATOM      6  C   UNL     1      -4.340   5.940 -48.698  1.00  0.00     0.000 C 
BRANCH   6   7
ATOM      7  C   UNL     1      -4.771   6.366 -47.283  1.00  0.00     0.000 C 
BRANCH   7   8
ATOM      8  C   UNL     1      -5.690   7.601 -47.286  1.00  0.00     0.000 C 
BRANCH   8   9
ATOM      9  C   UNL     1      -4.956   8.954 -47.316  1.00  0.00     0.000 C 
BRANCH   9  10
ATOM     10  C   UNL     1      -3.575   8.902 -46.647  1.00  0.00     0.006 C 
BRANCH  10  11
ATOM     11  C   UNL     1      -3.404  10.055 -45.654  1.00  0.00     0.053 C 
BRANCH  11  12
ATOM     12  C   UNL     1      -2.104  10.760 -45.884  1.00  0.00     0.041 C 
ATOM     13  O   UNL     1      -2.093  11.930 -46.351  1.00  0.00    -0.550 OA
ATOM     14  O   UNL     1      -0.903  10.109 -45.632  1.00  0.00    -0.550 OA
ENDBRANCH  11  12
ENDBRANCH  10  11
ENDBRANCH   9  10
ENDBRANCH   8   9
ENDBRANCH   7   8
ENDBRANCH   6   7
ENDBRANCH   5   6
ENDBRANCH   4   5
ENDBRANCH   3   4
ENDBRANCH   2   3
ENDBRANCH   1   2
BRANCH   1  15
ATOM     15  C   UNL     1      -1.512   5.154 -51.779  1.00  0.00     0.000 C 
BRANCH  15  16
ATOM     16  C   UNL     1      -1.544   5.789 -53.180  1.00  0.00     0.000 C 
BRANCH  16  17
ATOM     17  C   UNL     1      -0.436   6.836 -53.388  1.00  0.00     0.000 C 
BRANCH  17  18
ATOM     18  C   UNL     1       0.214   6.736 -54.777  1.00  0.00    -0.000 C 
BRANCH  18  19
ATOM     19  C   UNL     1      -0.382   5.605 -55.636  1.00  0.00    -0.000 C 
BRANCH  19  20
ATOM     20  C   UNL     1      -0.558   6.018 -57.106  1.00  0.00    -0.000 C 
BRANCH  20  21
ATOM     21  C   UNL     1      -1.983   6.512 -57.411  1.00  0.00    -0.000 C 
BRANCH  21  22
ATOM     22  C   UNL     1      -2.165   6.946 -58.876  1.00  0.00    -0.000 C 
BRANCH  22  23
ATOM     23  C   UNL     1      -3.615   7.282 -59.274  1.00  0.00    -0.000 C 
BRANCH  23  24
ATOM     24  C   UNL     1      -4.137   8.565 -58.605  1.00  0.00    -0.000 C 
BRANCH  24  25
ATOM     25  C   UNL     1      -5.517   8.373 -57.956  1.00  0.00    -0.003 C 
ATOM     26  C   UNL     1      -5.806   6.913 -57.607  1.00  0.00     0.004 C 
ENDBRANCH  24  25
ENDBRANCH  23  24
ENDBRANCH  22  23
ENDBRANCH  21  22
ENDBRANCH  20  21
ENDBRANCH  19  20
ENDBRANCH  18  19
ENDBRANCH  17  18
ENDBRANCH  16  17
ENDBRANCH  15  16
ENDBRANCH   1  15
TORSDOF 22
ENDMDL
MODEL 8
REMARK VINA RESULT:    -3.684      1.560      4.070
REMARK INTER + INTRA:         -10.897
REMARK INTER:                  -9.301
REMARK INTRA:                  -1.596
REMARK UNBOUND:                -2.476
REMARK SMILES CCCCCCCCCCCCCCCCCCCCCCCC(=O)[O-]
REMARK SMILES IDX 13 1 14 2 15 3 16 4 17 5 18 6 19 7 20 8 21 9 22 10 23 11
REMARK SMILES IDX 24 12 25 13 26 14 12 15 11 16 10 17 9 18 8 19 7 20 6 21 5 22
REMARK SMILES IDX 4 23 3 24 2 25 1 26
REMARK H PARENT
REMARK Flexibility Score: inf
ROOT
ATOM      1  C   UNL     1      -1.235   5.167 -49.582  1.00  0.00     0.000 C 
ENDROOT
BRANCH   1   2
ATOM      2  C   UNL     1      -1.471   4.914 -51.083  1.00  0.00     0.000 C 
BRANCH   2   3
ATOM      3  C   UNL     1      -0.624   5.831 -51.981  1.00  0.00     0.000 C 
BRANCH   3   4
ATOM      4  C   UNL     1      -0.680   5.428 -53.464  1.00  0.00     0.000 C 
BRANCH   4   5
ATOM      5  C   UNL     1       0.286   6.245 -54.339  1.00  0.00     0.000 C 
BRANCH   5   6
ATOM      6  C   UNL     1      -0.119   6.245 -55.822  1.00  0.00     0.000 C 
BRANCH   6   7
ATOM      7  C   UNL     1      -0.719   4.901 -56.274  1.00  0.00     0.000 C 
BRANCH   7   8
ATOM      8  C   UNL     1      -2.004   5.071 -57.104  1.00  0.00     0.000 C 
BRANCH   8   9
ATOM      9  C   UNL     1      -3.241   5.507 -56.299  1.00  0.00     0.000 C 
BRANCH   9  10
ATOM     10  C   UNL     1      -4.194   6.405 -57.102  1.00  0.00     0.006 C 
BRANCH  10  11
ATOM     11  C   UNL     1      -3.431   7.197 -58.168  1.00  0.00     0.053 C 
BRANCH  11  12
ATOM     12  C   UNL     1      -3.302   8.632 -57.767  1.00  0.00     0.041 C 
ATOM     13  O   UNL     1      -3.326   8.953 -56.549  1.00  0.00    -0.550 OA
ATOM     14  O   UNL     1      -3.208   9.622 -58.738  1.00  0.00    -0.550 OA
ENDBRANCH  11  12
ENDBRANCH  10  11
ENDBRANCH   9  10
ENDBRANCH   8   9
ENDBRANCH   7   8
ENDBRANCH   6   7
ENDBRANCH   5   6
ENDBRANCH   4   5
ENDBRANCH   3   4
ENDBRANCH   2   3
ENDBRANCH   1   2
BRANCH   1  15
ATOM     15  C   UNL     1      -2.454   4.916 -48.669  1.00  0.00     0.000 C 
BRANCH  15  16
ATOM     16  C   UNL     1      -2.977   6.151 -47.915  1.00  0.00     0.000 C 
BRANCH  16  17
ATOM     17  C   UNL     1      -4.467   6.427 -48.182  1.00  0.00     0.000 C 
BRANCH  17  18
ATOM     18  C   UNL     1      -5.290   6.515 -46.887  1.00  0.00    -0.000 C 
BRANCH  18  19
ATOM     19  C   UNL     1      -5.561   7.965 -46.448  1.00  0.00    -0.000 C 
BRANCH  19  20
ATOM     20  C   UNL     1      -5.452   8.959 -47.617  1.00  0.00    -0.000 C 
BRANCH  20  21
ATOM     21  C   UNL     1      -4.449  10.091 -47.334  1.00  0.00    -0.000 C 
BRANCH  21  22
ATOM     22  C   UNL     1      -3.381   9.699 -46.298  1.00  0.00    -0.000 C 
BRANCH  22  23
ATOM     23  C   UNL     1      -2.774  10.880 -45.517  1.00  0.00    -0.000 C 
BRANCH  23  24
ATOM     24  C   UNL     1      -2.274  12.009 -46.435  1.00  0.00    -0.000 C 
BRANCH  24  25
ATOM     25  C   UNL     1      -0.740  12.084 -46.495  1.00  0.00    -0.003 C 
ATOM     26  C   UNL     1      -0.063  10.997 -45.661  1.00  0.00     0.004 C 
ENDBRANCH  24  25
ENDBRANCH  23  24
ENDBRANCH  22  23
ENDBRANCH  21  22
ENDBRANCH  20  21
ENDBRANCH  19  20
ENDBRANCH  18  19
ENDBRANCH  17  18
ENDBRANCH  16  17
ENDBRANCH  15  16
ENDBRANCH   1  15
TORSDOF 22
ENDMDL
MODEL 9
REMARK VINA RESULT:    -3.519      1.997      3.106
REMARK INTER + INTRA:         -10.521
REMARK INTER:                  -8.392
REMARK INTRA:                  -2.129
REMARK UNBOUND:                -2.476
REMARK SMILES CCCCCCCCCCCCCCCCCCCCCCCC(=O)[O-]
REMARK SMILES IDX 13 1 14 2 15 3 16 4 17 5 18 6 19 7 20 8 21 9 22 10 23 11
REMARK SMILES IDX 24 12 25 13 26 14 12 15 11 16 10 17 9 18 8 19 7 20 6 21 5 22
REMARK SMILES IDX 4 23 3 24 2 25 1 26
REMARK H PARENT
REMARK Flexibility Score: inf
ROOT
ATOM      1  C   UNL     1      -0.565   6.510 -54.287  1.00  0.00     0.000 C 
ENDROOT
BRANCH   1   2
ATOM      2  C   UNL     1      -1.595   6.224 -55.395  1.00  0.00     0.000 C 
BRANCH   2   3
ATOM      3  C   UNL     1      -1.168   5.072 -56.321  1.00  0.00     0.000 C 
BRANCH   3   4
ATOM      4  C   UNL     1      -0.482   5.566 -57.606  1.00  0.00     0.000 C 
BRANCH   4   5
ATOM      5  C   UNL     1      -1.166   6.806 -58.207  1.00  0.00     0.000 C 
BRANCH   5   6
ATOM      6  C   UNL     1      -1.746   6.539 -59.605  1.00  0.00     0.000 C 
BRANCH   6   7
ATOM      7  C   UNL     1      -2.807   5.423 -59.604  1.00  0.00     0.000 C 
BRANCH   7   8
ATOM      8  C   UNL     1      -4.246   5.968 -59.647  1.00  0.00     0.000 C 
BRANCH   8   9
ATOM      9  C   UNL     1      -5.096   5.647 -58.405  1.00  0.00     0.000 C 
BRANCH   9  10
ATOM     10  C   UNL     1      -4.723   6.500 -57.184  1.00  0.00     0.006 C 
BRANCH  10  11
ATOM     11  C   UNL     1      -5.243   7.932 -57.337  1.00  0.00     0.053 C 
BRANCH  11  12
ATOM     12  C   UNL     1      -4.119   8.872 -57.638  1.00  0.00     0.041 C 
ATOM     13  O   UNL     1      -3.287   9.171 -56.741  1.00  0.00    -0.550 OA
ATOM     14  O   UNL     1      -4.019   9.461 -58.892  1.00  0.00    -0.550 OA
ENDBRANCH  11  12
ENDBRANCH  10  11
ENDBRANCH   9  10
ENDBRANCH   8   9
ENDBRANCH   7   8
ENDBRANCH   6   7
ENDBRANCH   5   6
ENDBRANCH   4   5
ENDBRANCH   3   4
ENDBRANCH   2   3
ENDBRANCH   1   2
BRANCH   1  15
ATOM     15  C   UNL     1      -0.281   5.335 -53.327  1.00  0.00     0.000 C 
BRANCH  15  16
ATOM     16  C   UNL     1      -0.774   5.531 -51.883  1.00  0.00     0.000 C 
BRANCH  16  17
ATOM     17  C   UNL     1       0.151   4.877 -50.842  1.00  0.00     0.000 C 
BRANCH  17  18
ATOM     18  C   UNL     1      -0.323   5.119 -49.400  1.00  0.00    -0.000 C 
BRANCH  18  19
ATOM     19  C   UNL     1      -1.804   5.531 -49.319  1.00  0.00    -0.000 C 
BRANCH  19  20
ATOM     20  C   UNL     1      -2.367   5.409 -47.894  1.00  0.00    -0.000 C 
BRANCH  20  21
ATOM     21  C   UNL     1      -2.352   6.751 -47.139  1.00  0.00    -0.000 C 
BRANCH  21  22
ATOM     22  C   UNL     1      -1.332   6.777 -45.987  1.00  0.00    -0.000 C 
BRANCH  22  23
ATOM     23  C   UNL     1      -0.178   7.779 -46.170  1.00  0.00    -0.000 C 
BRANCH  23  24
ATOM     24  C   UNL     1       1.129   7.109 -46.628  1.00  0.00    -0.000 C 
BRANCH  24  25
ATOM     25  C   UNL     1       2.375   7.761 -46.010  1.00  0.00    -0.003 C 
ATOM     26  C   UNL     1       3.606   6.856 -46.066  1.00  0.00     0.004 C 
ENDBRANCH  24  25
ENDBRANCH  23  24
ENDBRANCH  22  23
ENDBRANCH  21  22
ENDBRANCH  20  21
ENDBRANCH  19  20
ENDBRANCH  18  19
ENDBRANCH  17  18
ENDBRANCH  16  17
ENDBRANCH  15  16
ENDBRANCH   1  15
TORSDOF 22
ENDMDL
