MODEL 1
REMARK VINA RESULT:    -3.827      0.000      0.000
REMARK INTER + INTRA:          -6.008
REMARK INTER:                  -5.393
REMARK INTRA:                  -0.615
REMARK UNBOUND:                -0.615
REMARK SMILES CCCCCCCCC(=O)[O-]
REMARK SMILES IDX 6 1 7 2 8 3 9 4 10 5 11 6 5 7 4 8 3 9 2 10 1 11
REMARK H PARENT
REMARK Flexibility Score: inf
ROOT
ATOM      1  C   UNL     1      14.064  53.558 156.166  1.00  0.00     0.000 C 
ENDROOT
BRANCH   1   2
ATOM      2  C   UNL     1      14.369  55.053 155.991  1.00  0.00     0.006 C 
BRANCH   2   3
ATOM      3  C   UNL     1      15.868  55.358 156.116  1.00  0.00     0.053 C 
BRANCH   3   4
ATOM      4  C   UNL     1      16.196  56.011 157.423  1.00  0.00     0.041 C 
ATOM      5  O   UNL     1      16.673  55.331 158.369  1.00  0.00    -0.550 OA
ATOM      6  O   UNL     1      15.946  57.365 157.608  1.00  0.00    -0.550 OA
ENDBRANCH   3   4
ENDBRANCH   2   3
ENDBRANCH   1   2
BRANCH   1   7
ATOM      7  C   UNL     1      13.405  53.287 157.524  1.00  0.00     0.000 C 
BRANCH   7   8
ATOM      8  C   UNL     1      14.379  52.585 158.478  1.00  0.00    -0.000 C 
BRANCH   8   9
ATOM      9  C   UNL     1      15.574  52.002 157.716  1.00  0.00    -0.000 C 
BRANCH   9  10
ATOM     10  C   UNL     1      16.502  51.225 158.658  1.00  0.00    -0.003 C 
ATOM     11  C   UNL     1      15.753  50.747 159.897  1.00  0.00     0.004 C 
ENDBRANCH   9  10
ENDBRANCH   8   9
ENDBRANCH   7   8
ENDBRANCH   1   7
TORSDOF 7
ENDMDL
MODEL 2
REMARK VINA RESULT:    -3.826      2.612      4.161
REMARK INTER + INTRA:          -6.006
REMARK INTER:                  -5.296
REMARK INTRA:                  -0.711
REMARK UNBOUND:                -0.615
REMARK SMILES CCCCCCCCC(=O)[O-]
REMARK SMILES IDX 6 1 7 2 8 3 9 4 10 5 11 6 5 7 4 8 3 9 2 10 1 11
REMARK H PARENT
REMARK Flexibility Score: inf
ROOT
ATOM      1  C   UNL     1      16.276  51.772 159.320  1.00  0.00     0.000 C 
ENDROOT
BRANCH   1   2
ATOM      2  C   UNL     1      16.944  52.984 159.988  1.00  0.00     0.006 C 
BRANCH   2   3
ATOM      3  C   UNL     1      18.247  53.389 159.286  1.00  0.00     0.053 C 
BRANCH   3   4
ATOM      4  C   UNL     1      19.341  53.677 160.266  1.00  0.00     0.041 C 
ATOM      5  O   UNL     1      20.542  53.459 159.959  1.00  0.00    -0.550 OA
ATOM      6  O   UNL     1      19.032  54.157 161.533  1.00  0.00    -0.550 OA
ENDBRANCH   3   4
ENDBRANCH   2   3
ENDBRANCH   1   2
BRANCH   1   7
ATOM      7  C   UNL     1      14.748  51.880 159.387  1.00  0.00     0.000 C 
BRANCH   7   8
ATOM      8  C   UNL     1      14.211  52.786 158.272  1.00  0.00    -0.000 C 
BRANCH   8   9
ATOM      9  C   UNL     1      14.849  52.436 156.923  1.00  0.00    -0.000 C 
BRANCH   9  10
ATOM     10  C   UNL     1      15.446  53.682 156.258  1.00  0.00    -0.003 C 
ATOM     11  C   UNL     1      15.371  54.891 157.185  1.00  0.00     0.004 C 
ENDBRANCH   9  10
ENDBRANCH   8   9
ENDBRANCH   7   8
ENDBRANCH   1   7
TORSDOF 7
ENDMDL
MODEL 3
REMARK VINA RESULT:    -3.824      2.266      3.044
REMARK INTER + INTRA:          -6.003
REMARK INTER:                  -5.219
REMARK INTRA:                  -0.784
REMARK UNBOUND:                -0.615
REMARK SMILES CCCCCCCCC(=O)[O-]
REMARK SMILES IDX 6 1 7 2 8 3 9 4 10 5 11 6 5 7 4 8 3 9 2 10 1 11
REMARK H PARENT
REMARK Flexibility Score: inf
ROOT
ATOM      1  C   UNL     1      16.170  54.321 157.014  1.00  0.00     0.000 C 
ENDROOT
BRANCH   1   2
ATOM      2  C   UNL     1      16.940  54.725 158.280  1.00  0.00     0.006 C 
BRANCH   2   3
ATOM      3  C   UNL     1      18.260  53.955 158.429  1.00  0.00     0.053 C 
BRANCH   3   4
ATOM      4  C   UNL     1      18.578  53.668 159.863  1.00  0.00     0.041 C 
ATOM      5  O   UNL     1      19.755  53.386 160.208  1.00  0.00    -0.550 OA
ATOM      6  O   UNL     1      17.567  53.678 160.816  1.00  0.00    -0.550 OA
ENDBRANCH   3   4
ENDBRANCH   2   3
ENDBRANCH   1   2
BRANCH   1   7
ATOM      7  C   UNL     1      14.767  53.813 157.363  1.00  0.00     0.000 C 
BRANCH   7   8
ATOM      8  C   UNL     1      14.799  52.332 157.758  1.00  0.00    -0.000 C 
BRANCH   8   9
ATOM      9  C   UNL     1      14.394  52.144 159.225  1.00  0.00    -0.000 C 
BRANCH   9  10
ATOM     10  C   UNL     1      15.306  51.128 159.922  1.00  0.00    -0.003 C 
ATOM     11  C   UNL     1      16.478  50.735 159.027  1.00  0.00     0.004 C 
ENDBRANCH   9  10
ENDBRANCH   8   9
ENDBRANCH   7   8
ENDBRANCH   1   7
TORSDOF 7
ENDMDL
MODEL 4
REMARK VINA RESULT:    -3.798      2.708      4.977
REMARK INTER + INTRA:          -5.967
REMARK INTER:                  -5.352
REMARK INTRA:                  -0.615
REMARK UNBOUND:                -0.615
REMARK SMILES CCCCCCCCC(=O)[O-]
REMARK SMILES IDX 6 1 7 2 8 3 9 4 10 5 11 6 5 7 4 8 3 9 2 10 1 11
REMARK H PARENT
REMARK Flexibility Score: inf
ROOT
ATOM      1  C   UNL     1      17.320  53.089 159.869  1.00  0.00     0.000 C 
ENDROOT
BRANCH   1   2
ATOM      2  C   UNL     1      16.676  51.914 159.116  1.00  0.00     0.006 C 
BRANCH   2   3
ATOM      3  C   UNL     1      15.586  51.222 159.945  1.00  0.00     0.053 C 
BRANCH   3   4
ATOM      4  C   UNL     1      14.230  51.796 159.672  1.00  0.00     0.041 C 
ATOM      5  O   UNL     1      13.261  51.522 160.426  1.00  0.00    -0.550 OA
ATOM      6  O   UNL     1      14.029  52.610 158.564  1.00  0.00    -0.550 OA
ENDBRANCH   3   4
ENDBRANCH   2   3
ENDBRANCH   1   2
BRANCH   1   7
ATOM      7  C   UNL     1      18.594  53.563 159.161  1.00  0.00     0.000 C 
BRANCH   7   8
ATOM      8  C   UNL     1      18.482  53.380 157.642  1.00  0.00    -0.000 C 
BRANCH   8   9
ATOM      9  C   UNL     1      18.001  54.669 156.966  1.00  0.00    -0.000 C 
BRANCH   9  10
ATOM     10  C   UNL     1      16.604  54.485 156.362  1.00  0.00    -0.003 C 
ATOM     11  C   UNL     1      15.583  55.384 157.052  1.00  0.00     0.004 C 
ENDBRANCH   9  10
ENDBRANCH   8   9
ENDBRANCH   7   8
ENDBRANCH   1   7
TORSDOF 7
ENDMDL
MODEL 5
REMARK VINA RESULT:    -3.756      1.987      2.842
REMARK INTER + INTRA:          -5.907
REMARK INTER:                  -5.043
REMARK INTRA:                  -0.865
REMARK UNBOUND:                -0.615
REMARK SMILES CCCCCCCCC(=O)[O-]
REMARK SMILES IDX 6 1 7 2 8 3 9 4 10 5 11 6 5 7 4 8 3 9 2 10 1 11
REMARK H PARENT
REMARK Flexibility Score: inf
ROOT
ATOM      1  C   UNL     1      15.424  54.830 157.211  1.00  0.00     0.000 C 
ENDROOT
BRANCH   1   2
ATOM      2  C   UNL     1      16.863  55.308 157.458  1.00  0.00     0.006 C 
BRANCH   2   3
ATOM      3  C   UNL     1      17.359  54.951 158.866  1.00  0.00     0.053 C 
BRANCH   3   4
ATOM      4  C   UNL     1      18.329  53.810 158.841  1.00  0.00     0.041 C 
ATOM      5  O   UNL     1      18.693  53.311 157.744  1.00  0.00    -0.550 OA
ATOM      6  O   UNL     1      18.808  53.277 160.031  1.00  0.00    -0.550 OA
ENDBRANCH   3   4
ENDBRANCH   2   3
ENDBRANCH   1   2
BRANCH   1   7
ATOM      7  C   UNL     1      15.405  53.567 156.343  1.00  0.00     0.000 C 
BRANCH   7   8
ATOM      8  C   UNL     1      15.183  52.314 157.199  1.00  0.00    -0.000 C 
BRANCH   8   9
ATOM      9  C   UNL     1      14.303  52.625 158.414  1.00  0.00    -0.000 C 
BRANCH   9  10
ATOM     10  C   UNL     1      14.749  51.817 159.638  1.00  0.00    -0.003 C 
ATOM     11  C   UNL     1      16.046  51.065 159.358  1.00  0.00     0.004 C 
ENDBRANCH   9  10
ENDBRANCH   8   9
ENDBRANCH   7   8
ENDBRANCH   1   7
TORSDOF 7
ENDMDL
MODEL 6
REMARK VINA RESULT:    -3.733      2.640      4.455
REMARK INTER + INTRA:          -5.875
REMARK INTER:                  -5.088
REMARK INTRA:                  -0.787
REMARK UNBOUND:                -0.615
REMARK SMILES CCCCCCCCC(=O)[O-]
REMARK SMILES IDX 6 1 7 2 8 3 9 4 10 5 11 6 5 7 4 8 3 9 2 10 1 11
REMARK H PARENT
REMARK Flexibility Score: inf
ROOT
ATOM      1  C   UNL     1      14.747  52.677 156.353  1.00  0.00     0.000 C 
ENDROOT
BRANCH   1   2
ATOM      2  C   UNL     1      15.698  51.945 157.311  1.00  0.00     0.006 C 
BRANCH   2   3
ATOM      3  C   UNL     1      15.592  52.470 158.749  1.00  0.00     0.053 C 
BRANCH   3   4
ATOM      4  C   UNL     1      14.890  51.497 159.646  1.00  0.00     0.041 C 
ATOM      5  O   UNL     1      13.700  51.705 159.999  1.00  0.00    -0.550 OA
ATOM      6  O   UNL     1      15.561  50.376 160.118  1.00  0.00    -0.550 OA
ENDBRANCH   3   4
ENDBRANCH   2   3
ENDBRANCH   1   2
BRANCH   1   7
ATOM      7  C   UNL     1      14.208  53.963 156.990  1.00  0.00     0.000 C 
BRANCH   7   8
ATOM      8  C   UNL     1      14.733  55.204 156.257  1.00  0.00    -0.000 C 
BRANCH   8   9
ATOM      9  C   UNL     1      15.932  55.812 156.993  1.00  0.00    -0.000 C 
BRANCH   9  10
ATOM     10  C   UNL     1      17.252  55.402 156.328  1.00  0.00    -0.003 C 
ATOM     11  C   UNL     1      18.245  54.869 157.356  1.00  0.00     0.004 C 
ENDBRANCH   9  10
ENDBRANCH   8   9
ENDBRANCH   7   8
ENDBRANCH   1   7
TORSDOF 7
ENDMDL
MODEL 7
REMARK VINA RESULT:    -3.684      2.956      4.005
REMARK INTER + INTRA:          -5.807
REMARK INTER:                  -5.085
REMARK INTRA:                  -0.722
REMARK UNBOUND:                -0.615
REMARK SMILES CCCCCCCCC(=O)[O-]
REMARK SMILES IDX 6 1 7 2 8 3 9 4 10 5 11 6 5 7 4 8 3 9 2 10 1 11
REMARK H PARENT
REMARK Flexibility Score: inf
ROOT
ATOM      1  C   UNL     1      17.053  54.071 158.066  1.00  0.00     0.000 C 
ENDROOT
BRANCH   1   2
ATOM      2  C   UNL     1      18.225  53.652 158.968  1.00  0.00     0.006 C 
BRANCH   2   3
ATOM      3  C   UNL     1      17.888  53.791 160.459  1.00  0.00     0.053 C 
BRANCH   3   4
ATOM      4  C   UNL     1      19.090  54.169 161.267  1.00  0.00     0.041 C 
ATOM      5  O   UNL     1      18.961  54.865 162.308  1.00  0.00    -0.550 OA
ATOM      6  O   UNL     1      20.358  53.780 160.854  1.00  0.00    -0.550 OA
ENDBRANCH   3   4
ENDBRANCH   2   3
ENDBRANCH   1   2
BRANCH   1   7
ATOM      7  C   UNL     1      16.778  53.009 156.995  1.00  0.00     0.000 C 
BRANCH   7   8
ATOM      8  C   UNL     1      15.800  51.946 157.511  1.00  0.00    -0.000 C 
BRANCH   8   9
ATOM      9  C   UNL     1      14.686  52.583 158.349  1.00  0.00    -0.000 C 
BRANCH   9  10
ATOM     10  C   UNL     1      14.421  51.769 159.621  1.00  0.00    -0.003 C 
ATOM     11  C   UNL     1      15.603  50.861 159.951  1.00  0.00     0.004 C 
ENDBRANCH   9  10
ENDBRANCH   8   9
ENDBRANCH   7   8
ENDBRANCH   1   7
TORSDOF 7
ENDMDL
MODEL 8
REMARK VINA RESULT:    -3.633      1.899      4.096
REMARK INTER + INTRA:          -5.735
REMARK INTER:                  -5.130
REMARK INTRA:                  -0.605
REMARK UNBOUND:                -0.615
REMARK SMILES CCCCCCCCC(=O)[O-]
REMARK SMILES IDX 6 1 7 2 8 3 9 4 10 5 11 6 5 7 4 8 3 9 2 10 1 11
REMARK H PARENT
REMARK Flexibility Score: inf
ROOT
ATOM      1  C   UNL     1      14.563  52.259 158.714  1.00  0.00     0.000 C 
ENDROOT
BRANCH   1   2
ATOM      2  C   UNL     1      15.922  51.739 159.208  1.00  0.00     0.006 C 
BRANCH   2   3
ATOM      3  C   UNL     1      16.752  52.838 159.886  1.00  0.00     0.053 C 
BRANCH   3   4
ATOM      4  C   UNL     1      18.018  53.119 159.138  1.00  0.00     0.041 C 
ATOM      5  O   UNL     1      18.075  52.933 157.894  1.00  0.00    -0.550 OA
ATOM      6  O   UNL     1      19.148  53.555 159.819  1.00  0.00    -0.550 OA
ENDBRANCH   3   4
ENDBRANCH   2   3
ENDBRANCH   1   2
BRANCH   1   7
ATOM      7  C   UNL     1      14.609  52.581 157.217  1.00  0.00     0.000 C 
BRANCH   7   8
ATOM      8  C   UNL     1      13.530  53.603 156.839  1.00  0.00    -0.000 C 
BRANCH   8   9
ATOM      9  C   UNL     1      14.150  54.839 156.176  1.00  0.00    -0.000 C 
BRANCH   9  10
ATOM     10  C   UNL     1      15.395  55.306 156.938  1.00  0.00    -0.003 C 
ATOM     11  C   UNL     1      16.562  55.555 155.988  1.00  0.00     0.004 C 
ENDBRANCH   9  10
ENDBRANCH   8   9
ENDBRANCH   7   8
ENDBRANCH   1   7
TORSDOF 7
ENDMDL
MODEL 9
REMARK VINA RESULT:    -3.623      2.881      4.192
REMARK INTER + INTRA:          -5.721
REMARK INTER:                  -5.003
REMARK INTRA:                  -0.719
REMARK UNBOUND:                -0.615
REMARK SMILES CCCCCCCCC(=O)[O-]
REMARK SMILES IDX 6 1 7 2 8 3 9 4 10 5 11 6 5 7 4 8 3 9 2 10 1 11
REMARK H PARENT
REMARK Flexibility Score: inf
ROOT
ATOM      1  C   UNL     1      14.856  54.141 157.342  1.00  0.00     0.000 C 
ENDROOT
BRANCH   1   2
ATOM      2  C   UNL     1      14.628  52.634 157.537  1.00  0.00     0.006 C 
BRANCH   2   3
ATOM      3  C   UNL     1      14.667  52.227 159.016  1.00  0.00     0.053 C 
BRANCH   3   4
ATOM      4  C   UNL     1      15.653  51.127 159.265  1.00  0.00     0.041 C 
ATOM      5  O   UNL     1      15.581  50.436 160.314  1.00  0.00    -0.550 OA
ATOM      6  O   UNL     1      16.672  50.886 158.352  1.00  0.00    -0.550 OA
ENDBRANCH   3   4
ENDBRANCH   2   3
ENDBRANCH   1   2
BRANCH   1   7
ATOM      7  C   UNL     1      16.147  54.404 156.558  1.00  0.00     0.000 C 
BRANCH   7   8
ATOM      8  C   UNL     1      17.290  54.805 157.498  1.00  0.00    -0.000 C 
BRANCH   8   9
ATOM      9  C   UNL     1      18.397  53.745 157.502  1.00  0.00    -0.000 C 
BRANCH   9  10
ATOM     10  C   UNL     1      19.165  53.757 158.829  1.00  0.00    -0.003 C 
ATOM     11  C   UNL     1      18.212  53.698 160.018  1.00  0.00     0.004 C 
ENDBRANCH   9  10
ENDBRANCH   8   9
ENDBRANCH   7   8
ENDBRANCH   1   7
TORSDOF 7
ENDMDL
