MODEL 1
REMARK VINA RESULT:    -4.764      0.000      0.000
REMARK INTER + INTRA:          -7.376
REMARK INTER:                  -6.435
REMARK INTRA:                  -0.942
REMARK UNBOUND:                -0.942
REMARK SMILES CC(=O)CCC=C(C)CCC=C(C)C
REMARK SMILES IDX 7 1 6 2 8 3 9 4 10 5 11 6 13 7 12 8 14 9 5 10 4 11 2 12 3 13
REMARK SMILES IDX 1 14
REMARK H PARENT
REMARK Flexibility Score: inf
ROOT
ATOM      1  C   UNL     1      14.620  15.364  27.699  1.00  0.00    -0.077 C 
ATOM      2  C   UNL     1      13.296  15.373  27.974  1.00  0.00    -0.028 C 
ATOM      3  C   UNL     1      15.318  14.129  27.180  1.00  0.00     0.039 C 
ENDROOT
BRANCH   1   4
ATOM      4  C   UNL     1      15.418  16.635  27.893  1.00  0.00     0.034 C 
BRANCH   4   5
ATOM      5  C   UNL     1      14.629  17.852  27.396  1.00  0.00     0.032 C 
BRANCH   5   6
ATOM      6  C   UNL     1      15.396  18.585  26.325  1.00  0.00    -0.028 C 
ATOM      7  C   UNL     1      16.091  19.179  24.044  1.00  0.00     0.039 C 
ATOM      8  C   UNL     1      15.290  18.336  25.001  1.00  0.00    -0.080 C 
ATOM      9  C   UNL     1      14.408  17.232  24.465  1.00  0.00     0.039 C 
ENDBRANCH   5   6
ENDBRANCH   4   5
ENDBRANCH   1   4
BRANCH   2  10
ATOM     10  C   UNL     1      12.393  14.167  27.878  1.00  0.00     0.035 C 
BRANCH  10  11
ATOM     11  C   UNL     1      11.051  14.502  27.214  1.00  0.00     0.079 C 
BRANCH  11  12
ATOM     12  C   UNL     1      11.065  14.192  25.738  1.00  0.00     0.130 C 
ATOM     13  O   UNL     1      10.896  13.042  25.362  1.00  0.00    -0.300 OA
ATOM     14  C   UNL     1      11.298  15.266  24.717  1.00  0.00     0.087 C 
ENDBRANCH  11  12
ENDBRANCH  10  11
ENDBRANCH   2  10
TORSDOF 6
ENDMDL
MODEL 2
REMARK VINA RESULT:    -4.457      2.320      5.354
REMARK INTER + INTRA:          -6.962
REMARK INTER:                  -6.164
REMARK INTRA:                  -0.798
REMARK UNBOUND:                -0.942
REMARK SMILES CC(=O)CCC=C(C)CCC=C(C)C
REMARK SMILES IDX 7 1 6 2 8 3 9 4 10 5 11 6 13 7 12 8 14 9 5 10 4 11 2 12 3 13
REMARK SMILES IDX 1 14
REMARK H PARENT
REMARK Flexibility Score: inf
ROOT
ATOM      1  C   UNL     1      11.997  14.918  25.870  1.00  0.00    -0.077 C 
ATOM      2  C   UNL     1      13.014  15.800  26.002  1.00  0.00    -0.028 C 
ATOM      3  C   UNL     1      10.940  15.074  24.802  1.00  0.00     0.039 C 
ENDROOT
BRANCH   1   4
ATOM      4  C   UNL     1      11.932  13.729  26.803  1.00  0.00     0.034 C 
BRANCH   4   5
ATOM      5  C   UNL     1      12.835  13.947  28.023  1.00  0.00     0.032 C 
BRANCH   5   6
ATOM      6  C   UNL     1      13.883  12.867  28.112  1.00  0.00    -0.028 C 
ATOM      7  C   UNL     1      16.137  11.888  28.033  1.00  0.00     0.039 C 
ATOM      8  C   UNL     1      15.199  13.055  27.865  1.00  0.00    -0.080 C 
ATOM      9  C   UNL     1      15.744  14.390  27.415  1.00  0.00     0.039 C 
ENDBRANCH   5   6
ENDBRANCH   4   5
ENDBRANCH   1   4
BRANCH   2  10
ATOM     10  C   UNL     1      13.171  17.055  25.179  1.00  0.00     0.035 C 
BRANCH  10  11
ATOM     11  C   UNL     1      13.650  18.243  26.024  1.00  0.00     0.079 C 
BRANCH  11  12
ATOM     12  C   UNL     1      15.142  18.207  26.244  1.00  0.00     0.130 C 
ATOM     13  O   UNL     1      15.881  17.903  25.319  1.00  0.00    -0.300 OA
ATOM     14  C   UNL     1      15.741  18.524  27.582  1.00  0.00     0.087 C 
ENDBRANCH  11  12
ENDBRANCH  10  11
ENDBRANCH   2  10
TORSDOF 6
ENDMDL
MODEL 3
REMARK VINA RESULT:    -4.370      1.738      4.627
REMARK INTER + INTRA:          -6.845
REMARK INTER:                  -6.048
REMARK INTRA:                  -0.797
REMARK UNBOUND:                -0.942
REMARK SMILES CC(=O)CCC=C(C)CCC=C(C)C
REMARK SMILES IDX 7 1 6 2 8 3 9 4 10 5 11 6 13 7 12 8 14 9 5 10 4 11 2 12 3 13
REMARK SMILES IDX 1 14
REMARK H PARENT
REMARK Flexibility Score: inf
ROOT
ATOM      1  C   UNL     1      14.477  14.521  27.843  1.00  0.00    -0.077 C 
ATOM      2  C   UNL     1      14.447  15.858  28.045  1.00  0.00    -0.028 C 
ATOM      3  C   UNL     1      15.725  13.814  27.370  1.00  0.00     0.039 C 
ENDROOT
BRANCH   1   4
ATOM      4  C   UNL     1      13.232  13.709  28.125  1.00  0.00     0.034 C 
BRANCH   4   5
ATOM      5  C   UNL     1      11.974  14.488  27.721  1.00  0.00     0.032 C 
BRANCH   5   6
ATOM      6  C   UNL     1      11.371  13.916  26.464  1.00  0.00    -0.028 C 
ATOM      7  C   UNL     1      10.881  13.751  24.061  1.00  0.00     0.039 C 
ATOM      8  C   UNL     1      11.508  14.459  25.234  1.00  0.00    -0.080 C 
ATOM      9  C   UNL     1      12.253  15.754  25.011  1.00  0.00     0.039 C 
ENDBRANCH   5   6
ENDBRANCH   4   5
ENDBRANCH   1   4
BRANCH   2  10
ATOM     10  C   UNL     1      15.595  16.794  27.753  1.00  0.00     0.035 C 
BRANCH  10  11
ATOM     11  C   UNL     1      15.171  17.966  26.859  1.00  0.00     0.079 C 
BRANCH  11  12
ATOM     12  C   UNL     1      15.250  17.610  25.395  1.00  0.00     0.130 C 
ATOM     13  O   UNL     1      15.430  16.448  25.066  1.00  0.00    -0.300 OA
ATOM     14  C   UNL     1      15.127  18.659  24.330  1.00  0.00     0.087 C 
ENDBRANCH  11  12
ENDBRANCH  10  11
ENDBRANCH   2  10
TORSDOF 6
ENDMDL
MODEL 4
REMARK VINA RESULT:    -4.353      1.198      2.091
REMARK INTER + INTRA:          -6.822
REMARK INTER:                  -5.705
REMARK INTRA:                  -1.116
REMARK UNBOUND:                -0.942
REMARK SMILES CC(=O)CCC=C(C)CCC=C(C)C
REMARK SMILES IDX 7 1 6 2 8 3 9 4 10 5 11 6 13 7 12 8 14 9 5 10 4 11 2 12 3 13
REMARK SMILES IDX 1 14
REMARK H PARENT
REMARK Flexibility Score: inf
ROOT
ATOM      1  C   UNL     1      14.411  17.454  27.838  1.00  0.00    -0.077 C 
ATOM      2  C   UNL     1      14.790  16.160  27.955  1.00  0.00    -0.028 C 
ATOM      3  C   UNL     1      12.963  17.872  27.934  1.00  0.00     0.039 C 
ENDROOT
BRANCH   1   4
ATOM      4  C   UNL     1      15.472  18.512  27.630  1.00  0.00     0.034 C 
BRANCH   4   5
ATOM      5  C   UNL     1      16.453  18.088  26.529  1.00  0.00     0.032 C 
BRANCH   5   6
ATOM      6  C   UNL     1      16.219  18.884  25.271  1.00  0.00    -0.028 C 
ATOM      7  C   UNL     1      15.204  19.446  23.104  1.00  0.00     0.039 C 
ATOM      8  C   UNL     1      15.363  18.528  24.288  1.00  0.00    -0.080 C 
ATOM      9  C   UNL     1      14.581  17.236  24.339  1.00  0.00     0.039 C 
ENDBRANCH   5   6
ENDBRANCH   4   5
ENDBRANCH   1   4
BRANCH   2  10
ATOM     10  C   UNL     1      13.836  15.000  28.110  1.00  0.00     0.035 C 
BRANCH  10  11
ATOM     11  C   UNL     1      13.456  14.382  26.758  1.00  0.00     0.079 C 
BRANCH  11  12
ATOM     12  C   UNL     1      11.995  14.583  26.443  1.00  0.00     0.130 C 
ATOM     13  O   UNL     1      11.635  14.660  25.278  1.00  0.00    -0.300 OA
ATOM     14  C   UNL     1      10.971  14.705  27.533  1.00  0.00     0.087 C 
ENDBRANCH  11  12
ENDBRANCH  10  11
ENDBRANCH   2  10
TORSDOF 6
ENDMDL
MODEL 5
REMARK VINA RESULT:    -4.322      2.715      5.596
REMARK INTER + INTRA:          -6.780
REMARK INTER:                  -6.061
REMARK INTRA:                  -0.719
REMARK UNBOUND:                -0.942
REMARK SMILES CC(=O)CCC=C(C)CCC=C(C)C
REMARK SMILES IDX 7 1 6 2 8 3 9 4 10 5 11 6 13 7 12 8 14 9 5 10 4 11 2 12 3 13
REMARK SMILES IDX 1 14
REMARK H PARENT
REMARK Flexibility Score: inf
ROOT
ATOM      1  C   UNL     1      15.385  17.783  27.200  1.00  0.00    -0.077 C 
ATOM      2  C   UNL     1      15.042  17.834  25.892  1.00  0.00    -0.028 C 
ATOM      3  C   UNL     1      16.495  18.637  27.767  1.00  0.00     0.039 C 
ENDROOT
BRANCH   1   4
ATOM      4  C   UNL     1      14.616  16.864  28.125  1.00  0.00     0.034 C 
BRANCH   4   5
ATOM      5  C   UNL     1      13.108  16.970  27.863  1.00  0.00     0.032 C 
BRANCH   5   6
ATOM      6  C   UNL     1      12.489  15.600  27.748  1.00  0.00    -0.028 C 
ATOM      7  C   UNL     1      11.561  13.624  26.619  1.00  0.00     0.039 C 
ATOM      8  C   UNL     1      12.133  15.017  26.582  1.00  0.00    -0.080 C 
ATOM      9  C   UNL     1      12.278  15.728  25.256  1.00  0.00     0.039 C 
ENDBRANCH   5   6
ENDBRANCH   4   5
ENDBRANCH   1   4
BRANCH   2  10
ATOM     10  C   UNL     1      15.758  18.661  24.852  1.00  0.00     0.035 C 
BRANCH  10  11
ATOM     11  C   UNL     1      15.026  18.650  23.504  1.00  0.00     0.079 C 
BRANCH  11  12
ATOM     12  C   UNL     1      15.288  19.908  22.714  1.00  0.00     0.130 C 
ATOM     13  O   UNL     1      14.832  20.018  21.585  1.00  0.00    -0.300 OA
ATOM     14  C   UNL     1      16.111  21.027  23.280  1.00  0.00     0.087 C 
ENDBRANCH  11  12
ENDBRANCH  10  11
ENDBRANCH   2  10
TORSDOF 6
ENDMDL
MODEL 6
REMARK VINA RESULT:    -4.167      3.071      6.073
REMARK INTER + INTRA:          -6.570
REMARK INTER:                  -5.959
REMARK INTRA:                  -0.611
REMARK UNBOUND:                -0.942
REMARK SMILES CC(=O)CCC=C(C)CCC=C(C)C
REMARK SMILES IDX 7 1 6 2 8 3 9 4 10 5 11 6 13 7 12 8 14 9 5 10 4 11 2 12 3 13
REMARK SMILES IDX 1 14
REMARK H PARENT
REMARK Flexibility Score: inf
ROOT
ATOM      1  C   UNL     1      14.955  18.062  26.403  1.00  0.00    -0.077 C 
ATOM      2  C   UNL     1      14.895  18.340  25.081  1.00  0.00    -0.028 C 
ATOM      3  C   UNL     1      16.014  18.663  27.297  1.00  0.00     0.039 C 
ENDROOT
BRANCH   1   4
ATOM      4  C   UNL     1      13.915  17.143  27.007  1.00  0.00     0.034 C 
BRANCH   4   5
ATOM      5  C   UNL     1      13.831  15.828  26.222  1.00  0.00     0.032 C 
BRANCH   5   6
ATOM      6  C   UNL     1      14.999  14.934  26.551  1.00  0.00    -0.028 C 
ATOM      7  C   UNL     1      16.181  13.045  27.589  1.00  0.00     0.039 C 
ATOM      8  C   UNL     1      14.938  13.873  27.386  1.00  0.00    -0.080 C 
ATOM      9  C   UNL     1      13.672  13.510  28.125  1.00  0.00     0.039 C 
ENDBRANCH   5   6
ENDBRANCH   4   5
ENDBRANCH   1   4
BRANCH   2  10
ATOM     10  C   UNL     1      15.896  19.193  24.339  1.00  0.00     0.035 C 
BRANCH  10  11
ATOM     11  C   UNL     1      15.524  19.363  22.861  1.00  0.00     0.079 C 
BRANCH  11  12
ATOM     12  C   UNL     1      15.171  20.793  22.534  1.00  0.00     0.130 C 
ATOM     13  O   UNL     1      14.332  21.027  21.677  1.00  0.00    -0.300 OA
ATOM     14  C   UNL     1      15.841  21.941  23.231  1.00  0.00     0.087 C 
ENDBRANCH  11  12
ENDBRANCH  10  11
ENDBRANCH   2  10
TORSDOF 6
ENDMDL
MODEL 7
REMARK VINA RESULT:    -3.613      2.753      5.844
REMARK INTER + INTRA:          -5.822
REMARK INTER:                  -5.179
REMARK INTRA:                  -0.643
REMARK UNBOUND:                -0.942
REMARK SMILES CC(=O)CCC=C(C)CCC=C(C)C
REMARK SMILES IDX 7 1 6 2 8 3 9 4 10 5 11 6 13 7 12 8 14 9 5 10 4 11 2 12 3 13
REMARK SMILES IDX 1 14
REMARK H PARENT
REMARK Flexibility Score: inf
ROOT
ATOM      1  C   UNL     1      14.963  16.317  26.772  1.00  0.00    -0.077 C 
ATOM      2  C   UNL     1      14.809  16.795  25.516  1.00  0.00    -0.028 C 
ATOM      3  C   UNL     1      15.064  17.233  27.968  1.00  0.00     0.039 C 
ENDROOT
BRANCH   1   4
ATOM      4  C   UNL     1      15.011  14.819  26.985  1.00  0.00     0.034 C 
BRANCH   4   5
ATOM      5  C   UNL     1      14.073  14.404  28.125  1.00  0.00     0.032 C 
BRANCH   5   6
ATOM      6  C   UNL     1      13.080  13.374  27.651  1.00  0.00    -0.028 C 
ATOM      7  C   UNL     1      10.975  12.528  26.705  1.00  0.00     0.039 C 
ATOM      8  C   UNL     1      11.845  13.661  27.182  1.00  0.00    -0.080 C 
ATOM      9  C   UNL     1      11.315  15.075  27.142  1.00  0.00     0.039 C 
ENDBRANCH   5   6
ENDBRANCH   4   5
ENDBRANCH   1   4
BRANCH   2  10
ATOM     10  C   UNL     1      14.800  18.261  25.154  1.00  0.00     0.035 C 
BRANCH  10  11
ATOM     11  C   UNL     1      14.942  18.482  23.642  1.00  0.00     0.079 C 
BRANCH  11  12
ATOM     12  C   UNL     1      15.692  19.754  23.331  1.00  0.00     0.130 C 
ATOM     13  O   UNL     1      16.837  19.893  23.734  1.00  0.00    -0.300 OA
ATOM     14  C   UNL     1      15.055  20.862  22.547  1.00  0.00     0.087 C 
ENDBRANCH  11  12
ENDBRANCH  10  11
ENDBRANCH   2  10
TORSDOF 6
ENDMDL
MODEL 8
REMARK VINA RESULT:    -3.546      1.541      2.933
REMARK INTER + INTRA:          -5.732
REMARK INTER:                  -4.854
REMARK INTRA:                  -0.878
REMARK UNBOUND:                -0.942
REMARK SMILES CC(=O)CCC=C(C)CCC=C(C)C
REMARK SMILES IDX 7 1 6 2 8 3 9 4 10 5 11 6 13 7 12 8 14 9 5 10 4 11 2 12 3 13
REMARK SMILES IDX 1 14
REMARK H PARENT
REMARK Flexibility Score: inf
ROOT
ATOM      1  C   UNL     1      14.115  17.637  26.320  1.00  0.00    -0.077 C 
ATOM      2  C   UNL     1      13.651  16.991  25.226  1.00  0.00    -0.028 C 
ATOM      3  C   UNL     1      13.309  17.729  27.595  1.00  0.00     0.039 C 
ENDROOT
BRANCH   1   4
ATOM      4  C   UNL     1      15.493  18.262  26.273  1.00  0.00     0.034 C 
BRANCH   4   5
ATOM      5  C   UNL     1      15.996  18.356  24.827  1.00  0.00     0.032 C 
BRANCH   5   6
ATOM      6  C   UNL     1      16.082  19.795  24.384  1.00  0.00    -0.028 C 
ATOM      7  C   UNL     1      15.743  21.733  22.911  1.00  0.00     0.039 C 
ATOM      8  C   UNL     1      15.624  20.259  23.200  1.00  0.00    -0.080 C 
ATOM      9  C   UNL     1      15.016  19.343  22.164  1.00  0.00     0.039 C 
ENDBRANCH   5   6
ENDBRANCH   4   5
ENDBRANCH   1   4
BRANCH   2  10
ATOM     10  C   UNL     1      12.279  16.371  25.116  1.00  0.00     0.035 C 
BRANCH  10  11
ATOM     11  C   UNL     1      12.312  14.854  25.341  1.00  0.00     0.079 C 
BRANCH  11  12
ATOM     12  C   UNL     1      12.155  14.501  26.799  1.00  0.00     0.130 C 
ATOM     13  O   UNL     1      11.081  14.686  27.352  1.00  0.00    -0.300 OA
ATOM     14  C   UNL     1      13.296  13.938  27.593  1.00  0.00     0.087 C 
ENDBRANCH  11  12
ENDBRANCH  10  11
ENDBRANCH   2  10
TORSDOF 6
ENDMDL
MODEL 9
REMARK VINA RESULT:    -3.506      1.814      3.410
REMARK INTER + INTRA:          -5.678
REMARK INTER:                  -6.123
REMARK INTRA:                   0.445
REMARK UNBOUND:                -0.942
REMARK SMILES CC(=O)CCC=C(C)CCC=C(C)C
REMARK SMILES IDX 7 1 6 2 8 3 9 4 10 5 11 6 13 7 12 8 14 9 5 10 4 11 2 12 3 13
REMARK SMILES IDX 1 14
REMARK H PARENT
REMARK Flexibility Score: inf
ROOT
ATOM      1  C   UNL     1      11.846  15.175  25.296  1.00  0.00    -0.077 C 
ATOM      2  C   UNL     1      12.108  14.814  26.573  1.00  0.00    -0.028 C 
ATOM      3  C   UNL     1      10.937  14.359  24.407  1.00  0.00     0.039 C 
ENDROOT
BRANCH   1   4
ATOM      4  C   UNL     1      12.462  16.446  24.752  1.00  0.00     0.034 C 
BRANCH   4   5
ATOM      5  C   UNL     1      13.970  16.269  24.538  1.00  0.00     0.032 C 
BRANCH   5   6
ATOM      6  C   UNL     1      14.747  16.899  25.666  1.00  0.00    -0.028 C 
ATOM      7  C   UNL     1      16.076  18.617  26.816  1.00  0.00     0.039 C 
ATOM      8  C   UNL     1      15.371  18.095  25.592  1.00  0.00    -0.080 C 
ATOM      9  C   UNL     1      15.391  18.907  24.318  1.00  0.00     0.039 C 
ENDBRANCH   5   6
ENDBRANCH   4   5
ENDBRANCH   1   4
BRANCH   2  10
ATOM     10  C   UNL     1      11.607  13.548  27.224  1.00  0.00     0.035 C 
BRANCH  10  11
ATOM     11  C   UNL     1      12.693  12.863  28.064  1.00  0.00     0.079 C 
BRANCH  11  12
ATOM     12  C   UNL     1      14.006  13.603  27.991  1.00  0.00     0.130 C 
ATOM     13  O   UNL     1      14.022  14.817  28.125  1.00  0.00    -0.300 OA
ATOM     14  C   UNL     1      15.296  12.880  27.742  1.00  0.00     0.087 C 
ENDBRANCH  11  12
ENDBRANCH  10  11
ENDBRANCH   2  10
TORSDOF 6
ENDMDL
