MODEL 1
REMARK VINA RESULT:    -4.407      0.000      0.000
REMARK INTER + INTRA:          -5.400
REMARK INTER:                  -5.308
REMARK INTRA:                  -0.092
REMARK UNBOUND:                -0.092
REMARK SMILES CC[C@@H](C)[C@@H]([NH3+])C(=O)[O-]
REMARK SMILES IDX 3 1 4 2 5 3 6 4 7 8 8 9 9 10 2 11 1 12
REMARK H PARENT 6 5 6 6 6 7
REMARK Flexibility Score: inf
ROOT
ATOM      1  C   UNL     1       0.875  52.372  35.380  1.00  0.00     0.050 C 
ATOM      2  C   UNL     1      -0.541  51.824  35.628  1.00  0.00     0.014 C 
ENDROOT
BRANCH   1   3
ATOM      3  C   UNL     1       1.847  51.235  34.933  1.00  0.00     0.230 C 
BRANCH   3   4
ATOM      4  N   UNL     1       3.068  51.745  34.292  1.00  0.00    -0.350 N 
ATOM      5  H   UNL     1       2.847  52.629  33.776  1.00  0.00     0.345 HD
ATOM      6  H   UNL     1       3.462  51.054  33.616  1.00  0.00     0.345 HD
ATOM      7  H   UNL     1       3.789  51.974  35.014  1.00  0.00     0.345 HD
ENDBRANCH   3   4
BRANCH   3   8
ATOM      8  C   UNL     1       2.187  50.327  36.091  1.00  0.00     0.099 C 
ATOM      9  O   UNL     1       2.927  50.747  37.021  1.00  0.00    -0.544 OA
ATOM     10  O   UNL     1       1.727  49.016  36.127  1.00  0.00    -0.544 OA
ENDBRANCH   3   8
ENDBRANCH   1   3
BRANCH   1  11
ATOM     11  C   UNL     1       0.850  53.567  34.390  1.00  0.00     0.006 C 
ATOM     12  C   UNL     1      -0.565  53.931  33.941  1.00  0.00     0.004 C 
ENDBRANCH   1  11
TORSDOF 4
ENDMDL
MODEL 2
REMARK VINA RESULT:    -4.339      2.438      3.509
REMARK INTER + INTRA:          -5.318
REMARK INTER:                  -5.150
REMARK INTRA:                  -0.168
REMARK UNBOUND:                -0.092
REMARK SMILES CC[C@@H](C)[C@@H]([NH3+])C(=O)[O-]
REMARK SMILES IDX 3 1 4 2 5 3 6 4 7 8 8 9 9 10 2 11 1 12
REMARK H PARENT 6 5 6 6 6 7
REMARK Flexibility Score: inf
ROOT
ATOM      1  C   UNL     1       1.519  50.715  35.976  1.00  0.00     0.050 C 
ATOM      2  C   UNL     1       2.390  50.578  37.238  1.00  0.00     0.014 C 
ENDROOT
BRANCH   1   3
ATOM      3  C   UNL     1       1.893  52.000  35.173  1.00  0.00     0.230 C 
BRANCH   3   4
ATOM      4  N   UNL     1       2.673  51.709  33.961  1.00  0.00    -0.350 N 
ATOM      5  H   UNL     1       2.948  50.700  33.957  1.00  0.00     0.345 HD
ATOM      6  H   UNL     1       3.539  52.291  33.915  1.00  0.00     0.345 HD
ATOM      7  H   UNL     1       2.095  51.881  33.107  1.00  0.00     0.345 HD
ENDBRANCH   3   4
BRANCH   3   8
ATOM      8  C   UNL     1       0.661  52.808  34.839  1.00  0.00     0.099 C 
ATOM      9  O   UNL     1       0.772  53.883  34.191  1.00  0.00    -0.544 OA
ATOM     10  O   UNL     1      -0.595  52.402  35.273  1.00  0.00    -0.544 OA
ENDBRANCH   3   8
ENDBRANCH   1   3
BRANCH   1  11
ATOM     11  C   UNL     1       1.575  49.427  35.113  1.00  0.00     0.006 C 
ATOM     12  C   UNL     1       0.198  49.000  34.600  1.00  0.00     0.004 C 
ENDBRANCH   1  11
TORSDOF 4
ENDMDL
MODEL 3
REMARK VINA RESULT:    -4.306     13.792     14.505
REMARK INTER + INTRA:          -5.279
REMARK INTER:                  -5.113
REMARK INTRA:                  -0.166
REMARK UNBOUND:                -0.092
REMARK SMILES CC[C@@H](C)[C@@H]([NH3+])C(=O)[O-]
REMARK SMILES IDX 3 1 4 2 5 3 6 4 7 8 8 9 9 10 2 11 1 12
REMARK H PARENT 6 5 6 6 6 7
REMARK Flexibility Score: inf
ROOT
ATOM      1  C   UNL     1      -1.411  40.918  26.295  1.00  0.00     0.050 C 
ATOM      2  C   UNL     1      -2.134  39.562  26.382  1.00  0.00     0.014 C 
ENDROOT
BRANCH   1   3
ATOM      3  C   UNL     1      -1.861  41.713  25.029  1.00  0.00     0.230 C 
BRANCH   3   4
ATOM      4  N   UNL     1      -2.618  42.930  25.357  1.00  0.00    -0.350 N 
ATOM      5  H   UNL     1      -2.836  43.453  24.477  1.00  0.00     0.345 HD
ATOM      6  H   UNL     1      -2.076  43.558  25.992  1.00  0.00     0.345 HD
ATOM      7  H   UNL     1      -3.527  42.682  25.810  1.00  0.00     0.345 HD
ENDBRANCH   3   4
BRANCH   3   8
ATOM      8  C   UNL     1      -0.680  42.037  24.145  1.00  0.00     0.099 C 
ATOM      9  O   UNL     1       0.471  41.635  24.463  1.00  0.00    -0.544 OA
ATOM     10  O   UNL     1      -0.838  42.812  23.002  1.00  0.00    -0.544 OA
ENDBRANCH   3   8
ENDBRANCH   1   3
BRANCH   1  11
ATOM     11  C   UNL     1      -1.579  41.729  27.606  1.00  0.00     0.006 C 
ATOM     12  C   UNL     1      -0.276  42.385  28.065  1.00  0.00     0.004 C 
ENDBRANCH   1  11
TORSDOF 4
ENDMDL
MODEL 4
REMARK VINA RESULT:    -4.240      1.677      2.291
REMARK INTER + INTRA:          -5.200
REMARK INTER:                  -5.148
REMARK INTRA:                  -0.052
REMARK UNBOUND:                -0.092
REMARK SMILES CC[C@@H](C)[C@@H]([NH3+])C(=O)[O-]
REMARK SMILES IDX 3 1 4 2 5 3 6 4 7 8 8 9 9 10 2 11 1 12
REMARK H PARENT 6 5 6 6 6 7
REMARK Flexibility Score: inf
ROOT
ATOM      1  C   UNL     1       1.135  51.310  36.480  1.00  0.00     0.050 C 
ATOM      2  C   UNL     1       1.121  50.214  37.561  1.00  0.00     0.014 C 
ENDROOT
BRANCH   1   3
ATOM      3  C   UNL     1       1.543  50.723  35.092  1.00  0.00     0.230 C 
BRANCH   3   4
ATOM      4  N   UNL     1       3.000  50.633  34.916  1.00  0.00    -0.350 N 
ATOM      5  H   UNL     1       3.271  51.092  34.015  1.00  0.00     0.345 HD
ATOM      6  H   UNL     1       3.322  49.640  34.892  1.00  0.00     0.345 HD
ATOM      7  H   UNL     1       3.491  51.138  35.687  1.00  0.00     0.345 HD
ENDBRANCH   3   4
BRANCH   3   8
ATOM      8  C   UNL     1       0.889  49.382  34.858  1.00  0.00     0.099 C 
ATOM      9  O   UNL     1       1.580  48.329  34.911  1.00  0.00    -0.544 OA
ATOM     10  O   UNL     1      -0.461  49.294  34.541  1.00  0.00    -0.544 OA
ENDBRANCH   3   8
ENDBRANCH   1   3
BRANCH   1  11
ATOM     11  C   UNL     1      -0.214  52.074  36.437  1.00  0.00     0.006 C 
ATOM     12  C   UNL     1      -0.310  53.036  35.253  1.00  0.00     0.004 C 
ENDBRANCH   1  11
TORSDOF 4
ENDMDL
MODEL 5
REMARK VINA RESULT:    -4.228     13.310     14.044
REMARK INTER + INTRA:          -5.185
REMARK INTER:                  -5.157
REMARK INTRA:                  -0.028
REMARK UNBOUND:                -0.092
REMARK SMILES CC[C@@H](C)[C@@H]([NH3+])C(=O)[O-]
REMARK SMILES IDX 3 1 4 2 5 3 6 4 7 8 8 9 9 10 2 11 1 12
REMARK H PARENT 6 5 6 6 6 7
REMARK Flexibility Score: inf
ROOT
ATOM      1  C   UNL     1      -1.244  40.505  25.746  1.00  0.00     0.050 C 
ATOM      2  C   UNL     1      -1.375  39.393  26.803  1.00  0.00     0.014 C 
ENDROOT
BRANCH   1   3
ATOM      3  C   UNL     1      -1.643  41.892  26.340  1.00  0.00     0.230 C 
BRANCH   3   4
ATOM      4  N   UNL     1      -3.099  42.094  26.393  1.00  0.00    -0.350 N 
ATOM      5  H   UNL     1      -3.544  41.640  25.562  1.00  0.00     0.345 HD
ATOM      6  H   UNL     1      -3.345  43.109  26.389  1.00  0.00     0.345 HD
ATOM      7  H   UNL     1      -3.497  41.644  27.249  1.00  0.00     0.345 HD
ENDBRANCH   3   4
BRANCH   3   8
ATOM      8  C   UNL     1      -1.023  42.098  27.702  1.00  0.00     0.099 C 
ATOM      9  O   UNL     1      -1.742  42.041  28.734  1.00  0.00    -0.544 OA
ATOM     10  O   UNL     1       0.330  42.391  27.830  1.00  0.00    -0.544 OA
ENDBRANCH   3   8
ENDBRANCH   1   3
BRANCH   1  11
ATOM     11  C   UNL     1       0.168  40.507  25.106  1.00  0.00     0.006 C 
ATOM     12  C   UNL     1       0.339  41.608  24.058  1.00  0.00     0.004 C 
ENDBRANCH   1  11
TORSDOF 4
ENDMDL
MODEL 6
REMARK VINA RESULT:    -4.227      2.821      4.117
REMARK INTER + INTRA:          -5.184
REMARK INTER:                  -5.107
REMARK INTRA:                  -0.078
REMARK UNBOUND:                -0.092
REMARK SMILES CC[C@@H](C)[C@@H]([NH3+])C(=O)[O-]
REMARK SMILES IDX 3 1 4 2 5 3 6 4 7 8 8 9 9 10 2 11 1 12
REMARK H PARENT 6 5 6 6 6 7
REMARK Flexibility Score: inf
ROOT
ATOM      1  C   UNL     1       1.062  51.066  36.949  1.00  0.00     0.050 C 
ATOM      2  C   UNL     1       2.493  50.629  37.311  1.00  0.00     0.014 C 
ENDROOT
BRANCH   1   3
ATOM      3  C   UNL     1       0.945  51.399  35.428  1.00  0.00     0.230 C 
BRANCH   3   4
ATOM      4  N   UNL     1       0.263  50.345  34.663  1.00  0.00    -0.350 N 
ATOM      5  H   UNL     1       0.174  50.641  33.663  1.00  0.00     0.345 HD
ATOM      6  H   UNL     1      -0.693  50.157  35.040  1.00  0.00     0.345 HD
ATOM      7  H   UNL     1       0.822  49.462  34.682  1.00  0.00     0.345 HD
ENDBRANCH   3   4
BRANCH   3   8
ATOM      8  C   UNL     1       0.275  52.736  35.216  1.00  0.00     0.099 C 
ATOM      9  O   UNL     1      -0.794  53.006  35.825  1.00  0.00    -0.544 OA
ATOM     10  O   UNL     1       0.801  53.661  34.322  1.00  0.00    -0.544 OA
ENDBRANCH   3   8
ENDBRANCH   1   3
BRANCH   1  11
ATOM     11  C   UNL     1       0.019  50.019  37.418  1.00  0.00     0.006 C 
ATOM     12  C   UNL     1       0.661  48.822  38.122  1.00  0.00     0.004 C 
ENDBRANCH   1  11
TORSDOF 4
ENDMDL
MODEL 7
REMARK VINA RESULT:    -4.220     13.907     14.598
REMARK INTER + INTRA:          -5.176
REMARK INTER:                  -5.093
REMARK INTRA:                  -0.083
REMARK UNBOUND:                -0.092
REMARK SMILES CC[C@@H](C)[C@@H]([NH3+])C(=O)[O-]
REMARK SMILES IDX 3 1 4 2 5 3 6 4 7 8 8 9 9 10 2 11 1 12
REMARK H PARENT 6 5 6 6 6 7
REMARK Flexibility Score: inf
ROOT
ATOM      1  C   UNL     1      -0.746  41.452  24.920  1.00  0.00     0.050 C 
ATOM      2  C   UNL     1       0.705  41.371  25.427  1.00  0.00     0.014 C 
ENDROOT
BRANCH   1   3
ATOM      3  C   UNL     1      -1.717  41.874  26.068  1.00  0.00     0.230 C 
BRANCH   3   4
ATOM      4  N   UNL     1      -2.832  42.708  25.595  1.00  0.00    -0.350 N 
ATOM      5  H   UNL     1      -2.560  43.718  25.649  1.00  0.00     0.345 HD
ATOM      6  H   UNL     1      -3.690  42.564  26.173  1.00  0.00     0.345 HD
ATOM      7  H   UNL     1      -3.048  42.494  24.595  1.00  0.00     0.345 HD
ENDBRANCH   3   4
BRANCH   3   8
ATOM      8  C   UNL     1      -2.230  40.666  26.815  1.00  0.00     0.099 C 
ATOM      9  O   UNL     1      -1.904  40.489  28.019  1.00  0.00    -0.544 OA
ATOM     10  O   UNL     1      -3.025  39.720  26.179  1.00  0.00    -0.544 OA
ENDBRANCH   3   8
ENDBRANCH   1   3
BRANCH   1  11
ATOM     11  C   UNL     1      -0.855  42.367  23.672  1.00  0.00     0.006 C 
ATOM     12  C   UNL     1       0.510  42.817  23.150  1.00  0.00     0.004 C 
ENDBRANCH   1  11
TORSDOF 4
ENDMDL
MODEL 8
REMARK VINA RESULT:    -4.149     14.525     15.091
REMARK INTER + INTRA:          -5.090
REMARK INTER:                  -4.996
REMARK INTRA:                  -0.094
REMARK UNBOUND:                -0.092
REMARK SMILES CC[C@@H](C)[C@@H]([NH3+])C(=O)[O-]
REMARK SMILES IDX 3 1 4 2 5 3 6 4 7 8 8 9 9 10 2 11 1 12
REMARK H PARENT 6 5 6 6 6 7
REMARK Flexibility Score: inf
ROOT
ATOM      1  C   UNL     1      -0.899  39.919  25.962  1.00  0.00     0.050 C 
ATOM      2  C   UNL     1      -2.362  39.661  26.363  1.00  0.00     0.014 C 
ENDROOT
BRANCH   1   3
ATOM      3  C   UNL     1      -0.661  41.430  25.648  1.00  0.00     0.230 C 
BRANCH   3   4
ATOM      4  N   UNL     1       0.171  42.100  26.659  1.00  0.00    -0.350 N 
ATOM      5  H   UNL     1      -0.416  42.336  27.493  1.00  0.00     0.345 HD
ATOM      6  H   UNL     1       0.590  42.981  26.286  1.00  0.00     0.345 HD
ATOM      7  H   UNL     1       0.935  41.463  26.980  1.00  0.00     0.345 HD
ENDBRANCH   3   4
BRANCH   3   8
ATOM      8  C   UNL     1      -0.079  41.611  24.266  1.00  0.00     0.099 C 
ATOM      9  O   UNL     1       0.963  40.984  23.937  1.00  0.00    -0.544 OA
ATOM     10  O   UNL     1      -0.655  42.496  23.362  1.00  0.00    -0.544 OA
ENDBRANCH   3   8
ENDBRANCH   1   3
BRANCH   1  11
ATOM     11  C   UNL     1       0.082  39.364  27.028  1.00  0.00     0.006 C 
ATOM     12  C   UNL     1      -0.631  38.885  28.293  1.00  0.00     0.004 C 
ENDBRANCH   1  11
TORSDOF 4
ENDMDL
MODEL 9
REMARK VINA RESULT:    -4.032     13.503     14.372
REMARK INTER + INTRA:          -4.948
REMARK INTER:                  -4.828
REMARK INTRA:                  -0.120
REMARK UNBOUND:                -0.092
REMARK SMILES CC[C@@H](C)[C@@H]([NH3+])C(=O)[O-]
REMARK SMILES IDX 3 1 4 2 5 3 6 4 7 8 8 9 9 10 2 11 1 12
REMARK H PARENT 6 5 6 6 6 7
REMARK Flexibility Score: inf
ROOT
ATOM      1  C   UNL     1      -1.866  40.586  27.680  1.00  0.00     0.050 C 
ATOM      2  C   UNL     1      -1.647  40.695  29.200  1.00  0.00     0.014 C 
ENDROOT
BRANCH   1   3
ATOM      3  C   UNL     1      -1.560  41.942  26.971  1.00  0.00     0.230 C 
BRANCH   3   4
ATOM      4  N   UNL     1      -0.162  42.370  27.135  1.00  0.00    -0.350 N 
ATOM      5  H   UNL     1       0.475  41.568  26.918  1.00  0.00     0.345 HD
ATOM      6  H   UNL     1       0.027  42.692  28.110  1.00  0.00     0.345 HD
ATOM      7  H   UNL     1       0.063  43.140  26.466  1.00  0.00     0.345 HD
ENDBRANCH   3   4
BRANCH   3   8
ATOM      8  C   UNL     1      -1.937  41.887  25.510  1.00  0.00     0.099 C 
ATOM      9  O   UNL     1      -3.150  41.810  25.178  1.00  0.00    -0.544 OA
ATOM     10  O   UNL     1      -0.960  41.878  24.522  1.00  0.00    -0.544 OA
ENDBRANCH   3   8
ENDBRANCH   1   3
BRANCH   1  11
ATOM     11  C   UNL     1      -1.067  39.399  27.081  1.00  0.00     0.006 C 
ATOM     12  C   UNL     1      -0.269  38.632  28.137  1.00  0.00     0.004 C 
ENDBRANCH   1  11
TORSDOF 4
ENDMDL
