MODEL 1
REMARK VINA RESULT:    -7.717      0.000      0.000
REMARK INTER + INTRA:          -8.168
REMARK INTER:                  -8.168
REMARK INTRA:                   0.000
REMARK UNBOUND:                 0.000
REMARK SMILES O=c1ccc2cc(O)c(O)cc2o1
REMARK SMILES IDX 4 1 3 2 2 3 1 4 13 5 12 6 11 7 9 8 7 9 6 10 5 11 8 12 10 14
REMARK H PARENT 8 13 10 15
REMARK Flexibility Score: inf
ROOT
ATOM      1  C   UNL     1      34.044  24.890  16.992  1.00  0.00     0.019 A 
ATOM      2  C   UNL     1      33.570  25.420  15.793  1.00  0.00     0.094 A 
ATOM      3  C   UNL     1      33.029  26.711  15.789  1.00  0.00     0.336 A 
ATOM      4  O   UNL     1      32.596  27.208  14.717  1.00  0.00    -0.246 OA
ATOM      5  O   UNL     1      32.970  27.420  16.915  1.00  0.00    -0.423 OA
ATOM      6  C   UNL     1      33.412  26.951  18.079  1.00  0.00     0.142 A 
ATOM      7  C   UNL     1      33.323  27.742  19.230  1.00  0.00     0.098 A 
ATOM      8  C   UNL     1      33.787  27.252  20.459  1.00  0.00     0.161 A 
ATOM      9  C   UNL     1      34.341  25.966  20.539  1.00  0.00     0.158 A 
ATOM     10  C   UNL     1      34.433  25.169  19.389  1.00  0.00     0.062 A 
ATOM     11  C   UNL     1      33.969  25.657  18.158  1.00  0.00     0.022 A 
ENDROOT
BRANCH   9  12
ATOM     12  O   UNL     1      34.800  25.488  21.765  1.00  0.00    -0.504 OA
ATOM     13  H   UNL     1      34.842  24.496  21.965  1.00  0.00     0.293 HD
ENDBRANCH   9  12
BRANCH   8  14
ATOM     14  O   UNL     1      33.701  28.038  21.607  1.00  0.00    -0.504 OA
ATOM     15  H   UNL     1      32.847  28.525  21.853  1.00  0.00     0.293 HD
ENDBRANCH   8  14
TORSDOF 2
ENDMDL
MODEL 2
REMARK VINA RESULT:    -7.169      1.274      4.602
REMARK INTER + INTRA:          -7.588
REMARK INTER:                  -7.588
REMARK INTRA:                   0.000
REMARK UNBOUND:                 0.000
REMARK SMILES O=c1ccc2cc(O)c(O)cc2o1
REMARK SMILES IDX 4 1 3 2 2 3 1 4 13 5 12 6 11 7 9 8 7 9 6 10 5 11 8 12 10 14
REMARK H PARENT 8 13 10 15
REMARK Flexibility Score: inf
ROOT
ATOM      1  C   UNL     1      34.823  25.230  20.867  1.00  0.00     0.019 A 
ATOM      2  C   UNL     1      34.700  25.989  22.030  1.00  0.00     0.094 A 
ATOM      3  C   UNL     1      34.081  27.242  21.959  1.00  0.00     0.336 A 
ATOM      4  O   UNL     1      33.961  27.943  22.998  1.00  0.00    -0.246 OA
ATOM      5  O   UNL     1      33.618  27.700  20.799  1.00  0.00    -0.423 OA
ATOM      6  C   UNL     1      33.714  27.007  19.667  1.00  0.00     0.142 A 
ATOM      7  C   UNL     1      33.207  27.539  18.476  1.00  0.00     0.098 A 
ATOM      8  C   UNL     1      33.306  26.813  17.281  1.00  0.00     0.161 A 
ATOM      9  C   UNL     1      33.915  25.549  17.275  1.00  0.00     0.158 A 
ATOM     10  C   UNL     1      34.424  25.010  18.466  1.00  0.00     0.062 A 
ATOM     11  C   UNL     1      34.326  25.735  19.662  1.00  0.00     0.022 A 
ENDROOT
BRANCH   9  12
ATOM     12  O   UNL     1      34.009  24.835  16.082  1.00  0.00    -0.504 OA
ATOM     13  H   UNL     1      34.642  24.050  15.983  1.00  0.00     0.293 HD
ENDBRANCH   9  12
BRANCH   8  14
ATOM     14  O   UNL     1      32.803  27.341  16.093  1.00  0.00    -0.504 OA
ATOM     15  H   UNL     1      32.310  28.225  16.073  1.00  0.00     0.293 HD
ENDBRANCH   8  14
TORSDOF 2
ENDMDL
MODEL 3
REMARK VINA RESULT:    -7.103      1.337      5.200
REMARK INTER + INTRA:          -7.518
REMARK INTER:                  -7.518
REMARK INTRA:                   0.000
REMARK UNBOUND:                 0.000
REMARK SMILES O=c1ccc2cc(O)c(O)cc2o1
REMARK SMILES IDX 4 1 3 2 2 3 1 4 13 5 12 6 11 7 9 8 7 9 6 10 5 11 8 12 10 14
REMARK H PARENT 8 13 10 15
REMARK Flexibility Score: inf
ROOT
ATOM      1  C   UNL     1      33.633  27.948  21.031  1.00  0.00     0.019 A 
ATOM      2  C   UNL     1      34.090  27.504  22.271  1.00  0.00     0.094 A 
ATOM      3  C   UNL     1      34.650  26.225  22.369  1.00  0.00     0.336 A 
ATOM      4  O   UNL     1      35.069  25.806  23.479  1.00  0.00    -0.246 OA
ATOM      5  O   UNL     1      34.744  25.447  21.293  1.00  0.00    -0.423 OA
ATOM      6  C   UNL     1      34.321  25.833  20.092  1.00  0.00     0.142 A 
ATOM      7  C   UNL     1      34.446  24.971  18.997  1.00  0.00     0.098 A 
ATOM      8  C   UNL     1      34.001  25.373  17.729  1.00  0.00     0.161 A 
ATOM      9  C   UNL     1      33.428  26.641  17.555  1.00  0.00     0.158 A 
ATOM     10  C   UNL     1      33.300  27.509  18.649  1.00  0.00     0.062 A 
ATOM     11  C   UNL     1      33.745  27.109  19.918  1.00  0.00     0.022 A 
ENDROOT
BRANCH   9  12
ATOM     12  O   UNL     1      32.989  27.032  16.292  1.00  0.00    -0.504 OA
ATOM     13  H   UNL     1      33.013  26.398  15.502  1.00  0.00     0.293 HD
ENDBRANCH   9  12
BRANCH   8  14
ATOM     14  O   UNL     1      34.124  24.516  16.636  1.00  0.00    -0.504 OA
ATOM     15  H   UNL     1      34.187  23.512  16.754  1.00  0.00     0.293 HD
ENDBRANCH   8  14
TORSDOF 2
ENDMDL
MODEL 4
REMARK VINA RESULT:    -7.072      1.624      4.818
REMARK INTER + INTRA:          -7.486
REMARK INTER:                  -7.486
REMARK INTRA:                   0.000
REMARK UNBOUND:                 0.000
REMARK SMILES O=c1ccc2cc(O)c(O)cc2o1
REMARK SMILES IDX 4 1 3 2 2 3 1 4 13 5 12 6 11 7 9 8 7 9 6 10 5 11 8 12 10 14
REMARK H PARENT 8 13 10 15
REMARK Flexibility Score: inf
ROOT
ATOM      1  C   UNL     1      33.708  27.202  19.973  1.00  0.00     0.019 A 
ATOM      2  C   UNL     1      34.272  26.076  20.572  1.00  0.00     0.094 A 
ATOM      3  C   UNL     1      34.565  24.961  19.779  1.00  0.00     0.336 A 
ATOM      4  O   UNL     1      35.075  23.935  20.301  1.00  0.00    -0.246 OA
ATOM      5  O   UNL     1      34.309  24.978  18.473  1.00  0.00    -0.423 OA
ATOM      6  C   UNL     1      33.773  26.032  17.862  1.00  0.00     0.142 A 
ATOM      7  C   UNL     1      33.526  25.991  16.485  1.00  0.00     0.098 A 
ATOM      8  C   UNL     1      32.960  27.099  15.838  1.00  0.00     0.161 A 
ATOM      9  C   UNL     1      32.639  28.252  16.569  1.00  0.00     0.158 A 
ATOM     10  C   UNL     1      32.885  28.298  17.949  1.00  0.00     0.062 A 
ATOM     11  C   UNL     1      33.450  27.191  18.599  1.00  0.00     0.022 A 
ENDROOT
BRANCH   9  12
ATOM     12  O   UNL     1      32.078  29.348  15.917  1.00  0.00    -0.504 OA
ATOM     13  H   UNL     1      31.386  29.935  16.367  1.00  0.00     0.293 HD
ENDBRANCH   9  12
BRANCH   8  14
ATOM     14  O   UNL     1      32.713  27.061  14.466  1.00  0.00    -0.504 OA
ATOM     15  H   UNL     1      31.776  26.952  14.099  1.00  0.00     0.293 HD
ENDBRANCH   8  14
TORSDOF 2
ENDMDL
MODEL 5
REMARK VINA RESULT:    -7.053      1.161      1.535
REMARK INTER + INTRA:          -7.465
REMARK INTER:                  -7.465
REMARK INTRA:                   0.000
REMARK UNBOUND:                 0.000
REMARK SMILES O=c1ccc2cc(O)c(O)cc2o1
REMARK SMILES IDX 4 1 3 2 2 3 1 4 13 5 12 6 11 7 9 8 7 9 6 10 5 11 8 12 10 14
REMARK H PARENT 8 13 10 15
REMARK Flexibility Score: inf
ROOT
ATOM      1  C   UNL     1      33.369  25.916  16.017  1.00  0.00     0.019 A 
ATOM      2  C   UNL     1      32.861  27.050  15.383  1.00  0.00     0.094 A 
ATOM      3  C   UNL     1      32.622  28.202  16.142  1.00  0.00     0.336 A 
ATOM      4  O   UNL     1      32.164  29.235  15.589  1.00  0.00    -0.246 OA
ATOM      5  O   UNL     1      32.877  28.212  17.449  1.00  0.00    -0.423 OA
ATOM      6  C   UNL     1      33.362  27.152  18.091  1.00  0.00     0.142 A 
ATOM      7  C   UNL     1      33.611  27.222  19.466  1.00  0.00     0.098 A 
ATOM      8  C   UNL     1      34.122  26.108  20.148  1.00  0.00     0.161 A 
ATOM      9  C   UNL     1      34.385  24.919  19.452  1.00  0.00     0.158 A 
ATOM     10  C   UNL     1      34.138  24.843  18.073  1.00  0.00     0.062 A 
ATOM     11  C   UNL     1      33.627  25.956  17.390  1.00  0.00     0.022 A 
ENDROOT
BRANCH   9  12
ATOM     12  O   UNL     1      34.893  23.817  20.137  1.00  0.00    -0.504 OA
ATOM     13  H   UNL     1      35.521  23.926  20.926  1.00  0.00     0.293 HD
ENDBRANCH   9  12
BRANCH   8  14
ATOM     14  O   UNL     1      34.370  26.175  21.518  1.00  0.00    -0.504 OA
ATOM     15  H   UNL     1      34.214  27.026  22.044  1.00  0.00     0.293 HD
ENDBRANCH   8  14
TORSDOF 2
ENDMDL
MODEL 6
REMARK VINA RESULT:    -7.037      1.138      4.520
REMARK INTER + INTRA:          -7.449
REMARK INTER:                  -7.449
REMARK INTRA:                   0.000
REMARK UNBOUND:                 0.000
REMARK SMILES O=c1ccc2cc(O)c(O)cc2o1
REMARK SMILES IDX 4 1 3 2 2 3 1 4 13 5 12 6 11 7 9 8 7 9 6 10 5 11 8 12 10 14
REMARK H PARENT 8 13 10 15
REMARK Flexibility Score: inf
ROOT
ATOM      1  C   UNL     1      34.611  25.009  19.733  1.00  0.00     0.019 A 
ATOM      2  C   UNL     1      34.753  25.458  21.046  1.00  0.00     0.094 A 
ATOM      3  C   UNL     1      34.322  26.749  21.371  1.00  0.00     0.336 A 
ATOM      4  O   UNL     1      34.441  27.173  22.550  1.00  0.00    -0.246 OA
ATOM      5  O   UNL     1      33.784  27.534  20.440  1.00  0.00    -0.423 OA
ATOM      6  C   UNL     1      33.629  27.143  19.177  1.00  0.00     0.142 A 
ATOM      7  C   UNL     1      33.057  28.012  18.242  1.00  0.00     0.098 A 
ATOM      8  C   UNL     1      32.892  27.605  16.910  1.00  0.00     0.161 A 
ATOM      9  C   UNL     1      33.303  26.325  16.511  1.00  0.00     0.158 A 
ATOM     10  C   UNL     1      33.877  25.449  17.444  1.00  0.00     0.062 A 
ATOM     11  C   UNL     1      34.042  25.854  18.776  1.00  0.00     0.022 A 
ENDROOT
BRANCH   9  12
ATOM     12  O   UNL     1      33.135  25.929  15.185  1.00  0.00    -0.504 OA
ATOM     13  H   UNL     1      32.226  25.946  14.737  1.00  0.00     0.293 HD
ENDBRANCH   9  12
BRANCH   8  14
ATOM     14  O   UNL     1      32.322  28.469  15.976  1.00  0.00    -0.504 OA
ATOM     15  H   UNL     1      32.476  29.469  16.016  1.00  0.00     0.293 HD
ENDBRANCH   8  14
TORSDOF 2
ENDMDL
MODEL 7
REMARK VINA RESULT:    -7.037      1.370      2.048
REMARK INTER + INTRA:          -7.449
REMARK INTER:                  -7.449
REMARK INTRA:                   0.000
REMARK UNBOUND:                 0.000
REMARK SMILES O=c1ccc2cc(O)c(O)cc2o1
REMARK SMILES IDX 4 1 3 2 2 3 1 4 13 5 12 6 11 7 9 8 7 9 6 10 5 11 8 12 10 14
REMARK H PARENT 8 13 10 15
REMARK Flexibility Score: inf
ROOT
ATOM      1  C   UNL     1      34.379  25.170  18.955  1.00  0.00     0.019 A 
ATOM      2  C   UNL     1      33.884  25.723  17.775  1.00  0.00     0.094 A 
ATOM      3  C   UNL     1      33.341  27.012  17.806  1.00  0.00     0.336 A 
ATOM      4  O   UNL     1      32.889  27.530  16.751  1.00  0.00    -0.246 OA
ATOM      5  O   UNL     1      33.298  27.698  18.946  1.00  0.00    -0.423 OA
ATOM      6  C   UNL     1      33.759  27.207  20.094  1.00  0.00     0.142 A 
ATOM      7  C   UNL     1      33.687  27.974  21.261  1.00  0.00     0.098 A 
ATOM      8  C   UNL     1      34.172  27.461  22.473  1.00  0.00     0.161 A 
ATOM      9  C   UNL     1      34.730  26.175  22.518  1.00  0.00     0.158 A 
ATOM     10  C   UNL     1      34.805  25.401  21.351  1.00  0.00     0.062 A 
ATOM     11  C   UNL     1      34.321  25.913  20.138  1.00  0.00     0.022 A 
ENDROOT
BRANCH   9  12
ATOM     12  O   UNL     1      35.209  25.674  23.727  1.00  0.00    -0.504 OA
ATOM     13  H   UNL     1      34.737  25.861  24.604  1.00  0.00     0.293 HD
ENDBRANCH   9  12
BRANCH   8  14
ATOM     14  O   UNL     1      34.101  28.223  23.638  1.00  0.00    -0.504 OA
ATOM     15  H   UNL     1      33.322  28.140  24.280  1.00  0.00     0.293 HD
ENDBRANCH   8  14
TORSDOF 2
ENDMDL
MODEL 8
REMARK VINA RESULT:    -7.012      1.724      2.983
REMARK INTER + INTRA:          -7.422
REMARK INTER:                  -7.422
REMARK INTRA:                   0.000
REMARK UNBOUND:                 0.000
REMARK SMILES O=c1ccc2cc(O)c(O)cc2o1
REMARK SMILES IDX 4 1 3 2 2 3 1 4 13 5 12 6 11 7 9 8 7 9 6 10 5 11 8 12 10 14
REMARK H PARENT 8 13 10 15
REMARK Flexibility Score: inf
ROOT
ATOM      1  C   UNL     1      33.064  27.536  18.815  1.00  0.00     0.019 A 
ATOM      2  C   UNL     1      33.221  26.747  17.676  1.00  0.00     0.094 A 
ATOM      3  C   UNL     1      33.933  25.546  17.775  1.00  0.00     0.336 A 
ATOM      4  O   UNL     1      34.086  24.820  16.758  1.00  0.00    -0.246 OA
ATOM      5  O   UNL     1      34.452  25.165  18.940  1.00  0.00    -0.423 OA
ATOM      6  C   UNL     1      34.324  25.888  20.050  1.00  0.00     0.142 A 
ATOM      7  C   UNL     1      34.891  25.436  21.247  1.00  0.00     0.098 A 
ATOM      8  C   UNL     1      34.759  26.194  22.420  1.00  0.00     0.161 A 
ATOM      9  C   UNL     1      34.059  27.409  22.396  1.00  0.00     0.158 A 
ATOM     10  C   UNL     1      33.488  27.867  21.199  1.00  0.00     0.062 A 
ATOM     11  C   UNL     1      33.619  27.110  20.026  1.00  0.00     0.022 A 
ENDROOT
BRANCH   9  12
ATOM     12  O   UNL     1      33.933  28.155  23.566  1.00  0.00    -0.504 OA
ATOM     13  H   UNL     1      33.155  28.019  24.201  1.00  0.00     0.293 HD
ENDBRANCH   9  12
BRANCH   8  14
ATOM     14  O   UNL     1      35.323  25.747  23.614  1.00  0.00    -0.504 OA
ATOM     15  H   UNL     1      36.319  25.590  23.704  1.00  0.00     0.293 HD
ENDBRANCH   8  14
TORSDOF 2
ENDMDL
MODEL 9
REMARK VINA RESULT:    -6.855      2.222      3.031
REMARK INTER + INTRA:          -7.256
REMARK INTER:                  -7.256
REMARK INTRA:                   0.000
REMARK UNBOUND:                 0.000
REMARK SMILES O=c1ccc2cc(O)c(O)cc2o1
REMARK SMILES IDX 4 1 3 2 2 3 1 4 13 5 12 6 11 7 9 8 7 9 6 10 5 11 8 12 10 14
REMARK H PARENT 8 13 10 15
REMARK Flexibility Score: inf
ROOT
ATOM      1  C   UNL     1      32.871  26.294  18.192  1.00  0.00     0.019 A 
ATOM      2  C   UNL     1      32.897  25.091  17.487  1.00  0.00     0.094 A 
ATOM      3  C   UNL     1      33.661  24.029  17.985  1.00  0.00     0.336 A 
ATOM      4  O   UNL     1      33.696  22.935  17.364  1.00  0.00    -0.246 OA
ATOM      5  O   UNL     1      34.351  24.168  19.114  1.00  0.00    -0.423 OA
ATOM      6  C   UNL     1      34.353  25.298  19.817  1.00  0.00     0.142 A 
ATOM      7  C   UNL     1      35.099  25.385  20.998  1.00  0.00     0.098 A 
ATOM      8  C   UNL     1      35.105  26.574  21.742  1.00  0.00     0.161 A 
ATOM      9  C   UNL     1      34.363  27.681  21.303  1.00  0.00     0.158 A 
ATOM     10  C   UNL     1      33.613  27.599  20.121  1.00  0.00     0.062 A 
ATOM     11  C   UNL     1      33.606  26.411  19.375  1.00  0.00     0.022 A 
ENDROOT
BRANCH   9  12
ATOM     12  O   UNL     1      34.374  28.858  22.049  1.00  0.00    -0.504 OA
ATOM     13  H   UNL     1      33.515  29.310  22.339  1.00  0.00     0.293 HD
ENDBRANCH   9  12
BRANCH   8  14
ATOM     14  O   UNL     1      35.847  26.664  22.918  1.00  0.00    -0.504 OA
ATOM     15  H   UNL     1      35.470  27.100  23.751  1.00  0.00     0.293 HD
ENDBRANCH   8  14
TORSDOF 2
ENDMDL
