MODEL 1
REMARK VINA RESULT:    -9.235      0.000      0.000
REMARK INTER + INTRA:         -11.447
REMARK INTER:                 -11.394
REMARK INTRA:                  -0.053
REMARK UNBOUND:                -0.053
REMARK SMILES Oc1cc(O)c2cc(O)c(-c3cc(O)c(O)c(O)c3)[o+]c2c1
REMARK SMILES IDX 10 1 20 2 21 3 22 4 2 5 3 6 4 7 6 8 7 9 8 10 11 11 12 12
REMARK SMILES IDX 13 13 19 14 15 15 17 16 14 17 16 19 18 21 9 23 1 25 5 27
REMARK H PARENT 14 18 16 20 18 22 9 24 1 26 5 28
REMARK Flexibility Score: inf
ROOT
ATOM      1  C   UNL     1      57.008  -0.901  15.584  1.00  0.00     0.402 A 
ATOM      2  O   UNL     1      57.294  -0.456  16.804  1.00  0.00    -0.202 OA
ATOM      3  C   UNL     1      57.387   0.836  17.106  1.00  0.00     0.368 A 
ATOM      4  C   UNL     1      57.689   1.208  18.418  1.00  0.00     0.162 A 
ATOM      5  C   UNL     1      57.790   2.554  18.765  1.00  0.00     0.128 A 
ATOM      6  C   UNL     1      57.587   3.540  17.792  1.00  0.00     0.093 A 
ATOM      7  C   UNL     1      57.284   3.194  16.470  1.00  0.00     0.136 A 
ATOM      8  C   UNL     1      57.182   1.825  16.114  1.00  0.00     0.125 A 
ATOM      9  C   UNL     1      56.894   1.385  14.812  1.00  0.00     0.078 A 
ATOM     10  C   UNL     1      56.814   0.016  14.535  1.00  0.00     0.223 A 
ENDROOT
BRANCH   1  11
ATOM     11  C   UNL     1      56.922  -2.365  15.376  1.00  0.00     0.091 A 
ATOM     12  C   UNL     1      57.958  -3.224  15.781  1.00  0.00     0.068 A 
ATOM     13  C   UNL     1      57.869  -4.604  15.555  1.00  0.00     0.162 A 
ATOM     14  C   UNL     1      55.810  -2.904  14.711  1.00  0.00     0.068 A 
ATOM     15  C   UNL     1      56.741  -5.137  14.909  1.00  0.00     0.200 A 
ATOM     16  C   UNL     1      55.711  -4.281  14.484  1.00  0.00     0.162 A 
BRANCH  13  17
ATOM     17  O   UNL     1      58.900  -5.447  15.967  1.00  0.00    -0.504 OA
ATOM     18  H   UNL     1      58.734  -6.218  16.605  1.00  0.00     0.293 HD
ENDBRANCH  13  17
BRANCH  15  19
ATOM     19  O   UNL     1      56.634  -6.510  14.681  1.00  0.00    -0.502 OA
ATOM     20  H   UNL     1      56.405  -6.891  13.771  1.00  0.00     0.293 HD
ENDBRANCH  15  19
BRANCH  16  21
ATOM     21  O   UNL     1      54.584  -4.778  13.832  1.00  0.00    -0.504 OA
ATOM     22  H   UNL     1      54.162  -4.302  13.044  1.00  0.00     0.293 HD
ENDBRANCH  16  21
ENDBRANCH   1  11
BRANCH  10  23
ATOM     23  O   UNL     1      56.578  -0.421  13.232  1.00  0.00    -0.500 OA
ATOM     24  H   UNL     1      55.856  -1.099  13.020  1.00  0.00     0.294 HD
ENDBRANCH  10  23
BRANCH   5  25
ATOM     25  O   UNL     1      58.094   2.905  20.078  1.00  0.00    -0.507 OA
ATOM     26  H   UNL     1      57.939   3.845  20.426  1.00  0.00     0.293 HD
ENDBRANCH   5  25
BRANCH   7  27
ATOM     27  O   UNL     1      57.092   4.238  15.560  1.00  0.00    -0.507 OA
ATOM     28  H   UNL     1      57.058   4.121  14.557  1.00  0.00     0.293 HD
ENDBRANCH   7  27
TORSDOF 7
ENDMDL
MODEL 2
REMARK VINA RESULT:    -8.786      1.153      3.224
REMARK INTER + INTRA:         -10.893
REMARK INTER:                 -10.884
REMARK INTRA:                  -0.009
REMARK UNBOUND:                -0.053
REMARK SMILES Oc1cc(O)c2cc(O)c(-c3cc(O)c(O)c(O)c3)[o+]c2c1
REMARK SMILES IDX 10 1 20 2 21 3 22 4 2 5 3 6 4 7 6 8 7 9 8 10 11 11 12 12
REMARK SMILES IDX 13 13 19 14 15 15 17 16 14 17 16 19 18 21 9 23 1 25 5 27
REMARK H PARENT 14 18 16 20 18 22 9 24 1 26 5 28
REMARK Flexibility Score: inf
ROOT
ATOM      1  C   UNL     1      57.805  -1.229  16.814  1.00  0.00     0.402 A 
ATOM      2  O   UNL     1      57.544  -0.143  16.091  1.00  0.00    -0.202 OA
ATOM      3  C   UNL     1      57.550   1.087  16.594  1.00  0.00     0.368 A 
ATOM      4  C   UNL     1      57.268   2.168  15.754  1.00  0.00     0.162 A 
ATOM      5  C   UNL     1      57.270   3.470  16.253  1.00  0.00     0.128 A 
ATOM      6  C   UNL     1      57.558   3.697  17.604  1.00  0.00     0.093 A 
ATOM      7  C   UNL     1      57.844   2.632  18.467  1.00  0.00     0.136 A 
ATOM      8  C   UNL     1      57.841   1.306  17.963  1.00  0.00     0.125 A 
ATOM      9  C   UNL     1      58.104   0.177  18.755  1.00  0.00     0.078 A 
ATOM     10  C   UNL     1      58.078  -1.100  18.188  1.00  0.00     0.223 A 
ENDROOT
BRANCH   1  11
ATOM     11  C   UNL     1      57.777  -2.544  16.135  1.00  0.00     0.091 A 
ATOM     12  C   UNL     1      56.700  -2.922  15.314  1.00  0.00     0.068 A 
ATOM     13  C   UNL     1      56.681  -4.180  14.698  1.00  0.00     0.162 A 
ATOM     14  C   UNL     1      58.818  -3.459  16.358  1.00  0.00     0.068 A 
ATOM     15  C   UNL     1      57.739  -5.080  14.909  1.00  0.00     0.200 A 
ATOM     16  C   UNL     1      58.808  -4.716  15.746  1.00  0.00     0.162 A 
BRANCH  13  17
ATOM     17  O   UNL     1      55.611  -4.542  13.881  1.00  0.00    -0.504 OA
ATOM     18  H   UNL     1      55.557  -5.459  13.450  1.00  0.00     0.293 HD
ENDBRANCH  13  17
BRANCH  15  19
ATOM     19  O   UNL     1      57.738  -6.336  14.300  1.00  0.00    -0.502 OA
ATOM     20  H   UNL     1      57.690  -7.196  14.833  1.00  0.00     0.293 HD
ENDBRANCH  15  19
BRANCH  16  21
ATOM     21  O   UNL     1      59.868  -5.590  15.982  1.00  0.00    -0.504 OA
ATOM     22  H   UNL     1      59.727  -6.521  16.355  1.00  0.00     0.293 HD
ENDBRANCH  16  21
ENDBRANCH   1  11
BRANCH  10  23
ATOM     23  O   UNL     1      58.290  -2.225  18.986  1.00  0.00    -0.500 OA
ATOM     24  H   UNL     1      59.152  -2.754  18.943  1.00  0.00     0.294 HD
ENDBRANCH  10  23
BRANCH   5  25
ATOM     25  O   UNL     1      56.984   4.533  15.400  1.00  0.00    -0.507 OA
ATOM     26  H   UNL     1      56.032   4.844  15.240  1.00  0.00     0.293 HD
ENDBRANCH   5  25
BRANCH   7  27
ATOM     27  O   UNL     1      58.125   2.943  19.800  1.00  0.00    -0.507 OA
ATOM     28  H   UNL     1      58.654   2.350  20.424  1.00  0.00     0.293 HD
ENDBRANCH   7  27
TORSDOF 7
ENDMDL
MODEL 3
REMARK VINA RESULT:    -8.070      1.110      7.277
REMARK INTER + INTRA:         -10.011
REMARK INTER:                  -9.861
REMARK INTRA:                  -0.150
REMARK UNBOUND:                -0.053
REMARK SMILES Oc1cc(O)c2cc(O)c(-c3cc(O)c(O)c(O)c3)[o+]c2c1
REMARK SMILES IDX 10 1 20 2 21 3 22 4 2 5 3 6 4 7 6 8 7 9 8 10 11 11 12 12
REMARK SMILES IDX 13 13 19 14 15 15 17 16 14 17 16 19 18 21 9 23 1 25 5 27
REMARK H PARENT 14 18 16 20 18 22 9 24 1 26 5 28
REMARK Flexibility Score: inf
ROOT
ATOM      1  C   UNL     1      57.733  -0.860  16.731  1.00  0.00     0.402 A 
ATOM      2  O   UNL     1      56.732  -1.352  16.008  1.00  0.00    -0.202 OA
ATOM      3  C   UNL     1      56.654  -2.627  15.641  1.00  0.00     0.368 A 
ATOM      4  C   UNL     1      55.560  -3.052  14.883  1.00  0.00     0.162 A 
ATOM      5  C   UNL     1      55.450  -4.384  14.487  1.00  0.00     0.128 A 
ATOM      6  C   UNL     1      56.441  -5.303  14.851  1.00  0.00     0.093 A 
ATOM      7  C   UNL     1      57.548  -4.903  15.610  1.00  0.00     0.136 A 
ATOM      8  C   UNL     1      57.664  -3.548  16.013  1.00  0.00     0.125 A 
ATOM      9  C   UNL     1      58.743  -3.054  16.764  1.00  0.00     0.078 A 
ATOM     10  C   UNL     1      58.790  -1.703  17.120  1.00  0.00     0.223 A 
ENDROOT
BRANCH   1  11
ATOM     11  C   UNL     1      57.701   0.578  17.085  1.00  0.00     0.091 A 
ATOM     12  C   UNL     1      57.802   1.005  18.420  1.00  0.00     0.068 A 
ATOM     13  C   UNL     1      57.746   2.369  18.737  1.00  0.00     0.162 A 
ATOM     14  C   UNL     1      57.510   1.533  16.075  1.00  0.00     0.068 A 
ATOM     15  C   UNL     1      57.577   3.320  17.717  1.00  0.00     0.200 A 
ATOM     16  C   UNL     1      57.455   2.896  16.383  1.00  0.00     0.162 A 
BRANCH  13  17
ATOM     17  O   UNL     1      57.853   2.783  20.065  1.00  0.00    -0.504 OA
ATOM     18  H   UNL     1      58.283   3.667  20.313  1.00  0.00     0.293 HD
ENDBRANCH  13  17
BRANCH  15  19
ATOM     19  O   UNL     1      57.524   4.683  18.015  1.00  0.00    -0.502 OA
ATOM     20  H   UNL     1      58.347   5.272  17.998  1.00  0.00     0.293 HD
ENDBRANCH  15  19
BRANCH  16  21
ATOM     21  O   UNL     1      57.278   3.815  15.348  1.00  0.00    -0.504 OA
ATOM     22  H   UNL     1      56.436   4.371  15.259  1.00  0.00     0.293 HD
ENDBRANCH  16  21
ENDBRANCH   1  11
BRANCH  10  23
ATOM     23  O   UNL     1      59.887  -1.203  17.823  1.00  0.00    -0.500 OA
ATOM     24  H   UNL     1      60.407  -1.775  18.477  1.00  0.00     0.294 HD
ENDBRANCH  10  23
BRANCH   5  25
ATOM     25  O   UNL     1      54.352  -4.788  13.731  1.00  0.00    -0.507 OA
ATOM     26  H   UNL     1      54.322  -4.655  12.726  1.00  0.00     0.293 HD
ENDBRANCH   5  25
BRANCH   7  27
ATOM     27  O   UNL     1      58.492  -5.881  15.935  1.00  0.00    -0.507 OA
ATOM     28  H   UNL     1      58.644  -6.238  16.868  1.00  0.00     0.293 HD
ENDBRANCH   7  27
TORSDOF 7
ENDMDL
MODEL 4
REMARK VINA RESULT:    -7.882      1.113      7.083
REMARK INTER + INTRA:          -9.778
REMARK INTER:                  -9.607
REMARK INTRA:                  -0.171
REMARK UNBOUND:                -0.053
REMARK SMILES Oc1cc(O)c2cc(O)c(-c3cc(O)c(O)c(O)c3)[o+]c2c1
REMARK SMILES IDX 10 1 20 2 21 3 22 4 2 5 3 6 4 7 6 8 7 9 8 10 11 11 12 12
REMARK SMILES IDX 13 13 19 14 15 15 17 16 14 17 16 19 18 21 9 23 1 25 5 27
REMARK H PARENT 14 18 16 20 18 22 9 24 1 26 5 28
REMARK Flexibility Score: inf
ROOT
ATOM      1  C   UNL     1      56.972  -0.606  15.943  1.00  0.00     0.402 A 
ATOM      2  O   UNL     1      57.929  -1.495  16.196  1.00  0.00    -0.202 OA
ATOM      3  C   UNL     1      57.891  -2.751  15.764  1.00  0.00     0.368 A 
ATOM      4  C   UNL     1      58.946  -3.611  16.078  1.00  0.00     0.162 A 
ATOM      5  C   UNL     1      58.935  -4.933  15.635  1.00  0.00     0.128 A 
ATOM      6  C   UNL     1      57.862  -5.402  14.869  1.00  0.00     0.093 A 
ATOM      7  C   UNL     1      56.792  -4.560  14.540  1.00  0.00     0.136 A 
ATOM      8  C   UNL     1      56.799  -3.215  14.991  1.00  0.00     0.125 A 
ATOM      9  C   UNL     1      55.765  -2.304  14.720  1.00  0.00     0.078 A 
ATOM     10  C   UNL     1      55.840  -0.994  15.203  1.00  0.00     0.223 A 
ENDROOT
BRANCH   1  11
ATOM     11  C   UNL     1      57.135   0.767  16.473  1.00  0.00     0.091 A 
ATOM     12  C   UNL     1      57.099   1.888  15.625  1.00  0.00     0.068 A 
ATOM     13  C   UNL     1      57.278   3.178  16.142  1.00  0.00     0.162 A 
ATOM     14  C   UNL     1      57.385   0.955  17.841  1.00  0.00     0.068 A 
ATOM     15  C   UNL     1      57.505   3.357  17.517  1.00  0.00     0.200 A 
ATOM     16  C   UNL     1      57.562   2.239  18.365  1.00  0.00     0.162 A 
BRANCH  13  17
ATOM     17  O   UNL     1      57.235   4.283  15.293  1.00  0.00    -0.504 OA
ATOM     18  H   UNL     1      57.196   5.230  15.654  1.00  0.00     0.293 HD
ENDBRANCH  13  17
BRANCH  15  19
ATOM     19  O   UNL     1      57.680   4.636  18.049  1.00  0.00    -0.502 OA
ATOM     20  H   UNL     1      57.054   5.022  18.745  1.00  0.00     0.293 HD
ENDBRANCH  15  19
BRANCH  16  21
ATOM     21  O   UNL     1      57.795   2.383  19.733  1.00  0.00    -0.504 OA
ATOM     22  H   UNL     1      58.668   2.105  20.163  1.00  0.00     0.293 HD
ENDBRANCH  16  21
ENDBRANCH   1  11
BRANCH  10  23
ATOM     23  O   UNL     1      54.790  -0.104  14.977  1.00  0.00    -0.500 OA
ATOM     24  H   UNL     1      53.915  -0.173  15.481  1.00  0.00     0.294 HD
ENDBRANCH  10  23
BRANCH   5  25
ATOM     25  O   UNL     1      59.996  -5.775  15.961  1.00  0.00    -0.507 OA
ATOM     26  H   UNL     1      60.690  -6.045  15.272  1.00  0.00     0.293 HD
ENDBRANCH   5  25
BRANCH   7  27
ATOM     27  O   UNL     1      55.760  -5.103  13.769  1.00  0.00    -0.507 OA
ATOM     28  H   UNL     1      54.812  -5.230  14.094  1.00  0.00     0.293 HD
ENDBRANCH   7  27
TORSDOF 7
ENDMDL
MODEL 5
REMARK VINA RESULT:    -7.757      7.752      9.034
REMARK INTER + INTRA:          -9.624
REMARK INTER:                  -9.254
REMARK INTRA:                  -0.370
REMARK UNBOUND:                -0.053
REMARK SMILES Oc1cc(O)c2cc(O)c(-c3cc(O)c(O)c(O)c3)[o+]c2c1
REMARK SMILES IDX 10 1 20 2 21 3 22 4 2 5 3 6 4 7 6 8 7 9 8 10 11 11 12 12
REMARK SMILES IDX 13 13 19 14 15 15 17 16 14 17 16 19 18 21 9 23 1 25 5 27
REMARK H PARENT 14 18 16 20 18 22 9 24 1 26 5 28
REMARK Flexibility Score: inf
ROOT
ATOM      1  C   UNL     1      53.824  -7.024  20.946  1.00  0.00     0.402 A 
ATOM      2  O   UNL     1      53.313  -5.815  21.161  1.00  0.00    -0.202 OA
ATOM      3  C   UNL     1      53.635  -5.061  22.207  1.00  0.00     0.368 A 
ATOM      4  C   UNL     1      53.047  -3.801  22.346  1.00  0.00     0.162 A 
ATOM      5  C   UNL     1      53.369  -2.987  23.431  1.00  0.00     0.128 A 
ATOM      6  C   UNL     1      54.288  -3.434  24.388  1.00  0.00     0.093 A 
ATOM      7  C   UNL     1      54.892  -4.692  24.272  1.00  0.00     0.136 A 
ATOM      8  C   UNL     1      54.565  -5.523  23.170  1.00  0.00     0.125 A 
ATOM      9  C   UNL     1      55.110  -6.803  22.979  1.00  0.00     0.078 A 
ATOM     10  C   UNL     1      54.736  -7.567  21.870  1.00  0.00     0.223 A 
ENDROOT
BRANCH   1  11
ATOM     11  C   UNL     1      53.392  -7.762  19.738  1.00  0.00     0.091 A 
ATOM     12  C   UNL     1      52.219  -8.536  19.733  1.00  0.00     0.068 A 
ATOM     13  C   UNL     1      51.838  -9.246  18.587  1.00  0.00     0.162 A 
ATOM     14  C   UNL     1      54.196  -7.735  18.588  1.00  0.00     0.068 A 
ATOM     15  C   UNL     1      52.638  -9.194  17.433  1.00  0.00     0.200 A 
ATOM     16  C   UNL     1      53.822  -8.439  17.438  1.00  0.00     0.162 A 
BRANCH  13  17
ATOM     17  O   UNL     1      50.669 -10.006  18.592  1.00  0.00    -0.504 OA
ATOM     18  H   UNL     1      50.016  -9.982  17.816  1.00  0.00     0.293 HD
ENDBRANCH  13  17
BRANCH  15  19
ATOM     19  O   UNL     1      52.270  -9.892  16.280  1.00  0.00    -0.502 OA
ATOM     20  H   UNL     1      51.822  -9.439  15.494  1.00  0.00     0.293 HD
ENDBRANCH  15  19
BRANCH  16  21
ATOM     21  O   UNL     1      54.642  -8.375  16.312  1.00  0.00    -0.504 OA
ATOM     22  H   UNL     1      55.474  -8.944  16.218  1.00  0.00     0.293 HD
ENDBRANCH  16  21
ENDBRANCH   1  11
BRANCH  10  23
ATOM     23  O   UNL     1      55.239  -8.858  21.707  1.00  0.00    -0.500 OA
ATOM     24  H   UNL     1      56.213  -9.076  21.879  1.00  0.00     0.294 HD
ENDBRANCH  10  23
BRANCH   5  25
ATOM     25  O   UNL     1      52.771  -1.735  23.553  1.00  0.00    -0.507 OA
ATOM     26  H   UNL     1      53.295  -0.925  23.865  1.00  0.00     0.293 HD
ENDBRANCH   5  25
BRANCH   7  27
ATOM     27  O   UNL     1      55.802  -5.063  25.267  1.00  0.00    -0.507 OA
ATOM     28  H   UNL     1      55.813  -5.965  25.721  1.00  0.00     0.293 HD
ENDBRANCH   7  27
TORSDOF 7
ENDMDL
MODEL 6
REMARK VINA RESULT:    -7.701      7.776      8.972
REMARK INTER + INTRA:          -9.555
REMARK INTER:                  -9.171
REMARK INTRA:                  -0.385
REMARK UNBOUND:                -0.053
REMARK SMILES Oc1cc(O)c2cc(O)c(-c3cc(O)c(O)c(O)c3)[o+]c2c1
REMARK SMILES IDX 10 1 20 2 21 3 22 4 2 5 3 6 4 7 6 8 7 9 8 10 11 11 12 12
REMARK SMILES IDX 13 13 19 14 15 15 17 16 14 17 16 19 18 21 9 23 1 25 5 27
REMARK H PARENT 14 18 16 20 18 22 9 24 1 26 5 28
REMARK Flexibility Score: inf
ROOT
ATOM      1  C   UNL     1      53.826  -7.009  21.013  1.00  0.00     0.402 A 
ATOM      2  O   UNL     1      53.295  -5.803  21.193  1.00  0.00    -0.202 OA
ATOM      3  C   UNL     1      53.599  -5.017  22.221  1.00  0.00     0.368 A 
ATOM      4  C   UNL     1      52.992  -3.763  22.323  1.00  0.00     0.162 A 
ATOM      5  C   UNL     1      53.294  -2.917  23.388  1.00  0.00     0.128 A 
ATOM      6  C   UNL     1      54.213  -3.324  24.362  1.00  0.00     0.093 A 
ATOM      7  C   UNL     1      54.836  -4.576  24.284  1.00  0.00     0.136 A 
ATOM      8  C   UNL     1      54.529  -5.441  23.202  1.00  0.00     0.125 A 
ATOM      9  C   UNL     1      55.094  -6.717  23.048  1.00  0.00     0.078 A 
ATOM     10  C   UNL     1      54.739  -7.515  21.956  1.00  0.00     0.223 A 
ENDROOT
BRANCH   1  11
ATOM     11  C   UNL     1      53.413  -7.785  19.821  1.00  0.00     0.091 A 
ATOM     12  C   UNL     1      54.166  -7.759  18.634  1.00  0.00     0.068 A 
ATOM     13  C   UNL     1      53.747  -8.482  17.509  1.00  0.00     0.162 A 
ATOM     14  C   UNL     1      52.217  -8.517  19.854  1.00  0.00     0.068 A 
ATOM     15  C   UNL     1      52.560  -9.231  17.559  1.00  0.00     0.200 A 
ATOM     16  C   UNL     1      51.793  -9.243  18.736  1.00  0.00     0.162 A 
BRANCH  13  17
ATOM     17  O   UNL     1      54.505  -8.454  16.339  1.00  0.00    -0.504 OA
ATOM     18  H   UNL     1      55.334  -7.875  16.256  1.00  0.00     0.293 HD
ENDBRANCH  13  17
BRANCH  15  19
ATOM     19  O   UNL     1      52.131  -9.960  16.449  1.00  0.00    -0.502 OA
ATOM     20  H   UNL     1      52.761 -10.532  15.901  1.00  0.00     0.293 HD
ENDBRANCH  15  19
BRANCH  16  21
ATOM     21  O   UNL     1      50.605  -9.969  18.815  1.00  0.00    -0.504 OA
ATOM     22  H   UNL     1      50.525 -10.814  19.366  1.00  0.00     0.293 HD
ENDBRANCH  16  21
ENDBRANCH   1  11
BRANCH  10  23
ATOM     23  O   UNL     1      55.262  -8.802  21.831  1.00  0.00    -0.500 OA
ATOM     24  H   UNL     1      55.262  -9.455  22.605  1.00  0.00     0.294 HD
ENDBRANCH  10  23
BRANCH   5  25
ATOM     25  O   UNL     1      52.676  -1.671  23.473  1.00  0.00    -0.507 OA
ATOM     26  H   UNL     1      52.089  -1.319  22.725  1.00  0.00     0.293 HD
ENDBRANCH   5  25
BRANCH   7  27
ATOM     27  O   UNL     1      55.743  -4.907  25.294  1.00  0.00    -0.507 OA
ATOM     28  H   UNL     1      55.819  -5.823  25.714  1.00  0.00     0.293 HD
ENDBRANCH   7  27
TORSDOF 7
ENDMDL
MODEL 7
REMARK VINA RESULT:    -7.297      7.820      8.835
REMARK INTER + INTRA:          -9.057
REMARK INTER:                  -8.709
REMARK INTRA:                  -0.347
REMARK UNBOUND:                -0.053
REMARK SMILES Oc1cc(O)c2cc(O)c(-c3cc(O)c(O)c(O)c3)[o+]c2c1
REMARK SMILES IDX 10 1 20 2 21 3 22 4 2 5 3 6 4 7 6 8 7 9 8 10 11 11 12 12
REMARK SMILES IDX 13 13 19 14 15 15 17 16 14 17 16 19 18 21 9 23 1 25 5 27
REMARK H PARENT 14 18 16 20 18 22 9 24 1 26 5 28
REMARK Flexibility Score: inf
ROOT
ATOM      1  C   UNL     1      52.979  -6.341  20.702  1.00  0.00     0.402 A 
ATOM      2  O   UNL     1      53.717  -6.599  21.778  1.00  0.00    -0.202 OA
ATOM      3  C   UNL     1      53.945  -5.708  22.737  1.00  0.00     0.368 A 
ATOM      4  C   UNL     1      54.731  -6.074  23.833  1.00  0.00     0.162 A 
ATOM      5  C   UNL     1      54.985  -5.161  24.856  1.00  0.00     0.128 A 
ATOM      6  C   UNL     1      54.448  -3.870  24.786  1.00  0.00     0.093 A 
ATOM      7  C   UNL     1      53.657  -3.478  23.699  1.00  0.00     0.136 A 
ATOM      8  C   UNL     1      53.399  -4.404  22.655  1.00  0.00     0.125 A 
ATOM      9  C   UNL     1      52.628  -4.096  21.523  1.00  0.00     0.078 A 
ATOM     10  C   UNL     1      52.421  -5.061  20.532  1.00  0.00     0.223 A 
ENDROOT
BRANCH   1  11
ATOM     11  C   UNL     1      52.790  -7.422  19.707  1.00  0.00     0.091 A 
ATOM     12  C   UNL     1      53.538  -7.461  18.518  1.00  0.00     0.068 A 
ATOM     13  C   UNL     1      53.329  -8.479  17.578  1.00  0.00     0.162 A 
ATOM     14  C   UNL     1      51.806  -8.398  19.927  1.00  0.00     0.068 A 
ATOM     15  C   UNL     1      52.357  -9.465  17.817  1.00  0.00     0.200 A 
ATOM     16  C   UNL     1      51.593  -9.419  18.995  1.00  0.00     0.162 A 
BRANCH  13  17
ATOM     17  O   UNL     1      54.080  -8.511  16.404  1.00  0.00    -0.504 OA
ATOM     18  H   UNL     1      53.681  -8.250  15.509  1.00  0.00     0.293 HD
ENDBRANCH  13  17
BRANCH  15  19
ATOM     19  O   UNL     1      52.139 -10.489  16.894  1.00  0.00    -0.502 OA
ATOM     20  H   UNL     1      51.778 -11.395  17.166  1.00  0.00     0.293 HD
ENDBRANCH  15  19
BRANCH  16  21
ATOM     21  O   UNL     1      50.615 -10.378  19.257  1.00  0.00    -0.504 OA
ATOM     22  H   UNL     1      50.364 -11.091  18.584  1.00  0.00     0.293 HD
ENDBRANCH  16  21
ENDBRANCH   1  11
BRANCH  10  23
ATOM     23  O   UNL     1      51.698  -4.739  19.382  1.00  0.00    -0.500 OA
ATOM     24  H   UNL     1      50.901  -4.116  19.412  1.00  0.00     0.294 HD
ENDBRANCH  10  23
BRANCH   5  25
ATOM     25  O   UNL     1      55.772  -5.544  25.939  1.00  0.00    -0.507 OA
ATOM     26  H   UNL     1      55.837  -6.513  26.231  1.00  0.00     0.293 HD
ENDBRANCH   5  25
BRANCH   7  27
ATOM     27  O   UNL     1      53.156  -2.174  23.706  1.00  0.00    -0.507 OA
ATOM     28  H   UNL     1      52.269  -1.906  24.110  1.00  0.00     0.293 HD
ENDBRANCH   7  27
TORSDOF 7
ENDMDL
MODEL 8
REMARK VINA RESULT:    -6.979      9.027     12.093
REMARK INTER + INTRA:          -8.664
REMARK INTER:                  -8.332
REMARK INTRA:                  -0.332
REMARK UNBOUND:                -0.053
REMARK SMILES Oc1cc(O)c2cc(O)c(-c3cc(O)c(O)c(O)c3)[o+]c2c1
REMARK SMILES IDX 10 1 20 2 21 3 22 4 2 5 3 6 4 7 6 8 7 9 8 10 11 11 12 12
REMARK SMILES IDX 13 13 19 14 15 15 17 16 14 17 16 19 18 21 9 23 1 25 5 27
REMARK H PARENT 14 18 16 20 18 22 9 24 1 26 5 28
REMARK Flexibility Score: inf
ROOT
ATOM      1  C   UNL     1      61.038  -4.756   8.163  1.00  0.00     0.402 A 
ATOM      2  O   UNL     1      60.876  -5.750   7.295  1.00  0.00    -0.202 OA
ATOM      3  C   UNL     1      61.158  -7.018   7.577  1.00  0.00     0.368 A 
ATOM      4  C   UNL     1      60.951  -7.995   6.600  1.00  0.00     0.162 A 
ATOM      5  C   UNL     1      61.235  -9.334   6.869  1.00  0.00     0.128 A 
ATOM      6  C   UNL     1      61.730  -9.702   8.125  1.00  0.00     0.093 A 
ATOM      7  C   UNL     1      61.947  -8.742   9.122  1.00  0.00     0.136 A 
ATOM      8  C   UNL     1      61.661  -7.379   8.851  1.00  0.00     0.125 A 
ATOM      9  C   UNL     1      61.858  -6.348   9.783  1.00  0.00     0.078 A 
ATOM     10  C   UNL     1      61.557  -5.026   9.442  1.00  0.00     0.223 A 
ENDROOT
BRANCH   1  11
ATOM     11  C   UNL     1      60.678  -3.385   7.732  1.00  0.00     0.091 A 
ATOM     12  C   UNL     1      61.662  -2.451   7.365  1.00  0.00     0.068 A 
ATOM     13  C   UNL     1      61.303  -1.152   6.982  1.00  0.00     0.162 A 
ATOM     14  C   UNL     1      59.332  -2.990   7.742  1.00  0.00     0.068 A 
ATOM     15  C   UNL     1      59.950  -0.772   6.974  1.00  0.00     0.200 A 
ATOM     16  C   UNL     1      58.964  -1.696   7.359  1.00  0.00     0.162 A 
BRANCH  13  17
ATOM     17  O   UNL     1      62.287  -0.235   6.615  1.00  0.00    -0.504 OA
ATOM     18  H   UNL     1      63.034  -0.484   5.976  1.00  0.00     0.293 HD
ENDBRANCH  13  17
BRANCH  15  19
ATOM     19  O   UNL     1      59.575   0.517   6.590  1.00  0.00    -0.502 OA
ATOM     20  H   UNL     1      59.100   1.152   7.220  1.00  0.00     0.293 HD
ENDBRANCH  15  19
BRANCH  16  21
ATOM     21  O   UNL     1      57.614  -1.347   7.370  1.00  0.00    -0.504 OA
ATOM     22  H   UNL     1      57.046  -1.416   8.205  1.00  0.00     0.293 HD
ENDBRANCH  16  21
ENDBRANCH   1  11
BRANCH  10  23
ATOM     23  O   UNL     1      61.801  -3.996  10.351  1.00  0.00    -0.500 OA
ATOM     24  H   UNL     1      62.206  -4.174  11.262  1.00  0.00     0.294 HD
ENDBRANCH  10  23
BRANCH   5  25
ATOM     25  O   UNL     1      61.023 -10.293   5.881  1.00  0.00    -0.507 OA
ATOM     26  H   UNL     1      60.212 -10.257   5.272  1.00  0.00     0.293 HD
ENDBRANCH   5  25
BRANCH   7  27
ATOM     27  O   UNL     1      62.440  -9.191  10.350  1.00  0.00    -0.507 OA
ATOM     28  H   UNL     1      63.382  -9.523  10.499  1.00  0.00     0.293 HD
ENDBRANCH   7  27
TORSDOF 7
ENDMDL
MODEL 9
REMARK VINA RESULT:    -6.692      7.811     11.009
REMARK INTER + INTRA:          -8.310
REMARK INTER:                  -7.942
REMARK INTRA:                  -0.368
REMARK UNBOUND:                -0.053
REMARK SMILES Oc1cc(O)c2cc(O)c(-c3cc(O)c(O)c(O)c3)[o+]c2c1
REMARK SMILES IDX 10 1 20 2 21 3 22 4 2 5 3 6 4 7 6 8 7 9 8 10 11 11 12 12
REMARK SMILES IDX 13 13 19 14 15 15 17 16 14 17 16 19 18 21 9 23 1 25 5 27
REMARK H PARENT 14 18 16 20 18 22 9 24 1 26 5 28
REMARK Flexibility Score: inf
ROOT
ATOM      1  C   UNL     1      53.118  -5.456  21.884  1.00  0.00     0.402 A 
ATOM      2  O   UNL     1      52.775  -5.884  20.672  1.00  0.00    -0.202 OA
ATOM      3  C   UNL     1      53.281  -6.979  20.114  1.00  0.00     0.368 A 
ATOM      4  C   UNL     1      52.856  -7.351  18.836  1.00  0.00     0.162 A 
ATOM      5  C   UNL     1      53.367  -8.496  18.227  1.00  0.00     0.128 A 
ATOM      6  C   UNL     1      54.312  -9.279  18.899  1.00  0.00     0.093 A 
ATOM      7  C   UNL     1      54.755  -8.929  20.181  1.00  0.00     0.136 A 
ATOM      8  C   UNL     1      54.238  -7.763  20.802  1.00  0.00     0.125 A 
ATOM      9  C   UNL     1      54.633  -7.328  22.078  1.00  0.00     0.078 A 
ATOM     10  C   UNL     1      54.082  -6.164  22.624  1.00  0.00     0.223 A 
ENDROOT
BRANCH   1  11
ATOM     11  C   UNL     1      52.475  -4.226  22.400  1.00  0.00     0.091 A 
ATOM     12  C   UNL     1      52.968  -2.951  22.075  1.00  0.00     0.068 A 
ATOM     13  C   UNL     1      52.360  -1.799  22.591  1.00  0.00     0.162 A 
ATOM     14  C   UNL     1      51.385  -4.333  23.277  1.00  0.00     0.068 A 
ATOM     15  C   UNL     1      51.254  -1.915  23.450  1.00  0.00     0.200 A 
ATOM     16  C   UNL     1      50.770  -3.189  23.795  1.00  0.00     0.162 A 
BRANCH  13  17
ATOM     17  O   UNL     1      52.853  -0.538  22.257  1.00  0.00    -0.504 OA
ATOM     18  H   UNL     1      53.002  -0.264  21.292  1.00  0.00     0.293 HD
ENDBRANCH  13  17
BRANCH  15  19
ATOM     19  O   UNL     1      50.633  -0.778  23.970  1.00  0.00    -0.502 OA
ATOM     20  H   UNL     1      49.762  -0.825  24.484  1.00  0.00     0.293 HD
ENDBRANCH  15  19
BRANCH  16  21
ATOM     21  O   UNL     1      49.680  -3.338  24.652  1.00  0.00    -0.504 OA
ATOM     22  H   UNL     1      48.810  -2.840  24.510  1.00  0.00     0.293 HD
ENDBRANCH  16  21
ENDBRANCH   1  11
BRANCH  10  23
ATOM     23  O   UNL     1      54.512  -5.705  23.870  1.00  0.00    -0.500 OA
ATOM     24  H   UNL     1      55.366  -5.171  23.975  1.00  0.00     0.294 HD
ENDBRANCH  10  23
BRANCH   5  25
ATOM     25  O   UNL     1      52.931  -8.849  16.952  1.00  0.00    -0.507 OA
ATOM     26  H   UNL     1      52.773  -9.817  16.694  1.00  0.00     0.293 HD
ENDBRANCH   5  25
BRANCH   7  27
ATOM     27  O   UNL     1      55.698  -9.765  20.786  1.00  0.00    -0.507 OA
ATOM     28  H   UNL     1      56.042  -9.647  21.728  1.00  0.00     0.293 HD
ENDBRANCH   7  27
TORSDOF 7
ENDMDL
