MODEL 1
REMARK VINA RESULT:    -4.013      0.000      0.000
REMARK INTER + INTRA:          -4.948
REMARK INTER:                  -4.834
REMARK INTRA:                  -0.113
REMARK UNBOUND:                -0.113
REMARK SMILES NC(=O)C[C@H]([NH3+])C(=O)[O-]
REMARK SMILES IDX 4 1 5 2 6 3 7 7 8 8 9 9 2 10 3 11 1 12
REMARK H PARENT 6 4 6 5 6 6 1 13 1 14
REMARK Flexibility Score: inf
ROOT
ATOM      1  C   UNL     1      19.344  29.752  44.430  1.00  0.00     0.171 C 
ENDROOT
BRANCH   1   2
ATOM      2  C   UNL     1      18.898  31.078  43.782  1.00  0.00     0.237 C 
BRANCH   2   3
ATOM      3  N   UNL     1      18.671  32.121  44.792  1.00  0.00    -0.350 N 
ATOM      4  H   UNL     1      18.845  33.065  44.376  1.00  0.00     0.345 HD
ATOM      5  H   UNL     1      17.677  32.092  45.115  1.00  0.00     0.345 HD
ATOM      6  H   UNL     1      19.303  31.986  45.614  1.00  0.00     0.345 HD
ENDBRANCH   2   3
BRANCH   2   7
ATOM      7  C   UNL     1      17.643  30.853  42.982  1.00  0.00     0.100 C 
ATOM      8  O   UNL     1      17.161  29.694  42.872  1.00  0.00    -0.544 OA
ATOM      9  O   UNL     1      16.997  31.922  42.374  1.00  0.00    -0.544 OA
ENDBRANCH   2   7
ENDBRANCH   1   2
BRANCH   1  10
ATOM     10  C   UNL     1      20.517  29.150  43.712  1.00  0.00     0.223 C 
ATOM     11  O   UNL     1      21.074  29.789  42.779  1.00  0.00    -0.275 OA
ATOM     12  N   UNL     1      21.029  27.876  44.100  1.00  0.00    -0.369 N 
ATOM     13  H   UNL     1      20.596  27.342  44.886  1.00  0.00     0.159 HD
ATOM     14  H   UNL     1      21.853  27.466  43.605  1.00  0.00     0.159 HD
ENDBRANCH   1  10
TORSDOF 4
ENDMDL
MODEL 2
REMARK VINA RESULT:    -3.971      1.630      3.563
REMARK INTER + INTRA:          -4.897
REMARK INTER:                  -4.728
REMARK INTRA:                  -0.169
REMARK UNBOUND:                -0.113
REMARK SMILES NC(=O)C[C@H]([NH3+])C(=O)[O-]
REMARK SMILES IDX 4 1 5 2 6 3 7 7 8 8 9 9 2 10 3 11 1 12
REMARK H PARENT 6 4 6 5 6 6 1 13 1 14
REMARK Flexibility Score: inf
ROOT
ATOM      1  C   UNL     1      20.219  30.163  44.618  1.00  0.00     0.171 C 
ENDROOT
BRANCH   1   2
ATOM      2  C   UNL     1      20.225  29.051  43.550  1.00  0.00     0.237 C 
BRANCH   2   3
ATOM      3  N   UNL     1      21.406  28.186  43.680  1.00  0.00    -0.350 N 
ATOM      4  H   UNL     1      21.280  27.528  44.483  1.00  0.00     0.345 HD
ATOM      5  H   UNL     1      21.525  27.614  42.813  1.00  0.00     0.345 HD
ATOM      6  H   UNL     1      22.269  28.757  43.835  1.00  0.00     0.345 HD
ENDBRANCH   2   3
BRANCH   2   7
ATOM      7  C   UNL     1      20.188  29.669  42.177  1.00  0.00     0.100 C 
ATOM      8  O   UNL     1      21.211  30.235  41.710  1.00  0.00    -0.544 OA
ATOM      9  O   UNL     1      19.031  29.604  41.410  1.00  0.00    -0.544 OA
ENDBRANCH   2   7
ENDBRANCH   1   2
BRANCH   1  10
ATOM     10  C   UNL     1      18.855  30.771  44.777  1.00  0.00     0.223 C 
ATOM     11  O   UNL     1      17.851  30.024  44.925  1.00  0.00    -0.275 OA
ATOM     12  N   UNL     1      18.691  32.189  44.798  1.00  0.00    -0.369 N 
ATOM     13  H   UNL     1      19.514  32.823  44.701  1.00  0.00     0.159 HD
ATOM     14  H   UNL     1      17.742  32.607  44.920  1.00  0.00     0.159 HD
ENDBRANCH   1  10
TORSDOF 4
ENDMDL
MODEL 3
REMARK VINA RESULT:    -3.902      1.569      1.723
REMARK INTER + INTRA:          -4.813
REMARK INTER:                  -4.510
REMARK INTRA:                  -0.304
REMARK UNBOUND:                -0.113
REMARK SMILES NC(=O)C[C@H]([NH3+])C(=O)[O-]
REMARK SMILES IDX 4 1 5 2 6 3 7 7 8 8 9 9 2 10 3 11 1 12
REMARK H PARENT 6 4 6 5 6 6 1 13 1 14
REMARK Flexibility Score: inf
ROOT
ATOM      1  C   UNL     1      19.455  29.967  44.275  1.00  0.00     0.171 C 
ENDROOT
BRANCH   1   2
ATOM      2  C   UNL     1      18.164  30.027  43.434  1.00  0.00     0.237 C 
BRANCH   2   3
ATOM      3  N   UNL     1      18.338  29.368  42.132  1.00  0.00    -0.350 N 
ATOM      4  H   UNL     1      17.686  29.787  41.429  1.00  0.00     0.345 HD
ATOM      5  H   UNL     1      19.315  29.512  41.788  1.00  0.00     0.345 HD
ATOM      6  H   UNL     1      18.149  28.342  42.207  1.00  0.00     0.345 HD
ENDBRANCH   2   3
BRANCH   2   7
ATOM      7  C   UNL     1      17.759  31.464  43.233  1.00  0.00     0.100 C 
ATOM      8  O   UNL     1      18.239  32.366  43.970  1.00  0.00    -0.544 OA
ATOM      9  O   UNL     1      16.866  31.807  42.226  1.00  0.00    -0.544 OA
ENDBRANCH   2   7
ENDBRANCH   1   2
BRANCH   1  10
ATOM     10  C   UNL     1      20.537  29.195  43.576  1.00  0.00     0.223 C 
ATOM     11  O   UNL     1      21.171  29.727  42.626  1.00  0.00    -0.275 OA
ATOM     12  N   UNL     1      20.877  27.875  44.002  1.00  0.00    -0.369 N 
ATOM     13  H   UNL     1      20.378  27.427  44.802  1.00  0.00     0.159 HD
ATOM     14  H   UNL     1      21.637  27.346  43.520  1.00  0.00     0.159 HD
ENDBRANCH   1  10
TORSDOF 4
ENDMDL
MODEL 4
REMARK VINA RESULT:    -3.877      1.698      3.839
REMARK INTER + INTRA:          -4.784
REMARK INTER:                  -4.286
REMARK INTRA:                  -0.497
REMARK UNBOUND:                -0.113
REMARK SMILES NC(=O)C[C@H]([NH3+])C(=O)[O-]
REMARK SMILES IDX 4 1 5 2 6 3 7 7 8 8 9 9 2 10 3 11 1 12
REMARK H PARENT 6 4 6 5 6 6 1 13 1 14
REMARK Flexibility Score: inf
ROOT
ATOM      1  C   UNL     1      19.577  31.488  42.594  1.00  0.00     0.171 C 
ENDROOT
BRANCH   1   2
ATOM      2  C   UNL     1      19.684  29.992  42.237  1.00  0.00     0.237 C 
BRANCH   2   3
ATOM      3  N   UNL     1      18.374  29.329  42.295  1.00  0.00    -0.350 N 
ATOM      4  H   UNL     1      18.304  28.750  43.163  1.00  0.00     0.345 HD
ATOM      5  H   UNL     1      17.614  30.046  42.326  1.00  0.00     0.345 HD
ATOM      6  H   UNL     1      18.233  28.714  41.460  1.00  0.00     0.345 HD
ENDBRANCH   2   3
BRANCH   2   7
ATOM      7  C   UNL     1      20.646  29.316  43.179  1.00  0.00     0.100 C 
ATOM      8  O   UNL     1      21.832  29.091  42.820  1.00  0.00    -0.544 OA
ATOM      9  O   UNL     1      20.236  28.950  44.456  1.00  0.00    -0.544 OA
ENDBRANCH   2   7
ENDBRANCH   1   2
BRANCH   1  10
ATOM     10  C   UNL     1      18.485  31.743  43.592  1.00  0.00     0.223 C 
ATOM     11  O   UNL     1      17.307  31.942  43.193  1.00  0.00    -0.275 OA
ATOM     12  N   UNL     1      18.764  31.727  44.993  1.00  0.00    -0.369 N 
ATOM     13  H   UNL     1      19.730  31.541  45.343  1.00  0.00     0.159 HD
ATOM     14  H   UNL     1      17.999  31.895  45.684  1.00  0.00     0.159 HD
ENDBRANCH   1  10
TORSDOF 4
ENDMDL
MODEL 5
REMARK VINA RESULT:    -3.846      1.773      2.753
REMARK INTER + INTRA:          -4.746
REMARK INTER:                  -4.340
REMARK INTRA:                  -0.406
REMARK UNBOUND:                -0.113
REMARK SMILES NC(=O)C[C@H]([NH3+])C(=O)[O-]
REMARK SMILES IDX 4 1 5 2 6 3 7 7 8 8 9 9 2 10 3 11 1 12
REMARK H PARENT 6 4 6 5 6 6 1 13 1 14
REMARK Flexibility Score: inf
ROOT
ATOM      1  C   UNL     1      17.831  30.028  44.062  1.00  0.00     0.171 C 
ENDROOT
BRANCH   1   2
ATOM      2  C   UNL     1      17.884  29.720  42.553  1.00  0.00     0.237 C 
BRANCH   2   3
ATOM      3  N   UNL     1      19.161  29.101  42.173  1.00  0.00    -0.350 N 
ATOM      4  H   UNL     1      19.884  29.295  42.905  1.00  0.00     0.345 HD
ATOM      5  H   UNL     1      19.047  28.064  42.104  1.00  0.00     0.345 HD
ATOM      6  H   UNL     1      19.495  29.472  41.254  1.00  0.00     0.345 HD
ENDBRANCH   2   3
BRANCH   2   7
ATOM      7  C   UNL     1      17.675  30.990  41.770  1.00  0.00     0.100 C 
ATOM      8  O   UNL     1      18.358  31.217  40.737  1.00  0.00    -0.544 OA
ATOM      9  O   UNL     1      16.716  31.911  42.173  1.00  0.00    -0.544 OA
ENDBRANCH   2   7
ENDBRANCH   1   2
BRANCH   1  10
ATOM     10  C   UNL     1      18.983  30.888  44.494  1.00  0.00     0.223 C 
ATOM     11  O   UNL     1      20.142  30.397  44.554  1.00  0.00    -0.275 OA
ATOM     12  N   UNL     1      18.783  32.267  44.804  1.00  0.00    -0.369 N 
ATOM     13  H   UNL     1      17.835  32.697  44.737  1.00  0.00     0.159 HD
ATOM     14  H   UNL     1      19.590  32.864  45.093  1.00  0.00     0.159 HD
ENDBRANCH   1  10
TORSDOF 4
ENDMDL
MODEL 6
REMARK VINA RESULT:    -3.802      2.538      3.631
REMARK INTER + INTRA:          -4.694
REMARK INTER:                  -4.227
REMARK INTRA:                  -0.467
REMARK UNBOUND:                -0.113
REMARK SMILES NC(=O)C[C@H]([NH3+])C(=O)[O-]
REMARK SMILES IDX 4 1 5 2 6 3 7 7 8 8 9 9 2 10 3 11 1 12
REMARK H PARENT 6 4 6 5 6 6 1 13 1 14
REMARK Flexibility Score: inf
ROOT
ATOM      1  C   UNL     1      17.565  32.046  42.911  1.00  0.00     0.171 C 
ENDROOT
BRANCH   1   2
ATOM      2  C   UNL     1      17.597  30.799  42.006  1.00  0.00     0.237 C 
BRANCH   2   3
ATOM      3  N   UNL     1      17.167  29.596  42.731  1.00  0.00    -0.350 N 
ATOM      4  H   UNL     1      17.127  28.779  42.078  1.00  0.00     0.345 HD
ATOM      5  H   UNL     1      17.856  29.369  43.485  1.00  0.00     0.345 HD
ATOM      6  H   UNL     1      16.224  29.738  43.160  1.00  0.00     0.345 HD
ENDBRANCH   2   3
BRANCH   2   7
ATOM      7  C   UNL     1      18.988  30.604  41.463  1.00  0.00     0.100 C 
ATOM      8  O   UNL     1      19.946  31.283  41.918  1.00  0.00    -0.544 OA
ATOM      9  O   UNL     1      19.228  29.662  40.470  1.00  0.00    -0.544 OA
ENDBRANCH   2   7
ENDBRANCH   1   2
BRANCH   1  10
ATOM     10  C   UNL     1      17.692  31.682  44.362  1.00  0.00     0.223 C 
ATOM     11  O   UNL     1      16.662  31.392  45.026  1.00  0.00    -0.275 OA
ATOM     12  N   UNL     1      18.975  31.629  44.986  1.00  0.00    -0.369 N 
ATOM     13  H   UNL     1      19.842  31.843  44.446  1.00  0.00     0.159 HD
ATOM     14  H   UNL     1      19.059  31.364  45.994  1.00  0.00     0.159 HD
ENDBRANCH   1  10
TORSDOF 4
ENDMDL
MODEL 7
REMARK VINA RESULT:    -3.745      1.683      1.867
REMARK INTER + INTRA:          -4.625
REMARK INTER:                  -4.171
REMARK INTRA:                  -0.453
REMARK UNBOUND:                -0.113
REMARK SMILES NC(=O)C[C@H]([NH3+])C(=O)[O-]
REMARK SMILES IDX 4 1 5 2 6 3 7 7 8 8 9 9 2 10 3 11 1 12
REMARK H PARENT 6 4 6 5 6 6 1 13 1 14
REMARK Flexibility Score: inf
ROOT
ATOM      1  C   UNL     1      19.579  31.644  42.424  1.00  0.00     0.171 C 
ENDROOT
BRANCH   1   2
ATOM      2  C   UNL     1      18.784  32.028  43.688  1.00  0.00     0.237 C 
BRANCH   2   3
ATOM      3  N   UNL     1      19.294  31.333  44.878  1.00  0.00    -0.350 N 
ATOM      4  H   UNL     1      18.995  30.331  44.863  1.00  0.00     0.345 HD
ATOM      5  H   UNL     1      20.340  31.355  44.882  1.00  0.00     0.345 HD
ATOM      6  H   UNL     1      18.939  31.785  45.752  1.00  0.00     0.345 HD
ENDBRANCH   2   3
BRANCH   2   7
ATOM      7  C   UNL     1      17.327  31.703  43.487  1.00  0.00     0.100 C 
ATOM      8  O   UNL     1      16.554  31.621  44.478  1.00  0.00    -0.544 OA
ATOM      9  O   UNL     1      16.822  31.509  42.207  1.00  0.00    -0.544 OA
ENDBRANCH   2   7
ENDBRANCH   1   2
BRANCH   1  10
ATOM     10  C   UNL     1      19.957  30.191  42.428  1.00  0.00     0.223 C 
ATOM     11  O   UNL     1      21.017  29.822  43.002  1.00  0.00    -0.275 OA
ATOM     12  N   UNL     1      19.109  29.219  41.816  1.00  0.00    -0.369 N 
ATOM     13  H   UNL     1      18.217  29.503  41.356  1.00  0.00     0.159 HD
ATOM     14  H   UNL     1      19.372  28.208  41.830  1.00  0.00     0.159 HD
ENDBRANCH   1  10
TORSDOF 4
ENDMDL
MODEL 8
REMARK VINA RESULT:    -3.741      1.885      3.398
REMARK INTER + INTRA:          -4.620
REMARK INTER:                  -4.160
REMARK INTRA:                  -0.460
REMARK UNBOUND:                -0.113
REMARK SMILES NC(=O)C[C@H]([NH3+])C(=O)[O-]
REMARK SMILES IDX 4 1 5 2 6 3 7 7 8 8 9 9 2 10 3 11 1 12
REMARK H PARENT 6 4 6 5 6 6 1 13 1 14
REMARK Flexibility Score: inf
ROOT
ATOM      1  C   UNL     1      17.495  30.010  43.693  1.00  0.00     0.171 C 
ENDROOT
BRANCH   1   2
ATOM      2  C   UNL     1      18.560  30.457  44.714  1.00  0.00     0.237 C 
BRANCH   2   3
ATOM      3  N   UNL     1      18.652  31.922  44.792  1.00  0.00    -0.350 N 
ATOM      4  H   UNL     1      19.651  32.213  44.897  1.00  0.00     0.345 HD
ATOM      5  H   UNL     1      18.286  32.348  43.910  1.00  0.00     0.345 HD
ATOM      6  H   UNL     1      18.101  32.286  45.603  1.00  0.00     0.345 HD
ENDBRANCH   2   3
BRANCH   2   7
ATOM      7  C   UNL     1      19.898  29.877  44.336  1.00  0.00     0.100 C 
ATOM      8  O   UNL     1      20.276  28.782  44.832  1.00  0.00    -0.544 OA
ATOM      9  O   UNL     1      20.715  30.534  43.425  1.00  0.00    -0.544 OA
ENDBRANCH   2   7
ENDBRANCH   1   2
BRANCH   1  10
ATOM     10  C   UNL     1      17.483  30.896  42.481  1.00  0.00     0.223 C 
ATOM     11  O   UNL     1      16.738  31.911  42.455  1.00  0.00    -0.275 OA
ATOM     12  N   UNL     1      18.336  30.616  41.370  1.00  0.00    -0.369 N 
ATOM     13  H   UNL     1      18.977  29.792  41.383  1.00  0.00     0.159 HD
ATOM     14  H   UNL     1      18.332  31.241  40.533  1.00  0.00     0.159 HD
ENDBRANCH   1  10
TORSDOF 4
ENDMDL
MODEL 9
REMARK VINA RESULT:    -3.546     22.672     23.504
REMARK INTER + INTRA:          -4.385
REMARK INTER:                  -4.034
REMARK INTRA:                  -0.351
REMARK UNBOUND:                -0.113
REMARK SMILES NC(=O)C[C@H]([NH3+])C(=O)[O-]
REMARK SMILES IDX 4 1 5 2 6 3 7 7 8 8 9 9 2 10 3 11 1 12
REMARK H PARENT 6 4 6 5 6 6 1 13 1 14
REMARK Flexibility Score: inf
ROOT
ATOM      1  C   UNL     1      17.966  46.053  25.101  1.00  0.00     0.171 C 
ENDROOT
BRANCH   1   2
ATOM      2  C   UNL     1      16.639  45.855  25.860  1.00  0.00     0.237 C 
BRANCH   2   3
ATOM      3  N   UNL     1      16.632  46.586  27.135  1.00  0.00    -0.350 N 
ATOM      4  H   UNL     1      17.613  46.807  27.425  1.00  0.00     0.345 HD
ATOM      5  H   UNL     1      16.120  47.490  27.023  1.00  0.00     0.345 HD
ATOM      6  H   UNL     1      16.171  46.020  27.884  1.00  0.00     0.345 HD
ENDBRANCH   2   3
BRANCH   2   7
ATOM      7  C   UNL     1      16.413  44.386  26.107  1.00  0.00     0.100 C 
ATOM      8  O   UNL     1      15.289  43.976  26.503  1.00  0.00    -0.544 OA
ATOM      9  O   UNL     1      17.435  43.472  25.884  1.00  0.00    -0.544 OA
ENDBRANCH   2   7
ENDBRANCH   1   2
BRANCH   1  10
ATOM     10  C   UNL     1      18.972  46.799  25.929  1.00  0.00     0.223 C 
ATOM     11  O   UNL     1      19.497  46.241  26.929  1.00  0.00    -0.275 OA
ATOM     12  N   UNL     1      19.365  48.125  25.572  1.00  0.00    -0.369 N 
ATOM     13  H   UNL     1      18.958  48.595  24.734  1.00  0.00     0.159 HD
ATOM     14  H   UNL     1      20.073  48.636  26.145  1.00  0.00     0.159 HD
ENDBRANCH   1  10
TORSDOF 4
ENDMDL
