MODEL 1
REMARK VINA RESULT:    -5.876      0.000      0.000
REMARK INTER + INTRA:          -6.499
REMARK INTER:                  -6.391
REMARK INTRA:                  -0.108
REMARK UNBOUND:                -0.108
REMARK SMILES Cc1ccc(C(C)C)cc1O
REMARK SMILES IDX 1 1 2 2 10 3 9 4 5 5 4 6 3 7 11 8 6 10 7 11 8 12
REMARK H PARENT 11 9
REMARK Flexibility Score: inf
ROOT
ATOM      1  C   UNL     1      42.633 -10.290  -1.363  1.00  0.00     0.048 C 
ATOM      2  C   UNL     1      43.276 -10.996  -2.525  1.00  0.00    -0.009 A 
ATOM      3  C   UNL     1      43.019 -12.361  -2.785  1.00  0.00     0.118 A 
ATOM      4  C   UNL     1      43.633 -12.989  -3.875  1.00  0.00     0.050 A 
ATOM      5  C   UNL     1      44.505 -12.281  -4.720  1.00  0.00    -0.042 A 
ATOM      6  C   UNL     1      44.755 -10.925  -4.456  1.00  0.00     0.004 A 
ATOM      7  C   UNL     1      44.147 -10.290  -3.370  1.00  0.00     0.007 A 
ENDROOT
BRANCH   3   8
ATOM      8  O   UNL     1      42.162 -13.117  -1.982  1.00  0.00    -0.508 OA
ATOM      9  H   UNL     1      42.092 -14.125  -2.046  1.00  0.00     0.293 HD
ENDBRANCH   3   8
BRANCH   5  10
ATOM     10  C   UNL     1      45.172 -12.958  -5.904  1.00  0.00     0.013 C 
ATOM     11  C   UNL     1      46.633 -13.299  -5.593  1.00  0.00     0.012 C 
ATOM     12  C   UNL     1      44.394 -14.206  -6.336  1.00  0.00     0.012 C 
ENDBRANCH   5  10
TORSDOF 2
ENDMDL
MODEL 2
REMARK VINA RESULT:    -5.477      2.120      4.452
REMARK INTER + INTRA:          -6.065
REMARK INTER:                  -5.937
REMARK INTRA:                  -0.128
REMARK UNBOUND:                -0.108
REMARK SMILES Cc1ccc(C(C)C)cc1O
REMARK SMILES IDX 1 1 2 2 10 3 9 4 5 5 4 6 3 7 11 8 6 10 7 11 8 12
REMARK H PARENT 11 9
REMARK Flexibility Score: inf
ROOT
ATOM      1  C   UNL     1      43.792 -14.889  -6.826  1.00  0.00     0.048 C 
ATOM      2  C   UNL     1      44.072 -13.713  -5.932  1.00  0.00    -0.009 A 
ATOM      3  C   UNL     1      45.392 -13.269  -5.699  1.00  0.00     0.118 A 
ATOM      4  C   UNL     1      45.619 -12.170  -4.862  1.00  0.00     0.050 A 
ATOM      5  C   UNL     1      44.549 -11.497  -4.246  1.00  0.00    -0.042 A 
ATOM      6  C   UNL     1      43.239 -11.945  -4.483  1.00  0.00     0.004 A 
ATOM      7  C   UNL     1      43.004 -13.040  -5.317  1.00  0.00     0.007 A 
ENDROOT
BRANCH   3   8
ATOM      8  O   UNL     1      46.496 -13.895  -6.283  1.00  0.00    -0.508 OA
ATOM      9  H   UNL     1      47.442 -13.776  -5.942  1.00  0.00     0.293 HD
ENDBRANCH   3   8
BRANCH   5  10
ATOM     10  C   UNL     1      44.790 -10.305  -3.338  1.00  0.00     0.013 C 
ATOM     11  C   UNL     1      44.810  -8.998  -4.137  1.00  0.00     0.012 C 
ATOM     12  C   UNL     1      43.751 -10.249  -2.212  1.00  0.00     0.012 C 
ENDBRANCH   5  10
TORSDOF 2
ENDMDL
MODEL 3
REMARK VINA RESULT:    -5.176      1.467      2.070
REMARK INTER + INTRA:          -5.738
REMARK INTER:                  -5.611
REMARK INTRA:                  -0.128
REMARK UNBOUND:                -0.108
REMARK SMILES Cc1ccc(C(C)C)cc1O
REMARK SMILES IDX 1 1 2 2 10 3 9 4 5 5 4 6 3 7 11 8 6 10 7 11 8 12
REMARK H PARENT 11 9
REMARK Flexibility Score: inf
ROOT
ATOM      1  C   UNL     1      42.615 -10.508  -1.421  1.00  0.00     0.048 C 
ATOM      2  C   UNL     1      43.203 -11.181  -2.631  1.00  0.00    -0.009 A 
ATOM      3  C   UNL     1      44.114 -10.505  -3.473  1.00  0.00     0.118 A 
ATOM      4  C   UNL     1      44.644 -11.159  -4.591  1.00  0.00     0.050 A 
ATOM      5  C   UNL     1      44.283 -12.484  -4.892  1.00  0.00    -0.042 A 
ATOM      6  C   UNL     1      43.377 -13.149  -4.050  1.00  0.00     0.004 A 
ATOM      7  C   UNL     1      42.844 -12.504  -2.933  1.00  0.00     0.007 A 
ENDROOT
BRANCH   3   8
ATOM      8  O   UNL     1      44.512  -9.189  -3.226  1.00  0.00    -0.508 OA
ATOM      9  H   UNL     1      45.459  -8.936  -2.975  1.00  0.00     0.293 HD
ENDBRANCH   3   8
BRANCH   5  10
ATOM     10  C   UNL     1      44.856 -13.197  -6.104  1.00  0.00     0.013 C 
ATOM     11  C   UNL     1      46.341 -13.517  -5.905  1.00  0.00     0.012 C 
ATOM     12  C   UNL     1      44.056 -14.464  -6.428  1.00  0.00     0.012 C 
ENDBRANCH   5  10
TORSDOF 2
ENDMDL
MODEL 4
REMARK VINA RESULT:    -4.753      9.892     11.198
REMARK INTER + INTRA:          -5.278
REMARK INTER:                  -5.168
REMARK INTRA:                  -0.110
REMARK UNBOUND:                -0.108
REMARK SMILES Cc1ccc(C(C)C)cc1O
REMARK SMILES IDX 1 1 2 2 10 3 9 4 5 5 4 6 3 7 11 8 6 10 7 11 8 12
REMARK H PARENT 11 9
REMARK Flexibility Score: inf
ROOT
ATOM      1  C   UNL     1      31.939 -11.980  -0.054  1.00  0.00     0.048 C 
ATOM      2  C   UNL     1      32.547 -13.159  -0.763  1.00  0.00    -0.009 A 
ATOM      3  C   UNL     1      33.891 -13.136  -1.199  1.00  0.00     0.118 A 
ATOM      4  C   UNL     1      34.428 -14.251  -1.855  1.00  0.00     0.050 A 
ATOM      5  C   UNL     1      33.648 -15.397  -2.087  1.00  0.00    -0.042 A 
ATOM      6  C   UNL     1      32.314 -15.412  -1.650  1.00  0.00     0.004 A 
ATOM      7  C   UNL     1      31.771 -14.305  -0.995  1.00  0.00     0.007 A 
ENDROOT
BRANCH   3   8
ATOM      8  O   UNL     1      34.715 -12.027  -0.997  1.00  0.00    -0.508 OA
ATOM      9  H   UNL     1      35.318 -11.927  -0.190  1.00  0.00     0.293 HD
ENDBRANCH   3   8
BRANCH   5  10
ATOM     10  C   UNL     1      34.227 -16.608  -2.798  1.00  0.00     0.013 C 
ATOM     11  C   UNL     1      35.511 -16.244  -3.552  1.00  0.00     0.012 C 
ATOM     12  C   UNL     1      34.470 -17.760  -1.817  1.00  0.00     0.012 C 
ENDBRANCH   5  10
TORSDOF 2
ENDMDL
MODEL 5
REMARK VINA RESULT:    -4.711     13.684     14.933
REMARK INTER + INTRA:          -5.232
REMARK INTER:                  -5.107
REMARK INTRA:                  -0.125
REMARK UNBOUND:                -0.108
REMARK SMILES Cc1ccc(C(C)C)cc1O
REMARK SMILES IDX 1 1 2 2 10 3 9 4 5 5 4 6 3 7 11 8 6 10 7 11 8 12
REMARK H PARENT 11 9
REMARK Flexibility Score: inf
ROOT
ATOM      1  C   UNL     1      31.347  -7.840   4.452  1.00  0.00     0.048 C 
ATOM      2  C   UNL     1      31.351  -7.162   3.110  1.00  0.00    -0.009 A 
ATOM      3  C   UNL     1      31.727  -7.859   1.940  1.00  0.00     0.118 A 
ATOM      4  C   UNL     1      31.719  -7.200   0.705  1.00  0.00     0.050 A 
ATOM      5  C   UNL     1      31.342  -5.849   0.609  1.00  0.00    -0.042 A 
ATOM      6  C   UNL     1      30.969  -5.164   1.776  1.00  0.00     0.004 A 
ATOM      7  C   UNL     1      30.974  -5.814   3.012  1.00  0.00     0.007 A 
ENDROOT
BRANCH   3   8
ATOM      8  O   UNL     1      32.110  -9.202   1.971  1.00  0.00    -0.508 OA
ATOM      9  H   UNL     1      32.742  -9.580   2.666  1.00  0.00     0.293 HD
ENDBRANCH   3   8
BRANCH   5  10
ATOM     10  C   UNL     1      31.332  -5.131  -0.729  1.00  0.00     0.013 C 
ATOM     11  C   UNL     1      31.713  -3.656  -0.566  1.00  0.00     0.012 C 
ATOM     12  C   UNL     1      32.249  -5.831  -1.738  1.00  0.00     0.012 C 
ENDBRANCH   5  10
TORSDOF 2
ENDMDL
MODEL 6
REMARK VINA RESULT:    -4.667     10.081     11.315
REMARK INTER + INTRA:          -5.185
REMARK INTER:                  -5.057
REMARK INTRA:                  -0.127
REMARK UNBOUND:                -0.108
REMARK SMILES Cc1ccc(C(C)C)cc1O
REMARK SMILES IDX 1 1 2 2 10 3 9 4 5 5 4 6 3 7 11 8 6 10 7 11 8 12
REMARK H PARENT 11 9
REMARK Flexibility Score: inf
ROOT
ATOM      1  C   UNL     1      32.394 -11.569   0.130  1.00  0.00     0.048 C 
ATOM      2  C   UNL     1      32.829 -12.821  -0.580  1.00  0.00    -0.009 A 
ATOM      3  C   UNL     1      31.949 -13.913  -0.743  1.00  0.00     0.118 A 
ATOM      4  C   UNL     1      32.384 -15.064  -1.411  1.00  0.00     0.050 A 
ATOM      5  C   UNL     1      33.690 -15.151  -1.924  1.00  0.00    -0.042 A 
ATOM      6  C   UNL     1      34.559 -14.061  -1.758  1.00  0.00     0.004 A 
ATOM      7  C   UNL     1      34.133 -12.909  -1.094  1.00  0.00     0.007 A 
ENDROOT
BRANCH   3   8
ATOM      8  O   UNL     1      30.640 -13.886  -0.257  1.00  0.00    -0.508 OA
ATOM      9  H   UNL     1      29.910 -13.318  -0.667  1.00  0.00     0.293 HD
ENDBRANCH   3   8
BRANCH   5  10
ATOM     10  C   UNL     1      34.166 -16.398  -2.648  1.00  0.00     0.013 C 
ATOM     11  C   UNL     1      35.429 -16.112  -3.467  1.00  0.00     0.012 C 
ATOM     12  C   UNL     1      34.395 -17.553  -1.667  1.00  0.00     0.012 C 
ENDBRANCH   5  10
TORSDOF 2
ENDMDL
MODEL 7
REMARK VINA RESULT:    -4.646      9.770     11.491
REMARK INTER + INTRA:          -5.162
REMARK INTER:                  -5.048
REMARK INTRA:                  -0.113
REMARK UNBOUND:                -0.108
REMARK SMILES Cc1ccc(C(C)C)cc1O
REMARK SMILES IDX 1 1 2 2 10 3 9 4 5 5 4 6 3 7 11 8 6 10 7 11 8 12
REMARK H PARENT 11 9
REMARK Flexibility Score: inf
ROOT
ATOM      1  C   UNL     1      35.537 -18.895  -3.993  1.00  0.00     0.048 C 
ATOM      2  C   UNL     1      34.965 -17.737  -3.223  1.00  0.00    -0.009 A 
ATOM      3  C   UNL     1      35.434 -16.420  -3.427  1.00  0.00     0.118 A 
ATOM      4  C   UNL     1      34.879 -15.364  -2.694  1.00  0.00     0.050 A 
ATOM      5  C   UNL     1      33.859 -15.593  -1.755  1.00  0.00    -0.042 A 
ATOM      6  C   UNL     1      33.398 -16.904  -1.559  1.00  0.00     0.004 A 
ATOM      7  C   UNL     1      33.945 -17.964  -2.285  1.00  0.00     0.007 A 
ENDROOT
BRANCH   3   8
ATOM      8  O   UNL     1      36.445 -16.129  -4.346  1.00  0.00    -0.508 OA
ATOM      9  H   UNL     1      36.283 -15.607  -5.197  1.00  0.00     0.293 HD
ENDBRANCH   3   8
BRANCH   5  10
ATOM     10  C   UNL     1      33.255 -14.450  -0.959  1.00  0.00     0.013 C 
ATOM     11  C   UNL     1      34.069 -13.163  -1.135  1.00  0.00     0.012 C 
ATOM     12  C   UNL     1      31.786 -14.229  -1.336  1.00  0.00     0.012 C 
ENDBRANCH   5  10
TORSDOF 2
ENDMDL
MODEL 8
REMARK VINA RESULT:    -4.617      1.760      4.253
REMARK INTER + INTRA:          -5.130
REMARK INTER:                  -5.031
REMARK INTRA:                  -0.099
REMARK UNBOUND:                -0.108
REMARK SMILES Cc1ccc(C(C)C)cc1O
REMARK SMILES IDX 1 1 2 2 10 3 9 4 5 5 4 6 3 7 11 8 6 10 7 11 8 12
REMARK H PARENT 11 9
REMARK Flexibility Score: inf
ROOT
ATOM      1  C   UNL     1      44.593 -15.017  -6.960  1.00  0.00     0.048 C 
ATOM      2  C   UNL     1      44.689 -13.791  -6.096  1.00  0.00    -0.009 A 
ATOM      3  C   UNL     1      43.543 -13.030  -5.774  1.00  0.00     0.118 A 
ATOM      4  C   UNL     1      43.666 -11.893  -4.967  1.00  0.00     0.050 A 
ATOM      5  C   UNL     1      44.918 -11.494  -4.467  1.00  0.00    -0.042 A 
ATOM      6  C   UNL     1      46.052 -12.255  -4.790  1.00  0.00     0.004 A 
ATOM      7  C   UNL     1      45.938 -13.391  -5.595  1.00  0.00     0.007 A 
ENDROOT
BRANCH   3   8
ATOM      8  O   UNL     1      42.272 -13.376  -6.240  1.00  0.00    -0.508 OA
ATOM      9  H   UNL     1      41.848 -12.950  -7.054  1.00  0.00     0.293 HD
ENDBRANCH   3   8
BRANCH   5  10
ATOM     10  C   UNL     1      45.056 -10.262  -3.591  1.00  0.00     0.013 C 
ATOM     11  C   UNL     1      44.873  -8.979  -4.408  1.00  0.00     0.012 C 
ATOM     12  C   UNL     1      44.077 -10.310  -2.412  1.00  0.00     0.012 C 
ENDBRANCH   5  10
TORSDOF 2
ENDMDL
MODEL 9
REMARK VINA RESULT:    -4.610     13.798     15.602
REMARK INTER + INTRA:          -5.122
REMARK INTER:                  -5.004
REMARK INTRA:                  -0.118
REMARK UNBOUND:                -0.108
REMARK SMILES Cc1ccc(C(C)C)cc1O
REMARK SMILES IDX 1 1 2 2 10 3 9 4 5 5 4 6 3 7 11 8 6 10 7 11 8 12
REMARK H PARENT 11 9
REMARK Flexibility Score: inf
ROOT
ATOM      1  C   UNL     1      31.683  -5.620  -1.770  1.00  0.00     0.048 C 
ATOM      2  C   UNL     1      31.319  -6.033  -0.370  1.00  0.00    -0.009 A 
ATOM      3  C   UNL     1      32.038  -7.044   0.304  1.00  0.00     0.118 A 
ATOM      4  C   UNL     1      31.675  -7.405   1.608  1.00  0.00     0.050 A 
ATOM      5  C   UNL     1      30.601  -6.773   2.259  1.00  0.00    -0.042 A 
ATOM      6  C   UNL     1      29.892  -5.769   1.582  1.00  0.00     0.004 A 
ATOM      7  C   UNL     1      30.248  -5.403   0.282  1.00  0.00     0.007 A 
ENDROOT
BRANCH   3   8
ATOM      8  O   UNL     1      33.115  -7.708  -0.290  1.00  0.00    -0.508 OA
ATOM      9  H   UNL     1      33.539  -8.536   0.107  1.00  0.00     0.293 HD
ENDBRANCH   3   8
BRANCH   5  10
ATOM     10  C   UNL     1      30.205  -7.161   3.672  1.00  0.00     0.013 C 
ATOM     11  C   UNL     1      31.092  -8.291   4.205  1.00  0.00     0.012 C 
ATOM     12  C   UNL     1      30.236  -5.947   4.608  1.00  0.00     0.012 C 
ENDBRANCH   5  10
TORSDOF 2
ENDMDL
