MODEL 1
REMARK VINA RESULT:    -3.796      0.000      0.000
REMARK INTER + INTRA:          -4.511
REMARK INTER:                  -4.462
REMARK INTRA:                  -0.049
REMARK UNBOUND:                -0.049
REMARK SMILES CCCCC(=O)[O-]
REMARK SMILES IDX 4 1 5 2 6 3 7 4 3 5 2 6 1 7
REMARK H PARENT
REMARK Flexibility Score: inf
ROOT
ATOM      1  C   UNL     1      13.256 -22.837  20.109  1.00  0.00     0.053 C 
ENDROOT
BRANCH   1   2
ATOM      2  C   UNL     1      14.700 -23.206  20.234  1.00  0.00     0.041 C 
ATOM      3  O   UNL     1      15.336 -23.622  19.230  1.00  0.00    -0.550 OA
ATOM      4  O   UNL     1      15.329 -23.139  21.470  1.00  0.00    -0.550 OA
ENDBRANCH   1   2
BRANCH   1   5
ATOM      5  C   UNL     1      12.443 -23.454  21.250  1.00  0.00     0.006 C 
BRANCH   5   6
ATOM      6  C   UNL     1      11.789 -24.769  20.809  1.00  0.00    -0.003 C 
ATOM      7  C   UNL     1      10.564 -25.089  21.661  1.00  0.00     0.004 C 
ENDBRANCH   5   6
ENDBRANCH   1   5
TORSDOF 3
ENDMDL
MODEL 2
REMARK VINA RESULT:    -3.749      2.332      3.561
REMARK INTER + INTRA:          -4.455
REMARK INTER:                  -4.374
REMARK INTRA:                  -0.082
REMARK UNBOUND:                -0.049
REMARK SMILES CCCCC(=O)[O-]
REMARK SMILES IDX 4 1 5 2 6 3 7 4 3 5 2 6 1 7
REMARK H PARENT
REMARK Flexibility Score: inf
ROOT
ATOM      1  C   UNL     1      12.365 -23.883  20.761  1.00  0.00     0.053 C 
ENDROOT
BRANCH   1   2
ATOM      2  C   UNL     1      11.964 -23.408  22.122  1.00  0.00     0.041 C 
ATOM      3  O   UNL     1      11.080 -24.024  22.773  1.00  0.00    -0.550 OA
ATOM      4  O   UNL     1      12.531 -22.254  22.650  1.00  0.00    -0.550 OA
ENDBRANCH   1   2
BRANCH   1   5
ATOM      5  C   UNL     1      13.245 -22.841  20.067  1.00  0.00     0.006 C 
BRANCH   5   6
ATOM      6  C   UNL     1      14.703 -23.312  19.997  1.00  0.00    -0.003 C 
ATOM      7  C   UNL     1      14.788 -24.835  19.954  1.00  0.00     0.004 C 
ENDBRANCH   5   6
ENDBRANCH   1   5
TORSDOF 3
ENDMDL
MODEL 3
REMARK VINA RESULT:    -3.666      2.145      2.656
REMARK INTER + INTRA:          -4.358
REMARK INTER:                  -4.242
REMARK INTRA:                  -0.116
REMARK UNBOUND:                -0.049
REMARK SMILES CCCCC(=O)[O-]
REMARK SMILES IDX 4 1 5 2 6 3 7 4 3 5 2 6 1 7
REMARK H PARENT
REMARK Flexibility Score: inf
ROOT
ATOM      1  C   UNL     1      14.788 -24.273  20.831  1.00  0.00     0.053 C 
ENDROOT
BRANCH   1   2
ATOM      2  C   UNL     1      14.545 -25.512  20.029  1.00  0.00     0.041 C 
ATOM      3  O   UNL     1      15.331 -25.828  19.098  1.00  0.00    -0.550 OA
ATOM      4  O   UNL     1      13.421 -26.291  20.276  1.00  0.00    -0.550 OA
ENDBRANCH   1   2
BRANCH   1   5
ATOM      5  C   UNL     1      14.341 -23.033  20.053  1.00  0.00     0.006 C 
BRANCH   5   6
ATOM      6  C   UNL     1      12.842 -22.775  20.246  1.00  0.00    -0.003 C 
ATOM      7  C   UNL     1      12.453 -22.854  21.719  1.00  0.00     0.004 C 
ENDBRANCH   5   6
ENDBRANCH   1   5
TORSDOF 3
ENDMDL
MODEL 4
REMARK VINA RESULT:    -3.649      1.368      1.759
REMARK INTER + INTRA:          -4.338
REMARK INTER:                  -4.240
REMARK INTRA:                  -0.098
REMARK UNBOUND:                -0.049
REMARK SMILES CCCCC(=O)[O-]
REMARK SMILES IDX 4 1 5 2 6 3 7 4 3 5 2 6 1 7
REMARK H PARENT
REMARK Flexibility Score: inf
ROOT
ATOM      1  C   UNL     1      14.243 -22.978  20.380  1.00  0.00     0.053 C 
ENDROOT
BRANCH   1   2
ATOM      2  C   UNL     1      14.700 -22.930  21.804  1.00  0.00     0.041 C 
ATOM      3  O   UNL     1      14.212 -22.083  22.598  1.00  0.00    -0.550 OA
ATOM      4  O   UNL     1      15.701 -23.788  22.242  1.00  0.00    -0.550 OA
ENDBRANCH   1   2
BRANCH   1   5
ATOM      5  C   UNL     1      12.747 -23.293  20.307  1.00  0.00     0.006 C 
BRANCH   5   6
ATOM      6  C   UNL     1      12.473 -24.751  20.696  1.00  0.00    -0.003 C 
ATOM      7  C   UNL     1      11.076 -24.910  21.288  1.00  0.00     0.004 C 
ENDBRANCH   5   6
ENDBRANCH   1   5
TORSDOF 3
ENDMDL
MODEL 5
REMARK VINA RESULT:    -3.647      2.427      3.485
REMARK INTER + INTRA:          -4.336
REMARK INTER:                  -4.235
REMARK INTRA:                  -0.101
REMARK UNBOUND:                -0.049
REMARK SMILES CCCCC(=O)[O-]
REMARK SMILES IDX 4 1 5 2 6 3 7 4 3 5 2 6 1 7
REMARK H PARENT
REMARK Flexibility Score: inf
ROOT
ATOM      1  C   UNL     1      12.327 -22.481  22.372  1.00  0.00     0.053 C 
ENDROOT
BRANCH   1   2
ATOM      2  C   UNL     1      13.383 -22.400  23.430  1.00  0.00     0.041 C 
ATOM      3  O   UNL     1      14.219 -21.459  23.420  1.00  0.00    -0.550 OA
ATOM      4  O   UNL     1      13.475 -23.393  24.396  1.00  0.00    -0.550 OA
ENDBRANCH   1   2
BRANCH   1   5
ATOM      5  C   UNL     1      12.699 -23.531  21.322  1.00  0.00     0.006 C 
BRANCH   5   6
ATOM      6  C   UNL     1      13.365 -22.878  20.105  1.00  0.00    -0.003 C 
ATOM      7  C   UNL     1      14.822 -23.311  19.975  1.00  0.00     0.004 C 
ENDBRANCH   5   6
ENDBRANCH   1   5
TORSDOF 3
ENDMDL
MODEL 6
REMARK VINA RESULT:    -3.647      2.747      4.055
REMARK INTER + INTRA:          -4.336
REMARK INTER:                  -4.263
REMARK INTRA:                  -0.072
REMARK UNBOUND:                -0.049
REMARK SMILES CCCCC(=O)[O-]
REMARK SMILES IDX 4 1 5 2 6 3 7 4 3 5 2 6 1 7
REMARK H PARENT
REMARK Flexibility Score: inf
ROOT
ATOM      1  C   UNL     1      12.225 -24.510  20.744  1.00  0.00     0.053 C 
ENDROOT
BRANCH   1   2
ATOM      2  C   UNL     1      11.209 -24.443  21.840  1.00  0.00     0.041 C 
ATOM      3  O   UNL     1      11.354 -23.629  22.789  1.00  0.00    -0.550 OA
ATOM      4  O   UNL     1      10.128 -25.316  21.839  1.00  0.00    -0.550 OA
ENDBRANCH   1   2
BRANCH   1   5
ATOM      5  C   UNL     1      12.687 -23.103  20.353  1.00  0.00     0.006 C 
BRANCH   5   6
ATOM      6  C   UNL     1      14.183 -23.090  20.016  1.00  0.00    -0.003 C 
ATOM      7  C   UNL     1      15.034 -23.136  21.282  1.00  0.00     0.004 C 
ENDBRANCH   5   6
ENDBRANCH   1   5
TORSDOF 3
ENDMDL
MODEL 7
REMARK VINA RESULT:    -3.499      2.331      3.570
REMARK INTER + INTRA:          -4.162
REMARK INTER:                  -4.024
REMARK INTRA:                  -0.138
REMARK UNBOUND:                -0.049
REMARK SMILES CCCCC(=O)[O-]
REMARK SMILES IDX 4 1 5 2 6 3 7 4 3 5 2 6 1 7
REMARK H PARENT
REMARK Flexibility Score: inf
ROOT
ATOM      1  C   UNL     1      12.736 -23.103  20.157  1.00  0.00     0.053 C 
ENDROOT
BRANCH   1   2
ATOM      2  C   UNL     1      12.268 -24.399  20.740  1.00  0.00     0.041 C 
ATOM      3  O   UNL     1      11.313 -24.417  21.561  1.00  0.00    -0.550 OA
ATOM      4  O   UNL     1      12.919 -25.582  20.415  1.00  0.00    -0.550 OA
ENDBRANCH   1   2
BRANCH   1   5
ATOM      5  C   UNL     1      14.248 -22.948  20.340  1.00  0.00     0.006 C 
BRANCH   5   6
ATOM      6  C   UNL     1      14.599 -22.680  21.808  1.00  0.00    -0.003 C 
ATOM      7  C   UNL     1      15.668 -23.649  22.305  1.00  0.00     0.004 C 
ENDBRANCH   5   6
ENDBRANCH   1   5
TORSDOF 3
ENDMDL
MODEL 8
REMARK VINA RESULT:    -3.495      2.213      3.055
REMARK INTER + INTRA:          -4.157
REMARK INTER:                  -4.098
REMARK INTRA:                  -0.059
REMARK UNBOUND:                -0.049
REMARK SMILES CCCCC(=O)[O-]
REMARK SMILES IDX 4 1 5 2 6 3 7 4 3 5 2 6 1 7
REMARK H PARENT
REMARK Flexibility Score: inf
ROOT
ATOM      1  C   UNL     1      13.604 -23.451  21.797  1.00  0.00     0.053 C 
ENDROOT
BRANCH   1   2
ATOM      2  C   UNL     1      13.789 -23.057  20.366  1.00  0.00     0.041 C 
ATOM      3  O   UNL     1      12.835 -22.548  19.721  1.00  0.00    -0.550 OA
ATOM      4  O   UNL     1      15.000 -23.298  19.730  1.00  0.00    -0.550 OA
ENDBRANCH   1   2
BRANCH   1   5
ATOM      5  C   UNL     1      12.461 -22.654  22.430  1.00  0.00     0.006 C 
BRANCH   5   6
ATOM      6  C   UNL     1      12.857 -22.133  23.817  1.00  0.00    -0.003 C 
ATOM      7  C   UNL     1      14.223 -21.454  23.782  1.00  0.00     0.004 C 
ENDBRANCH   5   6
ENDBRANCH   1   5
TORSDOF 3
ENDMDL
MODEL 9
REMARK VINA RESULT:    -3.420      2.148      2.781
REMARK INTER + INTRA:          -4.068
REMARK INTER:                  -3.960
REMARK INTRA:                  -0.108
REMARK UNBOUND:                -0.049
REMARK SMILES CCCCC(=O)[O-]
REMARK SMILES IDX 4 1 5 2 6 3 7 4 3 5 2 6 1 7
REMARK H PARENT
REMARK Flexibility Score: inf
ROOT
ATOM      1  C   UNL     1      14.731 -23.066  20.581  1.00  0.00     0.053 C 
ENDROOT
BRANCH   1   2
ATOM      2  C   UNL     1      15.038 -22.961  22.042  1.00  0.00     0.041 C 
ATOM      3  O   UNL     1      14.259 -22.337  22.809  1.00  0.00    -0.550 OA
ATOM      4  O   UNL     1      16.211 -23.508  22.547  1.00  0.00    -0.550 OA
ENDBRANCH   1   2
BRANCH   1   5
ATOM      5  C   UNL     1      13.440 -23.858  20.360  1.00  0.00     0.006 C 
BRANCH   5   6
ATOM      6  C   UNL     1      13.718 -25.366  20.338  1.00  0.00    -0.003 C 
ATOM      7  C   UNL     1      14.970 -25.685  19.527  1.00  0.00     0.004 C 
ENDBRANCH   5   6
ENDBRANCH   1   5
TORSDOF 3
ENDMDL
