MODEL 1
REMARK VINA RESULT:    -2.953      0.000      0.000
REMARK INTER + INTRA:          -4.677
REMARK INTER:                  -4.507
REMARK INTRA:                  -0.170
REMARK UNBOUND:                -0.170
REMARK SMILES CC1=CCC[C@@H](C)C(=O)C[C@H](C(C)C)C(=O)C1
REMARK SMILES IDX 8 1 9 2 6 3 7 4 5 5 4 6 3 7 2 8 1 9 10 11 11 12 15 13 16 14
REMARK SMILES IDX 17 15 12 17 13 18 14 19
REMARK H PARENT
REMARK Flexibility Score: 70.00
ROOT
ATOM      1  C   UNL     1      -3.884  37.159  42.835  1.00  0.00     0.136 C 
ATOM      2  O   UNL     1      -4.146  38.009  41.997  1.00  0.00    -0.299 OA
ENDROOT
BRANCH   1   3
ATOM      3  C   UNL     1      -2.926  36.035  42.431  1.00  0.00     0.053 C 
ATOM      4  C   UNL     1      -1.599  36.655  41.964  1.00  0.00     0.016 C 
BRANCH   3   5
ATOM      5  C   UNL     1      -3.423  35.050  41.342  1.00  0.00     0.015 C 
BRANCH   5   6
ATOM      6  C   UNL     1      -4.853  34.499  41.489  1.00  0.00     0.028 C 
BRANCH   6   7
ATOM      7  C   UNL     1      -5.043  33.533  42.632  1.00  0.00    -0.028 C 
ATOM      8  C   UNL     1      -6.044  33.539  43.550  1.00  0.00    -0.070 CG0
ATOM      9  C   UNL     1      -6.071  32.389  44.530  1.00  0.00     0.039 C 
ATOM     10  G   UNL     1      -7.064  34.658  43.739  1.00  0.00     0.000 G0
ENDBRANCH   6   7
ENDBRANCH   5   6
ENDBRANCH   3   5
ENDBRANCH   1   3
BRANCH   1  11
ATOM     11  C   UNL     1      -4.563  37.272  44.179  1.00  0.00     0.087 C 
BRANCH  11  12
ATOM     12  C   UNL     1      -6.117  37.126  44.178  1.00  0.00     0.066 C 
BRANCH  12  13
ATOM     13  C   UNL     1      -6.665  35.781  44.667  1.00  0.00     0.140 C 
ATOM     14  O   UNL     1      -6.700  35.571  45.871  1.00  0.00    -0.299 OA
BRANCH  13  15
ATOM     15  C   UNL     1      -7.084  34.662  43.743  1.00  0.00     0.106 CG0
ATOM     16  G   UNL     1      -6.045  33.566  43.528  1.00  0.00     0.000 G0
ENDBRANCH  13  15
ENDBRANCH  12  13
BRANCH  12  17
ATOM     17  C   UNL     1      -6.887  38.377  44.730  1.00  0.00    -0.006 C 
ATOM     18  C   UNL     1      -8.339  38.115  45.167  1.00  0.00     0.008 C 
ATOM     19  C   UNL     1      -6.879  39.521  43.702  1.00  0.00     0.008 C 
ENDBRANCH  12  17
ENDBRANCH  11  12
ENDBRANCH   1  11
TORSDOF 1
ENDMDL
MODEL 2
REMARK VINA RESULT:    -2.894      2.064      4.363
REMARK INTER + INTRA:          -4.587
REMARK INTER:                  -4.361
REMARK INTRA:                  -0.226
REMARK UNBOUND:                -0.170
REMARK SMILES CC1=CCC[C@@H](C)C(=O)C[C@H](C(C)C)C(=O)C1
REMARK SMILES IDX 8 1 9 2 6 3 7 4 5 5 4 6 3 7 2 8 1 9 10 11 11 12 15 13 16 14
REMARK SMILES IDX 17 15 12 17 13 18 14 19
REMARK H PARENT
REMARK Flexibility Score: 70.00
ROOT
ATOM      1  C   UNL     1      -4.727  34.488  42.960  1.00  0.00     0.136 C 
ATOM      2  O   UNL     1      -4.311  34.087  41.883  1.00  0.00    -0.299 OA
ENDROOT
BRANCH   1   3
ATOM      3  C   UNL     1      -5.769  33.630  43.682  1.00  0.00     0.053 C 
ATOM      4  C   UNL     1      -6.994  33.458  42.769  1.00  0.00     0.016 C 
BRANCH   3   5
ATOM      5  C   UNL     1      -6.250  34.133  45.068  1.00  0.00     0.015 C 
BRANCH   5   6
ATOM      6  C   UNL     1      -7.629  34.815  45.129  1.00  0.00     0.028 C 
BRANCH   6   7
ATOM      7  C   UNL     1      -7.671  36.083  45.947  1.00  0.00    -0.028 C 
ATOM      8  C   UNL     1      -7.554  37.355  45.488  1.00  0.00    -0.070 CG0
ATOM      9  C   UNL     1      -7.745  38.461  46.501  1.00  0.00     0.039 C 
ATOM     10  G   UNL     1      -7.141  37.751  44.073  1.00  0.00     0.000 G0
ENDBRANCH   6   7
ENDBRANCH   5   6
ENDBRANCH   3   5
ENDBRANCH   1   3
BRANCH   1  11
ATOM     11  C   UNL     1      -4.207  35.815  43.458  1.00  0.00     0.087 C 
BRANCH  11  12
ATOM     12  C   UNL     1      -4.865  37.087  42.839  1.00  0.00     0.066 C 
BRANCH  12  13
ATOM     13  C   UNL     1      -5.679  37.957  43.802  1.00  0.00     0.140 C 
ATOM     14  O   UNL     1      -5.093  38.808  44.456  1.00  0.00    -0.299 OA
BRANCH  13  15
ATOM     15  C   UNL     1      -7.157  37.765  44.059  1.00  0.00     0.106 CG0
ATOM     16  G   UNL     1      -7.526  37.350  45.480  1.00  0.00     0.000 G0
ENDBRANCH  13  15
ENDBRANCH  12  13
BRANCH  12  17
ATOM     17  C   UNL     1      -3.931  37.895  41.871  1.00  0.00    -0.006 C 
ATOM     18  C   UNL     1      -3.860  37.361  40.429  1.00  0.00     0.008 C 
ATOM     19  C   UNL     1      -2.504  37.985  42.436  1.00  0.00     0.008 C 
ENDBRANCH  12  17
ENDBRANCH  11  12
ENDBRANCH   1  11
TORSDOF 1
ENDMDL
MODEL 3
REMARK VINA RESULT:    -2.843     12.566     14.523
REMARK INTER + INTRA:          -4.509
REMARK INTER:                  -4.168
REMARK INTRA:                  -0.341
REMARK UNBOUND:                -0.170
REMARK SMILES CC1=CCC[C@@H](C)C(=O)C[C@H](C(C)C)C(=O)C1
REMARK SMILES IDX 8 1 9 2 6 3 7 4 5 5 4 6 3 7 2 8 1 9 10 11 11 12 15 13 16 14
REMARK SMILES IDX 17 15 12 17 13 18 14 19
REMARK H PARENT
REMARK Flexibility Score: 70.00
ROOT
ATOM      1  C   UNL     1      -7.083  30.884  57.949  1.00  0.00     0.136 C 
ATOM      2  O   UNL     1      -6.597  32.004  58.009  1.00  0.00    -0.299 OA
ENDROOT
BRANCH   1   3
ATOM      3  C   UNL     1      -6.239  29.715  58.461  1.00  0.00     0.053 C 
ATOM      4  C   UNL     1      -4.879  30.252  58.937  1.00  0.00     0.016 C 
BRANCH   3   5
ATOM      5  C   UNL     1      -5.991  28.545  57.473  1.00  0.00     0.015 C 
BRANCH   5   6
ATOM      6  C   UNL     1      -7.143  27.545  57.261  1.00  0.00     0.028 C 
BRANCH   6   7
ATOM      7  C   UNL     1      -7.371  27.139  55.826  1.00  0.00    -0.028 C 
ATOM      8  C   UNL     1      -8.287  27.654  54.967  1.00  0.00    -0.070 CG0
ATOM      9  C   UNL     1      -8.238  27.151  53.542  1.00  0.00     0.039 C 
ATOM     10  G   UNL     1      -9.419  28.605  55.345  1.00  0.00     0.000 G0
ENDBRANCH   6   7
ENDBRANCH   5   6
ENDBRANCH   3   5
ENDBRANCH   1   3
BRANCH   1  11
ATOM     11  C   UNL     1      -8.457  30.753  57.335  1.00  0.00     0.087 C 
BRANCH  11  12
ATOM     12  C   UNL     1      -8.567  31.099  55.817  1.00  0.00     0.066 C 
BRANCH  12  13
ATOM     13  C   UNL     1      -9.257  30.051  54.938  1.00  0.00     0.140 C 
ATOM     14  O   UNL     1      -9.755  30.414  53.882  1.00  0.00    -0.299 OA
BRANCH  13  15
ATOM     15  C   UNL     1      -9.435  28.606  55.342  1.00  0.00     0.106 CG0
ATOM     16  G   UNL     1      -8.287  27.674  54.966  1.00  0.00     0.000 G0
ENDBRANCH  13  15
ENDBRANCH  12  13
BRANCH  12  17
ATOM     17  C   UNL     1      -8.999  32.578  55.519  1.00  0.00    -0.006 C 
ATOM     18  C   UNL     1      -7.884  33.493  54.984  1.00  0.00     0.008 C 
ATOM     19  C   UNL     1      -9.616  33.230  56.768  1.00  0.00     0.008 C 
ENDBRANCH  12  17
ENDBRANCH  11  12
ENDBRANCH   1  11
TORSDOF 1
ENDMDL
MODEL 4
REMARK VINA RESULT:    -2.808     10.136     11.511
REMARK INTER + INTRA:          -4.456
REMARK INTER:                  -4.023
REMARK INTRA:                  -0.433
REMARK UNBOUND:                -0.170
REMARK SMILES CC1=CCC[C@@H](C)C(=O)C[C@H](C(C)C)C(=O)C1
REMARK SMILES IDX 8 1 9 2 6 3 7 4 5 5 4 6 3 7 2 8 1 9 10 11 11 12 15 13 16 14
REMARK SMILES IDX 17 15 12 17 13 18 14 19
REMARK H PARENT
REMARK Flexibility Score: 70.00
ROOT
ATOM      1  C   UNL     1       2.608  34.188  51.002  1.00  0.00     0.136 C 
ATOM      2  O   UNL     1       2.496  33.134  51.610  1.00  0.00    -0.299 OA
ENDROOT
BRANCH   1   3
ATOM      3  C   UNL     1       4.019  34.642  50.621  1.00  0.00     0.053 C 
ATOM      4  C   UNL     1       4.900  33.400  50.400  1.00  0.00     0.016 C 
BRANCH   3   5
ATOM      5  C   UNL     1       4.740  35.590  51.614  1.00  0.00     0.015 C 
BRANCH   5   6
ATOM      6  C   UNL     1       5.032  37.023  51.134  1.00  0.00     0.028 C 
BRANCH   6   7
ATOM      7  C   UNL     1       4.521  37.342  49.750  1.00  0.00    -0.028 C 
ATOM      8  C   UNL     1       3.412  38.058  49.433  1.00  0.00    -0.070 CG0
ATOM      9  C   UNL     1       3.180  38.334  47.965  1.00  0.00     0.039 C 
ATOM     10  G   UNL     1       2.337  38.507  50.418  1.00  0.00     0.000 G0
ENDBRANCH   6   7
ENDBRANCH   5   6
ENDBRANCH   3   5
ENDBRANCH   1   3
BRANCH   1  11
ATOM     11  C   UNL     1       1.345  34.967  50.719  1.00  0.00     0.087 C 
BRANCH  11  12
ATOM     12  C   UNL     1       1.192  36.325  51.473  1.00  0.00     0.066 C 
BRANCH  12  13
ATOM     13  C   UNL     1       1.155  37.579  50.594  1.00  0.00     0.140 C 
ATOM     14  O   UNL     1       0.149  37.798  49.934  1.00  0.00    -0.299 OA
BRANCH  13  15
ATOM     15  C   UNL     1       2.326  38.519  50.428  1.00  0.00     0.106 CG0
ATOM     16  G   UNL     1       3.401  38.059  49.447  1.00  0.00     0.000 G0
ENDBRANCH  13  15
ENDBRANCH  12  13
BRANCH  12  17
ATOM     17  C   UNL     1       0.126  36.310  52.625  1.00  0.00    -0.006 C 
ATOM     18  C   UNL     1       0.571  35.614  53.923  1.00  0.00     0.008 C 
ATOM     19  C   UNL     1      -1.188  35.671  52.146  1.00  0.00     0.008 C 
ENDBRANCH  12  17
ENDBRANCH  11  12
ENDBRANCH   1  11
TORSDOF 1
ENDMDL
MODEL 5
REMARK VINA RESULT:    -2.768      6.876      8.534
REMARK INTER + INTRA:          -4.395
REMARK INTER:                  -4.211
REMARK INTRA:                  -0.184
REMARK UNBOUND:                -0.170
REMARK SMILES CC1=CCC[C@@H](C)C(=O)C[C@H](C(C)C)C(=O)C1
REMARK SMILES IDX 8 1 9 2 6 3 7 4 5 5 4 6 3 7 2 8 1 9 10 11 11 12 15 13 16 14
REMARK SMILES IDX 17 15 12 17 13 18 14 19
REMARK H PARENT
REMARK Flexibility Score: 70.00
ROOT
ATOM      1  C   UNL     1      -0.129  32.510  44.032  1.00  0.00     0.136 C 
ATOM      2  O   UNL     1       0.353  33.623  43.879  1.00  0.00    -0.299 OA
ENDROOT
BRANCH   1   3
ATOM      3  C   UNL     1      -0.130  31.925  45.445  1.00  0.00     0.053 C 
ATOM      4  C   UNL     1      -0.101  33.077  46.463  1.00  0.00     0.016 C 
BRANCH   3   5
ATOM      5  C   UNL     1       1.008  30.930  45.791  1.00  0.00     0.015 C 
BRANCH   5   6
ATOM      6  C   UNL     1       0.597  29.505  46.204  1.00  0.00     0.028 C 
BRANCH   6   7
ATOM      7  C   UNL     1      -0.892  29.262  46.241  1.00  0.00    -0.028 C 
ATOM      8  C   UNL     1      -1.640  28.626  45.303  1.00  0.00    -0.070 CG0
ATOM      9  C   UNL     1      -3.100  28.413  45.632  1.00  0.00     0.039 C 
ATOM     10  G   UNL     1      -1.157  28.214  43.916  1.00  0.00     0.000 G0
ENDBRANCH   6   7
ENDBRANCH   5   6
ENDBRANCH   3   5
ENDBRANCH   1   3
BRANCH   1  11
ATOM     11  C   UNL     1      -0.640  31.798  42.802  1.00  0.00     0.087 C 
BRANCH  11  12
ATOM     12  C   UNL     1      -0.169  30.322  42.617  1.00  0.00     0.066 C 
BRANCH  12  13
ATOM     13  C   UNL     1      -1.238  29.245  42.826  1.00  0.00     0.140 C 
ATOM     14  O   UNL     1      -2.244  29.281  42.132  1.00  0.00    -0.299 OA
BRANCH  13  15
ATOM     15  C   UNL     1      -1.163  28.188  43.904  1.00  0.00     0.106 CG0
ATOM     16  G   UNL     1      -1.633  28.629  45.287  1.00  0.00     0.000 G0
ENDBRANCH  13  15
ENDBRANCH  12  13
BRANCH  12  17
ATOM     17  C   UNL     1       0.751  30.086  41.367  1.00  0.00    -0.006 C 
ATOM     18  C   UNL     1       0.237  29.042  40.361  1.00  0.00     0.008 C 
ATOM     19  C   UNL     1       2.174  29.697  41.802  1.00  0.00     0.008 C 
ENDBRANCH  12  17
ENDBRANCH  11  12
ENDBRANCH   1  11
TORSDOF 1
ENDMDL
MODEL 6
REMARK VINA RESULT:    -2.689      2.088      5.512
REMARK INTER + INTRA:          -4.273
REMARK INTER:                  -4.276
REMARK INTRA:                   0.003
REMARK UNBOUND:                -0.170
REMARK SMILES CC1=CCC[C@@H](C)C(=O)C[C@H](C(C)C)C(=O)C1
REMARK SMILES IDX 8 1 9 2 6 3 7 4 5 5 4 6 3 7 2 8 1 9 10 11 11 12 15 13 16 14
REMARK SMILES IDX 17 15 12 17 13 18 14 19
REMARK H PARENT
REMARK Flexibility Score: 70.00
ROOT
ATOM      1  C   UNL     1      -7.001  36.283  46.144  1.00  0.00     0.136 C 
ATOM      2  O   UNL     1      -7.742  35.379  46.502  1.00  0.00    -0.299 OA
ENDROOT
BRANCH   1   3
ATOM      3  C   UNL     1      -7.527  37.716  46.249  1.00  0.00     0.053 C 
ATOM      4  C   UNL     1      -8.584  37.941  45.154  1.00  0.00     0.016 C 
BRANCH   3   5
ATOM      5  C   UNL     1      -6.477  38.854  46.165  1.00  0.00     0.015 C 
BRANCH   5   6
ATOM      6  C   UNL     1      -6.328  39.577  44.814  1.00  0.00     0.028 C 
BRANCH   6   7
ATOM      7  C   UNL     1      -4.904  39.761  44.349  1.00  0.00    -0.028 C 
ATOM      8  C   UNL     1      -4.273  39.082  43.357  1.00  0.00    -0.070 CG0
ATOM      9  C   UNL     1      -2.874  39.536  43.009  1.00  0.00     0.039 C 
ATOM     10  G   UNL     1      -4.815  37.843  42.650  1.00  0.00     0.000 G0
ENDBRANCH   6   7
ENDBRANCH   5   6
ENDBRANCH   3   5
ENDBRANCH   1   3
BRANCH   1  11
ATOM     11  C   UNL     1      -5.649  35.898  45.593  1.00  0.00     0.087 C 
BRANCH  11  12
ATOM     12  C   UNL     1      -5.571  35.690  44.048  1.00  0.00     0.066 C 
BRANCH  12  13
ATOM     13  C   UNL     1      -4.517  36.521  43.311  1.00  0.00     0.140 C 
ATOM     14  O   UNL     1      -3.357  36.133  43.321  1.00  0.00    -0.299 OA
BRANCH  13  15
ATOM     15  C   UNL     1      -4.811  37.845  42.644  1.00  0.00     0.106 CG0
ATOM     16  G   UNL     1      -4.246  39.074  43.350  1.00  0.00     0.000 G0
ENDBRANCH  13  15
ENDBRANCH  12  13
BRANCH  12  17
ATOM     17  C   UNL     1      -5.648  34.190  43.591  1.00  0.00    -0.006 C 
ATOM     18  C   UNL     1      -4.904  33.863  42.284  1.00  0.00     0.008 C 
ATOM     19  C   UNL     1      -7.110  33.734  43.455  1.00  0.00     0.008 C 
ENDBRANCH  12  17
ENDBRANCH  11  12
ENDBRANCH   1  11
TORSDOF 1
ENDMDL
MODEL 7
REMARK VINA RESULT:    -2.679      1.502      2.147
REMARK INTER + INTRA:          -4.259
REMARK INTER:                  -4.162
REMARK INTRA:                  -0.097
REMARK UNBOUND:                -0.170
REMARK SMILES CC1=CCC[C@@H](C)C(=O)C[C@H](C(C)C)C(=O)C1
REMARK SMILES IDX 8 1 9 2 6 3 7 4 5 5 4 6 3 7 2 8 1 9 10 11 11 12 15 13 16 14
REMARK SMILES IDX 17 15 12 17 13 18 14 19
REMARK H PARENT
REMARK Flexibility Score: 70.00
ROOT
ATOM      1  C   UNL     1      -2.976  35.719  42.983  1.00  0.00     0.136 C 
ATOM      2  O   UNL     1      -2.200  35.245  43.800  1.00  0.00    -0.299 OA
ENDROOT
BRANCH   1   3
ATOM      3  C   UNL     1      -3.271  34.898  41.725  1.00  0.00     0.053 C 
ATOM      4  C   UNL     1      -3.148  35.810  40.494  1.00  0.00     0.016 C 
BRANCH   3   5
ATOM      5  C   UNL     1      -4.640  34.172  41.669  1.00  0.00     0.015 C 
BRANCH   5   6
ATOM      6  C   UNL     1      -5.029  33.306  42.881  1.00  0.00     0.028 C 
BRANCH   6   7
ATOM      7  C   UNL     1      -6.377  33.625  43.480  1.00  0.00    -0.028 C 
ATOM      8  C   UNL     1      -6.633  34.464  44.516  1.00  0.00    -0.070 CG0
ATOM      9  C   UNL     1      -8.087  34.700  44.853  1.00  0.00     0.039 C 
ATOM     10  G   UNL     1      -5.582  35.093  45.426  1.00  0.00     0.000 G0
ENDBRANCH   6   7
ENDBRANCH   5   6
ENDBRANCH   3   5
ENDBRANCH   1   3
BRANCH   1  11
ATOM     11  C   UNL     1      -3.539  37.090  43.270  1.00  0.00     0.087 C 
BRANCH  11  12
ATOM     12  C   UNL     1      -5.020  37.135  43.762  1.00  0.00     0.066 C 
BRANCH  12  13
ATOM     13  C   UNL     1      -5.282  36.553  45.155  1.00  0.00     0.140 C 
ATOM     14  O   UNL     1      -5.172  37.291  46.124  1.00  0.00    -0.299 OA
BRANCH  13  15
ATOM     15  C   UNL     1      -5.584  35.095  45.410  1.00  0.00     0.106 CG0
ATOM     16  G   UNL     1      -6.647  34.477  44.507  1.00  0.00     0.000 G0
ENDBRANCH  13  15
ENDBRANCH  12  13
BRANCH  12  17
ATOM     17  C   UNL     1      -5.757  38.491  43.478  1.00  0.00    -0.006 C 
ATOM     18  C   UNL     1      -5.059  39.746  44.029  1.00  0.00     0.008 C 
ATOM     19  C   UNL     1      -7.199  38.452  44.013  1.00  0.00     0.008 C 
ENDBRANCH  12  17
ENDBRANCH  11  12
ENDBRANCH   1  11
TORSDOF 1
ENDMDL
MODEL 8
REMARK VINA RESULT:    -2.677      2.821      4.722
REMARK INTER + INTRA:          -4.255
REMARK INTER:                  -3.715
REMARK INTRA:                  -0.540
REMARK UNBOUND:                -0.170
REMARK SMILES CC1=CCC[C@@H](C)C(=O)C[C@H](C(C)C)C(=O)C1
REMARK SMILES IDX 8 1 9 2 6 3 7 4 5 5 4 6 3 7 2 8 1 9 10 11 11 12 15 13 16 14
REMARK SMILES IDX 17 15 12 17 13 18 14 19
REMARK H PARENT
REMARK Flexibility Score: 70.00
ROOT
ATOM      1  C   UNL     1      -6.524  38.233  43.701  1.00  0.00     0.136 C 
ATOM      2  O   UNL     1      -7.366  39.117  43.653  1.00  0.00    -0.299 OA
ENDROOT
BRANCH   1   3
ATOM      3  C   UNL     1      -5.071  38.620  43.417  1.00  0.00     0.053 C 
ATOM      4  C   UNL     1      -4.397  37.487  42.625  1.00  0.00     0.016 C 
BRANCH   3   5
ATOM      5  C   UNL     1      -4.186  38.960  44.645  1.00  0.00     0.015 C 
BRANCH   5   6
ATOM      6  C   UNL     1      -4.870  39.652  45.837  1.00  0.00     0.028 C 
BRANCH   6   7
ATOM      7  C   UNL     1      -4.652  38.978  47.169  1.00  0.00    -0.028 C 
ATOM      8  C   UNL     1      -5.467  38.073  47.771  1.00  0.00    -0.070 CG0
ATOM      9  C   UNL     1      -4.964  37.459  49.057  1.00  0.00     0.039 C 
ATOM     10  G   UNL     1      -6.879  37.715  47.317  1.00  0.00     0.000 G0
ENDBRANCH   6   7
ENDBRANCH   5   6
ENDBRANCH   3   5
ENDBRANCH   1   3
BRANCH   1  11
ATOM     11  C   UNL     1      -7.002  36.831  43.993  1.00  0.00     0.087 C 
BRANCH  11  12
ATOM     12  C   UNL     1      -6.350  36.125  45.224  1.00  0.00     0.066 C 
BRANCH  12  13
ATOM     13  C   UNL     1      -7.016  36.390  46.578  1.00  0.00     0.140 C 
ATOM     14  O   UNL     1      -7.748  35.529  47.045  1.00  0.00    -0.299 OA
BRANCH  13  15
ATOM     15  C   UNL     1      -6.889  37.693  47.333  1.00  0.00     0.106 CG0
ATOM     16  G   UNL     1      -5.473  38.070  47.757  1.00  0.00     0.000 G0
ENDBRANCH  13  15
ENDBRANCH  12  13
BRANCH  12  17
ATOM     17  C   UNL     1      -5.955  34.627  44.979  1.00  0.00    -0.006 C 
ATOM     18  C   UNL     1      -4.577  34.213  45.524  1.00  0.00     0.008 C 
ATOM     19  C   UNL     1      -6.019  34.282  43.481  1.00  0.00     0.008 C 
ENDBRANCH  12  17
ENDBRANCH  11  12
ENDBRANCH   1  11
TORSDOF 1
ENDMDL
MODEL 9
REMARK VINA RESULT:    -2.634      6.255      8.388
REMARK INTER + INTRA:          -4.191
REMARK INTER:                  -3.770
REMARK INTRA:                  -0.421
REMARK UNBOUND:                -0.170
REMARK SMILES CC1=CCC[C@@H](C)C(=O)C[C@H](C(C)C)C(=O)C1
REMARK SMILES IDX 8 1 9 2 6 3 7 4 5 5 4 6 3 7 2 8 1 9 10 11 11 12 15 13 16 14
REMARK SMILES IDX 17 15 12 17 13 18 14 19
REMARK H PARENT
REMARK Flexibility Score: 70.00
ROOT
ATOM      1  C   UNL     1      -1.319  32.186  42.784  1.00  0.00     0.136 C 
ATOM      2  O   UNL     1      -1.224  32.967  41.849  1.00  0.00    -0.299 OA
ENDROOT
BRANCH   1   3
ATOM      3  C   UNL     1      -1.358  32.771  44.197  1.00  0.00     0.053 C 
ATOM      4  C   UNL     1      -2.286  33.997  44.205  1.00  0.00     0.016 C 
BRANCH   3   5
ATOM      5  C   UNL     1       0.002  33.176  44.824  1.00  0.00     0.015 C 
BRANCH   5   6
ATOM      6  C   UNL     1       0.533  32.305  45.977  1.00  0.00     0.028 C 
BRANCH   6   7
ATOM      7  C   UNL     1      -0.522  31.513  46.709  1.00  0.00    -0.028 C 
ATOM      8  C   UNL     1      -0.710  30.169  46.668  1.00  0.00    -0.070 CG0
ATOM      9  C   UNL     1      -1.770  29.606  47.586  1.00  0.00     0.039 C 
ATOM     10  G   UNL     1      -0.022  29.208  45.703  1.00  0.00     0.000 G0
ENDBRANCH   6   7
ENDBRANCH   5   6
ENDBRANCH   3   5
ENDBRANCH   1   3
BRANCH   1  11
ATOM     11  C   UNL     1      -1.349  30.711  42.459  1.00  0.00     0.087 C 
BRANCH  11  12
ATOM     12  C   UNL     1      -0.234  29.840  43.120  1.00  0.00     0.066 C 
BRANCH  12  13
ATOM     13  C   UNL     1      -0.656  29.031  44.351  1.00  0.00     0.140 C 
ATOM     14  O   UNL     1      -1.604  28.265  44.247  1.00  0.00    -0.299 OA
BRANCH  13  15
ATOM     15  C   UNL     1      -0.024  29.191  45.715  1.00  0.00     0.106 CG0
ATOM     16  G   UNL     1      -0.724  30.172  46.650  1.00  0.00     0.000 G0
ENDBRANCH  13  15
ENDBRANCH  12  13
BRANCH  12  17
ATOM     17  C   UNL     1       0.659  29.048  42.102  1.00  0.00    -0.006 C 
ATOM     18  C   UNL     1       1.955  29.759  41.674  1.00  0.00     0.008 C 
ATOM     19  C   UNL     1      -0.142  28.681  40.842  1.00  0.00     0.008 C 
ENDBRANCH  12  17
ENDBRANCH  11  12
ENDBRANCH   1  11
TORSDOF 1
ENDMDL
