MODEL 1
REMARK VINA RESULT:    -3.709      0.000      0.000
REMARK INTER + INTRA:          -6.484
REMARK INTER:                  -5.660
REMARK INTRA:                  -0.824
REMARK UNBOUND:                -0.824
REMARK SMILES CCCCCCCCCCC(=O)[O-]
REMARK SMILES IDX 7 1 8 2 9 3 10 4 11 5 12 6 13 7 6 8 5 9 4 10 3 11 2 12 1 13
REMARK H PARENT
REMARK Flexibility Score: inf
ROOT
ATOM      1  C   UNL     1      28.700  34.718  23.555  1.00  0.00     0.000 C 
ENDROOT
BRANCH   1   2
ATOM      2  C   UNL     1      28.668  33.264  23.042  1.00  0.00     0.000 C 
BRANCH   2   3
ATOM      3  C   UNL     1      30.034  32.550  23.008  1.00  0.00     0.006 C 
BRANCH   3   4
ATOM      4  C   UNL     1      31.245  33.495  22.987  1.00  0.00     0.053 C 
BRANCH   4   5
ATOM      5  C   UNL     1      32.003  33.406  21.699  1.00  0.00     0.041 C 
ATOM      6  O   UNL     1      33.229  33.117  21.705  1.00  0.00    -0.550 OA
ATOM      7  O   UNL     1      31.365  33.674  20.494  1.00  0.00    -0.550 OA
ENDBRANCH   4   5
ENDBRANCH   3   4
ENDBRANCH   2   3
ENDBRANCH   1   2
BRANCH   1   8
ATOM      8  C   UNL     1      28.084  35.760  22.603  1.00  0.00     0.000 C 
BRANCH   8   9
ATOM      9  C   UNL     1      28.356  35.451  21.120  1.00  0.00    -0.000 C 
BRANCH   9  10
ATOM     10  C   UNL     1      27.095  35.622  20.244  1.00  0.00    -0.000 C 
BRANCH  10  11
ATOM     11  C   UNL     1      26.683  34.344  19.493  1.00  0.00    -0.000 C 
BRANCH  11  12
ATOM     12  C   UNL     1      26.175  33.238  20.427  1.00  0.00    -0.003 C 
ATOM     13  C   UNL     1      24.875  32.631  19.907  1.00  0.00     0.004 C 
ENDBRANCH  11  12
ENDBRANCH  10  11
ENDBRANCH   9  10
ENDBRANCH   8   9
ENDBRANCH   1   8
TORSDOF 9
ENDMDL
MODEL 2
REMARK VINA RESULT:    -3.671     15.998     17.479
REMARK INTER + INTRA:          -6.426
REMARK INTER:                  -5.129
REMARK INTRA:                  -1.296
REMARK UNBOUND:                -0.824
REMARK SMILES CCCCCCCCCCC(=O)[O-]
REMARK SMILES IDX 7 1 8 2 9 3 10 4 11 5 12 6 13 7 6 8 5 9 4 10 3 11 2 12 1 13
REMARK H PARENT
REMARK Flexibility Score: inf
ROOT
ATOM      1  C   UNL     1      38.650  22.095  31.552  1.00  0.00     0.000 C 
ENDROOT
BRANCH   1   2
ATOM      2  C   UNL     1      39.987  22.447  32.235  1.00  0.00     0.000 C 
BRANCH   2   3
ATOM      3  C   UNL     1      40.580  23.818  31.852  1.00  0.00     0.006 C 
BRANCH   3   4
ATOM      4  C   UNL     1      41.526  23.786  30.642  1.00  0.00     0.053 C 
BRANCH   4   5
ATOM      5  C   UNL     1      41.524  25.083  29.895  1.00  0.00     0.041 C 
ATOM      6  O   UNL     1      42.590  25.746  29.777  1.00  0.00    -0.550 OA
ATOM      7  O   UNL     1      40.343  25.578  29.357  1.00  0.00    -0.550 OA
ENDBRANCH   4   5
ENDBRANCH   3   4
ENDBRANCH   2   3
ENDBRANCH   1   2
BRANCH   1   8
ATOM      8  C   UNL     1      37.705  23.287  31.313  1.00  0.00     0.000 C 
BRANCH   8   9
ATOM      9  C   UNL     1      37.575  23.658  29.825  1.00  0.00    -0.000 C 
BRANCH   9  10
ATOM     10  C   UNL     1      38.013  22.508  28.893  1.00  0.00    -0.000 C 
BRANCH  10  11
ATOM     11  C   UNL     1      38.751  22.980  27.629  1.00  0.00    -0.000 C 
BRANCH  11  12
ATOM     12  C   UNL     1      40.161  22.387  27.502  1.00  0.00    -0.003 C 
ATOM     13  C   UNL     1      40.330  21.168  28.404  1.00  0.00     0.004 C 
ENDBRANCH  11  12
ENDBRANCH  10  11
ENDBRANCH   9  10
ENDBRANCH   8   9
ENDBRANCH   1   8
TORSDOF 9
ENDMDL
MODEL 3
REMARK VINA RESULT:    -3.638      2.421      3.672
REMARK INTER + INTRA:          -6.375
REMARK INTER:                  -5.499
REMARK INTRA:                  -0.876
REMARK UNBOUND:                -0.824
REMARK SMILES CCCCCCCCCCC(=O)[O-]
REMARK SMILES IDX 7 1 8 2 9 3 10 4 11 5 12 6 13 7 6 8 5 9 4 10 3 11 2 12 1 13
REMARK H PARENT
REMARK Flexibility Score: inf
ROOT
ATOM      1  C   UNL     1      31.519  33.379  23.027  1.00  0.00     0.000 C 
ENDROOT
BRANCH   1   2
ATOM      2  C   UNL     1      32.900  33.699  22.420  1.00  0.00     0.000 C 
BRANCH   2   3
ATOM      3  C   UNL     1      33.507  32.582  21.547  1.00  0.00     0.006 C 
BRANCH   3   4
ATOM      4  C   UNL     1      33.407  32.833  20.034  1.00  0.00     0.053 C 
BRANCH   4   5
ATOM      5  C   UNL     1      34.337  31.952  19.258  1.00  0.00     0.041 C 
ATOM      6  O   UNL     1      35.491  31.705  19.701  1.00  0.00    -0.550 OA
ATOM      7  O   UNL     1      33.944  31.432  18.032  1.00  0.00    -0.550 OA
ENDBRANCH   4   5
ENDBRANCH   3   4
ENDBRANCH   2   3
ENDBRANCH   1   2
BRANCH   1   8
ATOM      8  C   UNL     1      30.699  34.605  23.470  1.00  0.00     0.000 C 
BRANCH   8   9
ATOM      9  C   UNL     1      29.217  34.275  23.720  1.00  0.00    -0.000 C 
BRANCH   9  10
ATOM     10  C   UNL     1      28.752  33.029  22.934  1.00  0.00    -0.000 C 
BRANCH  10  11
ATOM     11  C   UNL     1      28.091  33.357  21.585  1.00  0.00    -0.000 C 
BRANCH  11  12
ATOM     12  C   UNL     1      28.960  32.970  20.381  1.00  0.00    -0.003 C 
ATOM     13  C   UNL     1      29.816  34.146  19.919  1.00  0.00     0.004 C 
ENDBRANCH  11  12
ENDBRANCH  10  11
ENDBRANCH   9  10
ENDBRANCH   8   9
ENDBRANCH   1   8
TORSDOF 9
ENDMDL
MODEL 4
REMARK VINA RESULT:    -3.547      1.817      2.480
REMARK INTER + INTRA:          -6.238
REMARK INTER:                  -5.771
REMARK INTRA:                  -0.466
REMARK UNBOUND:                -0.824
REMARK SMILES CCCCCCCCCCC(=O)[O-]
REMARK SMILES IDX 7 1 8 2 9 3 10 4 11 5 12 6 13 7 6 8 5 9 4 10 3 11 2 12 1 13
REMARK H PARENT
REMARK Flexibility Score: inf
ROOT
ATOM      1  C   UNL     1      30.184  34.241  23.372  1.00  0.00     0.000 C 
ENDROOT
BRANCH   1   2
ATOM      2  C   UNL     1      31.637  34.425  22.889  1.00  0.00     0.000 C 
BRANCH   2   3
ATOM      3  C   UNL     1      32.409  33.118  22.616  1.00  0.00     0.006 C 
BRANCH   3   4
ATOM      4  C   UNL     1      33.175  33.098  21.285  1.00  0.00     0.053 C 
BRANCH   4   5
ATOM      5  C   UNL     1      34.652  33.238  21.486  1.00  0.00     0.041 C 
ATOM      6  O   UNL     1      35.111  33.516  22.626  1.00  0.00    -0.550 OA
ATOM      7  O   UNL     1      35.520  33.094  20.411  1.00  0.00    -0.550 OA
ENDBRANCH   4   5
ENDBRANCH   3   4
ENDBRANCH   2   3
ENDBRANCH   1   2
BRANCH   1   8
ATOM      8  C   UNL     1      29.509  32.930  22.930  1.00  0.00     0.000 C 
BRANCH   8   9
ATOM      9  C   UNL     1      28.094  33.147  22.366  1.00  0.00    -0.000 C 
BRANCH   9  10
ATOM     10  C   UNL     1      28.107  33.473  20.856  1.00  0.00    -0.000 C 
BRANCH  10  11
ATOM     11  C   UNL     1      26.876  34.263  20.381  1.00  0.00    -0.000 C 
BRANCH  11  12
ATOM     12  C   UNL     1      26.030  33.495  19.357  1.00  0.00    -0.003 C 
ATOM     13  C   UNL     1      24.875  32.763  20.035  1.00  0.00     0.004 C 
ENDBRANCH  11  12
ENDBRANCH  10  11
ENDBRANCH   9  10
ENDBRANCH   8   9
ENDBRANCH   1   8
TORSDOF 9
ENDMDL
MODEL 5
REMARK VINA RESULT:    -3.523      2.774      4.790
REMARK INTER + INTRA:          -6.200
REMARK INTER:                  -5.147
REMARK INTRA:                  -1.053
REMARK UNBOUND:                -0.824
REMARK SMILES CCCCCCCCCCC(=O)[O-]
REMARK SMILES IDX 7 1 8 2 9 3 10 4 11 5 12 6 13 7 6 8 5 9 4 10 3 11 2 12 1 13
REMARK H PARENT
REMARK Flexibility Score: inf
ROOT
ATOM      1  C   UNL     1      30.762  32.998  23.008  1.00  0.00     0.000 C 
ENDROOT
BRANCH   1   2
ATOM      2  C   UNL     1      29.335  32.413  22.987  1.00  0.00     0.000 C 
BRANCH   2   3
ATOM      3  C   UNL     1      28.257  33.336  22.384  1.00  0.00     0.006 C 
BRANCH   3   4
ATOM      4  C   UNL     1      28.045  33.165  20.872  1.00  0.00     0.053 C 
BRANCH   4   5
ATOM      5  C   UNL     1      26.727  33.715  20.425  1.00  0.00     0.041 C 
ATOM      6  O   UNL     1      26.610  34.942  20.162  1.00  0.00    -0.550 OA
ATOM      7  O   UNL     1      25.619  32.882  20.330  1.00  0.00    -0.550 OA
ENDBRANCH   4   5
ENDBRANCH   3   4
ENDBRANCH   2   3
ENDBRANCH   1   2
BRANCH   1   8
ATOM      8  C   UNL     1      30.848  34.522  22.799  1.00  0.00     0.000 C 
BRANCH   8   9
ATOM      9  C   UNL     1      31.168  35.286  24.096  1.00  0.00    -0.000 C 
BRANCH   9  10
ATOM     10  C   UNL     1      30.084  36.329  24.447  1.00  0.00    -0.000 C 
BRANCH  10  11
ATOM     11  C   UNL     1      28.868  35.738  25.179  1.00  0.00    -0.000 C 
BRANCH  11  12
ATOM     12  C   UNL     1      27.530  36.247  24.625  1.00  0.00    -0.003 C 
ATOM     13  C   UNL     1      27.707  36.873  23.245  1.00  0.00     0.004 C 
ENDBRANCH  11  12
ENDBRANCH  10  11
ENDBRANCH   9  10
ENDBRANCH   8   9
ENDBRANCH   1   8
TORSDOF 9
ENDMDL
MODEL 6
REMARK VINA RESULT:    -3.480      2.483      4.701
REMARK INTER + INTRA:          -6.135
REMARK INTER:                  -4.976
REMARK INTRA:                  -1.159
REMARK UNBOUND:                -0.824
REMARK SMILES CCCCCCCCCCC(=O)[O-]
REMARK SMILES IDX 7 1 8 2 9 3 10 4 11 5 12 6 13 7 6 8 5 9 4 10 3 11 2 12 1 13
REMARK H PARENT
REMARK Flexibility Score: inf
ROOT
ATOM      1  C   UNL     1      29.196  33.913  20.085  1.00  0.00     0.000 C 
ENDROOT
BRANCH   1   2
ATOM      2  C   UNL     1      30.395  33.199  19.427  1.00  0.00     0.000 C 
BRANCH   2   3
ATOM      3  C   UNL     1      31.719  33.989  19.445  1.00  0.00     0.006 C 
BRANCH   3   4
ATOM      4  C   UNL     1      32.962  33.138  19.746  1.00  0.00     0.053 C 
BRANCH   4   5
ATOM      5  C   UNL     1      33.568  32.571  18.499  1.00  0.00     0.041 C 
ATOM      6  O   UNL     1      33.547  31.327  18.295  1.00  0.00    -0.550 OA
ATOM      7  O   UNL     1      34.185  33.409  17.580  1.00  0.00    -0.550 OA
ENDBRANCH   4   5
ENDBRANCH   3   4
ENDBRANCH   2   3
ENDBRANCH   1   2
BRANCH   1   8
ATOM      8  C   UNL     1      28.323  33.026  20.991  1.00  0.00     0.000 C 
BRANCH   8   9
ATOM      9  C   UNL     1      28.586  33.260  22.489  1.00  0.00    -0.000 C 
BRANCH   9  10
ATOM     10  C   UNL     1      29.649  32.294  23.057  1.00  0.00    -0.000 C 
BRANCH  10  11
ATOM     11  C   UNL     1      31.074  32.871  23.059  1.00  0.00    -0.000 C 
BRANCH  11  12
ATOM     12  C   UNL     1      31.114  34.368  23.395  1.00  0.00    -0.003 C 
ATOM     13  C   UNL     1      32.404  35.011  22.893  1.00  0.00     0.004 C 
ENDBRANCH  11  12
ENDBRANCH  10  11
ENDBRANCH   9  10
ENDBRANCH   8   9
ENDBRANCH   1   8
TORSDOF 9
ENDMDL
MODEL 7
REMARK VINA RESULT:    -3.471      1.856      2.856
REMARK INTER + INTRA:          -6.122
REMARK INTER:                  -4.911
REMARK INTRA:                  -1.211
REMARK UNBOUND:                -0.824
REMARK SMILES CCCCCCCCCCC(=O)[O-]
REMARK SMILES IDX 7 1 8 2 9 3 10 4 11 5 12 6 13 7 6 8 5 9 4 10 3 11 2 12 1 13
REMARK H PARENT
REMARK Flexibility Score: inf
ROOT
ATOM      1  C   UNL     1      28.723  34.819  23.672  1.00  0.00     0.000 C 
ENDROOT
BRANCH   1   2
ATOM      2  C   UNL     1      30.178  34.984  24.155  1.00  0.00     0.000 C 
BRANCH   2   3
ATOM      3  C   UNL     1      31.254  34.825  23.063  1.00  0.00     0.006 C 
BRANCH   3   4
ATOM      4  C   UNL     1      31.852  33.413  22.961  1.00  0.00     0.053 C 
BRANCH   4   5
ATOM      5  C   UNL     1      33.161  33.411  22.234  1.00  0.00     0.041 C 
ATOM      6  O   UNL     1      33.507  32.405  21.558  1.00  0.00    -0.550 OA
ATOM      7  O   UNL     1      34.013  34.503  22.327  1.00  0.00    -0.550 OA
ENDBRANCH   4   5
ENDBRANCH   3   4
ENDBRANCH   2   3
ENDBRANCH   1   2
BRANCH   1   8
ATOM      8  C   UNL     1      28.297  33.371  23.363  1.00  0.00     0.000 C 
BRANCH   8   9
ATOM      9  C   UNL     1      28.114  33.110  21.858  1.00  0.00    -0.000 C 
BRANCH   9  10
ATOM     10  C   UNL     1      28.061  34.418  21.037  1.00  0.00    -0.000 C 
BRANCH  10  11
ATOM     11  C   UNL     1      29.190  34.547  20.001  1.00  0.00    -0.000 C 
BRANCH  11  12
ATOM     12  C   UNL     1      29.997  33.253  19.830  1.00  0.00    -0.003 C 
ATOM     13  C   UNL     1      31.253  33.492  18.996  1.00  0.00     0.004 C 
ENDBRANCH  11  12
ENDBRANCH  10  11
ENDBRANCH   9  10
ENDBRANCH   8   9
ENDBRANCH   1   8
TORSDOF 9
ENDMDL
MODEL 8
REMARK VINA RESULT:    -3.451      2.773      5.027
REMARK INTER + INTRA:          -6.090
REMARK INTER:                  -4.846
REMARK INTRA:                  -1.244
REMARK UNBOUND:                -0.824
REMARK SMILES CCCCCCCCCCC(=O)[O-]
REMARK SMILES IDX 7 1 8 2 9 3 10 4 11 5 12 6 13 7 6 8 5 9 4 10 3 11 2 12 1 13
REMARK H PARENT
REMARK Flexibility Score: inf
ROOT
ATOM      1  C   UNL     1      32.925  34.031  22.720  1.00  0.00     0.000 C 
ENDROOT
BRANCH   1   2
ATOM      2  C   UNL     1      31.764  33.037  22.929  1.00  0.00     0.000 C 
BRANCH   2   3
ATOM      3  C   UNL     1      30.368  33.678  23.066  1.00  0.00     0.006 C 
BRANCH   3   4
ATOM      4  C   UNL     1      29.214  32.801  22.557  1.00  0.00     0.053 C 
BRANCH   4   5
ATOM      5  C   UNL     1      28.237  33.584  21.735  1.00  0.00     0.041 C 
ATOM      6  O   UNL     1      27.915  34.753  22.079  1.00  0.00    -0.550 OA
ATOM      7  O   UNL     1      27.655  33.012  20.611  1.00  0.00    -0.550 OA
ENDBRANCH   4   5
ENDBRANCH   3   4
ENDBRANCH   2   3
ENDBRANCH   1   2
BRANCH   1   8
ATOM      8  C   UNL     1      34.193  33.431  22.084  1.00  0.00     0.000 C 
BRANCH   8   9
ATOM      9  C   UNL     1      33.884  32.512  20.889  1.00  0.00    -0.000 C 
BRANCH   9  10
ATOM     10  C   UNL     1      33.515  33.307  19.617  1.00  0.00    -0.000 C 
BRANCH  10  11
ATOM     11  C   UNL     1      32.297  32.744  18.865  1.00  0.00    -0.000 C 
BRANCH  11  12
ATOM     12  C   UNL     1      30.987  33.455  19.230  1.00  0.00    -0.003 C 
ATOM     13  C   UNL     1      31.231  34.925  19.561  1.00  0.00     0.004 C 
ENDBRANCH  11  12
ENDBRANCH  10  11
ENDBRANCH   9  10
ENDBRANCH   8   9
ENDBRANCH   1   8
TORSDOF 9
ENDMDL
MODEL 9
REMARK VINA RESULT:    -3.434      2.800      5.145
REMARK INTER + INTRA:          -6.064
REMARK INTER:                  -5.064
REMARK INTRA:                  -1.000
REMARK UNBOUND:                -0.824
REMARK SMILES CCCCCCCCCCC(=O)[O-]
REMARK SMILES IDX 7 1 8 2 9 3 10 4 11 5 12 6 13 7 6 8 5 9 4 10 3 11 2 12 1 13
REMARK H PARENT
REMARK Flexibility Score: inf
ROOT
ATOM      1  C   UNL     1      29.548  34.256  23.062  1.00  0.00     0.000 C 
ENDROOT
BRANCH   1   2
ATOM      2  C   UNL     1      28.985  32.876  22.663  1.00  0.00     0.000 C 
BRANCH   2   3
ATOM      3  C   UNL     1      28.684  32.699  21.162  1.00  0.00     0.006 C 
BRANCH   3   4
ATOM      4  C   UNL     1      28.487  34.015  20.393  1.00  0.00     0.053 C 
BRANCH   4   5
ATOM      5  C   UNL     1      27.044  34.406  20.313  1.00  0.00     0.041 C 
ATOM      6  O   UNL     1      26.168  33.540  20.051  1.00  0.00    -0.550 OA
ATOM      7  O   UNL     1      26.670  35.731  20.495  1.00  0.00    -0.550 OA
ENDBRANCH   4   5
ENDBRANCH   3   4
ENDBRANCH   2   3
ENDBRANCH   1   2
BRANCH   1   8
ATOM      8  C   UNL     1      31.075  34.308  23.255  1.00  0.00     0.000 C 
BRANCH   8   9
ATOM      9  C   UNL     1      31.761  32.962  22.961  1.00  0.00    -0.000 C 
BRANCH   9  10
ATOM     10  C   UNL     1      32.994  33.119  22.045  1.00  0.00    -0.000 C 
BRANCH  10  11
ATOM     11  C   UNL     1      32.773  34.081  20.865  1.00  0.00    -0.000 C 
BRANCH  11  12
ATOM     12  C   UNL     1      31.993  33.441  19.709  1.00  0.00    -0.003 C 
ATOM     13  C   UNL     1      32.911  32.605  18.820  1.00  0.00     0.004 C 
ENDBRANCH  11  12
ENDBRANCH  10  11
ENDBRANCH   9  10
ENDBRANCH   8   9
ENDBRANCH   1   8
TORSDOF 9
ENDMDL
