MODEL 1
REMARK VINA RESULT:    24.450      0.000      0.000
REMARK INTER + INTRA:          38.102
REMARK INTER:                  37.314
REMARK INTRA:                   0.788
REMARK UNBOUND:                 0.788
REMARK SMILES COc1cc(C=CC(=O)CC(=O)C=Cc2ccc(O)c(OC)c2)ccc1O
REMARK SMILES IDX 10 1 8 2 9 3 7 4 6 5 5 6 3 7 26 8 4 9 25 10 24 11 2 12 1 13
REMARK SMILES IDX 27 14 11 16 12 17 13 18 14 19 15 20 23 21 16 22 20 23 17 24
REMARK SMILES IDX 18 25 21 26 22 27 19 28
REMARK H PARENT 27 15 19 29
REMARK Flexibility Score: inf
ROOT
ATOM      1  C   UNL     1     -38.939  25.640   1.488  1.00  0.00     0.160 C 
ENDROOT
BRANCH   1   2
ATOM      2  C   UNL     1     -39.906  24.871   2.339  1.00  0.00     0.163 C 
ATOM      3  O   UNL     1     -39.552  23.763   2.824  1.00  0.00    -0.294 OA
BRANCH   2   4
ATOM      4  C   UNL     1     -41.219  25.465   2.675  1.00  0.00     0.048 C 
ATOM      5  C   UNL     1     -41.875  25.302   3.835  1.00  0.00     0.012 C 
BRANCH   5   6
ATOM      6  C   UNL     1     -41.492  24.362   4.909  1.00  0.00    -0.022 A 
ATOM      7  C   UNL     1     -40.197  23.903   6.928  1.00  0.00     0.161 A 
ATOM      8  C   UNL     1     -40.815  22.649   7.030  1.00  0.00     0.157 A 
ATOM      9  C   UNL     1     -40.549  24.762   5.867  1.00  0.00     0.058 A 
ATOM     10  C   UNL     1     -41.779  22.261   6.090  1.00  0.00     0.051 A 
ATOM     11  C   UNL     1     -42.124  23.116   5.042  1.00  0.00     0.012 A 
BRANCH   7  12
ATOM     12  O   UNL     1     -39.244  24.259   7.894  1.00  0.00    -0.493 OA
ATOM     13  C   UNL     1     -37.922  24.701   7.599  1.00  0.00     0.278 C 
ENDBRANCH   7  12
BRANCH   8  14
ATOM     14  O   UNL     1     -40.468  21.792   8.074  1.00  0.00    -0.504 OA
ATOM     15  H   UNL     1     -39.757  22.044   8.751  1.00  0.00     0.293 HD
ENDBRANCH   8  14
ENDBRANCH   5   6
ENDBRANCH   2   4
ENDBRANCH   1   2
BRANCH   1  16
ATOM     16  C   UNL     1     -39.539  25.939   0.140  1.00  0.00     0.163 C 
ATOM     17  O   UNL     1     -40.646  25.411  -0.153  1.00  0.00    -0.294 OA
BRANCH  16  18
ATOM     18  C   UNL     1     -38.920  26.852  -0.846  1.00  0.00     0.048 C 
ATOM     19  C   UNL     1     -38.322  28.009  -0.519  1.00  0.00     0.012 C 
BRANCH  19  20
ATOM     20  C   UNL     1     -37.702  28.918  -1.513  1.00  0.00    -0.022 A 
ATOM     21  C   UNL     1     -36.321  29.203  -1.518  1.00  0.00     0.058 A 
ATOM     22  C   UNL     1     -38.514  29.479  -2.509  1.00  0.00     0.012 A 
ATOM     23  C   UNL     1     -35.767  30.062  -2.489  1.00  0.00     0.161 A 
ATOM     24  C   UNL     1     -37.972  30.330  -3.473  1.00  0.00     0.051 A 
ATOM     25  C   UNL     1     -36.606  30.628  -3.465  1.00  0.00     0.157 A 
BRANCH  23  26
ATOM     26  O   UNL     1     -34.398  30.370  -2.515  1.00  0.00    -0.493 OA
ATOM     27  C   UNL     1     -33.856  31.621  -2.925  1.00  0.00     0.278 C 
ENDBRANCH  23  26
BRANCH  25  28
ATOM     28  O   UNL     1     -36.101  31.486  -4.442  1.00  0.00    -0.504 OA
ATOM     29  H   UNL     1     -35.254  32.024  -4.302  1.00  0.00     0.293 HD
ENDBRANCH  25  28
ENDBRANCH  19  20
ENDBRANCH  16  18
ENDBRANCH   1  16
TORSDOF 10
ENDMDL
MODEL 2
REMARK VINA RESULT:    24.952      1.047      1.839
REMARK INTER + INTRA:          38.868
REMARK INTER:                  38.368
REMARK INTRA:                   0.500
REMARK UNBOUND:                 0.788
REMARK SMILES COc1cc(C=CC(=O)CC(=O)C=Cc2ccc(O)c(OC)c2)ccc1O
REMARK SMILES IDX 10 1 8 2 9 3 7 4 6 5 5 6 3 7 26 8 4 9 25 10 24 11 2 12 1 13
REMARK SMILES IDX 27 14 11 16 12 17 13 18 14 19 15 20 23 21 16 22 20 23 17 24
REMARK SMILES IDX 18 25 21 26 22 27 19 28
REMARK H PARENT 27 15 19 29
REMARK Flexibility Score: inf
ROOT
ATOM      1  C   UNL     1     -39.245  25.377   1.713  1.00  0.00     0.160 C 
ENDROOT
BRANCH   1   2
ATOM      2  C   UNL     1     -40.149  24.707   2.704  1.00  0.00     0.163 C 
ATOM      3  O   UNL     1     -39.703  23.753   3.397  1.00  0.00    -0.294 OA
BRANCH   2   4
ATOM      4  C   UNL     1     -41.515  25.232   2.922  1.00  0.00     0.048 C 
ATOM      5  C   UNL     1     -42.125  25.351   4.113  1.00  0.00     0.012 C 
BRANCH   5   6
ATOM      6  C   UNL     1     -41.614  24.814   5.392  1.00  0.00    -0.022 A 
ATOM      7  C   UNL     1     -41.441  22.952   6.962  1.00  0.00     0.161 A 
ATOM      8  C   UNL     1     -40.577  23.715   7.760  1.00  0.00     0.157 A 
ATOM      9  C   UNL     1     -41.949  23.505   5.769  1.00  0.00     0.058 A 
ATOM     10  C   UNL     1     -40.217  25.011   7.367  1.00  0.00     0.051 A 
ATOM     11  C   UNL     1     -40.723  25.554   6.185  1.00  0.00     0.012 A 
BRANCH   7  12
ATOM     12  O   UNL     1     -41.770  21.654   7.383  1.00  0.00    -0.493 OA
ATOM     13  C   UNL     1     -42.125  21.304   8.717  1.00  0.00     0.278 C 
ENDBRANCH   7  12
BRANCH   8  14
ATOM     14  O   UNL     1     -40.074  23.174   8.942  1.00  0.00    -0.504 OA
ATOM     15  H   UNL     1     -39.360  23.651   9.481  1.00  0.00     0.293 HD
ENDBRANCH   8  14
ENDBRANCH   5   6
ENDBRANCH   2   4
ENDBRANCH   1   2
BRANCH   1  16
ATOM     16  C   UNL     1     -39.942  25.550   0.390  1.00  0.00     0.163 C 
ATOM     17  O   UNL     1     -40.829  24.714   0.067  1.00  0.00    -0.294 OA
BRANCH  16  18
ATOM     18  C   UNL     1     -39.672  26.672  -0.536  1.00  0.00     0.048 C 
ATOM     19  C   UNL     1     -38.466  27.241  -0.686  1.00  0.00     0.012 C 
BRANCH  19  20
ATOM     20  C   UNL     1     -38.202  28.366  -1.617  1.00  0.00    -0.022 A 
ATOM     21  C   UNL     1     -36.954  29.018  -1.681  1.00  0.00     0.058 A 
ATOM     22  C   UNL     1     -39.220  28.763  -2.496  1.00  0.00     0.012 A 
ATOM     23  C   UNL     1     -36.738  30.073  -2.589  1.00  0.00     0.161 A 
ATOM     24  C   UNL     1     -39.013  29.807  -3.398  1.00  0.00     0.051 A 
ATOM     25  C   UNL     1     -37.782  30.466  -3.446  1.00  0.00     0.157 A 
BRANCH  23  26
ATOM     26  O   UNL     1     -35.508  30.746  -2.670  1.00  0.00    -0.493 OA
ATOM     27  C   UNL     1     -34.368  30.448  -1.871  1.00  0.00     0.278 C 
ENDBRANCH  23  26
BRANCH  25  28
ATOM     28  O   UNL     1     -37.613  31.508  -4.359  1.00  0.00    -0.504 OA
ATOM     29  H   UNL     1     -38.190  32.341  -4.340  1.00  0.00     0.293 HD
ENDBRANCH  25  28
ENDBRANCH  19  20
ENDBRANCH  16  18
ENDBRANCH   1  16
TORSDOF 10
ENDMDL
MODEL 3
REMARK VINA RESULT:    26.521      1.113      1.355
REMARK INTER + INTRA:          41.263
REMARK INTER:                  38.908
REMARK INTRA:                   2.354
REMARK UNBOUND:                 0.788
REMARK SMILES COc1cc(C=CC(=O)CC(=O)C=Cc2ccc(O)c(OC)c2)ccc1O
REMARK SMILES IDX 10 1 8 2 9 3 7 4 6 5 5 6 3 7 26 8 4 9 25 10 24 11 2 12 1 13
REMARK SMILES IDX 27 14 11 16 12 17 13 18 14 19 15 20 23 21 16 22 20 23 17 24
REMARK SMILES IDX 18 25 21 26 22 27 19 28
REMARK H PARENT 27 15 19 29
REMARK Flexibility Score: inf
ROOT
ATOM      1  C   UNL     1     -40.236  26.120   1.921  1.00  0.00     0.160 C 
ENDROOT
BRANCH   1   2
ATOM      2  C   UNL     1     -40.477  24.930   2.801  1.00  0.00     0.163 C 
ATOM      3  O   UNL     1     -39.502  24.206   3.138  1.00  0.00    -0.294 OA
BRANCH   2   4
ATOM      4  C   UNL     1     -41.833  24.678   3.337  1.00  0.00     0.048 C 
ATOM      5  C   UNL     1     -42.123  24.374   4.613  1.00  0.00     0.012 C 
BRANCH   5   6
ATOM      6  C   UNL     1     -41.133  24.060   5.663  1.00  0.00    -0.022 A 
ATOM      7  C   UNL     1     -38.804  23.993   6.394  1.00  0.00     0.161 A 
ATOM      8  C   UNL     1     -39.223  23.580   7.666  1.00  0.00     0.157 A 
ATOM      9  C   UNL     1     -39.768  24.243   5.396  1.00  0.00     0.058 A 
ATOM     10  C   UNL     1     -40.588  23.427   7.943  1.00  0.00     0.051 A 
ATOM     11  C   UNL     1     -41.538  23.676   6.951  1.00  0.00     0.012 A 
BRANCH   7  12
ATOM     12  O   UNL     1     -37.429  24.144   6.159  1.00  0.00    -0.493 OA
ATOM     13  C   UNL     1     -36.619  25.164   6.735  1.00  0.00     0.278 C 
ENDBRANCH   7  12
BRANCH   8  14
ATOM     14  O   UNL     1     -38.274  23.328   8.656  1.00  0.00    -0.504 OA
ATOM     15  H   UNL     1     -37.515  23.975   8.839  1.00  0.00     0.293 HD
ENDBRANCH   8  14
ENDBRANCH   5   6
ENDBRANCH   2   4
ENDBRANCH   1   2
BRANCH   1  16
ATOM     16  C   UNL     1     -39.735  25.688   0.569  1.00  0.00     0.163 C 
ATOM     17  O   UNL     1     -39.677  24.454   0.318  1.00  0.00    -0.294 OA
BRANCH  16  18
ATOM     18  C   UNL     1     -39.344  26.636  -0.499  1.00  0.00     0.048 C 
ATOM     19  C   UNL     1     -38.458  27.629  -0.327  1.00  0.00     0.012 C 
BRANCH  19  20
ATOM     20  C   UNL     1     -38.071  28.575  -1.402  1.00  0.00    -0.022 A 
ATOM     21  C   UNL     1     -36.725  28.891  -1.682  1.00  0.00     0.058 A 
ATOM     22  C   UNL     1     -39.079  29.138  -2.197  1.00  0.00     0.012 A 
ATOM     23  C   UNL     1     -36.397  29.784  -2.722  1.00  0.00     0.161 A 
ATOM     24  C   UNL     1     -38.761  30.023  -3.228  1.00  0.00     0.051 A 
ATOM     25  C   UNL     1     -37.428  30.352  -3.492  1.00  0.00     0.157 A 
BRANCH  23  26
ATOM     26  O   UNL     1     -35.068  30.124  -3.019  1.00  0.00    -0.493 OA
ATOM     27  C   UNL     1     -34.323  31.140  -2.355  1.00  0.00     0.278 C 
ENDBRANCH  23  26
BRANCH  25  28
ATOM     28  O   UNL     1     -37.149  31.242  -4.528  1.00  0.00    -0.504 OA
ATOM     29  H   UNL     1     -36.644  30.960  -5.360  1.00  0.00     0.293 HD
ENDBRANCH  25  28
ENDBRANCH  19  20
ENDBRANCH  16  18
ENDBRANCH   1  16
TORSDOF 10
ENDMDL
