MODEL 1
REMARK VINA RESULT:    -3.640      0.000      0.000
REMARK INTER + INTRA:          -4.228
REMARK INTER:                  -4.491
REMARK INTRA:                   0.263
REMARK UNBOUND:                 0.263
REMARK SMILES CC(C)=CCC[C@H](C)c1ccc(C)cc1
REMARK SMILES IDX 6 1 7 2 8 3 9 4 13 5 12 6 11 7 14 8 10 9 15 10 5 11 4 12
REMARK SMILES IDX 2 13 1 14 3 15
REMARK H PARENT
REMARK Flexibility Score: inf
ROOT
ATOM      1  C   UNL     1     111.457 111.152 107.592  1.00  0.00     0.012 C 
ENDROOT
BRANCH   1   2
ATOM      2  C   UNL     1     109.923 111.000 107.699  1.00  0.00     0.016 C 
ATOM      3  C   UNL     1     109.179 112.281 107.292  1.00  0.00     0.013 C 
BRANCH   2   4
ATOM      4  C   UNL     1     109.531 110.585 109.106  1.00  0.00    -0.045 A 
ATOM      5  C   UNL     1     108.473 109.388 113.119  1.00  0.00     0.044 C 
ATOM      6  C   UNL     1     108.813 109.796 111.716  1.00  0.00    -0.051 A 
ATOM      7  C   UNL     1     109.430 108.885 110.846  1.00  0.00     0.004 A 
ATOM      8  C   UNL     1     108.580 111.109 111.286  1.00  0.00     0.004 A 
ATOM      9  C   UNL     1     109.781 109.275 109.551  1.00  0.00     0.004 A 
ATOM     10  C   UNL     1     108.930 111.500 109.991  1.00  0.00     0.004 A 
ENDBRANCH   2   4
ENDBRANCH   1   2
BRANCH   1  11
ATOM     11  C   UNL     1     112.048 111.999 108.730  1.00  0.00     0.028 C 
BRANCH  11  12
ATOM     12  C   UNL     1     112.053 111.224 110.025  1.00  0.00    -0.028 C 
ATOM     13  C   UNL     1     112.079 111.788 111.253  1.00  0.00    -0.080 C 
ATOM     14  C   UNL     1     112.048 113.286 111.446  1.00  0.00     0.039 C 
ATOM     15  C   UNL     1     112.124 110.884 112.457  1.00  0.00     0.039 C 
ENDBRANCH  11  12
ENDBRANCH   1  11
TORSDOF 4
ENDMDL
MODEL 2
REMARK VINA RESULT:    -3.620      1.161      4.142
REMARK INTER + INTRA:          -4.203
REMARK INTER:                  -2.912
REMARK INTRA:                  -1.291
REMARK UNBOUND:                 0.263
REMARK SMILES CC(C)=CCC[C@H](C)c1ccc(C)cc1
REMARK SMILES IDX 6 1 7 2 8 3 9 4 13 5 12 6 11 7 14 8 10 9 15 10 5 11 4 12
REMARK SMILES IDX 2 13 1 14 3 15
REMARK H PARENT
REMARK Flexibility Score: inf
ROOT
ATOM      1  C   UNL     1     108.000 110.416 111.806  1.00  0.00     0.012 C 
ENDROOT
BRANCH   1   2
ATOM      2  C   UNL     1     108.526 109.344 110.826  1.00  0.00     0.016 C 
ATOM      3  C   UNL     1     109.424 108.308 111.522  1.00  0.00     0.013 C 
BRANCH   2   4
ATOM      4  C   UNL     1     109.270 109.999 109.676  1.00  0.00    -0.045 A 
ATOM      5  C   UNL     1     111.382 111.918 106.433  1.00  0.00     0.044 C 
ATOM      6  C   UNL     1     110.635 111.233 107.540  1.00  0.00    -0.051 A 
ATOM      7  C   UNL     1     109.393 111.726 107.964  1.00  0.00     0.004 A 
ATOM      8  C   UNL     1     111.204 110.139 108.203  1.00  0.00     0.004 A 
ATOM      9  C   UNL     1     108.714 111.112 109.020  1.00  0.00     0.004 A 
ATOM     10  C   UNL     1     110.526 109.522 109.259  1.00  0.00     0.004 A 
ENDBRANCH   2   4
ENDBRANCH   1   2
BRANCH   1  11
ATOM     11  C   UNL     1     109.083 110.916 112.774  1.00  0.00     0.028 C 
BRANCH  11  12
ATOM     12  C   UNL     1     109.995 111.904 112.091  1.00  0.00    -0.028 C 
ATOM     13  C   UNL     1     111.337 111.769 112.001  1.00  0.00    -0.080 C 
ATOM     14  C   UNL     1     112.058 110.556 112.542  1.00  0.00     0.039 C 
ATOM     15  C   UNL     1     112.125 112.860 111.324  1.00  0.00     0.039 C 
ENDBRANCH  11  12
ENDBRANCH   1  11
TORSDOF 4
ENDMDL
MODEL 3
REMARK VINA RESULT:    -2.966     19.462     21.206
REMARK INTER + INTRA:          -3.396
REMARK INTER:                  -2.857
REMARK INTRA:                  -0.538
REMARK UNBOUND:                 0.263
REMARK SMILES CC(C)=CCC[C@H](C)c1ccc(C)cc1
REMARK SMILES IDX 6 1 7 2 8 3 9 4 13 5 12 6 11 7 14 8 10 9 15 10 5 11 4 12
REMARK SMILES IDX 2 13 1 14 3 15
REMARK H PARENT
REMARK Flexibility Score: inf
ROOT
ATOM      1  C   UNL     1      94.906 104.724 100.391  1.00  0.00     0.012 C 
ENDROOT
BRANCH   1   2
ATOM      2  C   UNL     1      93.405 104.360 100.369  1.00  0.00     0.016 C 
ATOM      3  C   UNL     1      92.761 104.452 101.761  1.00  0.00     0.013 C 
BRANCH   2   4
ATOM      4  C   UNL     1      93.206 102.973  99.785  1.00  0.00    -0.045 A 
ATOM      5  C   UNL     1      92.584  99.043  98.104  1.00  0.00     0.044 C 
ATOM      6  C   UNL     1      92.816 100.395  98.710  1.00  0.00    -0.051 A 
ATOM      7  C   UNL     1      91.883 100.937  99.606  1.00  0.00     0.004 A 
ATOM      8  C   UNL     1      93.930 101.157  98.334  1.00  0.00     0.004 A 
ATOM      9  C   UNL     1      92.079 102.212 100.143  1.00  0.00     0.004 A 
ATOM     10  C   UNL     1      94.128 102.433  98.870  1.00  0.00     0.004 A 
ENDBRANCH   2   4
ENDBRANCH   1   2
BRANCH   1  11
ATOM     11  C   UNL     1      95.284 105.742  99.304  1.00  0.00     0.028 C 
BRANCH  11  12
ATOM     12  C   UNL     1      94.866 107.134  99.708  1.00  0.00    -0.028 C 
ATOM     13  C   UNL     1      94.857 108.200  98.877  1.00  0.00    -0.080 C 
ATOM     14  C   UNL     1      95.220 108.079  97.415  1.00  0.00     0.039 C 
ATOM     15  C   UNL     1      94.455 109.541  99.434  1.00  0.00     0.039 C 
ENDBRANCH  11  12
ENDBRANCH   1  11
TORSDOF 4
ENDMDL
MODEL 4
REMARK VINA RESULT:    -2.911      1.418      4.675
REMARK INTER + INTRA:          -3.328
REMARK INTER:                  -2.789
REMARK INTRA:                  -0.540
REMARK UNBOUND:                 0.263
REMARK SMILES CC(C)=CCC[C@H](C)c1ccc(C)cc1
REMARK SMILES IDX 6 1 7 2 8 3 9 4 13 5 12 6 11 7 14 8 10 9 15 10 5 11 4 12
REMARK SMILES IDX 2 13 1 14 3 15
REMARK H PARENT
REMARK Flexibility Score: inf
ROOT
ATOM      1  C   UNL     1     109.646 111.956 111.382  1.00  0.00     0.012 C 
ENDROOT
BRANCH   1   2
ATOM      2  C   UNL     1     111.109 111.540 111.114  1.00  0.00     0.016 C 
ATOM      3  C   UNL     1     112.112 112.626 111.533  1.00  0.00     0.013 C 
BRANCH   2   4
ATOM      4  C   UNL     1     111.297 111.183 109.650  1.00  0.00    -0.045 A 
ATOM      5  C   UNL     1     111.770 110.163 105.480  1.00  0.00     0.044 C 
ATOM      6  C   UNL     1     111.633 110.504 106.934  1.00  0.00    -0.051 A 
ATOM      7  C   UNL     1     110.953 109.637 107.801  1.00  0.00     0.004 A 
ATOM      8  C   UNL     1     112.121 111.723 107.423  1.00  0.00     0.004 A 
ATOM      9  C   UNL     1     110.791 109.971 109.149  1.00  0.00     0.004 A 
ATOM     10  C   UNL     1     111.960 112.059 108.770  1.00  0.00     0.004 A 
ENDBRANCH   2   4
ENDBRANCH   1   2
BRANCH   1  11
ATOM     11  C   UNL     1     109.188 111.623 112.810  1.00  0.00     0.028 C 
BRANCH  11  12
ATOM     12  C   UNL     1     109.436 110.169 113.125  1.00  0.00    -0.028 C 
ATOM     13  C   UNL     1     108.887 109.136 112.447  1.00  0.00    -0.080 C 
ATOM     14  C   UNL     1     107.997 109.351 111.246  1.00  0.00     0.039 C 
ATOM     15  C   UNL     1     109.194 107.734 112.904  1.00  0.00     0.039 C 
ENDBRANCH  11  12
ENDBRANCH   1  11
TORSDOF 4
ENDMDL
MODEL 5
REMARK VINA RESULT:    -2.560      1.342      4.767
REMARK INTER + INTRA:          -2.895
REMARK INTER:                  -2.468
REMARK INTRA:                  -0.427
REMARK UNBOUND:                 0.263
REMARK SMILES CC(C)=CCC[C@H](C)c1ccc(C)cc1
REMARK SMILES IDX 6 1 7 2 8 3 9 4 13 5 12 6 11 7 14 8 10 9 15 10 5 11 4 12
REMARK SMILES IDX 2 13 1 14 3 15
REMARK H PARENT
REMARK Flexibility Score: inf
ROOT
ATOM      1  C   UNL     1     110.619 110.133 112.488  1.00  0.00     0.012 C 
ENDROOT
BRANCH   1   2
ATOM      2  C   UNL     1     111.913 110.848 112.040  1.00  0.00     0.016 C 
ATOM      3  C   UNL     1     112.104 112.203 112.738  1.00  0.00     0.013 C 
BRANCH   2   4
ATOM      4  C   UNL     1     111.924 111.025 110.532  1.00  0.00    -0.045 A 
ATOM      5  C   UNL     1     111.896 111.503 106.239  1.00  0.00     0.044 C 
ATOM      6  C   UNL     1     111.935 111.332 107.729  1.00  0.00    -0.051 A 
ATOM      7  C   UNL     1     111.713 110.072 108.301  1.00  0.00     0.004 A 
ATOM      8  C   UNL     1     112.125 112.443 108.562  1.00  0.00     0.004 A 
ATOM      9  C   UNL     1     111.712 109.918 109.690  1.00  0.00     0.004 A 
ATOM     10  C   UNL     1     112.125 112.291 109.952  1.00  0.00     0.004 A 
ENDBRANCH   2   4
ENDBRANCH   1   2
BRANCH   1  11
ATOM     11  C   UNL     1     109.425 111.092 112.608  1.00  0.00     0.028 C 
BRANCH  11  12
ATOM     12  C   UNL     1     109.055 111.655 111.258  1.00  0.00    -0.028 C 
ATOM     13  C   UNL     1     108.596 110.919 110.222  1.00  0.00    -0.080 C 
ATOM     14  C   UNL     1     108.350 109.433 110.344  1.00  0.00     0.039 C 
ATOM     15  C   UNL     1     108.308 111.615 108.917  1.00  0.00     0.039 C 
ENDBRANCH  11  12
ENDBRANCH   1  11
TORSDOF 4
ENDMDL
MODEL 6
REMARK VINA RESULT:    -2.377      1.544      4.015
REMARK INTER + INTRA:          -2.669
REMARK INTER:                  -2.207
REMARK INTRA:                  -0.462
REMARK UNBOUND:                 0.263
REMARK SMILES CC(C)=CCC[C@H](C)c1ccc(C)cc1
REMARK SMILES IDX 6 1 7 2 8 3 9 4 13 5 12 6 11 7 14 8 10 9 15 10 5 11 4 12
REMARK SMILES IDX 2 13 1 14 3 15
REMARK H PARENT
REMARK Flexibility Score: inf
ROOT
ATOM      1  C   UNL     1     110.760 112.167 111.326  1.00  0.00     0.012 C 
ENDROOT
BRANCH   1   2
ATOM      2  C   UNL     1     111.776 111.989 110.176  1.00  0.00     0.016 C 
ATOM      3  C   UNL     1     112.123 113.321 109.492  1.00  0.00     0.013 C 
BRANCH   2   4
ATOM      4  C   UNL     1     111.251 110.993 109.157  1.00  0.00    -0.045 A 
ATOM      5  C   UNL     1     109.818 108.142 106.246  1.00  0.00     0.044 C 
ATOM      6  C   UNL     1     110.293 109.151 107.250  1.00  0.00    -0.051 A 
ATOM      7  C   UNL     1     111.244 110.115 106.886  1.00  0.00     0.004 A 
ATOM      8  C   UNL     1     109.843 109.093 108.575  1.00  0.00     0.004 A 
ATOM      9  C   UNL     1     111.715 111.032 107.830  1.00  0.00     0.004 A 
ATOM     10  C   UNL     1     110.313 110.010 109.521  1.00  0.00     0.004 A 
ENDBRANCH   2   4
ENDBRANCH   1   2
BRANCH   1  11
ATOM     11  C   UNL     1     111.265 111.588 112.656  1.00  0.00     0.028 C 
BRANCH  11  12
ATOM     12  C   UNL     1     110.833 110.150 112.810  1.00  0.00    -0.028 C 
ATOM     13  C   UNL     1     109.549 109.747 112.935  1.00  0.00    -0.080 C 
ATOM     14  C   UNL     1     108.395 110.721 112.873  1.00  0.00     0.039 C 
ATOM     15  C   UNL     1     109.272 108.278 113.125  1.00  0.00     0.039 C 
ENDBRANCH  11  12
ENDBRANCH   1  11
TORSDOF 4
ENDMDL
MODEL 7
REMARK VINA RESULT:    -2.170      1.273      3.520
REMARK INTER + INTRA:          -2.415
REMARK INTER:                  -1.428
REMARK INTRA:                  -0.987
REMARK UNBOUND:                 0.263
REMARK SMILES CC(C)=CCC[C@H](C)c1ccc(C)cc1
REMARK SMILES IDX 6 1 7 2 8 3 9 4 13 5 12 6 11 7 14 8 10 9 15 10 5 11 4 12
REMARK SMILES IDX 2 13 1 14 3 15
REMARK H PARENT
REMARK Flexibility Score: inf
ROOT
ATOM      1  C   UNL     1     112.124 112.171 109.507  1.00  0.00     0.012 C 
ENDROOT
BRANCH   1   2
ATOM      2  C   UNL     1     111.287 112.568 110.743  1.00  0.00     0.016 C 
ATOM      3  C   UNL     1     112.124 113.295 111.807  1.00  0.00     0.013 C 
BRANCH   2   4
ATOM      4  C   UNL     1     110.618 111.344 111.344  1.00  0.00    -0.045 A 
ATOM      5  C   UNL     1     108.722 107.888 113.109  1.00  0.00     0.044 C 
ATOM      6  C   UNL     1     109.392 109.071 112.475  1.00  0.00    -0.051 A 
ATOM      7  C   UNL     1     110.670 109.468 112.894  1.00  0.00     0.004 A 
ATOM      8  C   UNL     1     108.719 109.829 111.508  1.00  0.00     0.004 A 
ATOM      9  C   UNL     1     111.279 110.592 112.330  1.00  0.00     0.004 A 
ATOM     10  C   UNL     1     109.327 110.953 110.942  1.00  0.00     0.004 A 
ENDBRANCH   2   4
ENDBRANCH   1   2
BRANCH   1  11
ATOM     11  C   UNL     1     111.284 112.095 108.224  1.00  0.00     0.028 C 
BRANCH  11  12
ATOM     12  C   UNL     1     111.192 110.672 107.729  1.00  0.00    -0.028 C 
ATOM     13  C   UNL     1     110.061 110.095 107.267  1.00  0.00    -0.080 C 
ATOM     14  C   UNL     1     108.764 110.860 107.147  1.00  0.00     0.039 C 
ATOM     15  C   UNL     1     110.112 108.649 106.846  1.00  0.00     0.039 C 
ENDBRANCH  11  12
ENDBRANCH   1  11
TORSDOF 4
ENDMDL
MODEL 8
REMARK VINA RESULT:    -0.922      3.247      5.473
REMARK INTER + INTRA:          -0.875
REMARK INTER:                  -0.379
REMARK INTRA:                  -0.495
REMARK UNBOUND:                 0.263
REMARK SMILES CC(C)=CCC[C@H](C)c1ccc(C)cc1
REMARK SMILES IDX 6 1 7 2 8 3 9 4 13 5 12 6 11 7 14 8 10 9 15 10 5 11 4 12
REMARK SMILES IDX 2 13 1 14 3 15
REMARK H PARENT
REMARK Flexibility Score: inf
ROOT
ATOM      1  C   UNL     1     109.821 108.305 107.100  1.00  0.00     0.012 C 
ENDROOT
BRANCH   1   2
ATOM      2  C   UNL     1     110.214 109.779 107.338  1.00  0.00     0.016 C 
ATOM      3  C   UNL     1     111.492 110.174 106.580  1.00  0.00     0.013 C 
BRANCH   2   4
ATOM      4  C   UNL     1     110.377 110.050 108.824  1.00  0.00    -0.045 A 
ATOM      5  C   UNL     1     110.831 110.880 113.038  1.00  0.00     0.044 C 
ATOM      6  C   UNL     1     110.693 110.569 111.577  1.00  0.00    -0.051 A 
ATOM      7  C   UNL     1     111.507 111.217 110.637  1.00  0.00     0.004 A 
ATOM      8  C   UNL     1     109.703 109.681 111.135  1.00  0.00     0.004 A 
ATOM      9  C   UNL     1     111.354 110.956 109.273  1.00  0.00     0.004 A 
ATOM     10  C   UNL     1     109.549 109.418 109.770  1.00  0.00     0.004 A 
ENDBRANCH   2   4
ENDBRANCH   1   2
BRANCH   1  11
ATOM     11  C   UNL     1     108.732 108.149 106.028  1.00  0.00     0.028 C 
BRANCH  11  12
ATOM     12  C   UNL     1     107.789 107.027 106.385  1.00  0.00    -0.028 C 
ATOM     13  C   UNL     1     106.644 106.751 105.722  1.00  0.00    -0.080 C 
ATOM     14  C   UNL     1     106.223 107.526 104.495  1.00  0.00     0.039 C 
ATOM     15  C   UNL     1     105.779 105.623 106.221  1.00  0.00     0.039 C 
ENDBRANCH  11  12
ENDBRANCH   1  11
TORSDOF 4
ENDMDL
