MODEL 1
REMARK VINA RESULT:    -4.279      0.000      0.000
REMARK INTER + INTRA:          -6.969
REMARK INTER:                  -6.531
REMARK INTRA:                  -0.438
REMARK UNBOUND:                -0.438
REMARK SMILES O=C([O-])CCCCCCCCC(=O)[O-]
REMARK SMILES IDX 7 1 6 2 5 3 4 4 2 5 1 6 3 7 8 8 9 9 10 10 11 11 12 12 13 13
REMARK SMILES IDX 14 14
REMARK H PARENT
REMARK Flexibility Score: inf
ROOT
ATOM      1  C   UNL     1       8.585 -18.966  31.776  1.00  0.00     0.000 C 
ENDROOT
BRANCH   1   2
ATOM      2  C   UNL     1      10.112 -19.053  31.647  1.00  0.00     0.000 C 
BRANCH   2   3
ATOM      3  C   UNL     1      10.567 -20.226  30.764  1.00  0.00     0.006 C 
BRANCH   3   4
ATOM      4  C   UNL     1       9.461 -20.718  29.820  1.00  0.00     0.053 C 
BRANCH   4   5
ATOM      5  C   UNL     1       9.711 -20.231  28.427  1.00  0.00     0.041 C 
ATOM      6  O   UNL     1       9.564 -19.013  28.146  1.00  0.00    -0.550 OA
ATOM      7  O   UNL     1      10.151 -21.115  27.450  1.00  0.00    -0.550 OA
ENDBRANCH   4   5
ENDBRANCH   3   4
ENDBRANCH   2   3
ENDBRANCH   1   2
BRANCH   1   8
ATOM      8  C   UNL     1       8.180 -17.899  32.800  1.00  0.00     0.000 C 
BRANCH   8   9
ATOM      9  C   UNL     1       9.410 -17.319  33.508  1.00  0.00     0.000 C 
BRANCH   9  10
ATOM     10  C   UNL     1       9.171 -17.204  35.021  1.00  0.00     0.006 C 
BRANCH  10  11
ATOM     11  C   UNL     1      10.018 -16.096  35.660  1.00  0.00     0.053 C 
BRANCH  11  12
ATOM     12  C   UNL     1       9.180 -14.922  36.066  1.00  0.00     0.041 C 
ATOM     13  O   UNL     1       7.991 -15.091  36.442  1.00  0.00    -0.550 OA
ATOM     14  O   UNL     1       9.724 -13.644  36.057  1.00  0.00    -0.550 OA
ENDBRANCH  11  12
ENDBRANCH  10  11
ENDBRANCH   9  10
ENDBRANCH   8   9
ENDBRANCH   1   8
TORSDOF 9
ENDMDL
MODEL 2
REMARK VINA RESULT:    -4.263      0.529      7.511
REMARK INTER + INTRA:          -6.945
REMARK INTER:                  -6.535
REMARK INTRA:                  -0.410
REMARK UNBOUND:                -0.438
REMARK SMILES O=C([O-])CCCCCCCCC(=O)[O-]
REMARK SMILES IDX 7 1 6 2 5 3 4 4 2 5 1 6 3 7 8 8 9 9 10 10 11 11 12 12 13 13
REMARK SMILES IDX 14 14
REMARK H PARENT
REMARK Flexibility Score: inf
ROOT
ATOM      1  C   UNL     1       8.056 -18.073  32.730  1.00  0.00     0.000 C 
ENDROOT
BRANCH   1   2
ATOM      2  C   UNL     1       9.221 -17.438  33.503  1.00  0.00     0.000 C 
BRANCH   2   3
ATOM      3  C   UNL     1       8.771 -16.775  34.814  1.00  0.00     0.006 C 
BRANCH   3   4
ATOM      4  C   UNL     1       9.951 -16.395  35.718  1.00  0.00     0.053 C 
BRANCH   4   5
ATOM      5  C   UNL     1       9.856 -14.958  36.123  1.00  0.00     0.041 C 
ATOM      6  O   UNL     1       8.895 -14.562  36.834  1.00  0.00    -0.550 OA
ATOM      7  O   UNL     1      10.854 -14.064  35.755  1.00  0.00    -0.550 OA
ENDBRANCH   4   5
ENDBRANCH   3   4
ENDBRANCH   2   3
ENDBRANCH   1   2
BRANCH   1   8
ATOM      8  C   UNL     1       8.570 -19.037  31.654  1.00  0.00     0.000 C 
BRANCH   8   9
ATOM      9  C   UNL     1      10.100 -19.123  31.677  1.00  0.00     0.000 C 
BRANCH   9  10
ATOM     10  C   UNL     1      10.598 -20.299  30.824  1.00  0.00     0.006 C 
BRANCH  10  11
ATOM     11  C   UNL     1       9.526 -20.804  29.848  1.00  0.00     0.053 C 
BRANCH  11  12
ATOM     12  C   UNL     1       9.778 -20.320  28.452  1.00  0.00     0.041 C 
ATOM     13  O   UNL     1      10.100 -21.134  27.547  1.00  0.00    -0.550 OA
ATOM     14  O   UNL     1       9.627 -18.974  28.145  1.00  0.00    -0.550 OA
ENDBRANCH  11  12
ENDBRANCH  10  11
ENDBRANCH   9  10
ENDBRANCH   8   9
ENDBRANCH   1   8
TORSDOF 9
ENDMDL
MODEL 3
REMARK VINA RESULT:    -4.220      0.234      7.427
REMARK INTER + INTRA:          -6.879
REMARK INTER:                  -6.432
REMARK INTRA:                  -0.447
REMARK UNBOUND:                -0.438
REMARK SMILES O=C([O-])CCCCCCCCC(=O)[O-]
REMARK SMILES IDX 7 1 6 2 5 3 4 4 2 5 1 6 3 7 8 8 9 9 10 10 11 11 12 12 13 13
REMARK SMILES IDX 14 14
REMARK H PARENT
REMARK Flexibility Score: inf
ROOT
ATOM      1  C   UNL     1       8.145 -18.004  32.985  1.00  0.00     0.000 C 
ENDROOT
BRANCH   1   2
ATOM      2  C   UNL     1       9.312 -17.258  33.648  1.00  0.00     0.000 C 
BRANCH   2   3
ATOM      3  C   UNL     1       9.209 -17.239  35.181  1.00  0.00     0.006 C 
BRANCH   3   4
ATOM      4  C   UNL     1      10.025 -16.103  35.813  1.00  0.00     0.053 C 
BRANCH   4   5
ATOM      5  C   UNL     1       9.149 -14.922  36.087  1.00  0.00     0.041 C 
ATOM      6  O   UNL     1       9.639 -13.762  36.113  1.00  0.00    -0.550 OA
ATOM      7  O   UNL     1       7.782 -15.096  36.266  1.00  0.00    -0.550 OA
ENDBRANCH   4   5
ENDBRANCH   3   4
ENDBRANCH   2   3
ENDBRANCH   1   2
BRANCH   1   8
ATOM      8  C   UNL     1       8.636 -18.860  31.811  1.00  0.00     0.000 C 
BRANCH   8   9
ATOM      9  C   UNL     1      10.166 -18.848  31.721  1.00  0.00     0.000 C 
BRANCH   9  10
ATOM     10  C   UNL     1      10.684 -20.084  30.970  1.00  0.00     0.006 C 
BRANCH  10  11
ATOM     11  C   UNL     1       9.609 -20.709  30.071  1.00  0.00     0.053 C 
BRANCH  11  12
ATOM     12  C   UNL     1       9.740 -20.250  28.650  1.00  0.00     0.041 C 
ATOM     13  O   UNL     1      10.272 -20.997  27.789  1.00  0.00    -0.550 OA
ATOM     14  O   UNL     1       9.246 -19.008  28.273  1.00  0.00    -0.550 OA
ENDBRANCH  11  12
ENDBRANCH  10  11
ENDBRANCH   9  10
ENDBRANCH   8   9
ENDBRANCH   1   8
TORSDOF 9
ENDMDL
MODEL 4
REMARK VINA RESULT:    -4.076      1.131      7.218
REMARK INTER + INTRA:          -6.658
REMARK INTER:                  -6.120
REMARK INTRA:                  -0.538
REMARK UNBOUND:                -0.438
REMARK SMILES O=C([O-])CCCCCCCCC(=O)[O-]
REMARK SMILES IDX 7 1 6 2 5 3 4 4 2 5 1 6 3 7 8 8 9 9 10 10 11 11 12 12 13 13
REMARK SMILES IDX 14 14
REMARK H PARENT
REMARK Flexibility Score: inf
ROOT
ATOM      1  C   UNL     1       8.661 -19.130  31.650  1.00  0.00     0.000 C 
ENDROOT
BRANCH   1   2
ATOM      2  C   UNL     1       8.363 -17.980  32.623  1.00  0.00     0.000 C 
BRANCH   2   3
ATOM      3  C   UNL     1       9.591 -17.572  33.452  1.00  0.00     0.006 C 
BRANCH   3   4
ATOM      4  C   UNL     1       9.216 -17.055  34.848  1.00  0.00     0.053 C 
BRANCH   4   5
ATOM      5  C   UNL     1      10.024 -15.844  35.190  1.00  0.00     0.041 C 
ATOM      6  O   UNL     1       9.997 -15.373  36.357  1.00  0.00    -0.550 OA
ATOM      7  O   UNL     1      10.845 -15.262  34.232  1.00  0.00    -0.550 OA
ENDBRANCH   4   5
ENDBRANCH   3   4
ENDBRANCH   2   3
ENDBRANCH   1   2
BRANCH   1   8
ATOM      8  C   UNL     1      10.169 -19.281  31.422  1.00  0.00     0.000 C 
BRANCH   8   9
ATOM      9  C   UNL     1      10.475 -20.489  30.529  1.00  0.00     0.000 C 
BRANCH   9  10
ATOM     10  C   UNL     1       9.268 -20.841  29.647  1.00  0.00     0.006 C 
BRANCH  10  11
ATOM     11  C   UNL     1       9.596 -20.749  28.151  1.00  0.00     0.053 C 
BRANCH  11  12
ATOM     12  C   UNL     1       9.302 -19.385  27.603  1.00  0.00     0.041 C 
ATOM     13  O   UNL     1       9.896 -18.974  26.572  1.00  0.00    -0.550 OA
ATOM     14  O   UNL     1       8.350 -18.581  28.215  1.00  0.00    -0.550 OA
ENDBRANCH  11  12
ENDBRANCH  10  11
ENDBRANCH   9  10
ENDBRANCH   8   9
ENDBRANCH   1   8
TORSDOF 9
ENDMDL
MODEL 5
REMARK VINA RESULT:    -4.072      1.715      2.268
REMARK INTER + INTRA:          -6.653
REMARK INTER:                  -6.065
REMARK INTRA:                  -0.588
REMARK UNBOUND:                -0.438
REMARK SMILES O=C([O-])CCCCCCCCC(=O)[O-]
REMARK SMILES IDX 7 1 6 2 5 3 4 4 2 5 1 6 3 7 8 8 9 9 10 10 11 11 12 12 13 13
REMARK SMILES IDX 14 14
REMARK H PARENT
REMARK Flexibility Score: inf
ROOT
ATOM      1  C   UNL     1       9.659 -17.863  33.036  1.00  0.00     0.000 C 
ENDROOT
BRANCH   1   2
ATOM      2  C   UNL     1      10.331 -17.197  31.827  1.00  0.00     0.000 C 
BRANCH   2   3
ATOM      3  C   UNL     1      11.006 -18.212  30.890  1.00  0.00     0.006 C 
BRANCH   3   4
ATOM      4  C   UNL     1      10.675 -19.665  31.256  1.00  0.00     0.053 C 
BRANCH   4   5
ATOM      5  C   UNL     1       9.723 -20.249  30.261  1.00  0.00     0.041 C 
ATOM      6  O   UNL     1       8.500 -20.358  30.542  1.00  0.00    -0.550 OA
ATOM      7  O   UNL     1      10.177 -20.631  29.005  1.00  0.00    -0.550 OA
ENDBRANCH   4   5
ENDBRANCH   3   4
ENDBRANCH   2   3
ENDBRANCH   1   2
BRANCH   1   8
ATOM      8  C   UNL     1       8.651 -16.916  33.696  1.00  0.00     0.000 C 
BRANCH   8   9
ATOM      9  C   UNL     1       8.719 -17.014  35.224  1.00  0.00     0.000 C 
BRANCH   9  10
ATOM     10  C   UNL     1      10.003 -16.365  35.761  1.00  0.00     0.006 C 
BRANCH  10  11
ATOM     11  C   UNL     1       9.915 -14.834  35.780  1.00  0.00     0.053 C 
BRANCH  11  12
ATOM     12  C   UNL     1      11.138 -14.202  35.187  1.00  0.00     0.041 C 
ATOM     13  O   UNL     1      11.744 -13.288  35.806  1.00  0.00    -0.550 OA
ATOM     14  O   UNL     1      11.626 -14.645  33.965  1.00  0.00    -0.550 OA
ENDBRANCH  11  12
ENDBRANCH  10  11
ENDBRANCH   9  10
ENDBRANCH   8   9
ENDBRANCH   1   8
TORSDOF 9
ENDMDL
MODEL 6
REMARK VINA RESULT:    -4.039      1.975      2.338
REMARK INTER + INTRA:          -6.603
REMARK INTER:                  -6.081
REMARK INTRA:                  -0.521
REMARK UNBOUND:                -0.438
REMARK SMILES O=C([O-])CCCCCCCCC(=O)[O-]
REMARK SMILES IDX 7 1 6 2 5 3 4 4 2 5 1 6 3 7 8 8 9 9 10 10 11 11 12 12 13 13
REMARK SMILES IDX 14 14
REMARK H PARENT
REMARK Flexibility Score: inf
ROOT
ATOM      1  C   UNL     1      10.587 -18.471  30.456  1.00  0.00     0.000 C 
ENDROOT
BRANCH   1   2
ATOM      2  C   UNL     1      10.583 -19.946  30.882  1.00  0.00     0.000 C 
BRANCH   2   3
ATOM      3  C   UNL     1       9.686 -20.818  29.990  1.00  0.00     0.006 C 
BRANCH   3   4
ATOM      4  C   UNL     1       8.194 -20.504  30.166  1.00  0.00     0.053 C 
BRANCH   4   5
ATOM      5  C   UNL     1       7.359 -21.626  29.634  1.00  0.00     0.041 C 
ATOM      6  O   UNL     1       6.146 -21.722  29.958  1.00  0.00    -0.550 OA
ATOM      7  O   UNL     1       7.907 -22.538  28.741  1.00  0.00    -0.550 OA
ENDBRANCH   4   5
ENDBRANCH   3   4
ENDBRANCH   2   3
ENDBRANCH   1   2
BRANCH   1   8
ATOM      8  C   UNL     1      10.460 -17.547  31.673  1.00  0.00     0.000 C 
BRANCH   8   9
ATOM      9  C   UNL     1       9.571 -18.176  32.753  1.00  0.00     0.000 C 
BRANCH   9  10
ATOM     10  C   UNL     1       8.823 -17.096  33.549  1.00  0.00     0.006 C 
BRANCH  10  11
ATOM     11  C   UNL     1       9.255 -17.056  35.021  1.00  0.00     0.053 C 
BRANCH  11  12
ATOM     12  C   UNL     1      10.067 -15.835  35.327  1.00  0.00     0.041 C 
ATOM     13  O   UNL     1      10.043 -15.329  36.479  1.00  0.00    -0.550 OA
ATOM     14  O   UNL     1      10.872 -15.272  34.345  1.00  0.00    -0.550 OA
ENDBRANCH  11  12
ENDBRANCH  10  11
ENDBRANCH   9  10
ENDBRANCH   8   9
ENDBRANCH   1   8
TORSDOF 9
ENDMDL
MODEL 7
REMARK VINA RESULT:    -3.999      3.377      6.414
REMARK INTER + INTRA:          -6.542
REMARK INTER:                  -5.453
REMARK INTRA:                  -1.089
REMARK UNBOUND:                -0.438
REMARK SMILES O=C([O-])CCCCCCCCC(=O)[O-]
REMARK SMILES IDX 7 1 6 2 5 3 4 4 2 5 1 6 3 7 8 8 9 9 10 10 11 11 12 12 13 13
REMARK SMILES IDX 14 14
REMARK H PARENT
REMARK Flexibility Score: inf
ROOT
ATOM      1  C   UNL     1      10.427 -17.289  31.633  1.00  0.00     0.000 C 
ENDROOT
BRANCH   1   2
ATOM      2  C   UNL     1       9.537 -17.922  32.713  1.00  0.00     0.000 C 
BRANCH   2   3
ATOM      3  C   UNL     1       8.047 -17.599  32.519  1.00  0.00     0.006 C 
BRANCH   3   4
ATOM      4  C   UNL     1       7.249 -18.795  31.984  1.00  0.00     0.053 C 
BRANCH   4   5
ATOM      5  C   UNL     1       7.012 -18.648  30.514  1.00  0.00     0.041 C 
ATOM      6  O   UNL     1       7.375 -17.601  29.915  1.00  0.00    -0.550 OA
ATOM      7  O   UNL     1       6.433 -19.687  29.795  1.00  0.00    -0.550 OA
ENDBRANCH   4   5
ENDBRANCH   3   4
ENDBRANCH   2   3
ENDBRANCH   1   2
BRANCH   1   8
ATOM      8  C   UNL     1      11.027 -18.362  30.717  1.00  0.00     0.000 C 
BRANCH   8   9
ATOM      9  C   UNL     1      10.822 -19.764  31.302  1.00  0.00     0.000 C 
BRANCH   9  10
ATOM     10  C   UNL     1      10.206 -20.710  30.261  1.00  0.00     0.006 C 
BRANCH  10  11
ATOM     11  C   UNL     1       9.915 -20.001  28.932  1.00  0.00     0.053 C 
BRANCH  11  12
ATOM     12  C   UNL     1       9.527 -20.973  27.859  1.00  0.00     0.041 C 
ATOM     13  O   UNL     1      10.264 -21.133  26.851  1.00  0.00    -0.550 OA
ATOM     14  O   UNL     1       8.366 -21.723  27.989  1.00  0.00    -0.550 OA
ENDBRANCH  11  12
ENDBRANCH  10  11
ENDBRANCH   9  10
ENDBRANCH   8   9
ENDBRANCH   1   8
TORSDOF 9
ENDMDL
MODEL 8
REMARK VINA RESULT:    -3.979      1.595      7.107
REMARK INTER + INTRA:          -6.510
REMARK INTER:                  -6.012
REMARK INTRA:                  -0.499
REMARK UNBOUND:                -0.438
REMARK SMILES O=C([O-])CCCCCCCCC(=O)[O-]
REMARK SMILES IDX 7 1 6 2 5 3 4 4 2 5 1 6 3 7 8 8 9 9 10 10 11 11 12 12 13 13
REMARK SMILES IDX 14 14
REMARK H PARENT
REMARK Flexibility Score: inf
ROOT
ATOM      1  C   UNL     1       8.613 -17.587  33.786  1.00  0.00     0.000 C 
ENDROOT
BRANCH   1   2
ATOM      2  C   UNL     1       9.212 -17.300  35.170  1.00  0.00     0.000 C 
BRANCH   2   3
ATOM      3  C   UNL     1       9.054 -15.830  35.591  1.00  0.00     0.006 C 
BRANCH   3   4
ATOM      4  C   UNL     1      10.400 -15.106  35.721  1.00  0.00     0.053 C 
BRANCH   4   5
ATOM      5  C   UNL     1      10.807 -14.523  34.404  1.00  0.00     0.041 C 
ATOM      6  O   UNL     1      12.026 -14.419  34.107  1.00  0.00    -0.550 OA
ATOM      7  O   UNL     1       9.839 -14.138  33.485  1.00  0.00    -0.550 OA
ENDBRANCH   4   5
ENDBRANCH   3   4
ENDBRANCH   2   3
ENDBRANCH   1   2
BRANCH   1   8
ATOM      8  C   UNL     1       9.713 -17.705  32.724  1.00  0.00     0.000 C 
BRANCH   8   9
ATOM      9  C   UNL     1       9.422 -18.855  31.753  1.00  0.00     0.000 C 
BRANCH   9  10
ATOM     10  C   UNL     1      10.723 -19.438  31.184  1.00  0.00     0.006 C 
BRANCH  10  11
ATOM     11  C   UNL     1      10.502 -20.793  30.499  1.00  0.00     0.053 C 
BRANCH  11  12
ATOM     12  C   UNL     1       9.517 -20.691  29.374  1.00  0.00     0.041 C 
ATOM     13  O   UNL     1       9.807 -20.043  28.334  1.00  0.00    -0.550 OA
ATOM     14  O   UNL     1       8.291 -21.335  29.463  1.00  0.00    -0.550 OA
ENDBRANCH  11  12
ENDBRANCH  10  11
ENDBRANCH   9  10
ENDBRANCH   8   9
ENDBRANCH   1   8
TORSDOF 9
ENDMDL
MODEL 9
REMARK VINA RESULT:    -3.858      1.584      2.078
REMARK INTER + INTRA:          -6.326
REMARK INTER:                  -5.820
REMARK INTRA:                  -0.507
REMARK UNBOUND:                -0.438
REMARK SMILES O=C([O-])CCCCCCCCC(=O)[O-]
REMARK SMILES IDX 7 1 6 2 5 3 4 4 2 5 1 6 3 7 8 8 9 9 10 10 11 11 12 12 13 13
REMARK SMILES IDX 14 14
REMARK H PARENT
REMARK Flexibility Score: inf
ROOT
ATOM      1  C   UNL     1      10.423 -17.223  31.690  1.00  0.00     0.000 C 
ENDROOT
BRANCH   1   2
ATOM      2  C   UNL     1      11.064 -18.311  30.816  1.00  0.00     0.000 C 
BRANCH   2   3
ATOM      3  C   UNL     1      10.711 -19.732  31.283  1.00  0.00     0.006 C 
BRANCH   3   4
ATOM      4  C   UNL     1      10.191 -20.616  30.142  1.00  0.00     0.053 C 
BRANCH   4   5
ATOM      5  C   UNL     1       8.750 -20.318  29.868  1.00  0.00     0.041 C 
ATOM      6  O   UNL     1       7.950 -20.126  30.821  1.00  0.00    -0.550 OA
ATOM      7  O   UNL     1       8.301 -20.206  28.558  1.00  0.00    -0.550 OA
ENDBRANCH   4   5
ENDBRANCH   3   4
ENDBRANCH   2   3
ENDBRANCH   1   2
BRANCH   1   8
ATOM      8  C   UNL     1       9.655 -17.843  32.863  1.00  0.00     0.000 C 
BRANCH   8   9
ATOM      9  C   UNL     1       8.999 -16.759  33.727  1.00  0.00     0.000 C 
BRANCH   9  10
ATOM     10  C   UNL     1       9.007 -17.159  35.210  1.00  0.00     0.006 C 
BRANCH  10  11
ATOM     11  C   UNL     1       7.607 -17.094  35.836  1.00  0.00     0.053 C 
BRANCH  11  12
ATOM     12  C   UNL     1       7.225 -15.689  36.192  1.00  0.00     0.041 C 
ATOM     13  O   UNL     1       8.089 -14.890  36.637  1.00  0.00    -0.550 OA
ATOM     14  O   UNL     1       5.919 -15.256  36.003  1.00  0.00    -0.550 OA
ENDBRANCH  11  12
ENDBRANCH  10  11
ENDBRANCH   9  10
ENDBRANCH   8   9
ENDBRANCH   1   8
TORSDOF 9
ENDMDL
