MODEL 1
REMARK VINA RESULT:    32.145      0.000      0.000
REMARK INTER + INTRA:          40.808
REMARK INTER:                  40.601
REMARK INTRA:                   0.207
REMARK UNBOUND:                 0.207
REMARK SMILES O=C(C=Cc1ccc(O)cc1)c1ccc(O)cc1O
REMARK SMILES IDX 4 1 3 2 5 3 6 4 7 5 8 6 11 7 10 8 9 9 2 11 1 12 12 13 18 14
REMARK SMILES IDX 13 15 17 16 14 17 15 18 19 19 16 21
REMARK H PARENT 9 10 19 20 16 22
REMARK Flexibility Score: inf
ROOT
ATOM      1  C   UNL     1     -36.421  40.004 -23.126  1.00  0.00     0.012 C 
ATOM      2  C   UNL     1     -35.524  40.886 -23.588  1.00  0.00     0.053 C 
ENDROOT
BRANCH   1   3
ATOM      3  C   UNL     1     -37.184  40.187 -21.866  1.00  0.00    -0.025 A 
ATOM      4  C   UNL     1     -36.554  40.362 -20.617  1.00  0.00     0.012 A 
ATOM      5  C   UNL     1     -37.318  40.543 -19.459  1.00  0.00     0.047 A 
ATOM      6  C   UNL     1     -38.717  40.560 -19.532  1.00  0.00     0.115 A 
ATOM      7  C   UNL     1     -38.587  40.222 -21.928  1.00  0.00     0.012 A 
ATOM      8  C   UNL     1     -39.347  40.402 -20.768  1.00  0.00     0.047 A 
BRANCH   6   9
ATOM      9  O   UNL     1     -39.486  40.738 -18.384  1.00  0.00    -0.508 OA
ATOM     10  H   UNL     1     -39.288  41.481 -17.724  1.00  0.00     0.293 HD
ENDBRANCH   6   9
ENDBRANCH   1   3
BRANCH   2  11
ATOM     11  C   UNL     1     -34.777  40.665 -24.846  1.00  0.00     0.189 C 
ATOM     12  O   UNL     1     -35.396  40.395 -25.911  1.00  0.00    -0.289 OA
BRANCH  11  13
ATOM     13  C   UNL     1     -33.299  40.732 -24.859  1.00  0.00     0.064 A 
ATOM     14  C   UNL     1     -32.535  40.634 -23.670  1.00  0.00     0.130 A 
ATOM     15  C   UNL     1     -32.636  40.937 -26.082  1.00  0.00     0.020 A 
ATOM     16  C   UNL     1     -31.143  40.778 -23.726  1.00  0.00     0.093 A 
ATOM     17  C   UNL     1     -31.246  41.064 -26.125  1.00  0.00     0.047 A 
ATOM     18  C   UNL     1     -30.497  40.990 -24.950  1.00  0.00     0.119 A 
BRANCH  14  19
ATOM     19  O   UNL     1     -33.117  40.369 -22.428  1.00  0.00    -0.507 OA
ATOM     20  H   UNL     1     -33.616  39.514 -22.220  1.00  0.00     0.293 HD
ENDBRANCH  14  19
BRANCH  18  21
ATOM     21  O   UNL     1     -29.111  41.125 -25.008  1.00  0.00    -0.508 OA
ATOM     22  H   UNL     1     -28.632  41.292 -25.884  1.00  0.00     0.293 HD
ENDBRANCH  18  21
ENDBRANCH  11  13
ENDBRANCH   2  11
TORSDOF 6
ENDMDL
MODEL 2
REMARK VINA RESULT:    34.417      1.562      7.520
REMARK INTER + INTRA:          43.677
REMARK INTER:                  42.987
REMARK INTRA:                   0.690
REMARK UNBOUND:                 0.207
REMARK SMILES O=C(C=Cc1ccc(O)cc1)c1ccc(O)cc1O
REMARK SMILES IDX 4 1 3 2 5 3 6 4 7 5 8 6 11 7 10 8 9 9 2 11 1 12 12 13 18 14
REMARK SMILES IDX 13 15 17 16 14 17 15 18 19 19 16 21
REMARK H PARENT 9 10 19 20 16 22
REMARK Flexibility Score: inf
ROOT
ATOM      1  C   UNL     1     -32.541  39.817 -25.219  1.00  0.00     0.012 C 
ATOM      2  C   UNL     1     -33.414  40.825 -25.071  1.00  0.00     0.053 C 
ENDROOT
BRANCH   1   3
ATOM      3  C   UNL     1     -31.069  40.000 -25.252  1.00  0.00    -0.025 A 
ATOM      4  C   UNL     1     -30.409  40.982 -24.486  1.00  0.00     0.012 A 
ATOM      5  C   UNL     1     -29.017  41.107 -24.544  1.00  0.00     0.047 A 
ATOM      6  C   UNL     1     -28.265  40.249 -25.357  1.00  0.00     0.115 A 
ATOM      7  C   UNL     1     -30.302  39.135 -26.051  1.00  0.00     0.012 A 
ATOM      8  C   UNL     1     -28.911  39.264 -26.107  1.00  0.00     0.047 A 
BRANCH   6   9
ATOM      9  O   UNL     1     -26.878  40.367 -25.422  1.00  0.00    -0.508 OA
ATOM     10  H   UNL     1     -26.422  40.820 -26.205  1.00  0.00     0.293 HD
ENDBRANCH   6   9
ENDBRANCH   1   3
BRANCH   2  11
ATOM     11  C   UNL     1     -34.876  40.604 -25.049  1.00  0.00     0.189 C 
ATOM     12  O   UNL     1     -35.546  40.689 -26.115  1.00  0.00    -0.289 OA
BRANCH  11  13
ATOM     13  C   UNL     1     -35.568  40.305 -23.776  1.00  0.00     0.064 A 
ATOM     14  C   UNL     1     -34.857  40.101 -22.568  1.00  0.00     0.130 A 
ATOM     15  C   UNL     1     -36.969  40.184 -23.772  1.00  0.00     0.020 A 
ATOM     16  C   UNL     1     -35.553  39.748 -21.404  1.00  0.00     0.093 A 
ATOM     17  C   UNL     1     -37.651  39.846 -22.601  1.00  0.00     0.047 A 
ATOM     18  C   UNL     1     -36.946  39.623 -21.418  1.00  0.00     0.119 A 
BRANCH  14  19
ATOM     19  O   UNL     1     -33.473  40.264 -22.479  1.00  0.00    -0.507 OA
ATOM     20  H   UNL     1     -32.970  40.264 -21.602  1.00  0.00     0.293 HD
ENDBRANCH  14  19
BRANCH  18  21
ATOM     21  O   UNL     1     -37.640  39.279 -20.258  1.00  0.00    -0.508 OA
ATOM     22  H   UNL     1     -37.158  38.942 -19.434  1.00  0.00     0.293 HD
ENDBRANCH  18  21
ENDBRANCH  11  13
ENDBRANCH   2  11
TORSDOF 6
ENDMDL
MODEL 3
REMARK VINA RESULT:    34.484      1.931      2.477
REMARK INTER + INTRA:          43.763
REMARK INTER:                  44.310
REMARK INTRA:                  -0.547
REMARK UNBOUND:                 0.207
REMARK SMILES O=C(C=Cc1ccc(O)cc1)c1ccc(O)cc1O
REMARK SMILES IDX 4 1 3 2 5 3 6 4 7 5 8 6 11 7 10 8 9 9 2 11 1 12 12 13 18 14
REMARK SMILES IDX 13 15 17 16 14 17 15 18 19 19 16 21
REMARK H PARENT 9 10 19 20 16 22
REMARK Flexibility Score: inf
ROOT
ATOM      1  C   UNL     1     -34.725  40.120 -23.481  1.00  0.00     0.012 C 
ATOM      2  C   UNL     1     -33.430  40.291 -23.783  1.00  0.00     0.053 C 
ENDROOT
BRANCH   1   3
ATOM      3  C   UNL     1     -35.296  40.362 -22.133  1.00  0.00    -0.025 A 
ATOM      4  C   UNL     1     -34.534  40.889 -21.070  1.00  0.00     0.012 A 
ATOM      5  C   UNL     1     -35.122  41.110 -19.820  1.00  0.00     0.047 A 
ATOM      6  C   UNL     1     -36.477  40.820 -19.616  1.00  0.00     0.115 A 
ATOM      7  C   UNL     1     -36.658  40.091 -21.920  1.00  0.00     0.012 A 
ATOM      8  C   UNL     1     -37.242  40.313 -20.670  1.00  0.00     0.047 A 
BRANCH   6   9
ATOM      9  O   UNL     1     -37.071  41.036 -18.375  1.00  0.00    -0.508 OA
ATOM     10  H   UNL     1     -37.914  40.546 -18.099  1.00  0.00     0.293 HD
ENDBRANCH   6   9
ENDBRANCH   1   3
BRANCH   2  11
ATOM     11  C   UNL     1     -32.896  40.031 -25.138  1.00  0.00     0.189 C 
ATOM     12  O   UNL     1     -33.685  39.857 -26.107  1.00  0.00    -0.289 OA
BRANCH  11  13
ATOM     13  C   UNL     1     -31.436  39.948 -25.363  1.00  0.00     0.064 A 
ATOM     14  C   UNL     1     -30.791  38.718 -25.640  1.00  0.00     0.130 A 
ATOM     15  C   UNL     1     -30.662  41.117 -25.261  1.00  0.00     0.020 A 
ATOM     16  C   UNL     1     -29.397  38.680 -25.772  1.00  0.00     0.093 A 
ATOM     17  C   UNL     1     -29.274  41.068 -25.411  1.00  0.00     0.047 A 
ATOM     18  C   UNL     1     -28.638  39.851 -25.661  1.00  0.00     0.119 A 
BRANCH  14  19
ATOM     19  O   UNL     1     -31.498  37.527 -25.816  1.00  0.00    -0.507 OA
ATOM     20  H   UNL     1     -31.997  37.062 -25.069  1.00  0.00     0.293 HD
ENDBRANCH  14  19
BRANCH  18  21
ATOM     21  O   UNL     1     -27.251  39.816 -25.800  1.00  0.00    -0.508 OA
ATOM     22  H   UNL     1     -26.813  39.749 -26.711  1.00  0.00     0.293 HD
ENDBRANCH  18  21
ENDBRANCH  11  13
ENDBRANCH   2  11
TORSDOF 6
ENDMDL
MODEL 4
REMARK VINA RESULT:    34.976      1.498      7.648
REMARK INTER + INTRA:          44.384
REMARK INTER:                  44.990
REMARK INTRA:                  -0.606
REMARK UNBOUND:                 0.207
REMARK SMILES O=C(C=Cc1ccc(O)cc1)c1ccc(O)cc1O
REMARK SMILES IDX 4 1 3 2 5 3 6 4 7 5 8 6 11 7 10 8 9 9 2 11 1 12 12 13 18 14
REMARK SMILES IDX 13 15 17 16 14 17 15 18 19 19 16 21
REMARK H PARENT 9 10 19 20 16 22
REMARK Flexibility Score: inf
ROOT
ATOM      1  C   UNL     1     -35.187  40.324 -23.885  1.00  0.00     0.012 C 
ATOM      2  C   UNL     1     -35.761  40.191 -22.680  1.00  0.00     0.053 C 
ENDROOT
BRANCH   1   3
ATOM      3  C   UNL     1     -33.733  40.537 -24.087  1.00  0.00    -0.025 A 
ATOM      4  C   UNL     1     -32.836  40.712 -23.013  1.00  0.00     0.012 A 
ATOM      5  C   UNL     1     -31.470  40.898 -23.254  1.00  0.00     0.047 A 
ATOM      6  C   UNL     1     -30.980  40.901 -24.566  1.00  0.00     0.115 A 
ATOM      7  C   UNL     1     -33.226  40.526 -25.397  1.00  0.00     0.012 A 
ATOM      8  C   UNL     1     -31.861  40.713 -25.634  1.00  0.00     0.047 A 
BRANCH   6   9
ATOM      9  O   UNL     1     -29.623  41.087 -24.817  1.00  0.00    -0.508 OA
ATOM     10  H   UNL     1     -29.287  41.370 -25.730  1.00  0.00     0.293 HD
ENDBRANCH   6   9
ENDBRANCH   1   3
BRANCH   2  11
ATOM     11  C   UNL     1     -37.217  39.987 -22.520  1.00  0.00     0.189 C 
ATOM     12  O   UNL     1     -37.930  39.692 -23.518  1.00  0.00    -0.289 OA
BRANCH  11  13
ATOM     13  C   UNL     1     -37.854  40.154 -21.194  1.00  0.00     0.064 A 
ATOM     14  C   UNL     1     -39.139  40.731 -21.050  1.00  0.00     0.130 A 
ATOM     15  C   UNL     1     -37.147  39.763 -20.044  1.00  0.00     0.020 A 
ATOM     16  C   UNL     1     -39.667  40.935 -19.768  1.00  0.00     0.093 A 
ATOM     17  C   UNL     1     -37.692  39.958 -18.773  1.00  0.00     0.047 A 
ATOM     18  C   UNL     1     -38.949  40.548 -18.631  1.00  0.00     0.119 A 
BRANCH  14  19
ATOM     19  O   UNL     1     -39.926  41.088 -22.146  1.00  0.00    -0.507 OA
ATOM     20  H   UNL     1     -39.808  40.687 -23.068  1.00  0.00     0.293 HD
ENDBRANCH  14  19
BRANCH  18  21
ATOM     21  O   UNL     1     -39.477  40.743 -17.356  1.00  0.00    -0.508 OA
ATOM     22  H   UNL     1     -38.997  40.411 -16.528  1.00  0.00     0.293 HD
ENDBRANCH  18  21
ENDBRANCH  11  13
ENDBRANCH   2  11
TORSDOF 6
ENDMDL
