MODEL 1
REMARK VINA RESULT:    -3.828      0.000      0.000
REMARK INTER + INTRA:          -5.308
REMARK INTER:                  -4.946
REMARK INTRA:                  -0.362
REMARK UNBOUND:                -0.362
REMARK SMILES CCCCCCC(=O)[O-]
REMARK SMILES IDX 5 1 6 2 7 3 8 4 9 5 4 6 3 7 2 8 1 9
REMARK H PARENT
REMARK Flexibility Score: inf
ROOT
ATOM      1  C   UNL     1      61.978  26.904  26.762  1.00  0.00     0.006 C 
ENDROOT
BRANCH   1   2
ATOM      2  C   UNL     1      61.911  27.297  28.244  1.00  0.00     0.053 C 
BRANCH   2   3
ATOM      3  C   UNL     1      61.390  28.689  28.425  1.00  0.00     0.041 C 
ATOM      4  O   UNL     1      60.354  28.894  29.112  1.00  0.00    -0.550 OA
ATOM      5  O   UNL     1      62.027  29.758  27.805  1.00  0.00    -0.550 OA
ENDBRANCH   2   3
ENDBRANCH   1   2
BRANCH   1   6
ATOM      6  C   UNL     1      60.603  26.991  26.075  1.00  0.00     0.000 C 
BRANCH   6   7
ATOM      7  C   UNL     1      60.569  28.023  24.933  1.00  0.00    -0.000 C 
BRANCH   7   8
ATOM      8  C   UNL     1      61.913  28.232  24.213  1.00  0.00    -0.003 C 
ATOM      9  C   UNL     1      62.442  29.660  24.337  1.00  0.00     0.004 C 
ENDBRANCH   7   8
ENDBRANCH   6   7
ENDBRANCH   1   6
TORSDOF 5
ENDMDL
MODEL 2
REMARK VINA RESULT:    -3.668     14.840     16.174
REMARK INTER + INTRA:          -5.102
REMARK INTER:                  -4.703
REMARK INTRA:                  -0.399
REMARK UNBOUND:                -0.362
REMARK SMILES CCCCCCC(=O)[O-]
REMARK SMILES IDX 5 1 6 2 7 3 8 4 9 5 4 6 3 7 2 8 1 9
REMARK H PARENT
REMARK Flexibility Score: inf
ROOT
ATOM      1  C   UNL     1      62.901  30.064  11.057  1.00  0.00     0.006 C 
ENDROOT
BRANCH   1   2
ATOM      2  C   UNL     1      62.925  29.247   9.759  1.00  0.00     0.053 C 
BRANCH   2   3
ATOM      3  C   UNL     1      61.542  28.940   9.272  1.00  0.00     0.041 C 
ATOM      4  O   UNL     1      61.229  27.762   8.954  1.00  0.00    -0.550 OA
ATOM      5  O   UNL     1      60.610  29.961   9.133  1.00  0.00    -0.550 OA
ENDBRANCH   2   3
ENDBRANCH   1   2
BRANCH   1   6
ATOM      6  C   UNL     1      63.463  29.274  12.252  1.00  0.00     0.000 C 
BRANCH   6   7
ATOM      7  C   UNL     1      62.368  28.564  13.069  1.00  0.00    -0.000 C 
BRANCH   7   8
ATOM      8  C   UNL     1      60.973  29.205  12.971  1.00  0.00    -0.003 C 
ATOM      9  C   UNL     1      59.885  28.212  12.564  1.00  0.00     0.004 C 
ENDBRANCH   7   8
ENDBRANCH   6   7
ENDBRANCH   1   6
TORSDOF 5
ENDMDL
MODEL 3
REMARK VINA RESULT:    -3.666      1.353      2.306
REMARK INTER + INTRA:          -5.100
REMARK INTER:                  -4.697
REMARK INTRA:                  -0.403
REMARK UNBOUND:                -0.362
REMARK SMILES CCCCCCC(=O)[O-]
REMARK SMILES IDX 5 1 6 2 7 3 8 4 9 5 4 6 3 7 2 8 1 9
REMARK H PARENT
REMARK Flexibility Score: inf
ROOT
ATOM      1  C   UNL     1      63.006  29.273  26.438  1.00  0.00     0.006 C 
ENDROOT
BRANCH   1   2
ATOM      2  C   UNL     1      62.319  29.792  27.708  1.00  0.00     0.053 C 
BRANCH   2   3
ATOM      3  C   UNL     1      61.584  28.702  28.426  1.00  0.00     0.041 C 
ATOM      4  O   UNL     1      60.462  28.932  28.948  1.00  0.00    -0.550 OA
ATOM      5  O   UNL     1      62.156  27.442  28.550  1.00  0.00    -0.550 OA
ENDBRANCH   2   3
ENDBRANCH   1   2
BRANCH   1   6
ATOM      6  C   UNL     1      62.241  29.666  25.161  1.00  0.00     0.000 C 
BRANCH   6   7
ATOM      7  C   UNL     1      61.917  28.459  24.262  1.00  0.00    -0.000 C 
BRANCH   7   8
ATOM      8  C   UNL     1      61.578  27.163  25.020  1.00  0.00    -0.003 C 
ATOM      9  C   UNL     1      60.101  27.058  25.395  1.00  0.00     0.004 C 
ENDBRANCH   7   8
ENDBRANCH   6   7
ENDBRANCH   1   6
TORSDOF 5
ENDMDL
MODEL 4
REMARK VINA RESULT:    -3.654      1.952      2.844
REMARK INTER + INTRA:          -5.084
REMARK INTER:                  -4.686
REMARK INTRA:                  -0.398
REMARK UNBOUND:                -0.362
REMARK SMILES CCCCCCC(=O)[O-]
REMARK SMILES IDX 5 1 6 2 7 3 8 4 9 5 4 6 3 7 2 8 1 9
REMARK H PARENT
REMARK Flexibility Score: inf
ROOT
ATOM      1  C   UNL     1      60.913  28.232  24.640  1.00  0.00     0.006 C 
ENDROOT
BRANCH   1   2
ATOM      2  C   UNL     1      60.533  27.143  25.653  1.00  0.00     0.053 C 
BRANCH   2   3
ATOM      3  C   UNL     1      61.172  27.381  26.986  1.00  0.00     0.041 C 
ATOM      4  O   UNL     1      61.889  26.489  27.514  1.00  0.00    -0.550 OA
ATOM      5  O   UNL     1      60.946  28.572  27.665  1.00  0.00    -0.550 OA
ENDBRANCH   2   3
ENDBRANCH   1   2
BRANCH   1   6
ATOM      6  C   UNL     1      62.437  28.376  24.485  1.00  0.00     0.000 C 
BRANCH   6   7
ATOM      7  C   UNL     1      63.007  27.509  23.347  1.00  0.00    -0.000 C 
BRANCH   7   8
ATOM      8  C   UNL     1      63.652  26.189  23.803  1.00  0.00    -0.003 C 
ATOM      9  C   UNL     1      64.488  26.338  25.074  1.00  0.00     0.004 C 
ENDBRANCH   7   8
ENDBRANCH   6   7
ENDBRANCH   1   6
TORSDOF 5
ENDMDL
MODEL 5
REMARK VINA RESULT:    -3.628      2.303      3.484
REMARK INTER + INTRA:          -5.051
REMARK INTER:                  -4.704
REMARK INTRA:                  -0.347
REMARK UNBOUND:                -0.362
REMARK SMILES CCCCCCC(=O)[O-]
REMARK SMILES IDX 5 1 6 2 7 3 8 4 9 5 4 6 3 7 2 8 1 9
REMARK H PARENT
REMARK Flexibility Score: inf
ROOT
ATOM      1  C   UNL     1      61.225  27.122  27.953  1.00  0.00     0.006 C 
ENDROOT
BRANCH   1   2
ATOM      2  C   UNL     1      61.744  26.831  26.538  1.00  0.00     0.053 C 
BRANCH   2   3
ATOM      3  C   UNL     1      60.758  27.248  25.490  1.00  0.00     0.041 C 
ATOM      4  O   UNL     1      59.663  26.636  25.371  1.00  0.00    -0.550 OA
ATOM      5  O   UNL     1      61.063  28.287  24.620  1.00  0.00    -0.550 OA
ENDBRANCH   2   3
ENDBRANCH   1   2
BRANCH   1   6
ATOM      6  C   UNL     1      60.926  28.616  28.166  1.00  0.00     0.000 C 
BRANCH   6   7
ATOM      7  C   UNL     1      61.942  29.303  29.097  1.00  0.00    -0.000 C 
BRANCH   7   8
ATOM      8  C   UNL     1      62.671  30.509  28.478  1.00  0.00    -0.003 C 
ATOM      9  C   UNL     1      63.146  30.253  27.049  1.00  0.00     0.004 C 
ENDBRANCH   7   8
ENDBRANCH   6   7
ENDBRANCH   1   6
TORSDOF 5
ENDMDL
MODEL 6
REMARK VINA RESULT:    -3.617      1.863      2.351
REMARK INTER + INTRA:          -5.036
REMARK INTER:                  -4.835
REMARK INTRA:                  -0.201
REMARK UNBOUND:                -0.362
REMARK SMILES CCCCCCC(=O)[O-]
REMARK SMILES IDX 5 1 6 2 7 3 8 4 9 5 4 6 3 7 2 8 1 9
REMARK H PARENT
REMARK Flexibility Score: inf
ROOT
ATOM      1  C   UNL     1      60.922  27.789  25.580  1.00  0.00     0.006 C 
ENDROOT
BRANCH   1   2
ATOM      2  C   UNL     1      61.137  27.388  27.045  1.00  0.00     0.053 C 
BRANCH   2   3
ATOM      3  C   UNL     1      61.142  28.581  27.951  1.00  0.00     0.041 C 
ATOM      4  O   UNL     1      60.386  28.616  28.957  1.00  0.00    -0.550 OA
ATOM      5  O   UNL     1      61.956  29.670  27.663  1.00  0.00    -0.550 OA
ENDBRANCH   2   3
ENDBRANCH   1   2
BRANCH   1   6
ATOM      6  C   UNL     1      62.121  27.413  24.692  1.00  0.00     0.000 C 
BRANCH   6   7
ATOM      7  C   UNL     1      63.160  26.544  25.425  1.00  0.00    -0.000 C 
BRANCH   7   8
ATOM      8  C   UNL     1      64.620  26.793  25.005  1.00  0.00    -0.003 C 
ATOM      9  C   UNL     1      65.029  26.000  23.765  1.00  0.00     0.004 C 
ENDBRANCH   7   8
ENDBRANCH   6   7
ENDBRANCH   1   6
TORSDOF 5
ENDMDL
MODEL 7
REMARK VINA RESULT:    -3.610      1.720      2.737
REMARK INTER + INTRA:          -5.027
REMARK INTER:                  -4.618
REMARK INTRA:                  -0.409
REMARK UNBOUND:                -0.362
REMARK SMILES CCCCCCC(=O)[O-]
REMARK SMILES IDX 5 1 6 2 7 3 8 4 9 5 4 6 3 7 2 8 1 9
REMARK H PARENT
REMARK Flexibility Score: inf
ROOT
ATOM      1  C   UNL     1      62.756  29.297  28.223  1.00  0.00     0.006 C 
ENDROOT
BRANCH   1   2
ATOM      2  C   UNL     1      61.267  28.930  28.282  1.00  0.00     0.053 C 
BRANCH   2   3
ATOM      3  C   UNL     1      61.065  27.449  28.380  1.00  0.00     0.041 C 
ATOM      4  O   UNL     1      61.829  26.662  27.761  1.00  0.00    -0.550 OA
ATOM      5  O   UNL     1      60.009  26.938  29.124  1.00  0.00    -0.550 OA
ENDBRANCH   2   3
ENDBRANCH   1   2
BRANCH   1   6
ATOM      6  C   UNL     1      63.103  30.120  26.971  1.00  0.00     0.000 C 
BRANCH   6   7
ATOM      7  C   UNL     1      63.240  29.255  25.704  1.00  0.00    -0.000 C 
BRANCH   7   8
ATOM      8  C   UNL     1      62.116  29.444  24.670  1.00  0.00    -0.003 C 
ATOM      9  C   UNL     1      61.173  28.246  24.585  1.00  0.00     0.004 C 
ENDBRANCH   7   8
ENDBRANCH   6   7
ENDBRANCH   1   6
TORSDOF 5
ENDMDL
MODEL 8
REMARK VINA RESULT:    -3.594      1.210      2.033
REMARK INTER + INTRA:          -5.006
REMARK INTER:                  -4.629
REMARK INTRA:                  -0.378
REMARK UNBOUND:                -0.362
REMARK SMILES CCCCCCC(=O)[O-]
REMARK SMILES IDX 5 1 6 2 7 3 8 4 9 5 4 6 3 7 2 8 1 9
REMARK H PARENT
REMARK Flexibility Score: inf
ROOT
ATOM      1  C   UNL     1      60.389  27.124  25.757  1.00  0.00     0.006 C 
ENDROOT
BRANCH   1   2
ATOM      2  C   UNL     1      61.361  27.086  26.943  1.00  0.00     0.053 C 
BRANCH   2   3
ATOM      3  C   UNL     1      60.757  27.687  28.175  1.00  0.00     0.041 C 
ATOM      4  O   UNL     1      60.820  28.929  28.371  1.00  0.00    -0.550 OA
ATOM      5  O   UNL     1      60.156  26.870  29.125  1.00  0.00    -0.550 OA
ENDBRANCH   2   3
ENDBRANCH   1   2
BRANCH   1   6
ATOM      6  C   UNL     1      60.784  28.184  24.713  1.00  0.00     0.000 C 
BRANCH   6   7
ATOM      7  C   UNL     1      62.291  28.500  24.723  1.00  0.00    -0.000 C 
BRANCH   7   8
ATOM      8  C   UNL     1      62.639  29.974  24.994  1.00  0.00    -0.003 C 
ATOM      9  C   UNL     1      63.419  30.177  26.292  1.00  0.00     0.004 C 
ENDBRANCH   7   8
ENDBRANCH   6   7
ENDBRANCH   1   6
TORSDOF 5
ENDMDL
MODEL 9
REMARK VINA RESULT:    -3.570     14.300     15.402
REMARK INTER + INTRA:          -4.976
REMARK INTER:                  -4.776
REMARK INTRA:                  -0.200
REMARK UNBOUND:                -0.362
REMARK SMILES CCCCCCC(=O)[O-]
REMARK SMILES IDX 5 1 6 2 7 3 8 4 9 5 4 6 3 7 2 8 1 9
REMARK H PARENT
REMARK Flexibility Score: inf
ROOT
ATOM      1  C   UNL     1      60.910  28.811  12.649  1.00  0.00     0.006 C 
ENDROOT
BRANCH   1   2
ATOM      2  C   UNL     1      60.467  29.005  11.193  1.00  0.00     0.053 C 
BRANCH   2   3
ATOM      3  C   UNL     1      61.516  28.545  10.228  1.00  0.00     0.041 C 
ATOM      4  O   UNL     1      62.731  28.795  10.446  1.00  0.00    -0.550 OA
ATOM      5  O   UNL     1      61.149  27.871   9.069  1.00  0.00    -0.550 OA
ENDBRANCH   2   3
ENDBRANCH   1   2
BRANCH   1   6
ATOM      6  C   UNL     1      61.153  30.150  13.366  1.00  0.00     0.000 C 
BRANCH   6   7
ATOM      7  C   UNL     1      60.462  31.337  12.670  1.00  0.00    -0.000 C 
BRANCH   7   8
ATOM      8  C   UNL     1      61.070  32.714  12.987  1.00  0.00    -0.003 C 
ATOM      9  C   UNL     1      60.719  33.215  14.387  1.00  0.00     0.004 C 
ENDBRANCH   7   8
ENDBRANCH   6   7
ENDBRANCH   1   6
TORSDOF 5
ENDMDL
