MODEL 1
REMARK VINA RESULT:    -4.537      0.000      0.000
REMARK INTER + INTRA:          -8.790
REMARK INTER:                  -7.986
REMARK INTRA:                  -0.805
REMARK UNBOUND:                -0.805
REMARK SMILES CCCCCCC=CCCCCCCCC(=O)[O-]
REMARK SMILES IDX 10 1 11 2 12 3 13 4 14 5 15 6 16 7 17 8 18 9 9 10 8 11 7 12
REMARK SMILES IDX 6 13 5 14 4 15 3 16 2 17 1 18
REMARK H PARENT
REMARK Flexibility Score: inf
ROOT
ATOM      1  C   UNL     1      31.069  -7.020 -15.915  1.00  0.00     0.004 C 
ENDROOT
BRANCH   1   2
ATOM      2  C   UNL     1      31.272  -5.514 -15.708  1.00  0.00     0.000 C 
BRANCH   2   3
ATOM      3  C   UNL     1      32.160  -4.920 -16.808  1.00  0.00     0.000 C 
BRANCH   3   4
ATOM      4  C   UNL     1      33.592  -5.465 -16.711  1.00  0.00     0.000 C 
BRANCH   4   5
ATOM      5  C   UNL     1      34.338  -5.425 -18.058  1.00  0.00     0.006 C 
BRANCH   5   6
ATOM      6  C   UNL     1      35.820  -5.819 -17.974  1.00  0.00     0.053 C 
BRANCH   6   7
ATOM      7  C   UNL     1      36.625  -4.822 -17.198  1.00  0.00     0.041 C 
ATOM      8  O   UNL     1      36.597  -3.604 -17.512  1.00  0.00    -0.550 OA
ATOM      9  O   UNL     1      37.433  -5.245 -16.150  1.00  0.00    -0.550 OA
ENDBRANCH   6   7
ENDBRANCH   5   6
ENDBRANCH   4   5
ENDBRANCH   3   4
ENDBRANCH   2   3
ENDBRANCH   1   2
BRANCH   1  10
ATOM     10  C   UNL     1      29.652  -7.443 -15.514  1.00  0.00     0.027 C 
BRANCH  10  11
ATOM     11  C   UNL     1      29.654  -8.084 -14.149  1.00  0.00    -0.031 C 
ATOM     12  C   UNL     1      29.341  -7.447 -13.005  1.00  0.00    -0.031 C 
BRANCH  12  13
ATOM     13  C   UNL     1      28.847  -6.024 -12.920  1.00  0.00     0.027 C 
BRANCH  13  14
ATOM     14  C   UNL     1      30.002  -5.010 -12.853  1.00  0.00     0.004 C 
BRANCH  14  15
ATOM     15  C   UNL     1      31.022  -5.288 -11.733  1.00  0.00     0.000 C 
BRANCH  15  16
ATOM     16  C   UNL     1      32.136  -6.256 -12.168  1.00  0.00    -0.000 C 
BRANCH  16  17
ATOM     17  C   UNL     1      32.965  -6.772 -10.982  1.00  0.00    -0.003 C 
ATOM     18  C   UNL     1      32.667  -6.020  -9.685  1.00  0.00     0.004 C 
ENDBRANCH  16  17
ENDBRANCH  15  16
ENDBRANCH  14  15
ENDBRANCH  13  14
ENDBRANCH  12  13
ENDBRANCH  10  11
ENDBRANCH   1  10
TORSDOF 13
ENDMDL
MODEL 2
REMARK VINA RESULT:    -4.492      2.535      6.185
REMARK INTER + INTRA:          -8.711
REMARK INTER:                  -7.779
REMARK INTRA:                  -0.932
REMARK UNBOUND:                -0.805
REMARK SMILES CCCCCCC=CCCCCCCCC(=O)[O-]
REMARK SMILES IDX 10 1 11 2 12 3 13 4 14 5 15 6 16 7 17 8 18 9 9 10 8 11 7 12
REMARK SMILES IDX 6 13 5 14 4 15 3 16 2 17 1 18
REMARK H PARENT
REMARK Flexibility Score: inf
ROOT
ATOM      1  C   UNL     1      29.622  -7.907 -14.814  1.00  0.00     0.004 C 
ENDROOT
BRANCH   1   2
ATOM      2  C   UNL     1      29.743  -7.408 -13.369  1.00  0.00     0.000 C 
BRANCH   2   3
ATOM      3  C   UNL     1      28.810  -6.218 -13.117  1.00  0.00     0.000 C 
BRANCH   3   4
ATOM      4  C   UNL     1      29.608  -4.973 -12.703  1.00  0.00     0.000 C 
BRANCH   4   5
ATOM      5  C   UNL     1      31.105  -5.267 -12.494  1.00  0.00     0.006 C 
BRANCH   5   6
ATOM      6  C   UNL     1      31.533  -5.361 -11.021  1.00  0.00     0.053 C 
BRANCH   6   7
ATOM      7  C   UNL     1      32.624  -6.366 -10.815  1.00  0.00     0.041 C 
ATOM      8  O   UNL     1      32.990  -7.108 -11.764  1.00  0.00    -0.550 OA
ATOM      9  O   UNL     1      33.212  -6.509  -9.564  1.00  0.00    -0.550 OA
ENDBRANCH   6   7
ENDBRANCH   5   6
ENDBRANCH   4   5
ENDBRANCH   3   4
ENDBRANCH   2   3
ENDBRANCH   1   2
BRANCH   1  10
ATOM     10  C   UNL     1      30.781  -7.391 -15.672  1.00  0.00     0.027 C 
BRANCH  10  11
ATOM     11  C   UNL     1      30.713  -5.891 -15.814  1.00  0.00    -0.031 C 
ATOM     12  C   UNL     1      31.764  -5.102 -16.107  1.00  0.00    -0.031 C 
BRANCH  12  13
ATOM     13  C   UNL     1      33.149  -5.602 -16.436  1.00  0.00     0.027 C 
BRANCH  13  14
ATOM     14  C   UNL     1      33.656  -5.065 -17.786  1.00  0.00     0.004 C 
BRANCH  14  15
ATOM     15  C   UNL     1      35.121  -5.422 -18.098  1.00  0.00     0.000 C 
BRANCH  15  16
ATOM     16  C   UNL     1      36.118  -4.396 -17.530  1.00  0.00    -0.000 C 
BRANCH  16  17
ATOM     17  C   UNL     1      37.109  -5.025 -16.539  1.00  0.00    -0.003 C 
ATOM     18  C   UNL     1      37.187  -6.546 -16.670  1.00  0.00     0.004 C 
ENDBRANCH  16  17
ENDBRANCH  15  16
ENDBRANCH  14  15
ENDBRANCH  13  14
ENDBRANCH  12  13
ENDBRANCH  10  11
ENDBRANCH   1  10
TORSDOF 13
ENDMDL
MODEL 3
REMARK VINA RESULT:    -4.209      2.637      6.457
REMARK INTER + INTRA:          -8.211
REMARK INTER:                  -7.514
REMARK INTRA:                  -0.697
REMARK UNBOUND:                -0.805
REMARK SMILES CCCCCCC=CCCCCCCCC(=O)[O-]
REMARK SMILES IDX 10 1 11 2 12 3 13 4 14 5 15 6 16 7 17 8 18 9 9 10 8 11 7 12
REMARK SMILES IDX 6 13 5 14 4 15 3 16 2 17 1 18
REMARK H PARENT
REMARK Flexibility Score: inf
ROOT
ATOM      1  C   UNL     1      29.465  -7.278 -15.369  1.00  0.00     0.004 C 
ENDROOT
BRANCH   1   2
ATOM      2  C   UNL     1      29.657  -8.229 -14.181  1.00  0.00     0.000 C 
BRANCH   2   3
ATOM      3  C   UNL     1      29.372  -7.516 -12.853  1.00  0.00     0.000 C 
BRANCH   3   4
ATOM      4  C   UNL     1      29.076  -6.027 -13.082  1.00  0.00     0.000 C 
BRANCH   4   5
ATOM      5  C   UNL     1      30.145  -5.105 -12.465  1.00  0.00     0.006 C 
BRANCH   5   6
ATOM      6  C   UNL     1      31.584  -5.630 -12.591  1.00  0.00     0.053 C 
BRANCH   6   7
ATOM      7  C   UNL     1      32.172  -5.984 -11.259  1.00  0.00     0.041 C 
ATOM      8  O   UNL     1      31.901  -5.291 -10.243  1.00  0.00    -0.550 OA
ATOM      9  O   UNL     1      33.047  -7.057 -11.147  1.00  0.00    -0.550 OA
ENDBRANCH   6   7
ENDBRANCH   5   6
ENDBRANCH   4   5
ENDBRANCH   3   4
ENDBRANCH   2   3
ENDBRANCH   1   2
BRANCH   1  10
ATOM     10  C   UNL     1      30.794  -7.022 -16.088  1.00  0.00     0.027 C 
BRANCH  10  11
ATOM     11  C   UNL     1      31.229  -5.589 -15.909  1.00  0.00    -0.031 C 
ATOM     12  C   UNL     1      32.377  -5.073 -16.387  1.00  0.00    -0.031 C 
BRANCH  12  13
ATOM     13  C   UNL     1      33.358  -5.820 -17.258  1.00  0.00     0.027 C 
BRANCH  13  14
ATOM     14  C   UNL     1      34.703  -5.083 -17.382  1.00  0.00     0.004 C 
BRANCH  14  15
ATOM     15  C   UNL     1      35.783  -5.572 -16.399  1.00  0.00     0.000 C 
BRANCH  15  16
ATOM     16  C   UNL     1      37.211  -5.394 -16.947  1.00  0.00    -0.000 C 
BRANCH  16  17
ATOM     17  C   UNL     1      37.231  -4.735 -18.334  1.00  0.00    -0.003 C 
ATOM     18  C   UNL     1      37.161  -3.209 -18.262  1.00  0.00     0.004 C 
ENDBRANCH  16  17
ENDBRANCH  15  16
ENDBRANCH  14  15
ENDBRANCH  13  14
ENDBRANCH  12  13
ENDBRANCH  10  11
ENDBRANCH   1  10
TORSDOF 13
ENDMDL
MODEL 4
REMARK VINA RESULT:    -4.198      0.770      1.083
REMARK INTER + INTRA:          -8.194
REMARK INTER:                  -7.959
REMARK INTRA:                  -0.235
REMARK UNBOUND:                -0.805
REMARK SMILES CCCCCCC=CCCCCCCCC(=O)[O-]
REMARK SMILES IDX 10 1 11 2 12 3 13 4 14 5 15 6 16 7 17 8 18 9 9 10 8 11 7 12
REMARK SMILES IDX 6 13 5 14 4 15 3 16 2 17 1 18
REMARK H PARENT
REMARK Flexibility Score: inf
ROOT
ATOM      1  C   UNL     1      31.289  -5.840 -15.412  1.00  0.00     0.004 C 
ENDROOT
BRANCH   1   2
ATOM      2  C   UNL     1      31.936  -5.348 -16.713  1.00  0.00     0.000 C 
BRANCH   2   3
ATOM      3  C   UNL     1      33.462  -5.486 -16.656  1.00  0.00     0.000 C 
BRANCH   3   4
ATOM      4  C   UNL     1      34.099  -5.088 -17.996  1.00  0.00     0.000 C 
BRANCH   4   5
ATOM      5  C   UNL     1      35.353  -5.917 -18.329  1.00  0.00     0.006 C 
BRANCH   5   6
ATOM      6  C   UNL     1      36.680  -5.227 -17.978  1.00  0.00     0.053 C 
BRANCH   6   7
ATOM      7  C   UNL     1      37.210  -5.669 -16.648  1.00  0.00     0.041 C 
ATOM      8  O   UNL     1      36.799  -5.124 -15.591  1.00  0.00    -0.550 OA
ATOM      9  O   UNL     1      38.184  -6.657 -16.580  1.00  0.00    -0.550 OA
ENDBRANCH   6   7
ENDBRANCH   5   6
ENDBRANCH   4   5
ENDBRANCH   3   4
ENDBRANCH   2   3
ENDBRANCH   1   2
BRANCH   1  10
ATOM     10  C   UNL     1      30.168  -6.843 -15.700  1.00  0.00     0.027 C 
BRANCH  10  11
ATOM     11  C   UNL     1      29.932  -7.737 -14.508  1.00  0.00    -0.031 C 
ATOM     12  C   UNL     1      29.411  -7.327 -13.337  1.00  0.00    -0.031 C 
BRANCH  12  13
ATOM     13  C   UNL     1      28.891  -5.936 -13.067  1.00  0.00     0.027 C 
BRANCH  13  14
ATOM     14  C   UNL     1      30.027  -4.933 -12.799  1.00  0.00     0.004 C 
BRANCH  14  15
ATOM     15  C   UNL     1      30.958  -5.328 -11.637  1.00  0.00     0.000 C 
BRANCH  15  16
ATOM     16  C   UNL     1      32.235  -6.042 -12.114  1.00  0.00    -0.000 C 
BRANCH  16  17
ATOM     17  C   UNL     1      32.963  -6.770 -10.974  1.00  0.00    -0.003 C 
ATOM     18  C   UNL     1      32.728  -6.115  -9.613  1.00  0.00     0.004 C 
ENDBRANCH  16  17
ENDBRANCH  15  16
ENDBRANCH  14  15
ENDBRANCH  13  14
ENDBRANCH  12  13
ENDBRANCH  10  11
ENDBRANCH   1  10
TORSDOF 13
ENDMDL
MODEL 5
REMARK VINA RESULT:    -3.921      3.163      6.515
REMARK INTER + INTRA:          -7.705
REMARK INTER:                  -7.311
REMARK INTRA:                  -0.393
REMARK UNBOUND:                -0.805
REMARK SMILES CCCCCCC=CCCCCCCCC(=O)[O-]
REMARK SMILES IDX 10 1 11 2 12 3 13 4 14 5 15 6 16 7 17 8 18 9 9 10 8 11 7 12
REMARK SMILES IDX 6 13 5 14 4 15 3 16 2 17 1 18
REMARK H PARENT
REMARK Flexibility Score: inf
ROOT
ATOM      1  C   UNL     1      31.048  -5.653 -12.492  1.00  0.00     0.004 C 
ENDROOT
BRANCH   1   2
ATOM      2  C   UNL     1      29.643  -5.155 -12.852  1.00  0.00     0.000 C 
BRANCH   2   3
ATOM      3  C   UNL     1      28.773  -6.297 -13.389  1.00  0.00     0.000 C 
BRANCH   3   4
ATOM      4  C   UNL     1      29.315  -7.660 -12.934  1.00  0.00     0.000 C 
BRANCH   4   5
ATOM      5  C   UNL     1      29.675  -8.582 -14.114  1.00  0.00     0.006 C 
BRANCH   5   6
ATOM      6  C   UNL     1      29.593  -7.908 -15.493  1.00  0.00     0.053 C 
BRANCH   6   7
ATOM      7  C   UNL     1      29.530  -8.909 -16.606  1.00  0.00     0.041 C 
ATOM      8  O   UNL     1      30.537  -9.613 -16.882  1.00  0.00    -0.550 OA
ATOM      9  O   UNL     1      28.371  -9.040 -17.360  1.00  0.00    -0.550 OA
ENDBRANCH   6   7
ENDBRANCH   5   6
ENDBRANCH   4   5
ENDBRANCH   3   4
ENDBRANCH   2   3
ENDBRANCH   1   2
BRANCH   1  10
ATOM     10  C   UNL     1      31.916  -5.802 -13.745  1.00  0.00     0.027 C 
BRANCH  10  11
ATOM     11  C   UNL     1      31.231  -5.194 -14.944  1.00  0.00    -0.031 C 
ATOM     12  C   UNL     1      31.772  -5.113 -16.173  1.00  0.00    -0.031 C 
BRANCH  12  13
ATOM     13  C   UNL     1      33.103  -5.703 -16.568  1.00  0.00     0.027 C 
BRANCH  13  14
ATOM     14  C   UNL     1      33.683  -5.039 -17.829  1.00  0.00     0.004 C 
BRANCH  14  15
ATOM     15  C   UNL     1      35.158  -5.384 -18.104  1.00  0.00     0.000 C 
BRANCH  15  16
ATOM     16  C   UNL     1      36.135  -4.412 -17.418  1.00  0.00    -0.000 C 
BRANCH  16  17
ATOM     17  C   UNL     1      36.965  -5.090 -16.318  1.00  0.00    -0.003 C 
ATOM     18  C   UNL     1      37.700  -6.334 -16.817  1.00  0.00     0.004 C 
ENDBRANCH  16  17
ENDBRANCH  15  16
ENDBRANCH  14  15
ENDBRANCH  13  14
ENDBRANCH  12  13
ENDBRANCH  10  11
ENDBRANCH   1  10
TORSDOF 13
ENDMDL
MODEL 6
REMARK VINA RESULT:    -3.716      1.017      1.982
REMARK INTER + INTRA:          -7.345
REMARK INTER:                  -7.225
REMARK INTRA:                  -0.120
REMARK UNBOUND:                -0.805
REMARK SMILES CCCCCCC=CCCCCCCCC(=O)[O-]
REMARK SMILES IDX 10 1 11 2 12 3 13 4 14 5 15 6 16 7 17 8 18 9 9 10 8 11 7 12
REMARK SMILES IDX 6 13 5 14 4 15 3 16 2 17 1 18
REMARK H PARENT
REMARK Flexibility Score: inf
ROOT
ATOM      1  C   UNL     1      31.784  -4.887 -16.501  1.00  0.00     0.004 C 
ENDROOT
BRANCH   1   2
ATOM      2  C   UNL     1      33.170  -5.539 -16.570  1.00  0.00     0.000 C 
BRANCH   2   3
ATOM      3  C   UNL     1      33.774  -5.406 -17.973  1.00  0.00     0.000 C 
BRANCH   3   4
ATOM      4  C   UNL     1      35.148  -6.088 -18.047  1.00  0.00     0.000 C 
BRANCH   4   5
ATOM      5  C   UNL     1      35.922  -6.014 -16.718  1.00  0.00     0.006 C 
BRANCH   5   6
ATOM      6  C   UNL     1      37.170  -5.118 -16.760  1.00  0.00     0.053 C 
BRANCH   6   7
ATOM      7  C   UNL     1      37.052  -4.037 -17.791  1.00  0.00     0.041 C 
ATOM      8  O   UNL     1      36.390  -2.996 -17.542  1.00  0.00    -0.550 OA
ATOM      9  O   UNL     1      37.644  -4.196 -19.037  1.00  0.00    -0.550 OA
ENDBRANCH   6   7
ENDBRANCH   5   6
ENDBRANCH   4   5
ENDBRANCH   3   4
ENDBRANCH   2   3
ENDBRANCH   1   2
BRANCH   1  10
ATOM     10  C   UNL     1      30.936  -5.515 -15.392  1.00  0.00     0.027 C 
BRANCH  10  11
ATOM     11  C   UNL     1      30.401  -6.858 -15.824  1.00  0.00    -0.031 C 
ATOM     12  C   UNL     1      29.861  -7.769 -14.993  1.00  0.00    -0.031 C 
BRANCH  12  13
ATOM     13  C   UNL     1      29.616  -7.551 -13.520  1.00  0.00     0.027 C 
BRANCH  13  14
ATOM     14  C   UNL     1      28.809  -6.270 -13.248  1.00  0.00     0.004 C 
BRANCH  14  15
ATOM     15  C   UNL     1      29.493  -5.285 -12.282  1.00  0.00     0.000 C 
BRANCH  15  16
ATOM     16  C   UNL     1      31.017  -5.218 -12.480  1.00  0.00    -0.000 C 
BRANCH  16  17
ATOM     17  C   UNL     1      31.794  -5.652 -11.228  1.00  0.00    -0.003 C 
ATOM     18  C   UNL     1      32.770  -6.794 -11.508  1.00  0.00     0.004 C 
ENDBRANCH  16  17
ENDBRANCH  15  16
ENDBRANCH  14  15
ENDBRANCH  13  14
ENDBRANCH  12  13
ENDBRANCH  10  11
ENDBRANCH   1  10
TORSDOF 13
ENDMDL
MODEL 7
REMARK VINA RESULT:    -3.588      1.808      4.296
REMARK INTER + INTRA:          -7.119
REMARK INTER:                  -5.956
REMARK INTRA:                  -1.163
REMARK UNBOUND:                -0.805
REMARK SMILES CCCCCCC=CCCCCCCCC(=O)[O-]
REMARK SMILES IDX 10 1 11 2 12 3 13 4 14 5 15 6 16 7 17 8 18 9 9 10 8 11 7 12
REMARK SMILES IDX 6 13 5 14 4 15 3 16 2 17 1 18
REMARK H PARENT
REMARK Flexibility Score: inf
ROOT
ATOM      1  C   UNL     1      31.084  -5.067 -15.588  1.00  0.00     0.004 C 
ENDROOT
BRANCH   1   2
ATOM      2  C   UNL     1      31.937  -5.978 -16.480  1.00  0.00     0.000 C 
BRANCH   2   3
ATOM      3  C   UNL     1      33.385  -5.480 -16.552  1.00  0.00     0.000 C 
BRANCH   3   4
ATOM      4  C   UNL     1      33.782  -5.155 -18.000  1.00  0.00     0.000 C 
BRANCH   4   5
ATOM      5  C   UNL     1      35.134  -5.775 -18.401  1.00  0.00     0.006 C 
BRANCH   5   6
ATOM      6  C   UNL     1      36.010  -6.206 -17.215  1.00  0.00     0.053 C 
BRANCH   6   7
ATOM      7  C   UNL     1      37.112  -5.228 -16.944  1.00  0.00     0.041 C 
ATOM      8  O   UNL     1      38.009  -5.503 -16.104  1.00  0.00    -0.550 OA
ATOM      9  O   UNL     1      37.129  -4.000 -17.593  1.00  0.00    -0.550 OA
ENDBRANCH   6   7
ENDBRANCH   5   6
ENDBRANCH   4   5
ENDBRANCH   3   4
ENDBRANCH   2   3
ENDBRANCH   1   2
BRANCH   1  10
ATOM     10  C   UNL     1      31.137  -5.523 -14.127  1.00  0.00     0.027 C 
BRANCH  10  11
ATOM     11  C   UNL     1      29.745  -5.692 -13.570  1.00  0.00    -0.031 C 
ATOM     12  C   UNL     1      29.112  -6.872 -13.439  1.00  0.00    -0.031 C 
BRANCH  12  13
ATOM     13  C   UNL     1      29.730  -8.217 -13.735  1.00  0.00     0.027 C 
BRANCH  13  14
ATOM     14  C   UNL     1      29.252  -8.794 -15.079  1.00  0.00     0.004 C 
BRANCH  14  15
ATOM     15  C   UNL     1      30.365  -8.955 -16.130  1.00  0.00     0.000 C 
BRANCH  15  16
ATOM     16  C   UNL     1      29.817  -9.210 -17.545  1.00  0.00    -0.000 C 
BRANCH  16  17
ATOM     17  C   UNL     1      28.290  -9.062 -17.620  1.00  0.00    -0.003 C 
ATOM     18  C   UNL     1      27.749  -9.250 -19.037  1.00  0.00     0.004 C 
ENDBRANCH  16  17
ENDBRANCH  15  16
ENDBRANCH  14  15
ENDBRANCH  13  14
ENDBRANCH  12  13
ENDBRANCH  10  11
ENDBRANCH   1  10
TORSDOF 13
ENDMDL
MODEL 8
REMARK VINA RESULT:    -3.497      2.833      6.756
REMARK INTER + INTRA:          -6.960
REMARK INTER:                  -5.974
REMARK INTRA:                  -0.986
REMARK UNBOUND:                -0.805
REMARK SMILES CCCCCCC=CCCCCCCCC(=O)[O-]
REMARK SMILES IDX 10 1 11 2 12 3 13 4 14 5 15 6 16 7 17 8 18 9 9 10 8 11 7 12
REMARK SMILES IDX 6 13 5 14 4 15 3 16 2 17 1 18
REMARK H PARENT
REMARK Flexibility Score: inf
ROOT
ATOM      1  C   UNL     1      30.823  -5.086 -15.307  1.00  0.00     0.004 C 
ENDROOT
BRANCH   1   2
ATOM      2  C   UNL     1      29.592  -5.976 -15.097  1.00  0.00     0.000 C 
BRANCH   2   3
ATOM      3  C   UNL     1      29.920  -7.447 -15.377  1.00  0.00     0.000 C 
BRANCH   3   4
ATOM      4  C   UNL     1      29.839  -8.282 -14.090  1.00  0.00     0.000 C 
BRANCH   4   5
ATOM      5  C   UNL     1      29.986  -7.429 -12.817  1.00  0.00     0.006 C 
BRANCH   5   6
ATOM      6  C   UNL     1      31.430  -7.288 -12.311  1.00  0.00     0.053 C 
BRANCH   6   7
ATOM      7  C   UNL     1      31.659  -5.977 -11.623  1.00  0.00     0.041 C 
ATOM      8  O   UNL     1      32.548  -5.874 -10.737  1.00  0.00    -0.550 OA
ATOM      9  O   UNL     1      30.867  -4.879 -11.934  1.00  0.00    -0.550 OA
ENDBRANCH   6   7
ENDBRANCH   5   6
ENDBRANCH   4   5
ENDBRANCH   3   4
ENDBRANCH   2   3
ENDBRANCH   1   2
BRANCH   1  10
ATOM     10  C   UNL     1      31.963  -5.872 -15.962  1.00  0.00     0.027 C 
BRANCH  10  11
ATOM     11  C   UNL     1      32.556  -5.095 -17.111  1.00  0.00    -0.031 C 
ATOM     12  C   UNL     1      33.841  -5.172 -17.504  1.00  0.00    -0.031 C 
BRANCH  12  13
ATOM     13  C   UNL     1      34.863  -6.118 -16.922  1.00  0.00     0.027 C 
BRANCH  13  14
ATOM     14  C   UNL     1      35.833  -5.407 -15.962  1.00  0.00     0.004 C 
BRANCH  14  15
ATOM     15  C   UNL     1      37.274  -5.289 -16.492  1.00  0.00     0.000 C 
BRANCH  15  16
ATOM     16  C   UNL     1      37.382  -5.595 -17.996  1.00  0.00    -0.000 C 
BRANCH  16  17
ATOM     17  C   UNL     1      37.188  -4.344 -18.867  1.00  0.00    -0.003 C 
ATOM     18  C   UNL     1      36.957  -3.080 -18.038  1.00  0.00     0.004 C 
ENDBRANCH  16  17
ENDBRANCH  15  16
ENDBRANCH  14  15
ENDBRANCH  13  14
ENDBRANCH  12  13
ENDBRANCH  10  11
ENDBRANCH   1  10
TORSDOF 13
ENDMDL
MODEL 9
REMARK VINA RESULT:    -3.006      3.739      6.587
REMARK INTER + INTRA:          -6.095
REMARK INTER:                  -6.299
REMARK INTRA:                   0.204
REMARK UNBOUND:                -0.805
REMARK SMILES CCCCCCC=CCCCCCCCC(=O)[O-]
REMARK SMILES IDX 10 1 11 2 12 3 13 4 14 5 15 6 16 7 17 8 18 9 9 10 8 11 7 12
REMARK SMILES IDX 6 13 5 14 4 15 3 16 2 17 1 18
REMARK H PARENT
REMARK Flexibility Score: inf
ROOT
ATOM      1  C   UNL     1      30.899  -7.032 -12.697  1.00  0.00     0.004 C 
ENDROOT
BRANCH   1   2
ATOM      2  C   UNL     1      29.420  -7.124 -13.092  1.00  0.00     0.000 C 
BRANCH   2   3
ATOM      3  C   UNL     1      29.266  -7.432 -14.586  1.00  0.00     0.000 C 
BRANCH   3   4
ATOM      4  C   UNL     1      29.872  -8.801 -14.929  1.00  0.00     0.000 C 
BRANCH   4   5
ATOM      5  C   UNL     1      29.797  -9.126 -16.433  1.00  0.00     0.006 C 
BRANCH   5   6
ATOM      6  C   UNL     1      28.484  -8.699 -17.108  1.00  0.00     0.053 C 
BRANCH   6   7
ATOM      7  C   UNL     1      28.361  -9.250 -18.496  1.00  0.00     0.041 C 
ATOM      8  O   UNL     1      29.383  -9.655 -19.110  1.00  0.00    -0.550 OA
ATOM      9  O   UNL     1      27.122  -9.282 -19.125  1.00  0.00    -0.550 OA
ENDBRANCH   6   7
ENDBRANCH   5   6
ENDBRANCH   4   5
ENDBRANCH   3   4
ENDBRANCH   2   3
ENDBRANCH   1   2
BRANCH   1  10
ATOM     10  C   UNL     1      31.544  -5.769 -13.274  1.00  0.00     0.027 C 
BRANCH  10  11
ATOM     11  C   UNL     1      30.741  -5.242 -14.436  1.00  0.00    -0.031 C 
ATOM     12  C   UNL     1      31.124  -5.312 -15.725  1.00  0.00    -0.031 C 
BRANCH  12  13
ATOM     13  C   UNL     1      32.367  -6.013 -16.215  1.00  0.00     0.027 C 
BRANCH  13  14
ATOM     14  C   UNL     1      33.416  -5.026 -16.757  1.00  0.00     0.004 C 
BRANCH  14  15
ATOM     15  C   UNL     1      34.016  -5.425 -18.118  1.00  0.00     0.000 C 
BRANCH  15  16
ATOM     16  C   UNL     1      35.550  -5.536 -18.084  1.00  0.00    -0.000 C 
BRANCH  16  17
ATOM     17  C   UNL     1      36.158  -4.904 -16.822  1.00  0.00    -0.003 C 
ATOM     18  C   UNL     1      37.414  -5.633 -16.346  1.00  0.00     0.004 C 
ENDBRANCH  16  17
ENDBRANCH  15  16
ENDBRANCH  14  15
ENDBRANCH  13  14
ENDBRANCH  12  13
ENDBRANCH  10  11
ENDBRANCH   1  10
TORSDOF 13
ENDMDL
