MODEL 1
REMARK VINA RESULT:    -3.678      0.000      0.000
REMARK INTER + INTRA:          -5.732
REMARK INTER:                  -5.184
REMARK INTRA:                  -0.548
REMARK UNBOUND:                -0.548
REMARK SMILES CCCCCCCCC(=O)[O-]
REMARK SMILES IDX 6 1 7 2 8 3 9 4 10 5 11 6 5 7 4 8 3 9 2 10 1 11
REMARK H PARENT
REMARK Flexibility Score: inf
ROOT
ATOM      1  C   UNL     1       9.429  15.267  32.258  1.00  0.00     0.000 C 
ENDROOT
BRANCH   1   2
ATOM      2  C   UNL     1       9.807  13.819  31.926  1.00  0.00     0.006 C 
BRANCH   2   3
ATOM      3  C   UNL     1       9.176  13.374  30.604  1.00  0.00     0.053 C 
BRANCH   3   4
ATOM      4  C   UNL     1       7.756  12.957  30.815  1.00  0.00     0.041 C 
ATOM      5  O   UNL     1       7.492  11.902  31.450  1.00  0.00    -0.550 OA
ATOM      6  O   UNL     1       6.722  13.708  30.269  1.00  0.00    -0.550 OA
ENDBRANCH   3   4
ENDBRANCH   2   3
ENDBRANCH   1   2
BRANCH   1   7
ATOM      7  C   UNL     1      10.668  16.090  32.630  1.00  0.00     0.000 C 
BRANCH   7   8
ATOM      8  C   UNL     1      11.762  15.949  31.560  1.00  0.00    -0.000 C 
BRANCH   8   9
ATOM      9  C   UNL     1      11.478  16.794  30.309  1.00  0.00    -0.000 C 
BRANCH   9  10
ATOM     10  C   UNL     1      11.464  15.957  29.021  1.00  0.00    -0.003 C 
ATOM     11  C   UNL     1      12.300  16.615  27.927  1.00  0.00     0.004 C 
ENDBRANCH   9  10
ENDBRANCH   8   9
ENDBRANCH   7   8
ENDBRANCH   1   7
TORSDOF 7
ENDMDL
MODEL 2
REMARK VINA RESULT:    -3.618      1.812      2.917
REMARK INTER + INTRA:          -5.647
REMARK INTER:                  -5.213
REMARK INTRA:                  -0.434
REMARK UNBOUND:                -0.548
REMARK SMILES CCCCCCCCC(=O)[O-]
REMARK SMILES IDX 6 1 7 2 8 3 9 4 10 5 11 6 5 7 4 8 3 9 2 10 1 11
REMARK H PARENT
REMARK Flexibility Score: inf
ROOT
ATOM      1  C   UNL     1       9.476  13.295  31.901  1.00  0.00     0.000 C 
ENDROOT
BRANCH   1   2
ATOM      2  C   UNL     1       7.948  13.273  32.023  1.00  0.00     0.006 C 
BRANCH   2   3
ATOM      3  C   UNL     1       7.350  12.099  31.243  1.00  0.00     0.053 C 
BRANCH   3   4
ATOM      4  C   UNL     1       6.707  11.123  32.175  1.00  0.00     0.041 C 
ATOM      5  O   UNL     1       5.493  11.247  32.485  1.00  0.00    -0.550 OA
ATOM      6  O   UNL     1       7.460  10.102  32.742  1.00  0.00    -0.550 OA
ENDBRANCH   3   4
ENDBRANCH   2   3
ENDBRANCH   1   2
BRANCH   1   7
ATOM      7  C   UNL     1       9.912  13.733  30.497  1.00  0.00     0.000 C 
BRANCH   7   8
ATOM      8  C   UNL     1      10.127  15.253  30.438  1.00  0.00    -0.000 C 
BRANCH   8   9
ATOM      9  C   UNL     1      11.610  15.645  30.530  1.00  0.00    -0.000 C 
BRANCH   9  10
ATOM     10  C   UNL     1      11.930  16.454  31.795  1.00  0.00    -0.003 C 
ATOM     11  C   UNL     1      10.660  16.782  32.575  1.00  0.00     0.004 C 
ENDBRANCH   9  10
ENDBRANCH   8   9
ENDBRANCH   7   8
ENDBRANCH   1   7
TORSDOF 7
ENDMDL
MODEL 3
REMARK VINA RESULT:    -3.574      1.141      1.415
REMARK INTER + INTRA:          -5.586
REMARK INTER:                  -5.006
REMARK INTRA:                  -0.579
REMARK UNBOUND:                -0.548
REMARK SMILES CCCCCCCCC(=O)[O-]
REMARK SMILES IDX 6 1 7 2 8 3 9 4 10 5 11 6 5 7 4 8 3 9 2 10 1 11
REMARK H PARENT
REMARK Flexibility Score: inf
ROOT
ATOM      1  C   UNL     1       9.239  16.492  32.657  1.00  0.00     0.000 C 
ENDROOT
BRANCH   1   2
ATOM      2  C   UNL     1       8.516  15.160  32.887  1.00  0.00     0.006 C 
BRANCH   2   3
ATOM      3  C   UNL     1       9.325  13.989  32.323  1.00  0.00     0.053 C 
BRANCH   3   4
ATOM      4  C   UNL     1       8.841  13.628  30.955  1.00  0.00     0.041 C 
ATOM      5  O   UNL     1       9.613  13.060  30.139  1.00  0.00    -0.550 OA
ATOM      6  O   UNL     1       7.551  13.963  30.563  1.00  0.00    -0.550 OA
ENDBRANCH   3   4
ENDBRANCH   2   3
ENDBRANCH   1   2
BRANCH   1   7
ATOM      7  C   UNL     1      10.756  16.331  32.817  1.00  0.00     0.000 C 
BRANCH   7   8
ATOM      8  C   UNL     1      11.501  16.904  31.602  1.00  0.00    -0.000 C 
BRANCH   8   9
ATOM      9  C   UNL     1      11.918  15.818  30.598  1.00  0.00    -0.000 C 
BRANCH   9  10
ATOM     10  C   UNL     1      11.212  15.964  29.241  1.00  0.00    -0.003 C 
ATOM     11  C   UNL     1      12.170  16.491  28.177  1.00  0.00     0.004 C 
ENDBRANCH   9  10
ENDBRANCH   8   9
ENDBRANCH   7   8
ENDBRANCH   1   7
TORSDOF 7
ENDMDL
MODEL 4
REMARK VINA RESULT:    -3.555      1.993      3.517
REMARK INTER + INTRA:          -5.558
REMARK INTER:                  -5.295
REMARK INTRA:                  -0.264
REMARK UNBOUND:                -0.548
REMARK SMILES CCCCCCCCC(=O)[O-]
REMARK SMILES IDX 6 1 7 2 8 3 9 4 10 5 11 6 5 7 4 8 3 9 2 10 1 11
REMARK H PARENT
REMARK Flexibility Score: inf
ROOT
ATOM      1  C   UNL     1      11.404  16.824  30.182  1.00  0.00     0.000 C 
ENDROOT
BRANCH   1   2
ATOM      2  C   UNL     1      11.816  15.892  31.329  1.00  0.00     0.006 C 
BRANCH   2   3
ATOM      3  C   UNL     1      10.785  15.923  32.460  1.00  0.00     0.053 C 
BRANCH   3   4
ATOM      4  C   UNL     1       9.789  14.821  32.292  1.00  0.00     0.041 C 
ATOM      5  O   UNL     1      10.003  13.893  31.469  1.00  0.00    -0.550 OA
ATOM      6  O   UNL     1       8.599  14.843  33.010  1.00  0.00    -0.550 OA
ENDBRANCH   3   4
ENDBRANCH   2   3
ENDBRANCH   1   2
BRANCH   1   7
ATOM      7  C   UNL     1      11.366  16.072  28.846  1.00  0.00     0.000 C 
BRANCH   7   8
ATOM      8  C   UNL     1      11.760  16.996  27.684  1.00  0.00    -0.000 C 
BRANCH   8   9
ATOM      9  C   UNL     1      13.176  16.714  27.158  1.00  0.00    -0.000 C 
BRANCH   9  10
ATOM     10  C   UNL     1      13.930  17.997  26.774  1.00  0.00    -0.003 C 
ATOM     11  C   UNL     1      15.410  17.713  26.536  1.00  0.00     0.004 C 
ENDBRANCH   9  10
ENDBRANCH   8   9
ENDBRANCH   7   8
ENDBRANCH   1   7
TORSDOF 7
ENDMDL
MODEL 5
REMARK VINA RESULT:    -3.502     11.700     12.724
REMARK INTER + INTRA:          -5.483
REMARK INTER:                  -5.174
REMARK INTRA:                  -0.309
REMARK UNBOUND:                -0.548
REMARK SMILES CCCCCCCCC(=O)[O-]
REMARK SMILES IDX 6 1 7 2 8 3 9 4 10 5 11 6 5 7 4 8 3 9 2 10 1 11
REMARK H PARENT
REMARK Flexibility Score: inf
ROOT
ATOM      1  C   UNL     1      15.896  22.741  23.888  1.00  0.00     0.000 C 
ENDROOT
BRANCH   1   2
ATOM      2  C   UNL     1      15.731  24.224  24.241  1.00  0.00     0.006 C 
BRANCH   2   3
ATOM      3  C   UNL     1      14.275  24.550  24.580  1.00  0.00     0.053 C 
BRANCH   3   4
ATOM      4  C   UNL     1      14.192  25.291  25.876  1.00  0.00     0.041 C 
ATOM      5  O   UNL     1      14.004  26.536  25.884  1.00  0.00    -0.550 OA
ATOM      6  O   UNL     1      14.371  24.615  27.077  1.00  0.00    -0.550 OA
ENDBRANCH   3   4
ENDBRANCH   2   3
ENDBRANCH   1   2
BRANCH   1   7
ATOM      7  C   UNL     1      17.378  22.366  23.761  1.00  0.00     0.000 C 
BRANCH   7   8
ATOM      8  C   UNL     1      17.541  20.876  23.421  1.00  0.00    -0.000 C 
BRANCH   8   9
ATOM      9  C   UNL     1      16.194  20.166  23.214  1.00  0.00    -0.000 C 
BRANCH   9  10
ATOM     10  C   UNL     1      16.055  19.559  21.809  1.00  0.00    -0.003 C 
ATOM     11  C   UNL     1      17.347  18.868  21.380  1.00  0.00     0.004 C 
ENDBRANCH   9  10
ENDBRANCH   8   9
ENDBRANCH   7   8
ENDBRANCH   1   7
TORSDOF 7
ENDMDL
MODEL 6
REMARK VINA RESULT:    -3.462      3.039      5.659
REMARK INTER + INTRA:          -5.427
REMARK INTER:                  -5.094
REMARK INTRA:                  -0.333
REMARK UNBOUND:                -0.548
REMARK SMILES CCCCCCCCC(=O)[O-]
REMARK SMILES IDX 6 1 7 2 8 3 9 4 10 5 11 6 5 7 4 8 3 9 2 10 1 11
REMARK H PARENT
REMARK Flexibility Score: inf
ROOT
ATOM      1  C   UNL     1       8.932  14.468  32.391  1.00  0.00     0.000 C 
ENDROOT
BRANCH   1   2
ATOM      2  C   UNL     1      10.213  15.308  32.330  1.00  0.00     0.006 C 
BRANCH   2   3
ATOM      3  C   UNL     1      10.963  15.073  31.017  1.00  0.00     0.053 C 
BRANCH   3   4
ATOM      4  C   UNL     1      11.588  16.344  30.536  1.00  0.00     0.041 C 
ATOM      5  O   UNL     1      11.927  16.467  29.329  1.00  0.00    -0.550 OA
ATOM      6  O   UNL     1      11.841  17.377  31.430  1.00  0.00    -0.550 OA
ENDBRANCH   3   4
ENDBRANCH   2   3
ENDBRANCH   1   2
BRANCH   1   7
ATOM      7  C   UNL     1       9.164  13.065  31.818  1.00  0.00     0.000 C 
BRANCH   7   8
ATOM      8  C   UNL     1       7.898  12.537  31.125  1.00  0.00    -0.000 C 
BRANCH   8   9
ATOM      9  C   UNL     1       6.620  12.823  31.930  1.00  0.00    -0.000 C 
BRANCH   9  10
ATOM     10  C   UNL     1       5.940  11.542  32.434  1.00  0.00    -0.003 C 
ATOM     11  C   UNL     1       6.820  10.319  32.189  1.00  0.00     0.004 C 
ENDBRANCH   9  10
ENDBRANCH   8   9
ENDBRANCH   7   8
ENDBRANCH   1   7
TORSDOF 7
ENDMDL
MODEL 7
REMARK VINA RESULT:    -3.410      5.024      6.976
REMARK INTER + INTRA:          -5.354
REMARK INTER:                  -5.040
REMARK INTRA:                  -0.314
REMARK UNBOUND:                -0.548
REMARK SMILES CCCCCCCCC(=O)[O-]
REMARK SMILES IDX 6 1 7 2 8 3 9 4 10 5 11 6 5 7 4 8 3 9 2 10 1 11
REMARK H PARENT
REMARK Flexibility Score: inf
ROOT
ATOM      1  C   UNL     1      12.262  16.288  27.682  1.00  0.00     0.000 C 
ENDROOT
BRANCH   1   2
ATOM      2  C   UNL     1      12.487  17.319  26.570  1.00  0.00     0.006 C 
BRANCH   2   3
ATOM      3  C   UNL     1      13.588  18.310  26.953  1.00  0.00     0.053 C 
BRANCH   3   4
ATOM      4  C   UNL     1      14.852  18.001  26.216  1.00  0.00     0.041 C 
ATOM      5  O   UNL     1      14.930  18.209  24.976  1.00  0.00    -0.550 OA
ATOM      6  O   UNL     1      15.929  17.437  26.888  1.00  0.00    -0.550 OA
ENDBRANCH   3   4
ENDBRANCH   2   3
ENDBRANCH   1   2
BRANCH   1   7
ATOM      7  C   UNL     1      11.156  16.744  28.642  1.00  0.00     0.000 C 
BRANCH   7   8
ATOM      8  C   UNL     1      10.852  15.658  29.686  1.00  0.00    -0.000 C 
BRANCH   8   9
ATOM      9  C   UNL     1      11.827  15.689  30.873  1.00  0.00    -0.000 C 
BRANCH   9  10
ATOM     10  C   UNL     1      11.808  17.031  31.620  1.00  0.00    -0.003 C 
ATOM     11  C   UNL     1      10.700  17.061  32.668  1.00  0.00     0.004 C 
ENDBRANCH   9  10
ENDBRANCH   8   9
ENDBRANCH   7   8
ENDBRANCH   1   7
TORSDOF 7
ENDMDL
MODEL 8
REMARK VINA RESULT:    -3.365      3.379      5.092
REMARK INTER + INTRA:          -5.291
REMARK INTER:                  -4.699
REMARK INTRA:                  -0.592
REMARK UNBOUND:                -0.548
REMARK SMILES CCCCCCCCC(=O)[O-]
REMARK SMILES IDX 6 1 7 2 8 3 9 4 10 5 11 6 5 7 4 8 3 9 2 10 1 11
REMARK H PARENT
REMARK Flexibility Score: inf
ROOT
ATOM      1  C   UNL     1      11.733  17.313  30.944  1.00  0.00     0.000 C 
ENDROOT
BRANCH   1   2
ATOM      2  C   UNL     1      11.082  17.212  29.560  1.00  0.00     0.006 C 
BRANCH   2   3
ATOM      3  C   UNL     1      11.811  16.193  28.681  1.00  0.00     0.053 C 
BRANCH   3   4
ATOM      4  C   UNL     1      12.320  16.844  27.435  1.00  0.00     0.041 C 
ATOM      5  O   UNL     1      12.871  17.975  27.489  1.00  0.00    -0.550 OA
ATOM      6  O   UNL     1      12.142  16.225  26.204  1.00  0.00    -0.550 OA
ENDBRANCH   3   4
ENDBRANCH   2   3
ENDBRANCH   1   2
BRANCH   1   7
ATOM      7  C   UNL     1      11.762  15.948  31.642  1.00  0.00     0.000 C 
BRANCH   7   8
ATOM      8  C   UNL     1      10.638  15.839  32.683  1.00  0.00    -0.000 C 
BRANCH   8   9
ATOM      9  C   UNL     1       9.413  15.077  32.155  1.00  0.00    -0.000 C 
BRANCH   9  10
ATOM     10  C   UNL     1       9.725  13.610  31.825  1.00  0.00    -0.003 C 
ATOM     11  C   UNL     1       9.588  13.342  30.329  1.00  0.00     0.004 C 
ENDBRANCH   9  10
ENDBRANCH   8   9
ENDBRANCH   7   8
ENDBRANCH   1   7
TORSDOF 7
ENDMDL
MODEL 9
REMARK VINA RESULT:    -3.327     11.734     13.279
REMARK INTER + INTRA:          -5.236
REMARK INTER:                  -4.716
REMARK INTRA:                  -0.521
REMARK UNBOUND:                -0.548
REMARK SMILES CCCCCCCCC(=O)[O-]
REMARK SMILES IDX 6 1 7 2 8 3 9 4 10 5 11 6 5 7 4 8 3 9 2 10 1 11
REMARK H PARENT
REMARK Flexibility Score: inf
ROOT
ATOM      1  C   UNL     1      14.020  21.336  22.633  1.00  0.00     0.000 C 
ENDROOT
BRANCH   1   2
ATOM      2  C   UNL     1      14.908  20.151  22.238  1.00  0.00     0.006 C 
BRANCH   2   3
ATOM      3  C   UNL     1      15.964  19.873  23.311  1.00  0.00     0.053 C 
BRANCH   3   4
ATOM      4  C   UNL     1      17.293  20.414  22.891  1.00  0.00     0.041 C 
ATOM      5  O   UNL     1      18.122  19.674  22.300  1.00  0.00    -0.550 OA
ATOM      6  O   UNL     1      17.638  21.726  23.196  1.00  0.00    -0.550 OA
ENDBRANCH   3   4
ENDBRANCH   2   3
ENDBRANCH   1   2
BRANCH   1   7
ATOM      7  C   UNL     1      14.389  22.593  21.836  1.00  0.00     0.000 C 
BRANCH   7   8
ATOM      8  C   UNL     1      14.800  22.232  20.400  1.00  0.00    -0.000 C 
BRANCH   8   9
ATOM      9  C   UNL     1      14.094  23.100  19.347  1.00  0.00    -0.000 C 
BRANCH   9  10
ATOM     10  C   UNL     1      12.601  22.764  19.208  1.00  0.00    -0.003 C 
ATOM     11  C   UNL     1      11.749  24.031  19.224  1.00  0.00     0.004 C 
ENDBRANCH   9  10
ENDBRANCH   8   9
ENDBRANCH   7   8
ENDBRANCH   1   7
TORSDOF 7
ENDMDL
