MODEL 1
REMARK VINA RESULT:    -6.078      0.000      0.000
REMARK INTER + INTRA:          -9.579
REMARK INTER:                  -8.387
REMARK INTRA:                  -1.192
REMARK UNBOUND:                -1.192
REMARK SMILES O=C([O-])[C@@H]1O[C@H](Oc2cc3oc(-c4ccccc4)cc(=O)c3c(O)c2O)[C@@H](O)[C@@H](O)[C@H]1O
REMARK SMILES IDX 7 1 6 2 4 3 31 4 5 5 29 6 27 7 2 8 1 9 3 10 32 11 30 13
REMARK SMILES IDX 28 15 8 17 25 18 9 19 23 20 10 21 22 22 11 23 20 24 12 25
REMARK SMILES IDX 19 26 21 27 26 28 24 30 13 32 14 33 18 34 15 35 17 36 16 37
REMARK H PARENT 32 12 30 14 28 16 26 29 24 31
REMARK Flexibility Score: inf
ROOT
ATOM      1  O   UNL     1      -6.148  92.099 -15.794  1.00  0.00    -0.458 OA
ENDROOT
BRANCH   1   2
ATOM      2  C   UNL     1      -5.495  91.356 -16.828  1.00  0.00     0.339 C 
ATOM      3  C   UNL     1      -5.819  93.017 -18.509  1.00  0.00     0.199 C 
ATOM      4  C   UNL     1      -4.309  93.381 -18.532  1.00  0.00     0.180 C 
ATOM      5  O   UNL     1      -6.047  91.671 -18.102  1.00  0.00    -0.328 OA
ATOM      6  C   UNL     1      -3.623  93.009 -17.207  1.00  0.00     0.181 C 
ATOM      7  C   UNL     1      -3.970  91.570 -16.784  1.00  0.00     0.214 C 
BRANCH   3   8
ATOM      8  C   UNL     1      -6.681  93.992 -17.740  1.00  0.00     0.073 C 
ATOM      9  O   UNL     1      -7.936  93.912 -17.821  1.00  0.00    -0.547 OA
ATOM     10  O   UNL     1      -6.116  95.005 -16.973  1.00  0.00    -0.547 OA
ENDBRANCH   3   8
BRANCH   4  11
ATOM     11  O   UNL     1      -3.654  92.783 -19.627  1.00  0.00    -0.387 OA
ATOM     12  H   UNL     1      -4.318  92.272 -20.154  1.00  0.00     0.211 HD
ENDBRANCH   4  11
BRANCH   6  13
ATOM     13  O   UNL     1      -2.232  93.170 -17.325  1.00  0.00    -0.387 OA
ATOM     14  H   UNL     1      -1.822  92.307 -17.057  1.00  0.00     0.211 HD
ENDBRANCH   6  13
BRANCH   7  15
ATOM     15  O   UNL     1      -3.343  90.631 -17.622  1.00  0.00    -0.384 OA
ATOM     16  H   UNL     1      -3.224  89.801 -17.089  1.00  0.00     0.211 HD
ENDBRANCH   7  15
ENDBRANCH   1   2
BRANCH   1  17
ATOM     17  C   UNL     1      -5.922  91.876 -14.432  1.00  0.00     0.172 A 
ATOM     18  C   UNL     1      -5.383  92.878 -13.613  1.00  0.00     0.201 A 
ATOM     19  C   UNL     1      -6.228  90.628 -13.897  1.00  0.00     0.098 A 
ATOM     20  C   UNL     1      -5.179  92.642 -12.239  1.00  0.00     0.176 A 
ATOM     21  C   UNL     1      -6.003  90.358 -12.548  1.00  0.00     0.146 A 
ATOM     22  C   UNL     1      -5.451  91.349 -11.697  1.00  0.00     0.111 A 
ATOM     23  O   UNL     1      -6.310  89.152 -12.082  1.00  0.00    -0.456 OA
ATOM     24  C   UNL     1      -5.176  90.962 -10.362  1.00  0.00     0.197 A 
ATOM     25  C   UNL     1      -6.105  88.779 -10.823  1.00  0.00     0.138 A 
ATOM     26  C   UNL     1      -5.523  89.683  -9.925  1.00  0.00     0.100 A 
ATOM     27  O   UNL     1      -4.597  91.729  -9.551  1.00  0.00    -0.289 OA
BRANCH  18  28
ATOM     28  O   UNL     1      -5.048  94.108 -14.180  1.00  0.00    -0.502 OA
ATOM     29  H   UNL     1      -5.572  94.956 -13.996  1.00  0.00     0.293 HD
ENDBRANCH  18  28
BRANCH  20  30
ATOM     30  O   UNL     1      -4.734  93.719 -11.465  1.00  0.00    -0.504 OA
ATOM     31  H   UNL     1      -3.952  93.686 -10.828  1.00  0.00     0.293 HD
ENDBRANCH  20  30
BRANCH  25  32
ATOM     32  C   UNL     1      -6.506  87.412 -10.407  1.00  0.00     0.017 A 
ATOM     33  C   UNL     1      -7.849  87.083 -10.139  1.00  0.00     0.012 A 
ATOM     34  C   UNL     1      -5.520  86.421 -10.248  1.00  0.00     0.012 A 
ATOM     35  C   UNL     1      -8.194  85.787  -9.741  1.00  0.00     0.001 A 
ATOM     36  C   UNL     1      -5.872  85.127  -9.854  1.00  0.00     0.001 A 
ATOM     37  C   UNL     1      -7.207  84.809  -9.603  1.00  0.00     0.000 A 
ENDBRANCH  25  32
ENDBRANCH   1  17
TORSDOF 9
ENDMDL
MODEL 2
REMARK VINA RESULT:    -5.954      2.595      4.684
REMARK INTER + INTRA:          -9.408
REMARK INTER:                  -8.228
REMARK INTRA:                  -1.180
REMARK UNBOUND:                -1.192
REMARK SMILES O=C([O-])[C@@H]1O[C@H](Oc2cc3oc(-c4ccccc4)cc(=O)c3c(O)c2O)[C@@H](O)[C@@H](O)[C@H]1O
REMARK SMILES IDX 7 1 6 2 4 3 31 4 5 5 29 6 27 7 2 8 1 9 3 10 32 11 30 13
REMARK SMILES IDX 28 15 8 17 25 18 9 19 23 20 10 21 22 22 11 23 20 24 12 25
REMARK SMILES IDX 19 26 21 27 26 28 24 30 13 32 14 33 18 34 15 35 17 36 16 37
REMARK H PARENT 32 12 30 14 28 16 26 29 24 31
REMARK Flexibility Score: inf
ROOT
ATOM      1  O   UNL     1      -6.691  90.909 -12.199  1.00  0.00    -0.458 OA
ENDROOT
BRANCH   1   2
ATOM      2  C   UNL     1      -5.667  90.880 -13.199  1.00  0.00     0.339 C 
ATOM      3  C   UNL     1      -6.586  92.666 -14.485  1.00  0.00     0.199 C 
ATOM      4  C   UNL     1      -5.441  93.633 -14.080  1.00  0.00     0.180 C 
ATOM      5  O   UNL     1      -6.180  91.301 -14.459  1.00  0.00    -0.328 OA
ATOM      6  C   UNL     1      -4.789  93.206 -12.754  1.00  0.00     0.181 C 
ATOM      7  C   UNL     1      -4.442  91.705 -12.761  1.00  0.00     0.214 C 
BRANCH   3   8
ATOM      8  C   UNL     1      -7.879  92.883 -13.731  1.00  0.00     0.073 C 
ATOM      9  O   UNL     1      -8.880  92.163 -13.991  1.00  0.00    -0.547 OA
ATOM     10  O   UNL     1      -7.999  93.891 -12.781  1.00  0.00    -0.547 OA
ENDBRANCH   3   8
BRANCH   4  11
ATOM     11  O   UNL     1      -4.479  93.747 -15.104  1.00  0.00    -0.387 OA
ATOM     12  H   UNL     1      -4.461  94.686 -15.420  1.00  0.00     0.211 HD
ENDBRANCH   4  11
BRANCH   6  13
ATOM     13  O   UNL     1      -3.641  93.979 -12.512  1.00  0.00    -0.387 OA
ATOM     14  H   UNL     1      -3.369  93.800 -11.575  1.00  0.00     0.211 HD
ENDBRANCH   6  13
BRANCH   7  15
ATOM     15  O   UNL     1      -3.367  91.438 -13.626  1.00  0.00    -0.384 OA
ATOM     16  H   UNL     1      -3.302  90.451 -13.710  1.00  0.00     0.211 HD
ENDBRANCH   7  15
ENDBRANCH   1   2
BRANCH   1  17
ATOM     17  C   UNL     1      -7.170  89.760 -11.560  1.00  0.00     0.172 A 
ATOM     18  C   UNL     1      -8.517  89.646 -11.190  1.00  0.00     0.201 A 
ATOM     19  C   UNL     1      -6.279  88.729 -11.279  1.00  0.00     0.098 A 
ATOM     20  C   UNL     1      -8.987  88.475 -10.563  1.00  0.00     0.176 A 
ATOM     21  C   UNL     1      -6.711  87.574 -10.628  1.00  0.00     0.146 A 
ATOM     22  C   UNL     1      -8.067  87.433 -10.234  1.00  0.00     0.111 A 
ATOM     23  O   UNL     1      -5.826  86.615 -10.379  1.00  0.00    -0.456 OA
ATOM     24  C   UNL     1      -8.401  86.267  -9.503  1.00  0.00     0.197 A 
ATOM     25  C   UNL     1      -6.123  85.492  -9.736  1.00  0.00     0.138 A 
ATOM     26  C   UNL     1      -7.430  85.291  -9.274  1.00  0.00     0.100 A 
ATOM     27  O   UNL     1      -9.549  86.087  -9.020  1.00  0.00    -0.289 OA
BRANCH  18  28
ATOM     28  O   UNL     1      -9.382  90.710 -11.449  1.00  0.00    -0.502 OA
ATOM     29  H   UNL     1     -10.379  90.585 -11.579  1.00  0.00     0.293 HD
ENDBRANCH  18  28
BRANCH  20  30
ATOM     30  O   UNL     1     -10.361  88.391 -10.316  1.00  0.00    -0.504 OA
ATOM     31  H   UNL     1     -11.074  88.841 -10.872  1.00  0.00     0.293 HD
ENDBRANCH  20  30
BRANCH  25  32
ATOM     32  C   UNL     1      -5.058  84.480  -9.533  1.00  0.00     0.017 A 
ATOM     33  C   UNL     1      -5.155  83.181 -10.070  1.00  0.00     0.012 A 
ATOM     34  C   UNL     1      -3.930  84.811  -8.759  1.00  0.00     0.012 A 
ATOM     35  C   UNL     1      -4.137  82.248  -9.854  1.00  0.00     0.001 A 
ATOM     36  C   UNL     1      -2.913  83.874  -8.550  1.00  0.00     0.001 A 
ATOM     37  C   UNL     1      -3.015  82.595  -9.098  1.00  0.00     0.000 A 
ENDBRANCH  25  32
ENDBRANCH   1  17
TORSDOF 9
ENDMDL
MODEL 3
REMARK VINA RESULT:    -5.934      7.649     10.244
REMARK INTER + INTRA:          -9.380
REMARK INTER:                  -8.210
REMARK INTRA:                  -1.170
REMARK UNBOUND:                -1.192
REMARK SMILES O=C([O-])[C@@H]1O[C@H](Oc2cc3oc(-c4ccccc4)cc(=O)c3c(O)c2O)[C@@H](O)[C@@H](O)[C@H]1O
REMARK SMILES IDX 7 1 6 2 4 3 31 4 5 5 29 6 27 7 2 8 1 9 3 10 32 11 30 13
REMARK SMILES IDX 28 15 8 17 25 18 9 19 23 20 10 21 22 22 11 23 20 24 12 25
REMARK SMILES IDX 19 26 21 27 26 28 24 30 13 32 14 33 18 34 15 35 17 36 16 37
REMARK H PARENT 32 12 30 14 28 16 26 29 24 31
REMARK Flexibility Score: inf
ROOT
ATOM      1  O   UNL     1      -6.973  85.316  -8.872  1.00  0.00    -0.458 OA
ENDROOT
BRANCH   1   2
ATOM      2  C   UNL     1      -6.195  84.664  -9.881  1.00  0.00     0.339 C 
ATOM      3  C   UNL     1      -4.147  85.724  -9.277  1.00  0.00     0.199 C 
ATOM      4  C   UNL     1      -3.558  84.406  -8.704  1.00  0.00     0.180 C 
ATOM      5  O   UNL     1      -5.113  85.491 -10.296  1.00  0.00    -0.328 OA
ATOM      6  C   UNL     1      -4.671  83.429  -8.290  1.00  0.00     0.181 C 
ATOM      7  C   UNL     1      -5.722  83.277  -9.406  1.00  0.00     0.214 C 
BRANCH   3   8
ATOM      8  C   UNL     1      -4.657  86.684  -8.226  1.00  0.00     0.073 C 
ATOM      9  O   UNL     1      -5.082  87.819  -8.573  1.00  0.00    -0.547 OA
ATOM     10  O   UNL     1      -4.630  86.356  -6.876  1.00  0.00    -0.547 OA
ENDBRANCH   3   8
BRANCH   4  11
ATOM     11  O   UNL     1      -2.667  83.803  -9.615  1.00  0.00    -0.387 OA
ATOM     12  H   UNL     1      -1.755  84.150  -9.443  1.00  0.00     0.211 HD
ENDBRANCH   4  11
BRANCH   6  13
ATOM     13  O   UNL     1      -4.116  82.181  -7.960  1.00  0.00    -0.387 OA
ATOM     14  H   UNL     1      -4.426  81.539  -8.649  1.00  0.00     0.211 HD
ENDBRANCH   6  13
BRANCH   7  15
ATOM     15  O   UNL     1      -5.203  82.562 -10.498  1.00  0.00    -0.384 OA
ATOM     16  H   UNL     1      -4.680  81.804 -10.125  1.00  0.00     0.211 HD
ENDBRANCH   7  15
ENDBRANCH   1   2
BRANCH   1  17
ATOM     17  C   UNL     1      -8.351  85.526  -8.985  1.00  0.00     0.172 A 
ATOM     18  C   UNL     1      -8.862  86.747  -9.449  1.00  0.00     0.201 A 
ATOM     19  C   UNL     1      -9.219  84.505  -8.610  1.00  0.00     0.098 A 
ATOM     20  C   UNL     1     -10.253  86.936  -9.573  1.00  0.00     0.176 A 
ATOM     21  C   UNL     1     -10.600  84.679  -8.691  1.00  0.00     0.146 A 
ATOM     22  C   UNL     1     -11.146  85.905  -9.149  1.00  0.00     0.111 A 
ATOM     23  O   UNL     1     -11.389  83.676  -8.322  1.00  0.00    -0.456 OA
ATOM     24  C   UNL     1     -12.557  86.027  -9.117  1.00  0.00     0.197 A 
ATOM     25  C   UNL     1     -12.716  83.747  -8.327  1.00  0.00     0.138 A 
ATOM     26  C   UNL     1     -13.337  84.938  -8.724  1.00  0.00     0.100 A 
ATOM     27  O   UNL     1     -13.141  87.102  -9.407  1.00  0.00    -0.289 OA
BRANCH  18  28
ATOM     28  O   UNL     1      -7.973  87.769  -9.781  1.00  0.00    -0.502 OA
ATOM     29  H   UNL     1      -7.021  87.801  -9.433  1.00  0.00     0.293 HD
ENDBRANCH  18  28
BRANCH  20  30
ATOM     30  O   UNL     1     -10.685  88.140 -10.139  1.00  0.00    -0.504 OA
ATOM     31  H   UNL     1     -11.568  88.586  -9.938  1.00  0.00     0.293 HD
ENDBRANCH  20  30
BRANCH  25  32
ATOM     32  C   UNL     1     -13.499  82.557  -7.914  1.00  0.00     0.017 A 
ATOM     33  C   UNL     1     -12.873  81.351  -7.541  1.00  0.00     0.012 A 
ATOM     34  C   UNL     1     -14.904  82.618  -7.920  1.00  0.00     0.012 A 
ATOM     35  C   UNL     1     -13.639  80.243  -7.164  1.00  0.00     0.001 A 
ATOM     36  C   UNL     1     -15.664  81.508  -7.538  1.00  0.00     0.001 A 
ATOM     37  C   UNL     1     -15.033  80.323  -7.158  1.00  0.00     0.000 A 
ENDBRANCH  25  32
ENDBRANCH   1  17
TORSDOF 9
ENDMDL
MODEL 4
REMARK VINA RESULT:    -5.861      4.755      9.579
REMARK INTER + INTRA:          -9.280
REMARK INTER:                  -8.184
REMARK INTRA:                  -1.096
REMARK UNBOUND:                -1.192
REMARK SMILES O=C([O-])[C@@H]1O[C@H](Oc2cc3oc(-c4ccccc4)cc(=O)c3c(O)c2O)[C@@H](O)[C@@H](O)[C@H]1O
REMARK SMILES IDX 7 1 6 2 4 3 31 4 5 5 29 6 27 7 2 8 1 9 3 10 32 11 30 13
REMARK SMILES IDX 28 15 8 17 25 18 9 19 23 20 10 21 22 22 11 23 20 24 12 25
REMARK SMILES IDX 19 26 21 27 26 28 24 30 13 32 14 33 18 34 15 35 17 36 16 37
REMARK H PARENT 32 12 30 14 28 16 26 29 24 31
REMARK Flexibility Score: inf
ROOT
ATOM      1  O   UNL     1      -5.840  86.153  -9.416  1.00  0.00    -0.458 OA
ENDROOT
BRANCH   1   2
ATOM      2  C   UNL     1      -4.825  86.060  -8.411  1.00  0.00     0.339 C 
ATOM      3  C   UNL     1      -5.641  84.021  -7.482  1.00  0.00     0.199 C 
ATOM      4  C   UNL     1      -4.438  83.211  -8.037  1.00  0.00     0.180 C 
ATOM      5  O   UNL     1      -5.318  85.390  -7.256  1.00  0.00    -0.328 OA
ATOM      6  C   UNL     1      -3.807  83.908  -9.254  1.00  0.00     0.181 C 
ATOM      7  C   UNL     1      -3.551  85.400  -8.971  1.00  0.00     0.214 C 
BRANCH   3   8
ATOM      8  C   UNL     1      -6.915  83.869  -8.283  1.00  0.00     0.073 C 
ATOM      9  O   UNL     1      -6.894  83.235  -9.371  1.00  0.00    -0.547 OA
ATOM     10  O   UNL     1      -8.105  84.451  -7.861  1.00  0.00    -0.547 OA
ENDBRANCH   3   8
BRANCH   4  11
ATOM     11  O   UNL     1      -3.476  82.971  -7.035  1.00  0.00    -0.387 OA
ATOM     12  H   UNL     1      -3.944  82.815  -6.176  1.00  0.00     0.211 HD
ENDBRANCH   4  11
BRANCH   6  13
ATOM     13  O   UNL     1      -2.613  83.260  -9.613  1.00  0.00    -0.387 OA
ATOM     14  H   UNL     1      -1.876  83.750  -9.164  1.00  0.00     0.211 HD
ENDBRANCH   6  13
BRANCH   7  15
ATOM     15  O   UNL     1      -2.498  85.569  -8.056  1.00  0.00    -0.384 OA
ATOM     16  H   UNL     1      -2.708  86.378  -7.519  1.00  0.00     0.211 HD
ENDBRANCH   7  15
ENDBRANCH   1   2
BRANCH   1  17
ATOM     17  C   UNL     1      -6.416  87.364  -9.814  1.00  0.00     0.172 A 
ATOM     18  C   UNL     1      -7.760  87.432 -10.206  1.00  0.00     0.201 A 
ATOM     19  C   UNL     1      -5.625  88.508  -9.832  1.00  0.00     0.098 A 
ATOM     20  C   UNL     1      -8.328  88.664 -10.587  1.00  0.00     0.176 A 
ATOM     21  C   UNL     1      -6.154  89.732 -10.238  1.00  0.00     0.146 A 
ATOM     22  C   UNL     1      -7.508  89.831 -10.648  1.00  0.00     0.111 A 
ATOM     23  O   UNL     1      -5.361  90.798 -10.239  1.00  0.00    -0.456 OA
ATOM     24  C   UNL     1      -7.939  91.093 -11.126  1.00  0.00     0.197 A 
ATOM     25  C   UNL     1      -5.753  92.003 -10.639  1.00  0.00     0.138 A 
ATOM     26  C   UNL     1      -7.064  92.180 -11.101  1.00  0.00     0.100 A 
ATOM     27  O   UNL     1      -9.089  91.268 -11.606  1.00  0.00    -0.289 OA
BRANCH  18  28
ATOM     28  O   UNL     1      -8.522  86.263 -10.217  1.00  0.00    -0.502 OA
ATOM     29  H   UNL     1      -9.534  86.270 -10.168  1.00  0.00     0.293 HD
ENDBRANCH  18  28
BRANCH  20  30
ATOM     30  O   UNL     1      -9.699  88.675 -10.867  1.00  0.00    -0.504 OA
ATOM     31  H   UNL     1     -10.170  89.383 -11.410  1.00  0.00     0.293 HD
ENDBRANCH  20  30
BRANCH  25  32
ATOM     32  C   UNL     1      -4.787  93.127 -10.578  1.00  0.00     0.017 A 
ATOM     33  C   UNL     1      -4.360  93.672  -9.350  1.00  0.00     0.012 A 
ATOM     34  C   UNL     1      -4.302  93.688 -11.774  1.00  0.00     0.012 A 
ATOM     35  C   UNL     1      -3.454  94.737  -9.326  1.00  0.00     0.001 A 
ATOM     36  C   UNL     1      -3.394  94.750 -11.743  1.00  0.00     0.001 A 
ATOM     37  C   UNL     1      -2.969  95.272 -10.521  1.00  0.00     0.000 A 
ENDBRANCH  25  32
ENDBRANCH   1  17
TORSDOF 9
ENDMDL
MODEL 5
REMARK VINA RESULT:    -5.793      7.030     11.070
REMARK INTER + INTRA:          -9.186
REMARK INTER:                  -8.380
REMARK INTRA:                  -0.806
REMARK UNBOUND:                -1.192
REMARK SMILES O=C([O-])[C@@H]1O[C@H](Oc2cc3oc(-c4ccccc4)cc(=O)c3c(O)c2O)[C@@H](O)[C@@H](O)[C@H]1O
REMARK SMILES IDX 7 1 6 2 4 3 31 4 5 5 29 6 27 7 2 8 1 9 3 10 32 11 30 13
REMARK SMILES IDX 28 15 8 17 25 18 9 19 23 20 10 21 22 22 11 23 20 24 12 25
REMARK SMILES IDX 19 26 21 27 26 28 24 30 13 32 14 33 18 34 15 35 17 36 16 37
REMARK H PARENT 32 12 30 14 28 16 26 29 24 31
REMARK Flexibility Score: inf
ROOT
ATOM      1  O   UNL     1     -11.523  84.959  -8.434  1.00  0.00    -0.458 OA
ENDROOT
BRANCH   1   2
ATOM      2  C   UNL     1     -11.831  83.621  -8.032  1.00  0.00     0.339 C 
ATOM      3  C   UNL     1     -14.174  84.006  -7.815  1.00  0.00     0.199 C 
ATOM      4  C   UNL     1     -14.497  83.150  -9.070  1.00  0.00     0.180 C 
ATOM      5  O   UNL     1     -12.968  83.600  -7.175  1.00  0.00    -0.328 OA
ATOM      6  C   UNL     1     -13.289  83.070 -10.019  1.00  0.00     0.181 C 
ATOM      7  C   UNL     1     -12.004  82.701  -9.255  1.00  0.00     0.214 C 
BRANCH   3   8
ATOM      8  C   UNL     1     -14.210  85.498  -8.054  1.00  0.00     0.073 C 
ATOM      9  O   UNL     1     -14.018  86.288  -7.092  1.00  0.00    -0.547 OA
ATOM     10  O   UNL     1     -14.493  86.020  -9.312  1.00  0.00    -0.547 OA
ENDBRANCH   3   8
BRANCH   4  11
ATOM     11  O   UNL     1     -14.946  81.863  -8.712  1.00  0.00    -0.387 OA
ATOM     12  H   UNL     1     -15.660  81.954  -8.031  1.00  0.00     0.211 HD
ENDBRANCH   4  11
BRANCH   6  13
ATOM     13  O   UNL     1     -13.543  82.140 -11.041  1.00  0.00    -0.387 OA
ATOM     14  H   UNL     1     -13.374  81.241 -10.657  1.00  0.00     0.211 HD
ENDBRANCH   6  13
BRANCH   7  15
ATOM     15  O   UNL     1     -12.034  81.362  -8.831  1.00  0.00    -0.384 OA
ATOM     16  H   UNL     1     -12.116  81.373  -7.841  1.00  0.00     0.211 HD
ENDBRANCH   7  15
ENDBRANCH   1   2
BRANCH   1  17
ATOM     17  C   UNL     1     -10.247  85.363  -8.838  1.00  0.00     0.172 A 
ATOM     18  C   UNL     1     -10.043  86.600  -9.465  1.00  0.00     0.201 A 
ATOM     19  C   UNL     1      -9.173  84.505  -8.622  1.00  0.00     0.098 A 
ATOM     20  C   UNL     1      -8.747  86.999  -9.849  1.00  0.00     0.176 A 
ATOM     21  C   UNL     1      -7.886  84.861  -9.024  1.00  0.00     0.146 A 
ATOM     22  C   UNL     1      -7.650  86.103  -9.669  1.00  0.00     0.111 A 
ATOM     23  O   UNL     1      -6.891  84.010  -8.798  1.00  0.00    -0.456 OA
ATOM     24  C   UNL     1      -6.330  86.347 -10.120  1.00  0.00     0.197 A 
ATOM     25  C   UNL     1      -5.635  84.235  -9.170  1.00  0.00     0.138 A 
ATOM     26  C   UNL     1      -5.323  85.419  -9.851  1.00  0.00     0.100 A 
ATOM     27  O   UNL     1      -6.031  87.369 -10.789  1.00  0.00    -0.289 OA
BRANCH  18  28
ATOM     28  O   UNL     1     -11.142  87.426  -9.705  1.00  0.00    -0.502 OA
ATOM     29  H   UNL     1     -11.762  87.294 -10.496  1.00  0.00     0.293 HD
ENDBRANCH  18  28
BRANCH  20  30
ATOM     30  O   UNL     1      -8.606  88.288 -10.376  1.00  0.00    -0.504 OA
ATOM     31  H   UNL     1      -7.763  88.841 -10.326  1.00  0.00     0.293 HD
ENDBRANCH  20  30
BRANCH  25  32
ATOM     32  C   UNL     1      -4.601  83.223  -8.846  1.00  0.00     0.017 A 
ATOM     33  C   UNL     1      -3.966  82.464  -9.849  1.00  0.00     0.012 A 
ATOM     34  C   UNL     1      -4.260  82.989  -7.501  1.00  0.00     0.012 A 
ATOM     35  C   UNL     1      -2.999  81.512  -9.510  1.00  0.00     0.001 A 
ATOM     36  C   UNL     1      -3.290  82.038  -7.170  1.00  0.00     0.001 A 
ATOM     37  C   UNL     1      -2.659  81.302  -8.173  1.00  0.00     0.000 A 
ENDBRANCH  25  32
ENDBRANCH   1  17
TORSDOF 9
ENDMDL
MODEL 6
REMARK VINA RESULT:    -5.772      0.986      2.321
REMARK INTER + INTRA:          -9.157
REMARK INTER:                  -8.215
REMARK INTRA:                  -0.942
REMARK UNBOUND:                -1.192
REMARK SMILES O=C([O-])[C@@H]1O[C@H](Oc2cc3oc(-c4ccccc4)cc(=O)c3c(O)c2O)[C@@H](O)[C@@H](O)[C@H]1O
REMARK SMILES IDX 7 1 6 2 4 3 31 4 5 5 29 6 27 7 2 8 1 9 3 10 32 11 30 13
REMARK SMILES IDX 28 15 8 17 25 18 9 19 23 20 10 21 22 22 11 23 20 24 12 25
REMARK SMILES IDX 19 26 21 27 26 28 24 30 13 32 14 33 18 34 15 35 17 36 16 37
REMARK H PARENT 32 12 30 14 28 16 26 29 24 31
REMARK Flexibility Score: inf
ROOT
ATOM      1  O   UNL     1      -5.072  91.753 -15.594  1.00  0.00    -0.458 OA
ENDROOT
BRANCH   1   2
ATOM      2  C   UNL     1      -5.655  92.896 -16.227  1.00  0.00     0.339 C 
ATOM      3  C   UNL     1      -3.813  93.279 -17.693  1.00  0.00     0.199 C 
ATOM      4  C   UNL     1      -4.625  92.824 -18.936  1.00  0.00     0.180 C 
ATOM      5  O   UNL     1      -4.646  93.801 -16.662  1.00  0.00    -0.328 OA
ATOM      6  C   UNL     1      -5.780  91.889 -18.540  1.00  0.00     0.181 C 
ATOM      7  C   UNL     1      -6.595  92.475 -17.372  1.00  0.00     0.214 C 
BRANCH   3   8
ATOM      8  C   UNL     1      -2.849  92.241 -17.166  1.00  0.00     0.073 C 
ATOM      9  O   UNL     1      -2.671  91.173 -17.809  1.00  0.00    -0.547 OA
ATOM     10  O   UNL     1      -2.181  92.424 -15.961  1.00  0.00    -0.547 OA
ENDBRANCH   3   8
BRANCH   4  11
ATOM     11  O   UNL     1      -5.097  93.928 -19.674  1.00  0.00    -0.387 OA
ATOM     12  H   UNL     1      -5.534  94.563 -19.051  1.00  0.00     0.211 HD
ENDBRANCH   4  11
BRANCH   6  13
ATOM     13  O   UNL     1      -6.606  91.650 -19.650  1.00  0.00    -0.387 OA
ATOM     14  H   UNL     1      -6.745  90.668 -19.697  1.00  0.00     0.211 HD
ENDBRANCH   6  13
BRANCH   7  15
ATOM     15  O   UNL     1      -7.349  93.585 -17.788  1.00  0.00    -0.384 OA
ATOM     16  H   UNL     1      -7.226  94.293 -17.101  1.00  0.00     0.211 HD
ENDBRANCH   7  15
ENDBRANCH   1   2
BRANCH   1  17
ATOM     17  C   UNL     1      -5.087  91.552 -14.210  1.00  0.00     0.172 A 
ATOM     18  C   UNL     1      -4.591  92.526 -13.331  1.00  0.00     0.201 A 
ATOM     19  C   UNL     1      -5.592  90.355 -13.711  1.00  0.00     0.098 A 
ATOM     20  C   UNL     1      -4.630  92.315 -11.939  1.00  0.00     0.176 A 
ATOM     21  C   UNL     1      -5.610  90.108 -12.339  1.00  0.00     0.146 A 
ATOM     22  C   UNL     1      -5.107  91.070 -11.426  1.00  0.00     0.111 A 
ATOM     23  O   UNL     1      -6.101  88.950 -11.908  1.00  0.00    -0.456 OA
ATOM     24  C   UNL     1      -5.085  90.703 -10.059  1.00  0.00     0.197 A 
ATOM     25  C   UNL     1      -6.134  88.600 -10.627  1.00  0.00     0.138 A 
ATOM     26  C   UNL     1      -5.618  89.475  -9.663  1.00  0.00     0.100 A 
ATOM     27  O   UNL     1      -4.571  91.438  -9.178  1.00  0.00    -0.289 OA
BRANCH  18  28
ATOM     28  O   UNL     1      -4.055  93.702 -13.858  1.00  0.00    -0.502 OA
ATOM     29  H   UNL     1      -4.571  94.303 -14.489  1.00  0.00     0.293 HD
ENDBRANCH  18  28
BRANCH  20  30
ATOM     30  O   UNL     1      -4.213  93.372 -11.122  1.00  0.00    -0.504 OA
ATOM     31  H   UNL     1      -4.831  94.036 -10.679  1.00  0.00     0.293 HD
ENDBRANCH  20  30
BRANCH  25  32
ATOM     32  C   UNL     1      -6.725  87.290 -10.259  1.00  0.00     0.017 A 
ATOM     33  C   UNL     1      -8.078  87.165  -9.886  1.00  0.00     0.012 A 
ATOM     34  C   UNL     1      -5.911  86.142 -10.253  1.00  0.00     0.012 A 
ATOM     35  C   UNL     1      -8.602  85.916  -9.537  1.00  0.00     0.001 A 
ATOM     36  C   UNL     1      -6.443  84.897  -9.907  1.00  0.00     0.001 A 
ATOM     37  C   UNL     1      -7.787  84.783  -9.551  1.00  0.00     0.000 A 
ENDBRANCH  25  32
ENDBRANCH   1  17
TORSDOF 9
ENDMDL
MODEL 7
REMARK VINA RESULT:    -5.747      3.316      5.640
REMARK INTER + INTRA:          -9.122
REMARK INTER:                  -7.853
REMARK INTRA:                  -1.269
REMARK UNBOUND:                -1.192
REMARK SMILES O=C([O-])[C@@H]1O[C@H](Oc2cc3oc(-c4ccccc4)cc(=O)c3c(O)c2O)[C@@H](O)[C@@H](O)[C@H]1O
REMARK SMILES IDX 7 1 6 2 4 3 31 4 5 5 29 6 27 7 2 8 1 9 3 10 32 11 30 13
REMARK SMILES IDX 28 15 8 17 25 18 9 19 23 20 10 21 22 22 11 23 20 24 12 25
REMARK SMILES IDX 19 26 21 27 26 28 24 30 13 32 14 33 18 34 15 35 17 36 16 37
REMARK H PARENT 32 12 30 14 28 16 26 29 24 31
REMARK Flexibility Score: inf
ROOT
ATOM      1  O   UNL     1      -6.966  89.493 -10.717  1.00  0.00    -0.458 OA
ENDROOT
BRANCH   1   2
ATOM      2  C   UNL     1      -6.999  89.247 -12.126  1.00  0.00     0.339 C 
ATOM      3  C   UNL     1      -8.442  91.079 -12.621  1.00  0.00     0.199 C 
ATOM      4  C   UNL     1      -7.302  91.875 -13.312  1.00  0.00     0.180 C 
ATOM      5  O   UNL     1      -8.238  89.671 -12.684  1.00  0.00    -0.328 OA
ATOM      6  C   UNL     1      -5.920  91.426 -12.807  1.00  0.00     0.181 C 
ATOM      7  C   UNL     1      -5.790  89.892 -12.830  1.00  0.00     0.214 C 
BRANCH   3   8
ATOM      8  C   UNL     1      -8.759  91.540 -11.216  1.00  0.00     0.073 C 
ATOM      9  O   UNL     1      -9.768  91.077 -10.621  1.00  0.00    -0.547 OA
ATOM     10  O   UNL     1      -7.979  92.498 -10.579  1.00  0.00    -0.547 OA
ENDBRANCH   3   8
BRANCH   4  11
ATOM     11  O   UNL     1      -7.385  91.778 -14.715  1.00  0.00    -0.387 OA
ATOM     12  H   UNL     1      -7.715  92.640 -15.075  1.00  0.00     0.211 HD
ENDBRANCH   4  11
BRANCH   6  13
ATOM     13  O   UNL     1      -4.910  92.021 -13.582  1.00  0.00    -0.387 OA
ATOM     14  H   UNL     1      -4.633  92.846 -13.105  1.00  0.00     0.211 HD
ENDBRANCH   6  13
BRANCH   7  15
ATOM     15  O   UNL     1      -5.706  89.410 -14.147  1.00  0.00    -0.384 OA
ATOM     16  H   UNL     1      -6.019  90.140 -14.743  1.00  0.00     0.211 HD
ENDBRANCH   7  15
ENDBRANCH   1   2
BRANCH   1  17
ATOM     17  C   UNL     1      -5.926  89.059  -9.888  1.00  0.00     0.172 A 
ATOM     18  C   UNL     1      -5.172  89.970  -9.135  1.00  0.00     0.201 A 
ATOM     19  C   UNL     1      -5.636  87.699  -9.832  1.00  0.00     0.098 A 
ATOM     20  C   UNL     1      -4.140  89.513  -8.292  1.00  0.00     0.176 A 
ATOM     21  C   UNL     1      -4.597  87.226  -9.032  1.00  0.00     0.146 A 
ATOM     22  C   UNL     1      -3.811  88.124  -8.265  1.00  0.00     0.111 A 
ATOM     23  O   UNL     1      -4.356  85.919  -9.011  1.00  0.00    -0.456 OA
ATOM     24  C   UNL     1      -2.723  87.568  -7.549  1.00  0.00     0.197 A 
ATOM     25  C   UNL     1      -3.372  85.367  -8.311  1.00  0.00     0.138 A 
ATOM     26  C   UNL     1      -2.520  86.187  -7.559  1.00  0.00     0.100 A 
ATOM     27  O   UNL     1      -1.905  88.283  -6.917  1.00  0.00    -0.289 OA
BRANCH  18  28
ATOM     28  O   UNL     1      -5.457  91.332  -9.238  1.00  0.00    -0.502 OA
ATOM     29  H   UNL     1      -5.907  91.854  -8.495  1.00  0.00     0.293 HD
ENDBRANCH  18  28
BRANCH  20  30
ATOM     30  O   UNL     1      -3.498  90.468  -7.494  1.00  0.00    -0.504 OA
ATOM     31  H   UNL     1      -2.673  90.982  -7.763  1.00  0.00     0.293 HD
ENDBRANCH  20  30
BRANCH  25  32
ATOM     32  C   UNL     1      -3.209  83.893  -8.345  1.00  0.00     0.017 A 
ATOM     33  C   UNL     1      -3.516  83.139  -9.495  1.00  0.00     0.012 A 
ATOM     34  C   UNL     1      -2.762  83.220  -7.192  1.00  0.00     0.012 A 
ATOM     35  C   UNL     1      -3.358  81.749  -9.492  1.00  0.00     0.001 A 
ATOM     36  C   UNL     1      -2.603  81.831  -7.198  1.00  0.00     0.001 A 
ATOM     37  C   UNL     1      -2.899  81.097  -8.347  1.00  0.00     0.000 A 
ENDBRANCH  25  32
ENDBRANCH   1  17
TORSDOF 9
ENDMDL
MODEL 8
REMARK VINA RESULT:    -5.599      3.280      8.877
REMARK INTER + INTRA:          -8.918
REMARK INTER:                  -8.053
REMARK INTRA:                  -0.865
REMARK UNBOUND:                -1.192
REMARK SMILES O=C([O-])[C@@H]1O[C@H](Oc2cc3oc(-c4ccccc4)cc(=O)c3c(O)c2O)[C@@H](O)[C@@H](O)[C@H]1O
REMARK SMILES IDX 7 1 6 2 4 3 31 4 5 5 29 6 27 7 2 8 1 9 3 10 32 11 30 13
REMARK SMILES IDX 28 15 8 17 25 18 9 19 23 20 10 21 22 22 11 23 20 24 12 25
REMARK SMILES IDX 19 26 21 27 26 28 24 30 13 32 14 33 18 34 15 35 17 36 16 37
REMARK H PARENT 32 12 30 14 28 16 26 29 24 31
REMARK Flexibility Score: inf
ROOT
ATOM      1  O   UNL     1      -3.753  92.391 -14.214  1.00  0.00    -0.458 OA
ENDROOT
BRANCH   1   2
ATOM      2  C   UNL     1      -4.166  91.297 -13.388  1.00  0.00     0.339 C 
ATOM      3  C   UNL     1      -5.030  92.673 -11.643  1.00  0.00     0.199 C 
ATOM      4  C   UNL     1      -6.497  92.295 -11.983  1.00  0.00     0.180 C 
ATOM      5  O   UNL     1      -4.106  91.653 -12.011  1.00  0.00    -0.328 OA
ATOM      6  C   UNL     1      -6.633  91.835 -13.444  1.00  0.00     0.181 C 
ATOM      7  C   UNL     1      -5.561  90.789 -13.801  1.00  0.00     0.214 C 
BRANCH   3   8
ATOM      8  C   UNL     1      -4.603  94.030 -12.154  1.00  0.00     0.073 C 
ATOM      9  O   UNL     1      -3.457  94.470 -11.871  1.00  0.00    -0.547 OA
ATOM     10  O   UNL     1      -5.468  94.824 -12.899  1.00  0.00    -0.547 OA
ENDBRANCH   3   8
BRANCH   4  11
ATOM     11  O   UNL     1      -6.995  91.319 -11.095  1.00  0.00    -0.387 OA
ATOM     12  H   UNL     1      -7.668  90.770 -11.572  1.00  0.00     0.211 HD
ENDBRANCH   4  11
BRANCH   6  13
ATOM     13  O   UNL     1      -7.921  91.320 -13.667  1.00  0.00    -0.387 OA
ATOM     14  H   UNL     1      -8.451  92.049 -14.083  1.00  0.00     0.211 HD
ENDBRANCH   6  13
BRANCH   7  15
ATOM     15  O   UNL     1      -5.817  89.563 -13.164  1.00  0.00    -0.384 OA
ATOM     16  H   UNL     1      -5.036  88.975 -13.342  1.00  0.00     0.211 HD
ENDBRANCH   7  15
ENDBRANCH   1   2
BRANCH   1  17
ATOM     17  C   UNL     1      -3.703  92.321 -15.610  1.00  0.00     0.172 A 
ATOM     18  C   UNL     1      -2.778  91.493 -16.261  1.00  0.00     0.201 A 
ATOM     19  C   UNL     1      -4.582  93.104 -16.351  1.00  0.00     0.098 A 
ATOM     20  C   UNL     1      -2.754  91.422 -17.668  1.00  0.00     0.176 A 
ATOM     21  C   UNL     1      -4.556  93.078 -17.745  1.00  0.00     0.146 A 
ATOM     22  C   UNL     1      -3.625  92.257 -18.433  1.00  0.00     0.111 A 
ATOM     23  O   UNL     1      -5.413  93.843 -18.412  1.00  0.00    -0.456 OA
ATOM     24  C   UNL     1      -3.609  92.356 -19.846  1.00  0.00     0.197 A 
ATOM     25  C   UNL     1      -5.450  93.919 -19.738  1.00  0.00     0.138 A 
ATOM     26  C   UNL     1      -4.537  93.173 -20.493  1.00  0.00     0.100 A 
ATOM     27  O   UNL     1      -2.761  91.748 -20.548  1.00  0.00    -0.289 OA
BRANCH  18  28
ATOM     28  O   UNL     1      -1.882  90.747 -15.496  1.00  0.00    -0.502 OA
ATOM     29  H   UNL     1      -1.030  91.141 -15.113  1.00  0.00     0.293 HD
ENDBRANCH  18  28
BRANCH  20  30
ATOM     30  O   UNL     1      -1.875  90.499 -18.246  1.00  0.00    -0.504 OA
ATOM     31  H   UNL     1      -1.184  89.967 -17.737  1.00  0.00     0.293 HD
ENDBRANCH  20  30
BRANCH  25  32
ATOM     32  C   UNL     1      -6.466  94.792 -20.377  1.00  0.00     0.017 A 
ATOM     33  C   UNL     1      -7.623  95.209 -19.690  1.00  0.00     0.012 A 
ATOM     34  C   UNL     1      -6.288  95.195 -21.713  1.00  0.00     0.012 A 
ATOM     35  C   UNL     1      -8.565  96.026 -20.323  1.00  0.00     0.001 A 
ATOM     36  C   UNL     1      -7.232  96.014 -22.339  1.00  0.00     0.001 A 
ATOM     37  C   UNL     1      -8.368  96.431 -21.644  1.00  0.00     0.000 A 
ENDBRANCH  25  32
ENDBRANCH   1  17
TORSDOF 9
ENDMDL
