MODEL 1
REMARK VINA RESULT:    -5.677      0.000      0.000
REMARK INTER + INTRA:          -7.239
REMARK INTER:                  -7.004
REMARK INTRA:                  -0.234
REMARK UNBOUND:                -0.234
REMARK SMILES O=C1c2c(O)cc(O)cc2O[C@@H](c2cc(O)c(O)c(O)c2)[C@@H]1O
REMARK SMILES IDX 12 1 22 2 2 3 1 4 3 5 4 6 6 7 7 8 9 9 10 10 11 11 13 12
REMARK SMILES IDX 14 13 15 14 21 15 17 16 19 17 16 18 18 20 20 22 23 24 5 26
REMARK SMILES IDX 8 28
REMARK H PARENT 16 19 18 21 20 23 23 25 5 27 8 29
REMARK Flexibility Score: inf
ROOT
ATOM      1  C   UNL     1      18.392  30.669  34.267  1.00  0.00     0.240 C 
ATOM      2  C   UNL     1      18.438  29.349  35.061  1.00  0.00     0.231 C 
ATOM      3  C   UNL     1      19.046  28.247  34.227  1.00  0.00     0.202 C 
ATOM      4  O   UNL     1      19.490  27.230  34.822  1.00  0.00    -0.291 OA
ATOM      5  C   UNL     1      18.965  28.295  32.738  1.00  0.00     0.105 A 
ATOM      6  C   UNL     1      19.466  27.280  31.877  1.00  0.00     0.133 A 
ATOM      7  C   UNL     1      19.161  27.321  30.511  1.00  0.00     0.093 A 
ATOM      8  C   UNL     1      18.417  28.372  29.973  1.00  0.00     0.123 A 
ATOM      9  C   UNL     1      17.979  29.406  30.802  1.00  0.00     0.093 A 
ATOM     10  C   UNL     1      18.266  29.381  32.169  1.00  0.00     0.138 A 
ATOM     11  O   UNL     1      17.844  30.446  32.969  1.00  0.00    -0.481 OA
ENDROOT
BRANCH   1  12
ATOM     12  C   UNL     1      17.576  31.715  34.990  1.00  0.00     0.003 A 
ATOM     13  C   UNL     1      17.867  33.078  34.826  1.00  0.00     0.058 A 
ATOM     14  C   UNL     1      17.132  34.052  35.516  1.00  0.00     0.161 A 
ATOM     15  C   UNL     1      16.549  31.335  35.871  1.00  0.00     0.058 A 
ATOM     16  C   UNL     1      16.099  33.664  36.386  1.00  0.00     0.200 A 
ATOM     17  C   UNL     1      15.811  32.300  36.563  1.00  0.00     0.161 A 
BRANCH  14  18
ATOM     18  O   UNL     1      17.427  35.404  35.341  1.00  0.00    -0.504 OA
ATOM     19  H   UNL     1      16.829  36.131  35.718  1.00  0.00     0.293 HD
ENDBRANCH  14  18
BRANCH  16  20
ATOM     20  O   UNL     1      15.356  34.621  37.079  1.00  0.00    -0.502 OA
ATOM     21  H   UNL     1      14.344  34.651  37.040  1.00  0.00     0.293 HD
ENDBRANCH  16  20
BRANCH  17  22
ATOM     22  O   UNL     1      14.795  31.884  37.423  1.00  0.00    -0.504 OA
ATOM     23  H   UNL     1      14.219  32.541  37.935  1.00  0.00     0.293 HD
ENDBRANCH  17  22
ENDBRANCH   1  12
BRANCH   2  24
ATOM     24  O   UNL     1      19.199  29.519  36.230  1.00  0.00    -0.381 OA
ATOM     25  H   UNL     1      19.648  28.653  36.412  1.00  0.00     0.211 HD
ENDBRANCH   2  24
BRANCH   6  26
ATOM     26  O   UNL     1      20.282  26.235  32.315  1.00  0.00    -0.507 OA
ATOM     27  H   UNL     1      20.565  26.102  33.275  1.00  0.00     0.293 HD
ENDBRANCH   6  26
BRANCH   8  28
ATOM     28  O   UNL     1      18.131  28.385  28.609  1.00  0.00    -0.508 OA
ATOM     29  H   UNL     1      18.708  28.895  27.952  1.00  0.00     0.293 HD
ENDBRANCH   8  28
TORSDOF 7
ENDMDL
MODEL 2
REMARK VINA RESULT:    -5.654      1.620      6.842
REMARK INTER + INTRA:          -7.211
REMARK INTER:                  -7.018
REMARK INTRA:                  -0.192
REMARK UNBOUND:                -0.234
REMARK SMILES O=C1c2c(O)cc(O)cc2O[C@@H](c2cc(O)c(O)c(O)c2)[C@@H]1O
REMARK SMILES IDX 12 1 22 2 2 3 1 4 3 5 4 6 6 7 7 8 9 9 10 10 11 11 13 12
REMARK SMILES IDX 14 13 15 14 21 15 17 16 19 17 16 18 18 20 20 22 23 24 5 26
REMARK SMILES IDX 8 28
REMARK H PARENT 16 19 18 21 20 23 23 25 5 27 8 29
REMARK Flexibility Score: inf
ROOT
ATOM      1  C   UNL     1      17.494  30.182  32.570  1.00  0.00     0.240 C 
ATOM      2  C   UNL     1      18.612  29.947  33.604  1.00  0.00     0.231 C 
ATOM      3  C   UNL     1      18.237  30.540  34.940  1.00  0.00     0.202 C 
ATOM      4  O   UNL     1      18.846  30.132  35.963  1.00  0.00    -0.291 OA
ATOM      5  C   UNL     1      17.293  31.693  35.015  1.00  0.00     0.105 A 
ATOM      6  C   UNL     1      16.920  32.344  36.223  1.00  0.00     0.133 A 
ATOM      7  C   UNL     1      16.192  33.539  36.168  1.00  0.00     0.093 A 
ATOM      8  C   UNL     1      15.781  34.073  34.946  1.00  0.00     0.123 A 
ATOM      9  C   UNL     1      16.085  33.402  33.760  1.00  0.00     0.093 A 
ATOM     10  C   UNL     1      16.817  32.213  33.792  1.00  0.00     0.138 A 
ATOM     11  O   UNL     1      17.080  31.546  32.592  1.00  0.00    -0.481 OA
ENDROOT
BRANCH   1  12
ATOM     12  C   UNL     1      17.947  29.810  31.178  1.00  0.00     0.003 A 
ATOM     13  C   UNL     1      18.372  30.804  30.283  1.00  0.00     0.058 A 
ATOM     14  C   UNL     1      18.767  30.469  28.980  1.00  0.00     0.161 A 
ATOM     15  C   UNL     1      17.902  28.474  30.747  1.00  0.00     0.058 A 
ATOM     16  C   UNL     1      18.731  29.128  28.561  1.00  0.00     0.200 A 
ATOM     17  C   UNL     1      18.294  28.131  29.449  1.00  0.00     0.161 A 
BRANCH  14  18
ATOM     18  O   UNL     1      19.193  31.464  28.102  1.00  0.00    -0.504 OA
ATOM     19  H   UNL     1      19.856  31.269  27.359  1.00  0.00     0.293 HD
ENDBRANCH  14  18
BRANCH  16  20
ATOM     20  O   UNL     1      19.123  28.777  27.268  1.00  0.00    -0.502 OA
ATOM     21  H   UNL     1      18.519  28.257  26.643  1.00  0.00     0.293 HD
ENDBRANCH  16  20
BRANCH  17  22
ATOM     22  O   UNL     1      18.242  26.792  29.060  1.00  0.00    -0.504 OA
ATOM     23  H   UNL     1      18.599  26.476  28.166  1.00  0.00     0.293 HD
ENDBRANCH  17  22
ENDBRANCH   1  12
BRANCH   2  24
ATOM     24  O   UNL     1      18.842  28.569  33.756  1.00  0.00    -0.381 OA
ATOM     25  H   UNL     1      19.046  28.414  34.715  1.00  0.00     0.211 HD
ENDBRANCH   2  24
BRANCH   6  26
ATOM     26  O   UNL     1      17.222  31.842  37.491  1.00  0.00    -0.507 OA
ATOM     27  H   UNL     1      16.533  31.493  38.140  1.00  0.00     0.293 HD
ENDBRANCH   6  26
BRANCH   8  28
ATOM     28  O   UNL     1      15.057  35.263  34.923  1.00  0.00    -0.508 OA
ATOM     29  H   UNL     1      14.937  35.826  35.757  1.00  0.00     0.293 HD
ENDBRANCH   8  28
TORSDOF 7
ENDMDL
MODEL 3
REMARK VINA RESULT:    -5.646      1.584      7.024
REMARK INTER + INTRA:          -7.200
REMARK INTER:                  -7.011
REMARK INTRA:                  -0.189
REMARK UNBOUND:                -0.234
REMARK SMILES O=C1c2c(O)cc(O)cc2O[C@@H](c2cc(O)c(O)c(O)c2)[C@@H]1O
REMARK SMILES IDX 12 1 22 2 2 3 1 4 3 5 4 6 6 7 7 8 9 9 10 10 11 11 13 12
REMARK SMILES IDX 14 13 15 14 21 15 17 16 19 17 16 18 18 20 20 22 23 24 5 26
REMARK SMILES IDX 8 28
REMARK H PARENT 16 19 18 21 20 23 23 25 5 27 8 29
REMARK Flexibility Score: inf
ROOT
ATOM      1  C   UNL     1      17.706  29.854  32.422  1.00  0.00     0.240 C 
ATOM      2  C   UNL     1      18.976  29.698  33.280  1.00  0.00     0.231 C 
ATOM      3  C   UNL     1      18.756  30.256  34.665  1.00  0.00     0.202 C 
ATOM      4  O   UNL     1      19.535  29.888  35.583  1.00  0.00    -0.291 OA
ATOM      5  C   UNL     1      17.752  31.336  34.892  1.00  0.00     0.105 A 
ATOM      6  C   UNL     1      17.512  31.953  36.151  1.00  0.00     0.133 A 
ATOM      7  C   UNL     1      16.699  33.091  36.219  1.00  0.00     0.093 A 
ATOM      8  C   UNL     1      16.078  33.599  35.077  1.00  0.00     0.123 A 
ATOM      9  C   UNL     1      16.256  32.957  33.850  1.00  0.00     0.093 A 
ATOM     10  C   UNL     1      17.069  31.825  33.758  1.00  0.00     0.138 A 
ATOM     11  O   UNL     1      17.202  31.185  32.524  1.00  0.00    -0.481 OA
ENDROOT
BRANCH   1  12
ATOM     12  C   UNL     1      17.978  29.524  30.973  1.00  0.00     0.003 A 
ATOM     13  C   UNL     1      17.970  28.190  30.538  1.00  0.00     0.058 A 
ATOM     14  C   UNL     1      18.250  27.874  29.200  1.00  0.00     0.161 A 
ATOM     15  C   UNL     1      18.290  30.542  30.056  1.00  0.00     0.058 A 
ATOM     16  C   UNL     1      18.550  28.900  28.287  1.00  0.00     0.200 A 
ATOM     17  C   UNL     1      18.570  30.236  28.721  1.00  0.00     0.161 A 
BRANCH  14  18
ATOM     18  O   UNL     1      18.234  26.546  28.778  1.00  0.00    -0.504 OA
ATOM     19  H   UNL     1      18.914  25.873  29.114  1.00  0.00     0.293 HD
ENDBRANCH  14  18
BRANCH  16  20
ATOM     20  O   UNL     1      18.828  28.604  26.952  1.00  0.00    -0.502 OA
ATOM     21  H   UNL     1      18.588  29.235  26.197  1.00  0.00     0.293 HD
ENDBRANCH  16  20
BRANCH  17  22
ATOM     22  O   UNL     1      18.869  31.275  27.839  1.00  0.00    -0.504 OA
ATOM     23  H   UNL     1      18.613  32.236  28.031  1.00  0.00     0.293 HD
ENDBRANCH  17  22
ENDBRANCH   1  12
BRANCH   2  24
ATOM     24  O   UNL     1      19.324  28.340  33.377  1.00  0.00    -0.381 OA
ATOM     25  H   UNL     1      20.174  28.223  32.878  1.00  0.00     0.211 HD
ENDBRANCH   2  24
BRANCH   6  26
ATOM     26  O   UNL     1      18.030  31.468  37.355  1.00  0.00    -0.507 OA
ATOM     27  H   UNL     1      19.013  31.333  37.534  1.00  0.00     0.293 HD
ENDBRANCH   6  26
BRANCH   8  28
ATOM     28  O   UNL     1      15.275  34.732  35.177  1.00  0.00    -0.508 OA
ATOM     29  H   UNL     1      14.494  34.773  35.821  1.00  0.00     0.293 HD
ENDBRANCH   8  28
TORSDOF 7
ENDMDL
MODEL 4
REMARK VINA RESULT:    -5.626      2.260      7.967
REMARK INTER + INTRA:          -7.176
REMARK INTER:                  -6.935
REMARK INTRA:                  -0.241
REMARK UNBOUND:                -0.234
REMARK SMILES O=C1c2c(O)cc(O)cc2O[C@@H](c2cc(O)c(O)c(O)c2)[C@@H]1O
REMARK SMILES IDX 12 1 22 2 2 3 1 4 3 5 4 6 6 7 7 8 9 9 10 10 11 11 13 12
REMARK SMILES IDX 14 13 15 14 21 15 17 16 19 17 16 18 18 20 20 22 23 24 5 26
REMARK SMILES IDX 8 28
REMARK H PARENT 16 19 18 21 20 23 23 25 5 27 8 29
REMARK Flexibility Score: inf
ROOT
ATOM      1  C   UNL     1      18.861  29.582  30.710  1.00  0.00     0.240 C 
ATOM      2  C   UNL     1      18.578  30.845  29.874  1.00  0.00     0.231 C 
ATOM      3  C   UNL     1      18.416  32.050  30.768  1.00  0.00     0.202 C 
ATOM      4  O   UNL     1      18.547  33.192  30.254  1.00  0.00    -0.291 OA
ATOM      5  C   UNL     1      17.948  31.888  32.175  1.00  0.00     0.105 A 
ATOM      6  C   UNL     1      17.722  32.968  33.072  1.00  0.00     0.133 A 
ATOM      7  C   UNL     1      17.092  32.727  34.300  1.00  0.00     0.093 A 
ATOM      8  C   UNL     1      16.730  31.434  34.678  1.00  0.00     0.123 A 
ATOM      9  C   UNL     1      17.011  30.360  33.831  1.00  0.00     0.093 A 
ATOM     10  C   UNL     1      17.632  30.579  32.599  1.00  0.00     0.138 A 
ATOM     11  O   UNL     1      17.930  29.483  31.786  1.00  0.00    -0.481 OA
ENDROOT
BRANCH   1  12
ATOM     12  C   UNL     1      18.789  28.335  29.860  1.00  0.00     0.003 A 
ATOM     13  C   UNL     1      19.569  27.213  30.181  1.00  0.00     0.058 A 
ATOM     14  C   UNL     1      19.528  26.063  29.381  1.00  0.00     0.161 A 
ATOM     15  C   UNL     1      17.979  28.300  28.713  1.00  0.00     0.058 A 
ATOM     16  C   UNL     1      18.706  26.032  28.241  1.00  0.00     0.200 A 
ATOM     17  C   UNL     1      17.932  27.157  27.909  1.00  0.00     0.161 A 
BRANCH  14  18
ATOM     18  O   UNL     1      20.303  24.953  29.712  1.00  0.00    -0.504 OA
ATOM     19  H   UNL     1      20.571  24.759  30.671  1.00  0.00     0.293 HD
ENDBRANCH  14  18
BRANCH  16  20
ATOM     20  O   UNL     1      18.651  24.894  27.435  1.00  0.00    -0.502 OA
ATOM     21  H   UNL     1      17.978  24.154  27.590  1.00  0.00     0.293 HD
ENDBRANCH  16  20
BRANCH  17  22
ATOM     22  O   UNL     1      17.110  27.158  26.782  1.00  0.00    -0.504 OA
ATOM     23  H   UNL     1      16.115  26.982  26.840  1.00  0.00     0.293 HD
ENDBRANCH  17  22
ENDBRANCH   1  12
BRANCH   2  24
ATOM     24  O   UNL     1      19.635  31.072  28.977  1.00  0.00    -0.381 OA
ATOM     25  H   UNL     1      20.330  31.582  29.470  1.00  0.00     0.211 HD
ENDBRANCH   2  24
BRANCH   6  26
ATOM     26  O   UNL     1      18.120  34.281  32.809  1.00  0.00    -0.507 OA
ATOM     27  H   UNL     1      17.739  34.850  32.068  1.00  0.00     0.293 HD
ENDBRANCH   6  26
BRANCH   8  28
ATOM     28  O   UNL     1      16.105  31.225  35.906  1.00  0.00    -0.508 OA
ATOM     29  H   UNL     1      16.559  31.468  36.779  1.00  0.00     0.293 HD
ENDBRANCH   8  28
TORSDOF 7
ENDMDL
MODEL 5
REMARK VINA RESULT:    -5.524      2.201      3.735
REMARK INTER + INTRA:          -7.051
REMARK INTER:                  -6.798
REMARK INTRA:                  -0.253
REMARK UNBOUND:                -0.234
REMARK SMILES O=C1c2c(O)cc(O)cc2O[C@@H](c2cc(O)c(O)c(O)c2)[C@@H]1O
REMARK SMILES IDX 12 1 22 2 2 3 1 4 3 5 4 6 6 7 7 8 9 9 10 10 11 11 13 12
REMARK SMILES IDX 14 13 15 14 21 15 17 16 19 17 16 18 18 20 20 22 23 24 5 26
REMARK SMILES IDX 8 28
REMARK H PARENT 16 19 18 21 20 23 23 25 5 27 8 29
REMARK Flexibility Score: inf
ROOT
ATOM      1  C   UNL     1      18.964  29.021  31.408  1.00  0.00     0.240 C 
ATOM      2  C   UNL     1      19.405  27.782  32.211  1.00  0.00     0.231 C 
ATOM      3  C   UNL     1      19.915  26.702  31.287  1.00  0.00     0.202 C 
ATOM      4  O   UNL     1      20.639  25.795  31.777  1.00  0.00    -0.291 OA
ATOM      5  C   UNL     1      19.433  26.625  29.878  1.00  0.00     0.105 A 
ATOM      6  C   UNL     1      19.821  25.617  28.953  1.00  0.00     0.133 A 
ATOM      7  C   UNL     1      19.160  25.514  27.723  1.00  0.00     0.093 A 
ATOM      8  C   UNL     1      18.159  26.421  27.369  1.00  0.00     0.123 A 
ATOM      9  C   UNL     1      17.820  27.454  28.245  1.00  0.00     0.093 A 
ATOM     10  C   UNL     1      18.462  27.570  29.480  1.00  0.00     0.138 A 
ATOM     11  O   UNL     1      18.126  28.633  30.322  1.00  0.00    -0.481 OA
ENDROOT
BRANCH   1  12
ATOM     12  C   UNL     1      18.235  30.011  32.284  1.00  0.00     0.003 A 
ATOM     13  C   UNL     1      17.511  29.568  33.402  1.00  0.00     0.058 A 
ATOM     14  C   UNL     1      16.808  30.479  34.204  1.00  0.00     0.161 A 
ATOM     15  C   UNL     1      18.232  31.379  31.965  1.00  0.00     0.058 A 
ATOM     16  C   UNL     1      16.820  31.848  33.884  1.00  0.00     0.200 A 
ATOM     17  C   UNL     1      17.534  32.295  32.759  1.00  0.00     0.161 A 
BRANCH  14  18
ATOM     18  O   UNL     1      16.097  30.029  35.314  1.00  0.00    -0.504 OA
ATOM     19  H   UNL     1      15.371  30.591  35.745  1.00  0.00     0.293 HD
ENDBRANCH  14  18
BRANCH  16  20
ATOM     20  O   UNL     1      16.129  32.769  34.672  1.00  0.00    -0.502 OA
ATOM     21  H   UNL     1      16.554  33.221  35.472  1.00  0.00     0.293 HD
ENDBRANCH  16  20
BRANCH  17  22
ATOM     22  O   UNL     1      17.561  33.646  32.413  1.00  0.00    -0.504 OA
ATOM     23  H   UNL     1      17.385  34.379  33.089  1.00  0.00     0.293 HD
ENDBRANCH  17  22
ENDBRANCH   1  12
BRANCH   2  24
ATOM     24  O   UNL     1      20.419  28.133  33.117  1.00  0.00    -0.381 OA
ATOM     25  H   UNL     1      20.865  27.291  33.394  1.00  0.00     0.211 HD
ENDBRANCH   2  24
BRANCH   6  26
ATOM     26  O   UNL     1      20.862  24.716  29.192  1.00  0.00    -0.507 OA
ATOM     27  H   UNL     1      21.791  24.988  29.477  1.00  0.00     0.293 HD
ENDBRANCH   6  26
BRANCH   8  28
ATOM     28  O   UNL     1      17.520  26.294  26.138  1.00  0.00    -0.508 OA
ATOM     29  H   UNL     1      17.436  27.078  25.502  1.00  0.00     0.293 HD
ENDBRANCH   8  28
TORSDOF 7
ENDMDL
MODEL 6
REMARK VINA RESULT:    -5.502      1.914      7.443
REMARK INTER + INTRA:          -7.023
REMARK INTER:                  -6.793
REMARK INTRA:                  -0.230
REMARK UNBOUND:                -0.234
REMARK SMILES O=C1c2c(O)cc(O)cc2O[C@@H](c2cc(O)c(O)c(O)c2)[C@@H]1O
REMARK SMILES IDX 12 1 22 2 2 3 1 4 3 5 4 6 6 7 7 8 9 9 10 10 11 11 13 12
REMARK SMILES IDX 14 13 15 14 21 15 17 16 19 17 16 18 18 20 20 22 23 24 5 26
REMARK SMILES IDX 8 28
REMARK H PARENT 16 19 18 21 20 23 23 25 5 27 8 29
REMARK Flexibility Score: inf
ROOT
ATOM      1  C   UNL     1      18.352  28.456  31.209  1.00  0.00     0.240 C 
ATOM      2  C   UNL     1      19.628  28.187  32.030  1.00  0.00     0.231 C 
ATOM      3  C   UNL     1      19.440  28.618  33.464  1.00  0.00     0.202 C 
ATOM      4  O   UNL     1      20.220  28.146  34.333  1.00  0.00    -0.291 OA
ATOM      5  C   UNL     1      18.468  29.697  33.807  1.00  0.00     0.105 A 
ATOM      6  C   UNL     1      18.259  30.197  35.121  1.00  0.00     0.133 A 
ATOM      7  C   UNL     1      17.477  31.344  35.308  1.00  0.00     0.093 A 
ATOM      8  C   UNL     1      16.856  31.973  34.227  1.00  0.00     0.123 A 
ATOM      9  C   UNL     1      17.002  31.446  32.943  1.00  0.00     0.093 A 
ATOM     10  C   UNL     1      17.783  30.307  32.733  1.00  0.00     0.138 A 
ATOM     11  O   UNL     1      17.885  29.783  31.442  1.00  0.00    -0.481 OA
ENDROOT
BRANCH   1  12
ATOM     12  C   UNL     1      18.599  28.257  29.732  1.00  0.00     0.003 A 
ATOM     13  C   UNL     1      18.463  26.984  29.157  1.00  0.00     0.058 A 
ATOM     14  C   UNL     1      18.718  26.787  27.792  1.00  0.00     0.161 A 
ATOM     15  C   UNL     1      19.013  29.332  28.927  1.00  0.00     0.058 A 
ATOM     16  C   UNL     1      19.120  27.870  26.991  1.00  0.00     0.200 A 
ATOM     17  C   UNL     1      19.269  29.144  27.565  1.00  0.00     0.161 A 
BRANCH  14  18
ATOM     18  O   UNL     1      18.574  25.519  27.230  1.00  0.00    -0.504 OA
ATOM     19  H   UNL     1      19.234  24.774  27.425  1.00  0.00     0.293 HD
ENDBRANCH  14  18
BRANCH  16  20
ATOM     20  O   UNL     1      19.375  27.692  25.631  1.00  0.00    -0.502 OA
ATOM     21  H   UNL     1      18.661  27.829  24.925  1.00  0.00     0.293 HD
ENDBRANCH  16  20
BRANCH  17  22
ATOM     22  O   UNL     1      19.671  30.237  26.797  1.00  0.00    -0.504 OA
ATOM     23  H   UNL     1      19.509  31.192  27.091  1.00  0.00     0.293 HD
ENDBRANCH  17  22
ENDBRANCH   1  12
BRANCH   2  24
ATOM     24  O   UNL     1      19.942  26.818  31.994  1.00  0.00    -0.381 OA
ATOM     25  H   UNL     1      20.383  26.645  31.122  1.00  0.00     0.211 HD
ENDBRANCH   2  24
BRANCH   6  26
ATOM     26  O   UNL     1      18.778  29.589  36.266  1.00  0.00    -0.507 OA
ATOM     27  H   UNL     1      19.760  29.413  36.418  1.00  0.00     0.293 HD
ENDBRANCH   6  26
BRANCH   8  28
ATOM     28  O   UNL     1      16.084  33.112  34.445  1.00  0.00    -0.508 OA
ATOM     29  H   UNL     1      15.312  33.111  35.101  1.00  0.00     0.293 HD
ENDBRANCH   8  28
TORSDOF 7
ENDMDL
MODEL 7
REMARK VINA RESULT:    -5.495      2.113      3.795
REMARK INTER + INTRA:          -7.014
REMARK INTER:                  -6.640
REMARK INTRA:                  -0.374
REMARK UNBOUND:                -0.234
REMARK SMILES O=C1c2c(O)cc(O)cc2O[C@@H](c2cc(O)c(O)c(O)c2)[C@@H]1O
REMARK SMILES IDX 12 1 22 2 2 3 1 4 3 5 4 6 6 7 7 8 9 9 10 10 11 11 13 12
REMARK SMILES IDX 14 13 15 14 21 15 17 16 19 17 16 18 18 20 20 22 23 24 5 26
REMARK SMILES IDX 8 28
REMARK H PARENT 16 19 18 21 20 23 23 25 5 27 8 29
REMARK Flexibility Score: inf
ROOT
ATOM      1  C   UNL     1      17.365  31.510  33.028  1.00  0.00     0.240 C 
ATOM      2  C   UNL     1      18.244  32.581  32.356  1.00  0.00     0.231 C 
ATOM      3  C   UNL     1      18.385  32.306  30.879  1.00  0.00     0.202 C 
ATOM      4  O   UNL     1      18.747  33.251  30.130  1.00  0.00    -0.291 OA
ATOM      5  C   UNL     1      18.261  30.914  30.356  1.00  0.00     0.105 A 
ATOM      6  C   UNL     1      18.425  30.555  28.989  1.00  0.00     0.133 A 
ATOM      7  C   UNL     1      18.491  29.202  28.633  1.00  0.00     0.093 A 
ATOM      8  C   UNL     1      18.344  28.200  29.593  1.00  0.00     0.123 A 
ATOM      9  C   UNL     1      18.116  28.546  30.926  1.00  0.00     0.093 A 
ATOM     10  C   UNL     1      18.054  29.889  31.304  1.00  0.00     0.138 A 
ATOM     11  O   UNL     1      17.791  30.206  32.639  1.00  0.00    -0.481 OA
ENDROOT
BRANCH   1  12
ATOM     12  C   UNL     1      17.408  31.630  34.533  1.00  0.00     0.003 A 
ATOM     13  C   UNL     1      16.218  31.733  35.270  1.00  0.00     0.058 A 
ATOM     14  C   UNL     1      16.252  31.874  36.665  1.00  0.00     0.161 A 
ATOM     15  C   UNL     1      18.639  31.689  35.209  1.00  0.00     0.058 A 
ATOM     16  C   UNL     1      17.487  31.920  37.333  1.00  0.00     0.200 A 
ATOM     17  C   UNL     1      18.682  31.829  36.599  1.00  0.00     0.161 A 
BRANCH  14  18
ATOM     18  O   UNL     1      15.064  31.969  37.386  1.00  0.00    -0.504 OA
ATOM     19  H   UNL     1      14.535  32.834  37.428  1.00  0.00     0.293 HD
ENDBRANCH  14  18
BRANCH  16  20
ATOM     20  O   UNL     1      17.540  32.057  38.721  1.00  0.00    -0.502 OA
ATOM     21  H   UNL     1      17.566  31.257  39.342  1.00  0.00     0.293 HD
ENDBRANCH  16  20
BRANCH  17  22
ATOM     22  O   UNL     1      19.923  31.878  37.234  1.00  0.00    -0.504 OA
ATOM     23  H   UNL     1      20.117  32.521  37.992  1.00  0.00     0.293 HD
ENDBRANCH  17  22
ENDBRANCH   1  12
BRANCH   2  24
ATOM     24  O   UNL     1      17.675  33.852  32.538  1.00  0.00    -0.381 OA
ATOM     25  H   UNL     1      18.423  34.505  32.560  1.00  0.00     0.211 HD
ENDBRANCH   2  24
BRANCH   6  26
ATOM     26  O   UNL     1      18.503  31.489  27.954  1.00  0.00    -0.507 OA
ATOM     27  H   UNL     1      18.246  32.461  28.048  1.00  0.00     0.293 HD
ENDBRANCH   6  26
BRANCH   8  28
ATOM     28  O   UNL     1      18.414  26.863  29.207  1.00  0.00    -0.508 OA
ATOM     29  H   UNL     1      18.657  26.597  28.260  1.00  0.00     0.293 HD
ENDBRANCH   8  28
TORSDOF 7
ENDMDL
MODEL 8
REMARK VINA RESULT:    -5.398      1.964      3.637
REMARK INTER + INTRA:          -6.895
REMARK INTER:                  -6.906
REMARK INTRA:                   0.011
REMARK UNBOUND:                -0.234
REMARK SMILES O=C1c2c(O)cc(O)cc2O[C@@H](c2cc(O)c(O)c(O)c2)[C@@H]1O
REMARK SMILES IDX 12 1 22 2 2 3 1 4 3 5 4 6 6 7 7 8 9 9 10 10 11 11 13 12
REMARK SMILES IDX 14 13 15 14 21 15 17 16 19 17 16 18 18 20 20 22 23 24 5 26
REMARK SMILES IDX 8 28
REMARK H PARENT 16 19 18 21 20 23 23 25 5 27 8 29
REMARK Flexibility Score: inf
ROOT
ATOM      1  C   UNL     1      17.916  29.001  33.489  1.00  0.00     0.240 C 
ATOM      2  C   UNL     1      18.573  29.051  32.097  1.00  0.00     0.231 C 
ATOM      3  C   UNL     1      19.316  27.768  31.812  1.00  0.00     0.202 C 
ATOM      4  O   UNL     1      19.589  27.494  30.613  1.00  0.00    -0.291 OA
ATOM      5  C   UNL     1      19.853  26.942  32.932  1.00  0.00     0.105 A 
ATOM      6  C   UNL     1      20.604  25.747  32.756  1.00  0.00     0.133 A 
ATOM      7  C   UNL     1      21.234  25.159  33.860  1.00  0.00     0.093 A 
ATOM      8  C   UNL     1      21.092  25.698  35.139  1.00  0.00     0.123 A 
ATOM      9  C   UNL     1      20.300  26.833  35.328  1.00  0.00     0.093 A 
ATOM     10  C   UNL     1      19.669  27.440  34.240  1.00  0.00     0.138 A 
ATOM     11  O   UNL     1      18.857  28.555  34.463  1.00  0.00    -0.481 OA
ENDROOT
BRANCH   1  12
ATOM     12  C   UNL     1      17.375  30.354  33.889  1.00  0.00     0.003 A 
ATOM     13  C   UNL     1      17.559  31.465  33.053  1.00  0.00     0.058 A 
ATOM     14  C   UNL     1      17.084  32.729  33.430  1.00  0.00     0.161 A 
ATOM     15  C   UNL     1      16.723  30.525  35.122  1.00  0.00     0.058 A 
ATOM     16  C   UNL     1      16.423  32.890  34.660  1.00  0.00     0.200 A 
ATOM     17  C   UNL     1      16.246  31.782  35.507  1.00  0.00     0.161 A 
BRANCH  14  18
ATOM     18  O   UNL     1      17.268  33.825  32.589  1.00  0.00    -0.504 OA
ATOM     19  H   UNL     1      16.712  34.668  32.684  1.00  0.00     0.293 HD
ENDBRANCH  14  18
BRANCH  16  20
ATOM     20  O   UNL     1      15.941  34.140  35.051  1.00  0.00    -0.502 OA
ATOM     21  H   UNL     1      16.356  34.665  35.811  1.00  0.00     0.293 HD
ENDBRANCH  16  20
BRANCH  17  22
ATOM     22  O   UNL     1      15.599  31.911  36.736  1.00  0.00    -0.504 OA
ATOM     23  H   UNL     1      15.519  31.139  37.387  1.00  0.00     0.293 HD
ENDBRANCH  17  22
ENDBRANCH   1  12
BRANCH   2  24
ATOM     24  O   UNL     1      17.592  29.247  31.110  1.00  0.00    -0.381 OA
ATOM     25  H   UNL     1      18.067  29.475  30.270  1.00  0.00     0.211 HD
ENDBRANCH   2  24
BRANCH   6  26
ATOM     26  O   UNL     1      20.735  25.096  31.528  1.00  0.00    -0.507 OA
ATOM     27  H   UNL     1      20.096  24.392  31.189  1.00  0.00     0.293 HD
ENDBRANCH   6  26
BRANCH   8  28
ATOM     28  O   UNL     1      21.730  25.089  36.217  1.00  0.00    -0.508 OA
ATOM     29  H   UNL     1      22.716  25.237  36.401  1.00  0.00     0.293 HD
ENDBRANCH   8  28
TORSDOF 7
ENDMDL
MODEL 9
REMARK VINA RESULT:    -5.320      2.261      4.557
REMARK INTER + INTRA:          -6.798
REMARK INTER:                  -6.625
REMARK INTRA:                  -0.173
REMARK UNBOUND:                -0.234
REMARK SMILES O=C1c2c(O)cc(O)cc2O[C@@H](c2cc(O)c(O)c(O)c2)[C@@H]1O
REMARK SMILES IDX 12 1 22 2 2 3 1 4 3 5 4 6 6 7 7 8 9 9 10 10 11 11 13 12
REMARK SMILES IDX 14 13 15 14 21 15 17 16 19 17 16 18 18 20 20 22 23 24 5 26
REMARK SMILES IDX 8 28
REMARK H PARENT 16 19 18 21 20 23 23 25 5 27 8 29
REMARK Flexibility Score: inf
ROOT
ATOM      1  C   UNL     1      17.913  29.805  30.896  1.00  0.00     0.240 C 
ATOM      2  C   UNL     1      18.966  30.714  30.235  1.00  0.00     0.231 C 
ATOM      3  C   UNL     1      19.201  30.303  28.802  1.00  0.00     0.202 C 
ATOM      4  O   UNL     1      19.735  31.137  28.024  1.00  0.00    -0.291 OA
ATOM      5  C   UNL     1      18.961  28.894  28.372  1.00  0.00     0.105 A 
ATOM      6  C   UNL     1      19.199  28.408  27.057  1.00  0.00     0.133 A 
ATOM      7  C   UNL     1      19.137  27.031  26.808  1.00  0.00     0.093 A 
ATOM      8  C   UNL     1      18.792  26.134  27.819  1.00  0.00     0.123 A 
ATOM      9  C   UNL     1      18.491  26.612  29.096  1.00  0.00     0.093 A 
ATOM     10  C   UNL     1      18.554  27.981  29.368  1.00  0.00     0.138 A 
ATOM     11  O   UNL     1      18.216  28.434  30.645  1.00  0.00    -0.481 OA
ENDROOT
BRANCH   1  12
ATOM     12  C   UNL     1      17.840  30.044  32.386  1.00  0.00     0.003 A 
ATOM     13  C   UNL     1      17.106  31.127  32.894  1.00  0.00     0.058 A 
ATOM     14  C   UNL     1      17.057  31.372  34.274  1.00  0.00     0.161 A 
ATOM     15  C   UNL     1      18.543  29.216  33.277  1.00  0.00     0.058 A 
ATOM     16  C   UNL     1      17.754  30.531  35.158  1.00  0.00     0.200 A 
ATOM     17  C   UNL     1      18.500  29.453  34.654  1.00  0.00     0.161 A 
BRANCH  14  18
ATOM     18  O   UNL     1      16.320  32.447  34.767  1.00  0.00    -0.504 OA
ATOM     19  H   UNL     1      15.634  32.928  34.196  1.00  0.00     0.293 HD
ENDBRANCH  14  18
BRANCH  16  20
ATOM     20  O   UNL     1      17.714  30.758  36.535  1.00  0.00    -0.502 OA
ATOM     21  H   UNL     1      16.888  31.116  37.000  1.00  0.00     0.293 HD
ENDBRANCH  16  20
BRANCH  17  22
ATOM     22  O   UNL     1      19.206  28.604  35.507  1.00  0.00    -0.504 OA
ATOM     23  H   UNL     1      19.818  27.876  35.159  1.00  0.00     0.293 HD
ENDBRANCH  17  22
ENDBRANCH   1  12
BRANCH   2  24
ATOM     24  O   UNL     1      18.536  32.051  30.269  1.00  0.00    -0.381 OA
ATOM     25  H   UNL     1      18.711  32.435  29.371  1.00  0.00     0.211 HD
ENDBRANCH   2  24
BRANCH   6  26
ATOM     26  O   UNL     1      19.475  29.239  25.969  1.00  0.00    -0.507 OA
ATOM     27  H   UNL     1      19.056  29.133  25.056  1.00  0.00     0.293 HD
ENDBRANCH   6  26
BRANCH   8  28
ATOM     28  O   UNL     1      18.738  24.770  27.540  1.00  0.00    -0.508 OA
ATOM     29  H   UNL     1      18.020  24.176  27.939  1.00  0.00     0.293 HD
ENDBRANCH   8  28
TORSDOF 7
ENDMDL
