MODEL 1
REMARK VINA RESULT:    -4.846      0.000      0.000
REMARK INTER + INTRA:         -14.302
REMARK INTER:                 -11.078
REMARK INTRA:                  -3.224
REMARK UNBOUND:                -3.224
REMARK SMILES CCCCCCCCCCCCCCCCCCCCCCCC(=O)[O-]
REMARK SMILES IDX 13 1 14 2 15 3 16 4 17 5 18 6 19 7 20 8 21 9 22 10 23 11
REMARK SMILES IDX 24 12 25 13 26 14 12 15 11 16 10 17 9 18 8 19 7 20 6 21 5 22
REMARK SMILES IDX 4 23 3 24 2 25 1 26
REMARK H PARENT
REMARK Flexibility Score: inf
ROOT
ATOM      1  C   UNL     1       3.985  21.998  52.338  1.00  0.00     0.000 C 
ENDROOT
BRANCH   1   2
ATOM      2  C   UNL     1       4.575  22.660  51.081  1.00  0.00     0.000 C 
BRANCH   2   3
ATOM      3  C   UNL     1       5.086  24.087  51.354  1.00  0.00     0.000 C 
BRANCH   3   4
ATOM      4  C   UNL     1       4.760  24.565  52.777  1.00  0.00     0.000 C 
BRANCH   4   5
ATOM      5  C   UNL     1       4.017  25.909  52.794  1.00  0.00     0.000 C 
BRANCH   5   6
ATOM      6  C   UNL     1       2.788  25.847  53.716  1.00  0.00     0.000 C 
BRANCH   6   7
ATOM      7  C   UNL     1       2.957  24.809  54.845  1.00  0.00     0.000 C 
BRANCH   7   8
ATOM      8  C   UNL     1       1.666  24.551  55.642  1.00  0.00     0.000 C 
BRANCH   8   9
ATOM      9  C   UNL     1       1.463  23.065  55.985  1.00  0.00     0.000 C 
BRANCH   9  10
ATOM     10  C   UNL     1       0.181  22.822  56.808  1.00  0.00     0.006 C 
BRANCH  10  11
ATOM     11  C   UNL     1      -0.373  24.092  57.471  1.00  0.00     0.053 C 
BRANCH  11  12
ATOM     12  C   UNL     1      -1.693  24.502  56.899  1.00  0.00     0.041 C 
ATOM     13  O   UNL     1      -2.127  25.670  57.077  1.00  0.00    -0.550 OA
ATOM     14  O   UNL     1      -2.459  23.586  56.190  1.00  0.00    -0.550 OA
ENDBRANCH  11  12
ENDBRANCH  10  11
ENDBRANCH   9  10
ENDBRANCH   8   9
ENDBRANCH   7   8
ENDBRANCH   6   7
ENDBRANCH   5   6
ENDBRANCH   4   5
ENDBRANCH   3   4
ENDBRANCH   2   3
ENDBRANCH   1   2
BRANCH   1  15
ATOM     15  C   UNL     1       2.549  21.461  52.148  1.00  0.00     0.000 C 
BRANCH  15  16
ATOM     16  C   UNL     1       1.457  22.533  52.323  1.00  0.00     0.000 C 
BRANCH  16  17
ATOM     17  C   UNL     1       0.873  23.084  51.007  1.00  0.00     0.000 C 
BRANCH  17  18
ATOM     18  C   UNL     1       0.934  24.616  50.860  1.00  0.00    -0.000 C 
BRANCH  18  19
ATOM     19  C   UNL     1       1.931  25.077  49.786  1.00  0.00    -0.000 C 
BRANCH  19  20
ATOM     20  C   UNL     1       1.834  24.197  48.534  1.00  0.00    -0.000 C 
BRANCH  20  21
ATOM     21  C   UNL     1       1.088  24.926  47.406  1.00  0.00    -0.000 C 
BRANCH  21  22
ATOM     22  C   UNL     1       1.068  24.126  46.092  1.00  0.00    -0.000 C 
BRANCH  22  23
ATOM     23  C   UNL     1       2.375  23.349  45.854  1.00  0.00    -0.000 C 
BRANCH  23  24
ATOM     24  C   UNL     1       2.254  22.329  44.711  1.00  0.00    -0.000 C 
BRANCH  24  25
ATOM     25  C   UNL     1       3.146  22.675  43.510  1.00  0.00    -0.003 C 
ATOM     26  C   UNL     1       3.609  24.128  43.572  1.00  0.00     0.004 C 
ENDBRANCH  24  25
ENDBRANCH  23  24
ENDBRANCH  22  23
ENDBRANCH  21  22
ENDBRANCH  20  21
ENDBRANCH  19  20
ENDBRANCH  18  19
ENDBRANCH  17  18
ENDBRANCH  16  17
ENDBRANCH  15  16
ENDBRANCH   1  15
TORSDOF 22
ENDMDL
MODEL 2
REMARK VINA RESULT:    -4.794      1.418      2.088
REMARK INTER + INTRA:         -14.183
REMARK INTER:                 -11.441
REMARK INTRA:                  -2.742
REMARK UNBOUND:                -3.224
REMARK SMILES CCCCCCCCCCCCCCCCCCCCCCCC(=O)[O-]
REMARK SMILES IDX 13 1 14 2 15 3 16 4 17 5 18 6 19 7 20 8 21 9 22 10 23 11
REMARK SMILES IDX 24 12 25 13 26 14 12 15 11 16 10 17 9 18 8 19 7 20 6 21 5 22
REMARK SMILES IDX 4 23 3 24 2 25 1 26
REMARK H PARENT
REMARK Flexibility Score: inf
ROOT
ATOM      1  C   UNL     1       4.892  22.608  51.429  1.00  0.00     0.000 C 
ENDROOT
BRANCH   1   2
ATOM      2  C   UNL     1       5.354  23.774  52.320  1.00  0.00     0.000 C 
BRANCH   2   3
ATOM      3  C   UNL     1       4.368  24.061  53.468  1.00  0.00     0.000 C 
BRANCH   3   4
ATOM      4  C   UNL     1       3.514  25.312  53.207  1.00  0.00     0.000 C 
BRANCH   4   5
ATOM      5  C   UNL     1       2.650  25.701  54.416  1.00  0.00     0.000 C 
BRANCH   5   6
ATOM      6  C   UNL     1       1.331  24.913  54.426  1.00  0.00     0.000 C 
BRANCH   6   7
ATOM      7  C   UNL     1       0.140  25.763  53.935  1.00  0.00     0.000 C 
BRANCH   7   8
ATOM      8  C   UNL     1      -1.206  25.360  54.563  1.00  0.00     0.000 C 
BRANCH   8   9
ATOM      9  C   UNL     1      -1.466  26.048  55.913  1.00  0.00     0.000 C 
BRANCH   9  10
ATOM     10  C   UNL     1      -2.015  25.073  56.975  1.00  0.00     0.006 C 
BRANCH  10  11
ATOM     11  C   UNL     1      -1.565  23.619  56.763  1.00  0.00     0.053 C 
BRANCH  11  12
ATOM     12  C   UNL     1      -0.233  23.340  57.386  1.00  0.00     0.041 C 
ATOM     13  O   UNL     1       0.214  24.092  58.291  1.00  0.00    -0.550 OA
ATOM     14  O   UNL     1       0.528  22.264  56.949  1.00  0.00    -0.550 OA
ENDBRANCH  11  12
ENDBRANCH  10  11
ENDBRANCH   9  10
ENDBRANCH   8   9
ENDBRANCH   7   8
ENDBRANCH   6   7
ENDBRANCH   5   6
ENDBRANCH   4   5
ENDBRANCH   3   4
ENDBRANCH   2   3
ENDBRANCH   1   2
BRANCH   1  15
ATOM     15  C   UNL     1       3.678  21.833  51.989  1.00  0.00     0.000 C 
BRANCH  15  16
ATOM     16  C   UNL     1       2.459  21.826  51.048  1.00  0.00     0.000 C 
BRANCH  16  17
ATOM     17  C   UNL     1       1.253  22.648  51.544  1.00  0.00     0.000 C 
BRANCH  17  18
ATOM     18  C   UNL     1       0.993  23.954  50.769  1.00  0.00    -0.000 C 
BRANCH  18  19
ATOM     19  C   UNL     1       2.003  24.192  49.637  1.00  0.00    -0.000 C 
BRANCH  19  20
ATOM     20  C   UNL     1       1.837  25.594  49.039  1.00  0.00    -0.000 C 
BRANCH  20  21
ATOM     21  C   UNL     1       1.872  25.545  47.503  1.00  0.00    -0.000 C 
BRANCH  21  22
ATOM     22  C   UNL     1       0.952  24.459  46.921  1.00  0.00    -0.000 C 
BRANCH  22  23
ATOM     23  C   UNL     1       1.389  24.005  45.516  1.00  0.00    -0.000 C 
BRANCH  23  24
ATOM     24  C   UNL     1       2.443  22.888  45.559  1.00  0.00    -0.000 C 
BRANCH  24  25
ATOM     25  C   UNL     1       3.298  22.829  44.285  1.00  0.00    -0.003 C 
ATOM     26  C   UNL     1       2.541  22.151  43.147  1.00  0.00     0.004 C 
ENDBRANCH  24  25
ENDBRANCH  23  24
ENDBRANCH  22  23
ENDBRANCH  21  22
ENDBRANCH  20  21
ENDBRANCH  19  20
ENDBRANCH  18  19
ENDBRANCH  17  18
ENDBRANCH  16  17
ENDBRANCH  15  16
ENDBRANCH   1  15
TORSDOF 22
ENDMDL
MODEL 3
REMARK VINA RESULT:    -4.758      1.623      2.828
REMARK INTER + INTRA:         -14.101
REMARK INTER:                 -11.158
REMARK INTRA:                  -2.943
REMARK UNBOUND:                -3.224
REMARK SMILES CCCCCCCCCCCCCCCCCCCCCCCC(=O)[O-]
REMARK SMILES IDX 13 1 14 2 15 3 16 4 17 5 18 6 19 7 20 8 21 9 22 10 23 11
REMARK SMILES IDX 24 12 25 13 26 14 12 15 11 16 10 17 9 18 8 19 7 20 6 21 5 22
REMARK SMILES IDX 4 23 3 24 2 25 1 26
REMARK H PARENT
REMARK Flexibility Score: inf
ROOT
ATOM      1  C   UNL     1       4.555  22.258  52.325  1.00  0.00     0.000 C 
ENDROOT
BRANCH   1   2
ATOM      2  C   UNL     1       3.272  21.409  52.365  1.00  0.00     0.000 C 
BRANCH   2   3
ATOM      3  C   UNL     1       2.280  21.791  51.252  1.00  0.00     0.000 C 
BRANCH   3   4
ATOM      4  C   UNL     1       0.938  22.292  51.808  1.00  0.00     0.000 C 
BRANCH   4   5
ATOM      5  C   UNL     1       1.102  23.130  53.084  1.00  0.00     0.000 C 
BRANCH   5   6
ATOM      6  C   UNL     1       0.088  24.285  53.118  1.00  0.00     0.000 C 
BRANCH   6   7
ATOM      7  C   UNL     1       0.429  25.329  54.202  1.00  0.00     0.000 C 
BRANCH   7   8
ATOM      8  C   UNL     1      -0.721  25.589  55.190  1.00  0.00     0.000 C 
BRANCH   8   9
ATOM      9  C   UNL     1      -1.891  24.606  55.018  1.00  0.00     0.000 C 
BRANCH   9  10
ATOM     10  C   UNL     1      -2.103  23.721  56.264  1.00  0.00     0.006 C 
BRANCH  10  11
ATOM     11  C   UNL     1      -1.128  24.031  57.411  1.00  0.00     0.053 C 
BRANCH  11  12
ATOM     12  C   UNL     1      -0.090  22.966  57.577  1.00  0.00     0.041 C 
ATOM     13  O   UNL     1       0.484  22.476  56.570  1.00  0.00    -0.550 OA
ATOM     14  O   UNL     1       0.225  22.494  58.845  1.00  0.00    -0.550 OA
ENDBRANCH  11  12
ENDBRANCH  10  11
ENDBRANCH   9  10
ENDBRANCH   8   9
ENDBRANCH   7   8
ENDBRANCH   6   7
ENDBRANCH   5   6
ENDBRANCH   4   5
ENDBRANCH   3   4
ENDBRANCH   2   3
ENDBRANCH   1   2
BRANCH   1  15
ATOM     15  C   UNL     1       4.523  23.393  51.277  1.00  0.00     0.000 C 
BRANCH  15  16
ATOM     16  C   UNL     1       4.540  24.805  51.891  1.00  0.00     0.000 C 
BRANCH  16  17
ATOM     17  C   UNL     1       4.296  25.951  50.890  1.00  0.00     0.000 C 
BRANCH  17  18
ATOM     18  C   UNL     1       3.273  25.638  49.781  1.00  0.00    -0.000 C 
BRANCH  18  19
ATOM     19  C   UNL     1       1.820  25.671  50.278  1.00  0.00    -0.000 C 
BRANCH  19  20
ATOM     20  C   UNL     1       0.928  24.759  49.428  1.00  0.00    -0.000 C 
BRANCH  20  21
ATOM     21  C   UNL     1       1.616  24.397  48.102  1.00  0.00    -0.000 C 
BRANCH  21  22
ATOM     22  C   UNL     1       0.727  24.669  46.877  1.00  0.00    -0.000 C 
BRANCH  22  23
ATOM     23  C   UNL     1       1.355  24.161  45.567  1.00  0.00    -0.000 C 
BRANCH  23  24
ATOM     24  C   UNL     1       2.477  23.139  45.809  1.00  0.00    -0.000 C 
BRANCH  24  25
ATOM     25  C   UNL     1       3.003  22.515  44.508  1.00  0.00    -0.003 C 
ATOM     26  C   UNL     1       1.894  21.768  43.772  1.00  0.00     0.004 C 
ENDBRANCH  24  25
ENDBRANCH  23  24
ENDBRANCH  22  23
ENDBRANCH  21  22
ENDBRANCH  20  21
ENDBRANCH  19  20
ENDBRANCH  18  19
ENDBRANCH  17  18
ENDBRANCH  16  17
ENDBRANCH  15  16
ENDBRANCH   1  15
TORSDOF 22
ENDMDL
MODEL 4
REMARK VINA RESULT:    -4.750      1.006      2.169
REMARK INTER + INTRA:         -14.083
REMARK INTER:                 -10.759
REMARK INTRA:                  -3.324
REMARK UNBOUND:                -3.224
REMARK SMILES CCCCCCCCCCCCCCCCCCCCCCCC(=O)[O-]
REMARK SMILES IDX 13 1 14 2 15 3 16 4 17 5 18 6 19 7 20 8 21 9 22 10 23 11
REMARK SMILES IDX 24 12 25 13 26 14 12 15 11 16 10 17 9 18 8 19 7 20 6 21 5 22
REMARK SMILES IDX 4 23 3 24 2 25 1 26
REMARK H PARENT
REMARK Flexibility Score: inf
ROOT
ATOM      1  C   UNL     1       6.494  23.908  51.076  1.00  0.00     0.000 C 
ENDROOT
BRANCH   1   2
ATOM      2  C   UNL     1       6.116  25.386  51.272  1.00  0.00     0.000 C 
BRANCH   2   3
ATOM      3  C   UNL     1       4.859  25.782  50.476  1.00  0.00     0.000 C 
BRANCH   3   4
ATOM      4  C   UNL     1       3.754  26.362  51.373  1.00  0.00     0.000 C 
BRANCH   4   5
ATOM      5  C   UNL     1       4.034  26.151  52.868  1.00  0.00     0.000 C 
BRANCH   5   6
ATOM      6  C   UNL     1       2.927  25.310  53.522  1.00  0.00     0.000 C 
BRANCH   6   7
ATOM      7  C   UNL     1       3.315  24.834  54.938  1.00  0.00     0.000 C 
BRANCH   7   8
ATOM      8  C   UNL     1       3.107  23.326  55.160  1.00  0.00     0.000 C 
BRANCH   8   9
ATOM      9  C   UNL     1       1.623  22.938  55.279  1.00  0.00     0.000 C 
BRANCH   9  10
ATOM     10  C   UNL     1       0.845  23.878  56.224  1.00  0.00     0.006 C 
BRANCH  10  11
ATOM     11  C   UNL     1      -0.457  23.266  56.763  1.00  0.00     0.053 C 
BRANCH  11  12
ATOM     12  C   UNL     1      -1.631  24.175  56.579  1.00  0.00     0.041 C 
ATOM     13  O   UNL     1      -1.879  25.071  57.428  1.00  0.00    -0.550 OA
ATOM     14  O   UNL     1      -2.470  24.016  55.484  1.00  0.00    -0.550 OA
ENDBRANCH  11  12
ENDBRANCH  10  11
ENDBRANCH   9  10
ENDBRANCH   8   9
ENDBRANCH   7   8
ENDBRANCH   6   7
ENDBRANCH   5   6
ENDBRANCH   4   5
ENDBRANCH   3   4
ENDBRANCH   2   3
ENDBRANCH   1   2
BRANCH   1  15
ATOM     15  C   UNL     1       5.285  22.982  50.815  1.00  0.00     0.000 C 
BRANCH  15  16
ATOM     16  C   UNL     1       4.587  22.496  52.100  1.00  0.00     0.000 C 
BRANCH  16  17
ATOM     17  C   UNL     1       3.420  21.515  51.873  1.00  0.00     0.000 C 
BRANCH  17  18
ATOM     18  C   UNL     1       2.399  21.955  50.806  1.00  0.00    -0.000 C 
BRANCH  18  19
ATOM     19  C   UNL     1       1.262  22.812  51.381  1.00  0.00    -0.000 C 
BRANCH  19  20
ATOM     20  C   UNL     1       1.064  24.088  50.554  1.00  0.00    -0.000 C 
BRANCH  20  21
ATOM     21  C   UNL     1       1.782  23.984  49.200  1.00  0.00    -0.000 C 
BRANCH  21  22
ATOM     22  C   UNL     1       1.167  24.898  48.128  1.00  0.00    -0.000 C 
BRANCH  22  23
ATOM     23  C   UNL     1       2.002  24.939  46.836  1.00  0.00    -0.000 C 
BRANCH  23  24
ATOM     24  C   UNL     1       1.508  23.935  45.783  1.00  0.00    -0.000 C 
BRANCH  24  25
ATOM     25  C   UNL     1       2.546  22.847  45.467  1.00  0.00    -0.003 C 
ATOM     26  C   UNL     1       2.136  22.039  44.239  1.00  0.00     0.004 C 
ENDBRANCH  24  25
ENDBRANCH  23  24
ENDBRANCH  22  23
ENDBRANCH  21  22
ENDBRANCH  20  21
ENDBRANCH  19  20
ENDBRANCH  18  19
ENDBRANCH  17  18
ENDBRANCH  16  17
ENDBRANCH  15  16
ENDBRANCH   1  15
TORSDOF 22
ENDMDL
MODEL 5
REMARK VINA RESULT:    -4.633      3.768      6.256
REMARK INTER + INTRA:         -13.817
REMARK INTER:                  -9.683
REMARK INTRA:                  -4.134
REMARK UNBOUND:                -3.224
REMARK SMILES CCCCCCCCCCCCCCCCCCCCCCCC(=O)[O-]
REMARK SMILES IDX 13 1 14 2 15 3 16 4 17 5 18 6 19 7 20 8 21 9 22 10 23 11
REMARK SMILES IDX 24 12 25 13 26 14 12 15 11 16 10 17 9 18 8 19 7 20 6 21 5 22
REMARK SMILES IDX 4 23 3 24 2 25 1 26
REMARK H PARENT
REMARK Flexibility Score: inf
ROOT
ATOM      1  C   UNL     1       1.039  25.597  54.930  1.00  0.00     0.000 C 
ENDROOT
BRANCH   1   2
ATOM      2  C   UNL     1      -0.247  25.520  54.090  1.00  0.00     0.000 C 
BRANCH   2   3
ATOM      3  C   UNL     1      -1.320  24.626  54.739  1.00  0.00     0.000 C 
BRANCH   3   4
ATOM      4  C   UNL     1      -2.157  25.380  55.784  1.00  0.00     0.000 C 
BRANCH   4   5
ATOM      5  C   UNL     1      -1.830  24.956  57.223  1.00  0.00     0.000 C 
BRANCH   5   6
ATOM      6  C   UNL     1      -1.438  23.471  57.283  1.00  0.00     0.000 C 
BRANCH   6   7
ATOM      7  C   UNL     1       0.011  23.269  57.776  1.00  0.00     0.000 C 
BRANCH   7   8
ATOM      8  C   UNL     1       0.865  22.398  56.838  1.00  0.00     0.000 C 
BRANCH   8   9
ATOM      9  C   UNL     1       2.196  21.964  57.473  1.00  0.00     0.000 C 
BRANCH   9  10
ATOM     10  C   UNL     1       3.378  22.848  57.024  1.00  0.00     0.006 C 
BRANCH  10  11
ATOM     11  C   UNL     1       4.713  22.471  57.683  1.00  0.00     0.053 C 
BRANCH  11  12
ATOM     12  C   UNL     1       5.580  21.649  56.782  1.00  0.00     0.041 C 
ATOM     13  O   UNL     1       5.236  20.481  56.461  1.00  0.00    -0.550 OA
ATOM     14  O   UNL     1       6.784  22.162  56.317  1.00  0.00    -0.550 OA
ENDBRANCH  11  12
ENDBRANCH  10  11
ENDBRANCH   9  10
ENDBRANCH   8   9
ENDBRANCH   7   8
ENDBRANCH   6   7
ENDBRANCH   5   6
ENDBRANCH   4   5
ENDBRANCH   3   4
ENDBRANCH   2   3
ENDBRANCH   1   2
BRANCH   1  15
ATOM     15  C   UNL     1       2.337  25.572  54.092  1.00  0.00     0.000 C 
BRANCH  15  16
ATOM     16  C   UNL     1       2.228  26.330  52.756  1.00  0.00     0.000 C 
BRANCH  16  17
ATOM     17  C   UNL     1       2.638  25.517  51.513  1.00  0.00     0.000 C 
BRANCH  17  18
ATOM     18  C   UNL     1       1.472  25.090  50.601  1.00  0.00    -0.000 C 
BRANCH  18  19
ATOM     19  C   UNL     1       1.312  23.566  50.504  1.00  0.00    -0.000 C 
BRANCH  19  20
ATOM     20  C   UNL     1       0.627  23.005  51.755  1.00  0.00    -0.000 C 
BRANCH  20  21
ATOM     21  C   UNL     1       1.618  22.204  52.614  1.00  0.00    -0.000 C 
BRANCH  21  22
ATOM     22  C   UNL     1       2.680  21.476  51.774  1.00  0.00    -0.000 C 
BRANCH  22  23
ATOM     23  C   UNL     1       4.097  22.033  51.999  1.00  0.00    -0.000 C 
BRANCH  23  24
ATOM     24  C   UNL     1       4.303  22.557  53.429  1.00  0.00    -0.000 C 
BRANCH  24  25
ATOM     25  C   UNL     1       5.394  23.635  53.515  1.00  0.00    -0.003 C 
ATOM     26  C   UNL     1       6.120  23.787  52.182  1.00  0.00     0.004 C 
ENDBRANCH  24  25
ENDBRANCH  23  24
ENDBRANCH  22  23
ENDBRANCH  21  22
ENDBRANCH  20  21
ENDBRANCH  19  20
ENDBRANCH  18  19
ENDBRANCH  17  18
ENDBRANCH  16  17
ENDBRANCH  15  16
ENDBRANCH   1  15
TORSDOF 22
ENDMDL
MODEL 6
REMARK VINA RESULT:    -4.594      3.418      7.584
REMARK INTER + INTRA:         -13.727
REMARK INTER:                  -9.018
REMARK INTRA:                  -4.708
REMARK UNBOUND:                -3.224
REMARK SMILES CCCCCCCCCCCCCCCCCCCCCCCC(=O)[O-]
REMARK SMILES IDX 13 1 14 2 15 3 16 4 17 5 18 6 19 7 20 8 21 9 22 10 23 11
REMARK SMILES IDX 24 12 25 13 26 14 12 15 11 16 10 17 9 18 8 19 7 20 6 21 5 22
REMARK SMILES IDX 4 23 3 24 2 25 1 26
REMARK H PARENT
REMARK Flexibility Score: inf
ROOT
ATOM      1  C   UNL     1       1.224  23.358  52.390  1.00  0.00     0.000 C 
ENDROOT
BRANCH   1   2
ATOM      2  C   UNL     1       1.858  22.212  53.197  1.00  0.00     0.000 C 
BRANCH   2   3
ATOM      3  C   UNL     1       3.055  21.573  52.469  1.00  0.00     0.000 C 
BRANCH   3   4
ATOM      4  C   UNL     1       3.214  22.095  51.032  1.00  0.00     0.000 C 
BRANCH   4   5
ATOM      5  C   UNL     1       4.593  22.718  50.778  1.00  0.00     0.000 C 
BRANCH   5   6
ATOM      6  C   UNL     1       5.331  22.983  52.100  1.00  0.00     0.000 C 
BRANCH   6   7
ATOM      7  C   UNL     1       6.275  24.200  52.009  1.00  0.00     0.000 C 
BRANCH   7   8
ATOM      8  C   UNL     1       5.574  25.489  51.546  1.00  0.00     0.000 C 
BRANCH   8   9
ATOM      9  C   UNL     1       4.435  25.921  52.485  1.00  0.00     0.000 C 
BRANCH   9  10
ATOM     10  C   UNL     1       3.167  26.344  51.715  1.00  0.00     0.006 C 
BRANCH  10  11
ATOM     11  C   UNL     1       3.249  26.079  50.204  1.00  0.00     0.053 C 
BRANCH  11  12
ATOM     12  C   UNL     1       1.964  25.548  49.650  1.00  0.00     0.041 C 
ATOM     13  O   UNL     1       1.975  24.626  48.794  1.00  0.00    -0.550 OA
ATOM     14  O   UNL     1       0.753  26.092  50.059  1.00  0.00    -0.550 OA
ENDBRANCH  11  12
ENDBRANCH  10  11
ENDBRANCH   9  10
ENDBRANCH   8   9
ENDBRANCH   7   8
ENDBRANCH   6   7
ENDBRANCH   5   6
ENDBRANCH   4   5
ENDBRANCH   3   4
ENDBRANCH   2   3
ENDBRANCH   1   2
BRANCH   1  15
ATOM     15  C   UNL     1      -0.006  23.999  53.072  1.00  0.00     0.000 C 
BRANCH  15  16
ATOM     16  C   UNL     1       0.341  25.189  53.985  1.00  0.00     0.000 C 
BRANCH  16  17
ATOM     17  C   UNL     1      -0.755  25.568  55.001  1.00  0.00     0.000 C 
BRANCH  17  18
ATOM     18  C   UNL     1      -1.958  24.606  55.049  1.00  0.00    -0.000 C 
BRANCH  18  19
ATOM     19  C   UNL     1      -2.009  23.774  56.338  1.00  0.00    -0.000 C 
BRANCH  19  20
ATOM     20  C   UNL     1      -0.977  24.273  57.356  1.00  0.00    -0.000 C 
BRANCH  20  21
ATOM     21  C   UNL     1      -0.081  23.123  57.842  1.00  0.00    -0.000 C 
BRANCH  21  22
ATOM     22  C   UNL     1       0.711  22.462  56.701  1.00  0.00    -0.000 C 
BRANCH  22  23
ATOM     23  C   UNL     1       2.230  22.658  56.845  1.00  0.00    -0.000 C 
BRANCH  23  24
ATOM     24  C   UNL     1       2.690  24.052  56.391  1.00  0.00    -0.000 C 
BRANCH  24  25
ATOM     25  C   UNL     1       4.036  24.021  55.651  1.00  0.00    -0.003 C 
ATOM     26  C   UNL     1       4.666  22.633  55.719  1.00  0.00     0.004 C 
ENDBRANCH  24  25
ENDBRANCH  23  24
ENDBRANCH  22  23
ENDBRANCH  21  22
ENDBRANCH  20  21
ENDBRANCH  19  20
ENDBRANCH  18  19
ENDBRANCH  17  18
ENDBRANCH  16  17
ENDBRANCH  15  16
ENDBRANCH   1  15
TORSDOF 22
ENDMDL
MODEL 7
REMARK VINA RESULT:    -4.582      4.068      6.609
REMARK INTER + INTRA:         -13.700
REMARK INTER:                  -9.290
REMARK INTRA:                  -4.410
REMARK UNBOUND:                -3.224
REMARK SMILES CCCCCCCCCCCCCCCCCCCCCCCC(=O)[O-]
REMARK SMILES IDX 13 1 14 2 15 3 16 4 17 5 18 6 19 7 20 8 21 9 22 10 23 11
REMARK SMILES IDX 24 12 25 13 26 14 12 15 11 16 10 17 9 18 8 19 7 20 6 21 5 22
REMARK SMILES IDX 4 23 3 24 2 25 1 26
REMARK H PARENT
REMARK Flexibility Score: inf
ROOT
ATOM      1  C   UNL     1       4.710  23.278  54.460  1.00  0.00     0.000 C 
ENDROOT
BRANCH   1   2
ATOM      2  C   UNL     1       4.189  24.454  55.305  1.00  0.00     0.000 C 
BRANCH   2   3
ATOM      3  C   UNL     1       2.883  24.112  56.045  1.00  0.00     0.000 C 
BRANCH   3   4
ATOM      4  C   UNL     1       2.309  22.750  55.622  1.00  0.00     0.000 C 
BRANCH   4   5
ATOM      5  C   UNL     1       0.990  22.417  56.335  1.00  0.00     0.000 C 
BRANCH   5   6
ATOM      6  C   UNL     1       0.730  23.391  57.495  1.00  0.00     0.000 C 
BRANCH   6   7
ATOM      7  C   UNL     1       0.478  22.656  58.829  1.00  0.00     0.000 C 
BRANCH   7   8
ATOM      8  C   UNL     1       1.733  22.532  59.710  1.00  0.00     0.000 C 
BRANCH   8   9
ATOM      9  C   UNL     1       2.204  21.078  59.880  1.00  0.00     0.000 C 
BRANCH   9  10
ATOM     10  C   UNL     1       3.703  20.905  59.557  1.00  0.00     0.006 C 
BRANCH  10  11
ATOM     11  C   UNL     1       4.301  22.079  58.767  1.00  0.00     0.053 C 
BRANCH  11  12
ATOM     12  C   UNL     1       5.268  21.625  57.719  1.00  0.00     0.041 C 
ATOM     13  O   UNL     1       4.945  20.719  56.908  1.00  0.00    -0.550 OA
ATOM     14  O   UNL     1       6.538  22.184  57.656  1.00  0.00    -0.550 OA
ENDBRANCH  11  12
ENDBRANCH  10  11
ENDBRANCH   9  10
ENDBRANCH   8   9
ENDBRANCH   7   8
ENDBRANCH   6   7
ENDBRANCH   5   6
ENDBRANCH   4   5
ENDBRANCH   3   4
ENDBRANCH   2   3
ENDBRANCH   1   2
BRANCH   1  15
ATOM     15  C   UNL     1       5.423  23.710  53.158  1.00  0.00     0.000 C 
BRANCH  15  16
ATOM     16  C   UNL     1       4.849  23.051  51.890  1.00  0.00     0.000 C 
BRANCH  16  17
ATOM     17  C   UNL     1       3.838  21.916  52.150  1.00  0.00     0.000 C 
BRANCH  17  18
ATOM     18  C   UNL     1       2.525  22.020  51.350  1.00  0.00    -0.000 C 
BRANCH  18  19
ATOM     19  C   UNL     1       1.290  22.198  52.244  1.00  0.00    -0.000 C 
BRANCH  19  20
ATOM     20  C   UNL     1       0.303  23.195  51.625  1.00  0.00    -0.000 C 
BRANCH  20  21
ATOM     21  C   UNL     1       0.906  24.607  51.575  1.00  0.00    -0.000 C 
BRANCH  21  22
ATOM     22  C   UNL     1       1.245  25.159  52.970  1.00  0.00    -0.000 C 
BRANCH  22  23
ATOM     23  C   UNL     1       0.192  26.157  53.482  1.00  0.00    -0.000 C 
BRANCH  23  24
ATOM     24  C   UNL     1      -0.420  25.730  54.826  1.00  0.00    -0.000 C 
BRANCH  24  25
ATOM     25  C   UNL     1      -1.445  24.596  54.678  1.00  0.00    -0.003 C 
ATOM     26  C   UNL     1      -2.340  24.502  55.910  1.00  0.00     0.004 C 
ENDBRANCH  24  25
ENDBRANCH  23  24
ENDBRANCH  22  23
ENDBRANCH  21  22
ENDBRANCH  20  21
ENDBRANCH  19  20
ENDBRANCH  18  19
ENDBRANCH  17  18
ENDBRANCH  16  17
ENDBRANCH  15  16
ENDBRANCH   1  15
TORSDOF 22
ENDMDL
MODEL 8
REMARK VINA RESULT:    -4.581      2.953      7.447
REMARK INTER + INTRA:         -13.696
REMARK INTER:                  -9.001
REMARK INTRA:                  -4.695
REMARK UNBOUND:                -3.224
REMARK SMILES CCCCCCCCCCCCCCCCCCCCCCCC(=O)[O-]
REMARK SMILES IDX 13 1 14 2 15 3 16 4 17 5 18 6 19 7 20 8 21 9 22 10 23 11
REMARK SMILES IDX 24 12 25 13 26 14 12 15 11 16 10 17 9 18 8 19 7 20 6 21 5 22
REMARK SMILES IDX 4 23 3 24 2 25 1 26
REMARK H PARENT
REMARK Flexibility Score: inf
ROOT
ATOM      1  C   UNL     1       4.306  22.572  53.138  1.00  0.00     0.000 C 
ENDROOT
BRANCH   1   2
ATOM      2  C   UNL     1       4.734  22.662  51.663  1.00  0.00     0.000 C 
BRANCH   2   3
ATOM      3  C   UNL     1       3.533  22.645  50.700  1.00  0.00     0.000 C 
BRANCH   3   4
ATOM      4  C   UNL     1       2.314  21.922  51.295  1.00  0.00     0.000 C 
BRANCH   4   5
ATOM      5  C   UNL     1       1.067  22.815  51.355  1.00  0.00     0.000 C 
BRANCH   5   6
ATOM      6  C   UNL     1       1.247  24.072  50.488  1.00  0.00     0.000 C 
BRANCH   6   7
ATOM      7  C   UNL     1       1.030  25.371  51.292  1.00  0.00     0.000 C 
BRANCH   7   8
ATOM      8  C   UNL     1       0.335  25.149  52.646  1.00  0.00     0.000 C 
BRANCH   8   9
ATOM      9  C   UNL     1       0.276  26.424  53.505  1.00  0.00     0.000 C 
BRANCH   9  10
ATOM     10  C   UNL     1      -0.664  26.274  54.718  1.00  0.00     0.006 C 
BRANCH  10  11
ATOM     11  C   UNL     1      -1.521  24.999  54.676  1.00  0.00     0.053 C 
BRANCH  11  12
ATOM     12  C   UNL     1      -2.183  24.716  55.988  1.00  0.00     0.041 C 
ATOM     13  O   UNL     1      -2.519  23.541  56.289  1.00  0.00    -0.550 OA
ATOM     14  O   UNL     1      -2.455  25.755  56.868  1.00  0.00    -0.550 OA
ENDBRANCH  11  12
ENDBRANCH  10  11
ENDBRANCH   9  10
ENDBRANCH   8   9
ENDBRANCH   7   8
ENDBRANCH   6   7
ENDBRANCH   5   6
ENDBRANCH   4   5
ENDBRANCH   3   4
ENDBRANCH   2   3
ENDBRANCH   1   2
BRANCH   1  15
ATOM     15  C   UNL     1       4.194  23.943  53.842  1.00  0.00     0.000 C 
BRANCH  15  16
ATOM     16  C   UNL     1       2.977  24.061  54.779  1.00  0.00     0.000 C 
BRANCH  16  17
ATOM     17  C   UNL     1       2.107  22.793  54.874  1.00  0.00     0.000 C 
BRANCH  17  18
ATOM     18  C   UNL     1       1.091  22.787  56.032  1.00  0.00    -0.000 C 
BRANCH  18  19
ATOM     19  C   UNL     1       1.264  23.975  56.990  1.00  0.00    -0.000 C 
BRANCH  19  20
ATOM     20  C   UNL     1       0.587  23.697  58.337  1.00  0.00    -0.000 C 
BRANCH  20  21
ATOM     21  C   UNL     1       1.038  22.345  58.912  1.00  0.00    -0.000 C 
BRANCH  21  22
ATOM     22  C   UNL     1       2.322  22.454  59.751  1.00  0.00    -0.000 C 
BRANCH  22  23
ATOM     23  C   UNL     1       3.565  21.951  58.996  1.00  0.00    -0.000 C 
BRANCH  23  24
ATOM     24  C   UNL     1       4.440  23.100  58.470  1.00  0.00    -0.000 C 
BRANCH  24  25
ATOM     25  C   UNL     1       5.345  22.672  57.304  1.00  0.00    -0.003 C 
ATOM     26  C   UNL     1       4.897  21.333  56.726  1.00  0.00     0.004 C 
ENDBRANCH  24  25
ENDBRANCH  23  24
ENDBRANCH  22  23
ENDBRANCH  21  22
ENDBRANCH  20  21
ENDBRANCH  19  20
ENDBRANCH  18  19
ENDBRANCH  17  18
ENDBRANCH  16  17
ENDBRANCH  15  16
ENDBRANCH   1  15
TORSDOF 22
ENDMDL
MODEL 9
REMARK VINA RESULT:    -4.535      4.210      7.975
REMARK INTER + INTRA:         -13.591
REMARK INTER:                  -9.391
REMARK INTRA:                  -4.201
REMARK UNBOUND:                -3.224
REMARK SMILES CCCCCCCCCCCCCCCCCCCCCCCC(=O)[O-]
REMARK SMILES IDX 13 1 14 2 15 3 16 4 17 5 18 6 19 7 20 8 21 9 22 10 23 11
REMARK SMILES IDX 24 12 25 13 26 14 12 15 11 16 10 17 9 18 8 19 7 20 6 21 5 22
REMARK SMILES IDX 4 23 3 24 2 25 1 26
REMARK H PARENT
REMARK Flexibility Score: inf
ROOT
ATOM      1  C   UNL     1       1.222  22.890  53.178  1.00  0.00     0.000 C 
ENDROOT
BRANCH   1   2
ATOM      2  C   UNL     1       1.322  22.237  51.788  1.00  0.00     0.000 C 
BRANCH   2   3
ATOM      3  C   UNL     1       2.774  21.910  51.396  1.00  0.00     0.000 C 
BRANCH   3   4
ATOM      4  C   UNL     1       3.591  23.168  51.063  1.00  0.00     0.000 C 
BRANCH   4   5
ATOM      5  C   UNL     1       5.099  22.965  51.260  1.00  0.00     0.000 C 
BRANCH   5   6
ATOM      6  C   UNL     1       5.501  23.209  52.724  1.00  0.00     0.000 C 
BRANCH   6   7
ATOM      7  C   UNL     1       4.654  24.316  53.385  1.00  0.00     0.000 C 
BRANCH   7   8
ATOM      8  C   UNL     1       4.375  24.069  54.878  1.00  0.00     0.000 C 
BRANCH   8   9
ATOM      9  C   UNL     1       4.269  22.575  55.227  1.00  0.00     0.000 C 
BRANCH   9  10
ATOM     10  C   UNL     1       4.915  22.242  56.587  1.00  0.00     0.006 C 
BRANCH  10  11
ATOM     11  C   UNL     1       6.249  21.490  56.466  1.00  0.00     0.053 C 
BRANCH  11  12
ATOM     12  C   UNL     1       6.368  20.379  57.462  1.00  0.00     0.041 C 
ATOM     13  O   UNL     1       7.449  20.194  58.080  1.00  0.00    -0.550 OA
ATOM     14  O   UNL     1       5.292  19.531  57.689  1.00  0.00    -0.550 OA
ENDBRANCH  11  12
ENDBRANCH  10  11
ENDBRANCH   9  10
ENDBRANCH   8   9
ENDBRANCH   7   8
ENDBRANCH   6   7
ENDBRANCH   5   6
ENDBRANCH   4   5
ENDBRANCH   3   4
ENDBRANCH   2   3
ENDBRANCH   1   2
BRANCH   1  15
ATOM     15  C   UNL     1       0.486  24.249  53.180  1.00  0.00     0.000 C 
BRANCH  15  16
ATOM     16  C   UNL     1       1.041  25.254  54.206  1.00  0.00     0.000 C 
BRANCH  16  17
ATOM     17  C   UNL     1      -0.026  26.105  54.922  1.00  0.00     0.000 C 
BRANCH  17  18
ATOM     18  C   UNL     1      -1.460  25.546  54.851  1.00  0.00    -0.000 C 
BRANCH  18  19
ATOM     19  C   UNL     1      -2.037  25.195  56.229  1.00  0.00    -0.000 C 
BRANCH  19  20
ATOM     20  C   UNL     1      -2.066  23.677  56.441  1.00  0.00    -0.000 C 
BRANCH  20  21
ATOM     21  C   UNL     1      -1.015  23.245  57.476  1.00  0.00    -0.000 C 
BRANCH  21  22
ATOM     22  C   UNL     1       0.305  22.793  56.830  1.00  0.00    -0.000 C 
BRANCH  22  23
ATOM     23  C   UNL     1       1.337  22.315  57.867  1.00  0.00    -0.000 C 
BRANCH  23  24
ATOM     24  C   UNL     1       2.013  23.481  58.606  1.00  0.00    -0.000 C 
BRANCH  24  25
ATOM     25  C   UNL     1       2.157  24.735  57.731  1.00  0.00    -0.003 C 
ATOM     26  C   UNL     1       1.479  25.938  58.382  1.00  0.00     0.004 C 
ENDBRANCH  24  25
ENDBRANCH  23  24
ENDBRANCH  22  23
ENDBRANCH  21  22
ENDBRANCH  20  21
ENDBRANCH  19  20
ENDBRANCH  18  19
ENDBRANCH  17  18
ENDBRANCH  16  17
ENDBRANCH  15  16
ENDBRANCH   1  15
TORSDOF 22
ENDMDL
