MODEL 1
REMARK VINA RESULT:    -4.534      0.000      0.000
REMARK INTER + INTRA:          -5.927
REMARK INTER:                  -5.594
REMARK INTRA:                  -0.333
REMARK UNBOUND:                -0.333
REMARK SMILES CCOC(=O)c1ccc(O)c(O)c1
REMARK SMILES IDX 4 1 5 2 3 3 2 4 1 5 6 6 13 7 7 8 11 9 8 10 9 11 12 12 10 14
REMARK H PARENT 12 13 10 15
REMARK Flexibility Score: inf
ROOT
ATOM      1  C   UNL     1      15.541  16.972  12.706  1.00  0.00     0.338 C 
ATOM      2  O   UNL     1      16.408  16.699  11.831  1.00  0.00    -0.246 OA
ENDROOT
BRANCH   1   3
ATOM      3  O   UNL     1      15.937  17.396  13.980  1.00  0.00    -0.462 OA
BRANCH   3   4
ATOM      4  C   UNL     1      15.542  16.745  15.186  1.00  0.00     0.230 C 
ATOM      5  C   UNL     1      16.102  15.329  15.241  1.00  0.00     0.049 C 
ENDBRANCH   3   4
ENDBRANCH   1   3
BRANCH   1   6
ATOM      6  C   UNL     1      14.101  16.850  12.386  1.00  0.00     0.064 A 
ATOM      7  C   UNL     1      13.510  15.583  12.243  1.00  0.00     0.065 A 
ATOM      8  C   UNL     1      13.303  17.997  12.221  1.00  0.00     0.020 A 
ATOM      9  C   UNL     1      12.146  15.461  11.939  1.00  0.00     0.158 A 
ATOM     10  C   UNL     1      11.944  17.877  11.919  1.00  0.00     0.051 A 
ATOM     11  C   UNL     1      11.360  16.614  11.777  1.00  0.00     0.157 A 
BRANCH   9  12
ATOM     12  O   UNL     1      11.570  14.200  11.799  1.00  0.00    -0.504 OA
ATOM     13  H   UNL     1      12.133  13.372  11.643  1.00  0.00     0.293 HD
ENDBRANCH   9  12
BRANCH  11  14
ATOM     14  O   UNL     1      10.002  16.526  11.475  1.00  0.00    -0.504 OA
ATOM     15  H   UNL     1       9.640  16.752  10.556  1.00  0.00     0.293 HD
ENDBRANCH  11  14
ENDBRANCH   1   6
TORSDOF 5
ENDMDL
MODEL 2
REMARK VINA RESULT:    -4.469      3.258      4.253
REMARK INTER + INTRA:          -5.848
REMARK INTER:                  -5.578
REMARK INTRA:                  -0.270
REMARK UNBOUND:                -0.333
REMARK SMILES CCOC(=O)c1ccc(O)c(O)c1
REMARK SMILES IDX 4 1 5 2 3 3 2 4 1 5 6 6 13 7 7 8 11 9 8 10 9 11 12 12 10 14
REMARK H PARENT 12 13 10 15
REMARK Flexibility Score: inf
ROOT
ATOM      1  C   UNL     1      14.667  16.771   8.206  1.00  0.00     0.338 C 
ATOM      2  O   UNL     1      14.601  17.335   7.080  1.00  0.00    -0.246 OA
ENDROOT
BRANCH   1   3
ATOM      3  O   UNL     1      15.777  15.982   8.532  1.00  0.00    -0.462 OA
BRANCH   3   4
ATOM      4  C   UNL     1      17.121  16.345   8.219  1.00  0.00     0.230 C 
ATOM      5  C   UNL     1      17.522  17.614   8.961  1.00  0.00     0.049 C 
ENDBRANCH   3   4
ENDBRANCH   1   3
BRANCH   1   6
ATOM      6  C   UNL     1      13.575  16.947   9.190  1.00  0.00     0.064 A 
ATOM      7  C   UNL     1      13.871  17.204  10.540  1.00  0.00     0.065 A 
ATOM      8  C   UNL     1      12.229  16.860   8.791  1.00  0.00     0.020 A 
ATOM      9  C   UNL     1      12.841  17.371  11.477  1.00  0.00     0.158 A 
ATOM     10  C   UNL     1      11.202  17.027   9.724  1.00  0.00     0.051 A 
ATOM     11  C   UNL     1      11.501  17.282  11.066  1.00  0.00     0.157 A 
BRANCH   9  12
ATOM     12  O   UNL     1      13.144  17.625  12.814  1.00  0.00    -0.504 OA
ATOM     13  H   UNL     1      13.820  17.065  13.321  1.00  0.00     0.293 HD
ENDBRANCH   9  12
BRANCH  11  14
ATOM     14  O   UNL     1      10.455  17.444  11.973  1.00  0.00    -0.504 OA
ATOM     15  H   UNL     1      10.575  17.286  12.967  1.00  0.00     0.293 HD
ENDBRANCH  11  14
ENDBRANCH   1   6
TORSDOF 5
ENDMDL
MODEL 3
REMARK VINA RESULT:    -4.438      1.561      2.681
REMARK INTER + INTRA:          -5.808
REMARK INTER:                  -5.483
REMARK INTRA:                  -0.325
REMARK UNBOUND:                -0.333
REMARK SMILES CCOC(=O)c1ccc(O)c(O)c1
REMARK SMILES IDX 4 1 5 2 3 3 2 4 1 5 6 6 13 7 7 8 11 9 8 10 9 11 12 12 10 14
REMARK H PARENT 12 13 10 15
REMARK Flexibility Score: inf
ROOT
ATOM      1  C   UNL     1      15.642  17.052  11.988  1.00  0.00     0.338 C 
ATOM      2  O   UNL     1      16.272  16.732  13.033  1.00  0.00    -0.246 OA
ENDROOT
BRANCH   1   3
ATOM      3  O   UNL     1      16.337  17.496  10.856  1.00  0.00    -0.462 OA
BRANCH   3   4
ATOM      4  C   UNL     1      16.418  16.753   9.641  1.00  0.00     0.230 C 
ATOM      5  C   UNL     1      15.580  17.410   8.552  1.00  0.00     0.049 C 
ENDBRANCH   3   4
ENDBRANCH   1   3
BRANCH   1   6
ATOM      6  C   UNL     1      14.165  16.952  11.952  1.00  0.00     0.064 A 
ATOM      7  C   UNL     1      13.539  15.693  11.955  1.00  0.00     0.065 A 
ATOM      8  C   UNL     1      13.368  18.110  11.914  1.00  0.00     0.020 A 
ATOM      9  C   UNL     1      12.140  15.592  11.921  1.00  0.00     0.158 A 
ATOM     10  C   UNL     1      11.975  18.010  11.881  1.00  0.00     0.051 A 
ATOM     11  C   UNL     1      11.356  16.757  11.884  1.00  0.00     0.157 A 
BRANCH   9  12
ATOM     12  O   UNL     1      11.529  14.340  11.924  1.00  0.00    -0.504 OA
ATOM     13  H   UNL     1      11.038  13.986  11.111  1.00  0.00     0.293 HD
ENDBRANCH   9  12
BRANCH  11  14
ATOM     14  O   UNL     1       9.964  16.689  11.849  1.00  0.00    -0.504 OA
ATOM     15  H   UNL     1       9.406  17.353  11.326  1.00  0.00     0.293 HD
ENDBRANCH  11  14
ENDBRANCH   1   6
TORSDOF 5
ENDMDL
MODEL 4
REMARK VINA RESULT:    -4.430      2.791      3.934
REMARK INTER + INTRA:          -5.799
REMARK INTER:                  -5.515
REMARK INTRA:                  -0.284
REMARK UNBOUND:                -0.333
REMARK SMILES CCOC(=O)c1ccc(O)c(O)c1
REMARK SMILES IDX 4 1 5 2 3 3 2 4 1 5 6 6 13 7 7 8 11 9 8 10 9 11 12 12 10 14
REMARK H PARENT 12 13 10 15
REMARK Flexibility Score: inf
ROOT
ATOM      1  C   UNL     1      15.154  15.404  10.028  1.00  0.00     0.338 C 
ATOM      2  O   UNL     1      15.481  14.204   9.812  1.00  0.00    -0.246 OA
ENDROOT
BRANCH   1   3
ATOM      3  O   UNL     1      16.081  16.433   9.824  1.00  0.00    -0.462 OA
BRANCH   3   4
ATOM      4  C   UNL     1      16.789  16.624   8.600  1.00  0.00     0.230 C 
ATOM      5  C   UNL     1      15.834  17.032   7.485  1.00  0.00     0.049 C 
ENDBRANCH   3   4
ENDBRANCH   1   3
BRANCH   1   6
ATOM      6  C   UNL     1      13.786  15.727  10.492  1.00  0.00     0.064 A 
ATOM      7  C   UNL     1      13.063  16.774   9.893  1.00  0.00     0.065 A 
ATOM      8  C   UNL     1      13.190  14.996  11.535  1.00  0.00     0.020 A 
ATOM      9  C   UNL     1      11.766  17.085  10.329  1.00  0.00     0.158 A 
ATOM     10  C   UNL     1      11.899  15.305  11.969  1.00  0.00     0.051 A 
ATOM     11  C   UNL     1      11.182  16.347  11.371  1.00  0.00     0.157 A 
BRANCH   9  12
ATOM     12  O   UNL     1      11.057  18.125   9.729  1.00  0.00    -0.504 OA
ATOM     13  H   UNL     1      10.885  18.999  10.213  1.00  0.00     0.293 HD
ENDBRANCH   9  12
BRANCH  11  14
ATOM     14  O   UNL     1       9.896  16.633  11.826  1.00  0.00    -0.504 OA
ATOM     15  H   UNL     1       9.292  15.919  12.218  1.00  0.00     0.293 HD
ENDBRANCH  11  14
ENDBRANCH   1   6
TORSDOF 5
ENDMDL
MODEL 5
REMARK VINA RESULT:    -4.317      4.034      4.666
REMARK INTER + INTRA:          -5.659
REMARK INTER:                  -5.460
REMARK INTRA:                  -0.199
REMARK UNBOUND:                -0.333
REMARK SMILES CCOC(=O)c1ccc(O)c(O)c1
REMARK SMILES IDX 4 1 5 2 3 3 2 4 1 5 6 6 13 7 7 8 11 9 8 10 9 11 12 12 10 14
REMARK H PARENT 12 13 10 15
REMARK Flexibility Score: inf
ROOT
ATOM      1  C   UNL     1      17.984  16.239   9.190  1.00  0.00     0.338 C 
ATOM      2  O   UNL     1      18.436  15.132   8.789  1.00  0.00    -0.246 OA
ENDROOT
BRANCH   1   3
ATOM      3  O   UNL     1      18.797  17.103   9.933  1.00  0.00    -0.462 OA
BRANCH   3   4
ATOM      4  C   UNL     1      19.314  16.782  11.224  1.00  0.00     0.230 C 
ATOM      5  C   UNL     1      19.409  18.031  12.091  1.00  0.00     0.049 C 
ENDBRANCH   3   4
ENDBRANCH   1   3
BRANCH   1   6
ATOM      6  C   UNL     1      16.593  16.632   8.870  1.00  0.00     0.064 A 
ATOM      7  C   UNL     1      15.700  16.983   9.897  1.00  0.00     0.065 A 
ATOM      8  C   UNL     1      16.143  16.659   7.537  1.00  0.00     0.020 A 
ATOM      9  C   UNL     1      14.381  17.356   9.600  1.00  0.00     0.158 A 
ATOM     10  C   UNL     1      14.830  17.031   7.240  1.00  0.00     0.051 A 
ATOM     11  C   UNL     1      13.945  17.380   8.265  1.00  0.00     0.157 A 
BRANCH   9  12
ATOM     12  O   UNL     1      13.503  17.703  10.626  1.00  0.00    -0.504 OA
ATOM     13  H   UNL     1      13.577  18.589  11.113  1.00  0.00     0.293 HD
ENDBRANCH   9  12
BRANCH  11  14
ATOM     14  O   UNL     1      12.640  17.746   7.938  1.00  0.00    -0.504 OA
ATOM     15  H   UNL     1      12.174  18.530   8.379  1.00  0.00     0.293 HD
ENDBRANCH  11  14
ENDBRANCH   1   6
TORSDOF 5
ENDMDL
MODEL 6
REMARK VINA RESULT:    -4.310      3.192      5.424
REMARK INTER + INTRA:          -5.651
REMARK INTER:                  -5.338
REMARK INTRA:                  -0.313
REMARK UNBOUND:                -0.333
REMARK SMILES CCOC(=O)c1ccc(O)c(O)c1
REMARK SMILES IDX 4 1 5 2 3 3 2 4 1 5 6 6 13 7 7 8 11 9 8 10 9 11 12 12 10 14
REMARK H PARENT 12 13 10 15
REMARK Flexibility Score: inf
ROOT
ATOM      1  C   UNL     1      12.077  17.152   9.647  1.00  0.00     0.338 C 
ATOM      2  O   UNL     1      11.133  16.857   8.864  1.00  0.00    -0.246 OA
ENDROOT
BRANCH   1   3
ATOM      3  O   UNL     1      11.809  17.454  10.988  1.00  0.00    -0.462 OA
BRANCH   3   4
ATOM      4  C   UNL     1      11.163  16.552  11.885  1.00  0.00     0.230 C 
ATOM      5  C   UNL     1      11.940  15.245  11.986  1.00  0.00     0.049 C 
ENDBRANCH   3   4
ENDBRANCH   1   3
BRANCH   1   6
ATOM      6  C   UNL     1      13.472  17.172   9.154  1.00  0.00     0.064 A 
ATOM      7  C   UNL     1      14.544  17.260  10.059  1.00  0.00     0.065 A 
ATOM      8  C   UNL     1      13.747  17.104   7.776  1.00  0.00     0.020 A 
ATOM      9  C   UNL     1      15.869  17.280   9.597  1.00  0.00     0.158 A 
ATOM     10  C   UNL     1      15.065  17.123   7.315  1.00  0.00     0.051 A 
ATOM     11  C   UNL     1      16.129  17.211   8.218  1.00  0.00     0.157 A 
BRANCH   9  12
ATOM     12  O   UNL     1      16.925  17.369  10.502  1.00  0.00    -0.504 OA
ATOM     13  H   UNL     1      17.782  17.858  10.273  1.00  0.00     0.293 HD
ENDBRANCH   9  12
BRANCH  11  14
ATOM     14  O   UNL     1      17.434  17.229   7.728  1.00  0.00    -0.504 OA
ATOM     15  H   UNL     1      17.744  17.912   7.046  1.00  0.00     0.293 HD
ENDBRANCH  11  14
ENDBRANCH   1   6
TORSDOF 5
ENDMDL
MODEL 7
REMARK VINA RESULT:    -4.247      2.304      3.393
REMARK INTER + INTRA:          -5.574
REMARK INTER:                  -5.311
REMARK INTRA:                  -0.263
REMARK UNBOUND:                -0.333
REMARK SMILES CCOC(=O)c1ccc(O)c(O)c1
REMARK SMILES IDX 4 1 5 2 3 3 2 4 1 5 6 6 13 7 7 8 11 9 8 10 9 11 12 12 10 14
REMARK H PARENT 12 13 10 15
REMARK Flexibility Score: inf
ROOT
ATOM      1  C   UNL     1      15.567  17.117  11.565  1.00  0.00     0.338 C 
ATOM      2  O   UNL     1      15.766  17.491  12.754  1.00  0.00    -0.246 OA
ENDROOT
BRANCH   1   3
ATOM      3  O   UNL     1      16.622  16.596  10.806  1.00  0.00    -0.462 OA
BRANCH   3   4
ATOM      4  C   UNL     1      17.644  17.402  10.221  1.00  0.00     0.230 C 
ATOM      5  C   UNL     1      17.541  17.381   8.702  1.00  0.00     0.049 C 
ENDBRANCH   3   4
ENDBRANCH   1   3
BRANCH   1   6
ATOM      6  C   UNL     1      14.215  17.223  10.971  1.00  0.00     0.064 A 
ATOM      7  C   UNL     1      13.121  17.614  11.763  1.00  0.00     0.065 A 
ATOM      8  C   UNL     1      14.004  16.934   9.611  1.00  0.00     0.020 A 
ATOM      9  C   UNL     1      11.837  17.715  11.205  1.00  0.00     0.158 A 
ATOM     10  C   UNL     1      12.726  17.035   9.055  1.00  0.00     0.051 A 
ATOM     11  C   UNL     1      11.640  17.424   9.845  1.00  0.00     0.157 A 
BRANCH   9  12
ATOM     12  O   UNL     1      10.758  18.103  11.998  1.00  0.00    -0.504 OA
ATOM     13  H   UNL     1       9.889  17.582  12.006  1.00  0.00     0.293 HD
ENDBRANCH   9  12
BRANCH  11  14
ATOM     14  O   UNL     1      10.377  17.515   9.263  1.00  0.00    -0.504 OA
ATOM     15  H   UNL     1       9.532  17.279   9.770  1.00  0.00     0.293 HD
ENDBRANCH  11  14
ENDBRANCH   1   6
TORSDOF 5
ENDMDL
MODEL 8
REMARK VINA RESULT:    -4.232      3.795      6.063
REMARK INTER + INTRA:          -5.554
REMARK INTER:                  -5.430
REMARK INTRA:                  -0.124
REMARK UNBOUND:                -0.333
REMARK SMILES CCOC(=O)c1ccc(O)c(O)c1
REMARK SMILES IDX 4 1 5 2 3 3 2 4 1 5 6 6 13 7 7 8 11 9 8 10 9 11 12 12 10 14
REMARK H PARENT 12 13 10 15
REMARK Flexibility Score: inf
ROOT
ATOM      1  C   UNL     1      13.625  16.977   8.952  1.00  0.00     0.338 C 
ATOM      2  O   UNL     1      13.003  17.002   7.855  1.00  0.00    -0.246 OA
ENDROOT
BRANCH   1   3
ATOM      3  O   UNL     1      12.921  16.844  10.156  1.00  0.00    -0.462 OA
BRANCH   3   4
ATOM      4  C   UNL     1      11.567  17.259  10.326  1.00  0.00     0.230 C 
ATOM      5  C   UNL     1      10.965  16.631  11.577  1.00  0.00     0.049 C 
ENDBRANCH   3   4
ENDBRANCH   1   3
BRANCH   1   6
ATOM      6  C   UNL     1      15.101  17.081   8.971  1.00  0.00     0.064 A 
ATOM      7  C   UNL     1      15.883  16.235   8.166  1.00  0.00     0.065 A 
ATOM      8  C   UNL     1      15.743  18.025   9.793  1.00  0.00     0.020 A 
ATOM      9  C   UNL     1      17.283  16.329   8.179  1.00  0.00     0.158 A 
ATOM     10  C   UNL     1      17.137  18.120   9.806  1.00  0.00     0.051 A 
ATOM     11  C   UNL     1      17.911  17.276   9.004  1.00  0.00     0.157 A 
BRANCH   9  12
ATOM     12  O   UNL     1      18.049  15.485   7.377  1.00  0.00    -0.504 OA
ATOM     13  H   UNL     1      18.620  14.747   7.774  1.00  0.00     0.293 HD
ENDBRANCH   9  12
BRANCH  11  14
ATOM     14  O   UNL     1      19.300  17.394   9.039  1.00  0.00    -0.504 OA
ATOM     15  H   UNL     1      19.906  16.788   8.497  1.00  0.00     0.293 HD
ENDBRANCH  11  14
ENDBRANCH   1   6
TORSDOF 5
ENDMDL
MODEL 9
REMARK VINA RESULT:    -4.208      2.433      3.282
REMARK INTER + INTRA:          -5.525
REMARK INTER:                  -5.285
REMARK INTRA:                  -0.241
REMARK UNBOUND:                -0.333
REMARK SMILES CCOC(=O)c1ccc(O)c(O)c1
REMARK SMILES IDX 4 1 5 2 3 3 2 4 1 5 6 6 13 7 7 8 11 9 8 10 9 11 12 12 10 14
REMARK H PARENT 12 13 10 15
REMARK Flexibility Score: inf
ROOT
ATOM      1  C   UNL     1      15.300  17.004   9.338  1.00  0.00     0.338 C 
ATOM      2  O   UNL     1      15.396  17.462   8.166  1.00  0.00    -0.246 OA
ENDROOT
BRANCH   1   3
ATOM      3  O   UNL     1      16.443  16.567  10.018  1.00  0.00    -0.462 OA
BRANCH   3   4
ATOM      4  C   UNL     1      17.501  17.435  10.420  1.00  0.00     0.230 C 
ATOM      5  C   UNL     1      17.843  17.221  11.889  1.00  0.00     0.049 C 
ENDBRANCH   3   4
ENDBRANCH   1   3
BRANCH   1   6
ATOM      6  C   UNL     1      13.978  16.935  10.000  1.00  0.00     0.064 A 
ATOM      7  C   UNL     1      12.819  17.338   9.315  1.00  0.00     0.065 A 
ATOM      8  C   UNL     1      13.861  16.466  11.322  1.00  0.00     0.020 A 
ATOM      9  C   UNL     1      11.563  17.275   9.938  1.00  0.00     0.158 A 
ATOM     10  C   UNL     1      12.611  16.402  11.942  1.00  0.00     0.051 A 
ATOM     11  C   UNL     1      11.460  16.804  11.257  1.00  0.00     0.157 A 
BRANCH   9  12
ATOM     12  O   UNL     1      10.420  17.678   9.251  1.00  0.00    -0.504 OA
ATOM     13  H   UNL     1       9.516  17.253   9.426  1.00  0.00     0.293 HD
ENDBRANCH   9  12
BRANCH  11  14
ATOM     14  O   UNL     1      10.227  16.730  11.903  1.00  0.00    -0.504 OA
ATOM     15  H   UNL     1      10.123  16.934  12.891  1.00  0.00     0.293 HD
ENDBRANCH  11  14
ENDBRANCH   1   6
TORSDOF 5
ENDMDL
