MODEL 1
REMARK VINA RESULT:    -3.930      0.000      0.000
REMARK INTER + INTRA:          -6.695
REMARK INTER:                  -5.308
REMARK INTRA:                  -1.386
REMARK UNBOUND:                -1.386
REMARK SMILES CC(=O)CCC=C(C)CCC=C(C)C
REMARK SMILES IDX 7 1 6 2 8 3 9 4 10 5 11 6 13 7 12 8 14 9 5 10 4 11 2 12 3 13
REMARK SMILES IDX 1 14
REMARK H PARENT
REMARK Flexibility Score: inf
ROOT
ATOM      1  C   UNL     1       6.916 -31.114  13.557  1.00  0.00    -0.077 C 
ATOM      2  C   UNL     1       7.023 -31.104  14.904  1.00  0.00    -0.028 C 
ATOM      3  C   UNL     1       6.759 -32.439  12.857  1.00  0.00     0.039 C 
ENDROOT
BRANCH   1   4
ATOM      4  C   UNL     1       7.010 -29.855  12.718  1.00  0.00     0.034 C 
BRANCH   4   5
ATOM      5  C   UNL     1       8.329 -29.822  11.939  1.00  0.00     0.032 C 
BRANCH   5   6
ATOM      6  C   UNL     1       9.395 -29.100  12.723  1.00  0.00    -0.028 C 
ATOM      7  C   UNL     1      11.466 -28.845  14.023  1.00  0.00     0.039 C 
ATOM      8  C   UNL     1      10.457 -29.703  13.304  1.00  0.00    -0.080 C 
ATOM      9  C   UNL     1      10.646 -31.202  13.267  1.00  0.00     0.039 C 
ENDBRANCH   5   6
ENDBRANCH   4   5
ENDBRANCH   1   4
BRANCH   2  10
ATOM     10  C   UNL     1       7.198 -29.846  15.723  1.00  0.00     0.035 C 
BRANCH  10  11
ATOM     11  C   UNL     1       8.538 -29.826  16.469  1.00  0.00     0.079 C 
BRANCH  11  12
ATOM     12  C   UNL     1       8.347 -29.627  17.952  1.00  0.00     0.130 C 
ATOM     13  O   UNL     1       7.434 -30.201  18.525  1.00  0.00    -0.300 OA
ATOM     14  C   UNL     1       9.263 -28.741  18.745  1.00  0.00     0.087 C 
ENDBRANCH  11  12
ENDBRANCH  10  11
ENDBRANCH   2  10
TORSDOF 6
ENDMDL
MODEL 2
REMARK VINA RESULT:    -3.782      1.750      2.635
REMARK INTER + INTRA:          -6.495
REMARK INTER:                  -5.100
REMARK INTRA:                  -1.395
REMARK UNBOUND:                -1.386
REMARK SMILES CC(=O)CCC=C(C)CCC=C(C)C
REMARK SMILES IDX 7 1 6 2 8 3 9 4 10 5 11 6 13 7 12 8 14 9 5 10 4 11 2 12 3 13
REMARK SMILES IDX 1 14
REMARK H PARENT
REMARK Flexibility Score: inf
ROOT
ATOM      1  C   UNL     1       7.023 -32.360  16.406  1.00  0.00    -0.077 C 
ATOM      2  C   UNL     1       6.315 -31.259  16.740  1.00  0.00    -0.028 C 
ATOM      3  C   UNL     1       6.316 -33.691  16.381  1.00  0.00     0.039 C 
ENDROOT
BRANCH   1   4
ATOM      4  C   UNL     1       8.510 -32.322  16.117  1.00  0.00     0.034 C 
BRANCH   4   5
ATOM      5  C   UNL     1       8.771 -32.420  14.610  1.00  0.00     0.032 C 
BRANCH   5   6
ATOM      6  C   UNL     1       9.696 -31.319  14.156  1.00  0.00    -0.028 C 
ATOM      7  C   UNL     1      10.325 -29.138  13.212  1.00  0.00     0.039 C 
ATOM      8  C   UNL     1       9.287 -30.167  13.578  1.00  0.00    -0.080 C 
ATOM      9  C   UNL     1       7.831 -29.896  13.276  1.00  0.00     0.039 C 
ENDBRANCH   5   6
ENDBRANCH   4   5
ENDBRANCH   1   4
BRANCH   2  10
ATOM     10  C   UNL     1       6.908 -29.871  16.816  1.00  0.00     0.035 C 
BRANCH  10  11
ATOM     11  C   UNL     1       7.320 -29.498  18.245  1.00  0.00     0.079 C 
BRANCH  11  12
ATOM     12  C   UNL     1       8.779 -29.125  18.325  1.00  0.00     0.130 C 
ATOM     13  O   UNL     1       9.335 -29.095  19.412  1.00  0.00    -0.300 OA
ATOM     14  C   UNL     1       9.570 -28.798  17.092  1.00  0.00     0.087 C 
ENDBRANCH  11  12
ENDBRANCH  10  11
ENDBRANCH   2  10
TORSDOF 6
ENDMDL
MODEL 3
REMARK VINA RESULT:    -3.606      1.626      3.295
REMARK INTER + INTRA:          -6.257
REMARK INTER:                  -4.947
REMARK INTRA:                  -1.309
REMARK UNBOUND:                -1.386
REMARK SMILES CC(=O)CCC=C(C)CCC=C(C)C
REMARK SMILES IDX 7 1 6 2 8 3 9 4 10 5 11 6 13 7 12 8 14 9 5 10 4 11 2 12 3 13
REMARK SMILES IDX 1 14
REMARK H PARENT
REMARK Flexibility Score: inf
ROOT
ATOM      1  C   UNL     1      10.288 -29.179  14.045  1.00  0.00    -0.077 C 
ATOM      2  C   UNL     1       9.602 -29.415  15.185  1.00  0.00    -0.028 C 
ATOM      3  C   UNL     1      11.711 -28.693  14.147  1.00  0.00     0.039 C 
ENDROOT
BRANCH   1   4
ATOM      4  C   UNL     1       9.666 -29.324  12.670  1.00  0.00     0.034 C 
BRANCH   4   5
ATOM      5  C   UNL     1      10.123 -30.626  12.005  1.00  0.00     0.032 C 
BRANCH   5   6
ATOM      6  C   UNL     1       9.092 -31.711  12.191  1.00  0.00    -0.028 C 
ATOM      7  C   UNL     1       8.082 -33.729  13.166  1.00  0.00     0.039 C 
ATOM      8  C   UNL     1       9.215 -32.740  13.059  1.00  0.00    -0.080 C 
ATOM      9  C   UNL     1      10.452 -32.932  13.904  1.00  0.00     0.039 C 
ENDBRANCH   5   6
ENDBRANCH   4   5
ENDBRANCH   1   4
BRANCH   2  10
ATOM     10  C   UNL     1       8.168 -29.890  15.219  1.00  0.00     0.035 C 
BRANCH  10  11
ATOM     11  C   UNL     1       7.896 -30.813  16.414  1.00  0.00     0.079 C 
BRANCH  11  12
ATOM     12  C   UNL     1       7.249 -30.068  17.556  1.00  0.00     0.130 C 
ATOM     13  O   UNL     1       7.856 -29.933  18.607  1.00  0.00    -0.300 OA
ATOM     14  C   UNL     1       5.875 -29.481  17.426  1.00  0.00     0.087 C 
ENDBRANCH  11  12
ENDBRANCH  10  11
ENDBRANCH   2  10
TORSDOF 6
ENDMDL
MODEL 4
REMARK VINA RESULT:    -3.582      1.400      3.346
REMARK INTER + INTRA:          -6.224
REMARK INTER:                  -4.589
REMARK INTRA:                  -1.635
REMARK UNBOUND:                -1.386
REMARK SMILES CC(=O)CCC=C(C)CCC=C(C)C
REMARK SMILES IDX 7 1 6 2 8 3 9 4 10 5 11 6 13 7 12 8 14 9 5 10 4 11 2 12 3 13
REMARK SMILES IDX 1 14
REMARK H PARENT
REMARK Flexibility Score: inf
ROOT
ATOM      1  C   UNL     1       9.124 -29.842  13.193  1.00  0.00    -0.077 C 
ATOM      2  C   UNL     1       9.706 -29.681  14.402  1.00  0.00    -0.028 C 
ATOM      3  C   UNL     1       9.978 -30.292  12.036  1.00  0.00     0.039 C 
ENDROOT
BRANCH   1   4
ATOM      4  C   UNL     1       7.663 -29.528  12.938  1.00  0.00     0.034 C 
BRANCH   4   5
ATOM      5  C   UNL     1       6.917 -30.779  12.461  1.00  0.00     0.032 C 
BRANCH   5   6
ATOM      6  C   UNL     1       6.289 -31.503  13.624  1.00  0.00    -0.028 C 
ATOM      7  C   UNL     1       6.076 -33.215  15.376  1.00  0.00     0.039 C 
ATOM      8  C   UNL     1       6.793 -32.624  14.189  1.00  0.00    -0.080 C 
ATOM      9  C   UNL     1       8.033 -33.301  13.656  1.00  0.00     0.039 C 
ENDBRANCH   5   6
ENDBRANCH   4   5
ENDBRANCH   1   4
BRANCH   2  10
ATOM     10  C   UNL     1       8.964 -29.221  15.635  1.00  0.00     0.035 C 
BRANCH  10  11
ATOM     11  C   UNL     1       8.464 -30.401  16.479  1.00  0.00     0.079 C 
BRANCH  11  12
ATOM     12  C   UNL     1       7.349 -29.988  17.408  1.00  0.00     0.130 C 
ATOM     13  O   UNL     1       7.589 -29.803  18.591  1.00  0.00    -0.300 OA
ATOM     14  C   UNL     1       5.949 -29.790  16.908  1.00  0.00     0.087 C 
ENDBRANCH  11  12
ENDBRANCH  10  11
ENDBRANCH   2  10
TORSDOF 6
ENDMDL
MODEL 5
REMARK VINA RESULT:    -3.511      2.432      5.169
REMARK INTER + INTRA:          -6.128
REMARK INTER:                  -4.418
REMARK INTRA:                  -1.710
REMARK UNBOUND:                -1.386
REMARK SMILES CC(=O)CCC=C(C)CCC=C(C)C
REMARK SMILES IDX 7 1 6 2 8 3 9 4 10 5 11 6 13 7 12 8 14 9 5 10 4 11 2 12 3 13
REMARK SMILES IDX 1 14
REMARK H PARENT
REMARK Flexibility Score: inf
ROOT
ATOM      1  C   UNL     1       8.145 -29.508  16.813  1.00  0.00    -0.077 C 
ATOM      2  C   UNL     1       9.246 -29.534  16.029  1.00  0.00    -0.028 C 
ATOM      3  C   UNL     1       8.325 -29.551  18.309  1.00  0.00     0.039 C 
ENDROOT
BRANCH   1   4
ATOM      4  C   UNL     1       6.738 -29.500  16.251  1.00  0.00     0.034 C 
BRANCH   4   5
ATOM      5  C   UNL     1       5.959 -30.732  16.726  1.00  0.00     0.032 C 
BRANCH   5   6
ATOM      6  C   UNL     1       6.189 -31.899  15.799  1.00  0.00    -0.028 C 
ATOM      7  C   UNL     1       7.001 -34.114  15.109  1.00  0.00     0.039 C 
ATOM      8  C   UNL     1       6.890 -33.008  16.127  1.00  0.00    -0.080 C 
ATOM      9  C   UNL     1       7.571 -33.158  17.466  1.00  0.00     0.039 C 
ENDBRANCH   5   6
ENDBRANCH   4   5
ENDBRANCH   1   4
BRANCH   2  10
ATOM     10  C   UNL     1       9.200 -29.510  14.519  1.00  0.00     0.035 C 
BRANCH  10  11
ATOM     11  C   UNL     1       9.221 -30.922  13.920  1.00  0.00     0.079 C 
BRANCH  11  12
ATOM     12  C   UNL     1       8.144 -31.102  12.879  1.00  0.00     0.130 C 
ATOM     13  O   UNL     1       8.088 -32.144  12.244  1.00  0.00    -0.300 OA
ATOM     14  C   UNL     1       7.131 -30.029  12.612  1.00  0.00     0.087 C 
ENDBRANCH  11  12
ENDBRANCH  10  11
ENDBRANCH   2  10
TORSDOF 6
ENDMDL
MODEL 6
REMARK VINA RESULT:    -3.503      2.347      4.559
REMARK INTER + INTRA:          -6.118
REMARK INTER:                  -4.843
REMARK INTRA:                  -1.275
REMARK UNBOUND:                -1.386
REMARK SMILES CC(=O)CCC=C(C)CCC=C(C)C
REMARK SMILES IDX 7 1 6 2 8 3 9 4 10 5 11 6 13 7 12 8 14 9 5 10 4 11 2 12 3 13
REMARK SMILES IDX 1 14
REMARK H PARENT
REMARK Flexibility Score: inf
ROOT
ATOM      1  C   UNL     1       7.397 -32.485  16.392  1.00  0.00    -0.077 C 
ATOM      2  C   UNL     1       8.148 -32.873  15.338  1.00  0.00    -0.028 C 
ATOM      3  C   UNL     1       7.471 -33.289  17.664  1.00  0.00     0.039 C 
ENDROOT
BRANCH   1   4
ATOM      4  C   UNL     1       6.437 -31.314  16.328  1.00  0.00     0.034 C 
BRANCH   4   5
ATOM      5  C   UNL     1       6.876 -30.202  17.287  1.00  0.00     0.032 C 
BRANCH   5   6
ATOM      6  C   UNL     1       8.090 -29.484  16.752  1.00  0.00    -0.028 C 
ATOM      7  C   UNL     1      10.268 -28.348  16.841  1.00  0.00     0.039 C 
ATOM      8  C   UNL     1       9.096 -29.010  17.520  1.00  0.00    -0.080 C 
ATOM      9  C   UNL     1       9.069 -29.109  19.027  1.00  0.00     0.039 C 
ENDBRANCH   5   6
ENDBRANCH   4   5
ENDBRANCH   1   4
BRANCH   2  10
ATOM     10  C   UNL     1       8.153 -32.162  14.004  1.00  0.00     0.035 C 
BRANCH  10  11
ATOM     11  C   UNL     1       9.356 -31.221  13.858  1.00  0.00     0.079 C 
BRANCH  11  12
ATOM     12  C   UNL     1       8.965 -29.913  13.215  1.00  0.00     0.130 C 
ATOM     13  O   UNL     1       9.825 -29.080  12.975  1.00  0.00    -0.300 OA
ATOM     14  C   UNL     1       7.540 -29.616  12.855  1.00  0.00     0.087 C 
ENDBRANCH  11  12
ENDBRANCH  10  11
ENDBRANCH   2  10
TORSDOF 6
ENDMDL
MODEL 7
REMARK VINA RESULT:    -3.470      2.530      5.147
REMARK INTER + INTRA:          -6.073
REMARK INTER:                  -4.512
REMARK INTRA:                  -1.561
REMARK UNBOUND:                -1.386
REMARK SMILES CC(=O)CCC=C(C)CCC=C(C)C
REMARK SMILES IDX 7 1 6 2 8 3 9 4 10 5 11 6 13 7 12 8 14 9 5 10 4 11 2 12 3 13
REMARK SMILES IDX 1 14
REMARK H PARENT
REMARK Flexibility Score: inf
ROOT
ATOM      1  C   UNL     1       8.275 -29.533  16.351  1.00  0.00    -0.077 C 
ATOM      2  C   UNL     1       9.193 -29.596  15.361  1.00  0.00    -0.028 C 
ATOM      3  C   UNL     1       8.754 -29.550  17.780  1.00  0.00     0.039 C 
ENDROOT
BRANCH   1   4
ATOM      4  C   UNL     1       6.783 -29.510  16.085  1.00  0.00     0.034 C 
BRANCH   4   5
ATOM      5  C   UNL     1       6.099 -30.716  16.736  1.00  0.00     0.032 C 
BRANCH   5   6
ATOM      6  C   UNL     1       6.214 -31.935  15.856  1.00  0.00    -0.028 C 
ATOM      7  C   UNL     1       6.891 -34.211  15.221  1.00  0.00     0.039 C 
ATOM      8  C   UNL     1       6.898 -33.054  16.186  1.00  0.00    -0.080 C 
ATOM      9  C   UNL     1       7.676 -33.165  17.476  1.00  0.00     0.039 C 
ENDBRANCH   5   6
ENDBRANCH   4   5
ENDBRANCH   1   4
BRANCH   2  10
ATOM     10  C   UNL     1       8.843 -29.601  13.891  1.00  0.00     0.035 C 
BRANCH  10  11
ATOM     11  C   UNL     1       8.787 -31.023  13.318  1.00  0.00     0.079 C 
BRANCH  11  12
ATOM     12  C   UNL     1      10.128 -31.709  13.398  1.00  0.00     0.130 C 
ATOM     13  O   UNL     1      11.104 -31.186  12.882  1.00  0.00    -0.300 OA
ATOM     14  C   UNL     1      10.293 -33.020  14.109  1.00  0.00     0.087 C 
ENDBRANCH  11  12
ENDBRANCH  10  11
ENDBRANCH   2  10
TORSDOF 6
ENDMDL
MODEL 8
REMARK VINA RESULT:    -3.457      1.647      2.167
REMARK INTER + INTRA:          -6.056
REMARK INTER:                  -4.366
REMARK INTRA:                  -1.690
REMARK UNBOUND:                -1.386
REMARK SMILES CC(=O)CCC=C(C)CCC=C(C)C
REMARK SMILES IDX 7 1 6 2 8 3 9 4 10 5 11 6 13 7 12 8 14 9 5 10 4 11 2 12 3 13
REMARK SMILES IDX 1 14
REMARK H PARENT
REMARK Flexibility Score: inf
ROOT
ATOM      1  C   UNL     1       6.875 -33.042  14.371  1.00  0.00    -0.077 C 
ATOM      2  C   UNL     1       7.095 -33.210  15.694  1.00  0.00    -0.028 C 
ATOM      3  C   UNL     1       7.484 -34.028  13.408  1.00  0.00     0.039 C 
ENDROOT
BRANCH   1   4
ATOM      4  C   UNL     1       6.095 -31.868  13.813  1.00  0.00     0.034 C 
BRANCH   4   5
ATOM      5  C   UNL     1       7.034 -30.877  13.117  1.00  0.00     0.032 C 
BRANCH   5   6
ATOM      6  C   UNL     1       7.728 -29.999  14.127  1.00  0.00    -0.028 C 
ATOM      7  C   UNL     1       9.609 -29.101  15.430  1.00  0.00     0.039 C 
ATOM      8  C   UNL     1       9.045 -30.073  14.427  1.00  0.00    -0.080 C 
ATOM      9  C   UNL     1       9.952 -31.106  13.800  1.00  0.00     0.039 C 
ENDBRANCH   5   6
ENDBRANCH   4   5
ENDBRANCH   1   4
BRANCH   2  10
ATOM     10  C   UNL     1       6.553 -32.285  16.759  1.00  0.00     0.035 C 
BRANCH  10  11
ATOM     11  C   UNL     1       7.674 -31.594  17.545  1.00  0.00     0.079 C 
BRANCH  11  12
ATOM     12  C   UNL     1       7.286 -30.194  17.954  1.00  0.00     0.130 C 
ATOM     13  O   UNL     1       8.009 -29.566  18.712  1.00  0.00    -0.300 OA
ATOM     14  C   UNL     1       6.032 -29.551  17.442  1.00  0.00     0.087 C 
ENDBRANCH  11  12
ENDBRANCH  10  11
ENDBRANCH   2  10
TORSDOF 6
ENDMDL
MODEL 9
REMARK VINA RESULT:    -3.350      2.424      4.264
REMARK INTER + INTRA:          -5.912
REMARK INTER:                  -4.232
REMARK INTRA:                  -1.679
REMARK UNBOUND:                -1.386
REMARK SMILES CC(=O)CCC=C(C)CCC=C(C)C
REMARK SMILES IDX 7 1 6 2 8 3 9 4 10 5 11 6 13 7 12 8 14 9 5 10 4 11 2 12 3 13
REMARK SMILES IDX 1 14
REMARK H PARENT
REMARK Flexibility Score: inf
ROOT
ATOM      1  C   UNL     1       6.998 -30.722  16.780  1.00  0.00    -0.077 C 
ATOM      2  C   UNL     1       6.403 -31.838  16.306  1.00  0.00    -0.028 C 
ATOM      3  C   UNL     1       6.129 -29.616  17.320  1.00  0.00     0.039 C 
ENDROOT
BRANCH   1   4
ATOM      4  C   UNL     1       8.498 -30.510  16.733  1.00  0.00     0.034 C 
BRANCH   4   5
ATOM      5  C   UNL     1       8.840 -29.234  15.955  1.00  0.00     0.032 C 
BRANCH   5   6
ATOM      6  C   UNL     1       9.630 -29.561  14.713  1.00  0.00    -0.028 C 
ATOM      7  C   UNL     1      10.014 -29.989  12.323  1.00  0.00     0.039 C 
ATOM      8  C   UNL     1       9.092 -29.702  13.481  1.00  0.00    -0.080 C 
ATOM      9  C   UNL     1       7.605 -29.597  13.240  1.00  0.00     0.039 C 
ENDBRANCH   5   6
ENDBRANCH   4   5
ENDBRANCH   1   4
BRANCH   2  10
ATOM     10  C   UNL     1       7.160 -33.011  15.726  1.00  0.00     0.035 C 
BRANCH  10  11
ATOM     11  C   UNL     1       6.916 -33.166  14.220  1.00  0.00     0.079 C 
BRANCH  11  12
ATOM     12  C   UNL     1       8.211 -33.219  13.448  1.00  0.00     0.130 C 
ATOM     13  O   UNL     1       8.186 -33.206  12.227  1.00  0.00    -0.300 OA
ATOM     14  C   UNL     1       9.536 -33.280  14.150  1.00  0.00     0.087 C 
ENDBRANCH  11  12
ENDBRANCH  10  11
ENDBRANCH   2  10
TORSDOF 6
ENDMDL
