MODEL 1
REMARK VINA RESULT:    -3.730      0.000      0.000
REMARK INTER + INTRA:          -3.967
REMARK INTER:                  -3.948
REMARK INTRA:                  -0.019
REMARK UNBOUND:                -0.019
REMARK SMILES O=C([O-])c1cccnc1
REMARK SMILES IDX 4 1 5 2 9 3 6 4 8 5 7 6 2 7 1 8 3 9
REMARK H PARENT
REMARK Flexibility Score: inf
ROOT
ATOM      1  C   UNL     1     142.676 145.363 154.393  1.00  0.00     0.016 A 
ATOM      2  C   UNL     1     143.272 144.716 153.298  1.00  0.00     0.013 A 
ATOM      3  C   UNL     1     143.206 145.132 155.675  1.00  0.00     0.120 A 
ATOM      4  C   UNL     1     144.363 143.867 153.494  1.00  0.00     0.021 A 
ATOM      5  N   UNL     1     144.270 144.301 155.838  1.00  0.00    -0.264 NA
ATOM      6  C   UNL     1     144.853 143.670 154.785  1.00  0.00     0.111 A 
ENDROOT
BRANCH   1   7
ATOM      7  C   UNL     1     141.520 146.265 154.198  1.00  0.00     0.073 C 
ATOM      8  O   UNL     1     140.492 145.864 153.591  1.00  0.00    -0.545 OA
ATOM      9  O   UNL     1     141.554 147.568 154.683  1.00  0.00    -0.545 OA
ENDBRANCH   1   7
TORSDOF 1
ENDMDL
MODEL 2
REMARK VINA RESULT:    -3.550      2.894      3.784
REMARK INTER + INTRA:          -3.776
REMARK INTER:                  -3.755
REMARK INTRA:                  -0.021
REMARK UNBOUND:                -0.019
REMARK SMILES O=C([O-])c1cccnc1
REMARK SMILES IDX 4 1 5 2 9 3 6 4 8 5 7 6 2 7 1 8 3 9
REMARK H PARENT
REMARK Flexibility Score: inf
ROOT
ATOM      1  C   UNL     1     143.450 144.900 155.257  1.00  0.00     0.016 A 
ATOM      2  C   UNL     1     143.111 145.436 154.003  1.00  0.00     0.013 A 
ATOM      3  C   UNL     1     142.576 145.121 156.337  1.00  0.00     0.120 A 
ATOM      4  C   UNL     1     141.932 146.170 153.850  1.00  0.00     0.021 A 
ATOM      5  N   UNL     1     141.435 145.839 156.160  1.00  0.00    -0.264 NA
ATOM      6  C   UNL     1     141.098 146.362 154.951  1.00  0.00     0.111 A 
ENDROOT
BRANCH   1   7
ATOM      7  C   UNL     1     144.695 144.122 155.432  1.00  0.00     0.073 C 
ATOM      8  O   UNL     1     145.323 144.156 156.523  1.00  0.00    -0.545 OA
ATOM      9  O   UNL     1     145.189 143.341 154.392  1.00  0.00    -0.545 OA
ENDBRANCH   1   7
TORSDOF 1
ENDMDL
MODEL 3
REMARK VINA RESULT:    -3.531      2.909      3.693
REMARK INTER + INTRA:          -3.756
REMARK INTER:                  -3.736
REMARK INTRA:                  -0.020
REMARK UNBOUND:                -0.019
REMARK SMILES O=C([O-])c1cccnc1
REMARK SMILES IDX 4 1 5 2 9 3 6 4 8 5 7 6 2 7 1 8 3 9
REMARK H PARENT
REMARK Flexibility Score: inf
ROOT
ATOM      1  C   UNL     1     143.300 145.042 155.472  1.00  0.00     0.016 A 
ATOM      2  C   UNL     1     143.024 145.549 154.192  1.00  0.00     0.013 A 
ATOM      3  C   UNL     1     142.336 145.214 156.482  1.00  0.00     0.120 A 
ATOM      4  C   UNL     1     141.817 146.207 153.944  1.00  0.00     0.021 A 
ATOM      5  N   UNL     1     141.169 145.858 156.213  1.00  0.00    -0.264 NA
ATOM      6  C   UNL     1     140.892 146.352 154.978  1.00  0.00     0.111 A 
ENDROOT
BRANCH   1   7
ATOM      7  C   UNL     1     144.574 144.344 155.747  1.00  0.00     0.073 C 
ATOM      8  O   UNL     1     144.995 143.450 154.966  1.00  0.00    -0.545 OA
ATOM      9  O   UNL     1     145.324 144.665 156.874  1.00  0.00    -0.545 OA
ENDBRANCH   1   7
TORSDOF 1
ENDMDL
MODEL 4
REMARK VINA RESULT:    -3.506      1.241      1.821
REMARK INTER + INTRA:          -3.730
REMARK INTER:                  -3.714
REMARK INTRA:                  -0.016
REMARK UNBOUND:                -0.019
REMARK SMILES O=C([O-])c1cccnc1
REMARK SMILES IDX 4 1 5 2 9 3 6 4 8 5 7 6 2 7 1 8 3 9
REMARK H PARENT
REMARK Flexibility Score: inf
ROOT
ATOM      1  C   UNL     1     142.310 145.567 155.327  1.00  0.00     0.016 A 
ATOM      2  C   UNL     1     143.526 145.144 154.765  1.00  0.00     0.013 A 
ATOM      3  C   UNL     1     142.020 145.194 156.651  1.00  0.00     0.120 A 
ATOM      4  C   UNL     1     144.414 144.372 155.517  1.00  0.00     0.021 A 
ATOM      5  N   UNL     1     142.903 144.443 157.361  1.00  0.00    -0.264 NA
ATOM      6  C   UNL     1     144.082 144.028 156.827  1.00  0.00     0.111 A 
ENDROOT
BRANCH   1   7
ATOM      7  C   UNL     1     141.361 146.385 154.541  1.00  0.00     0.073 C 
ATOM      8  O   UNL     1     141.282 147.629 154.726  1.00  0.00    -0.545 OA
ATOM      9  O   UNL     1     140.543 145.791 153.586  1.00  0.00    -0.545 OA
ENDBRANCH   1   7
TORSDOF 1
ENDMDL
MODEL 5
REMARK VINA RESULT:    -3.439      2.387      2.969
REMARK INTER + INTRA:          -3.659
REMARK INTER:                  -3.640
REMARK INTRA:                  -0.018
REMARK UNBOUND:                -0.019
REMARK SMILES O=C([O-])c1cccnc1
REMARK SMILES IDX 4 1 5 2 9 3 6 4 8 5 7 6 2 7 1 8 3 9
REMARK H PARENT
REMARK Flexibility Score: inf
ROOT
ATOM      1  C   UNL     1     141.335 145.683 156.122  1.00  0.00     0.016 A 
ATOM      2  C   UNL     1     140.908 146.084 154.845  1.00  0.00     0.013 A 
ATOM      3  C   UNL     1     142.650 145.206 156.268  1.00  0.00     0.120 A 
ATOM      4  C   UNL     1     141.781 146.005 153.758  1.00  0.00     0.021 A 
ATOM      5  N   UNL     1     143.479 145.140 155.192  1.00  0.00    -0.264 NA
ATOM      6  C   UNL     1     143.076 145.525 153.953  1.00  0.00     0.111 A 
ENDROOT
BRANCH   1   7
ATOM      7  C   UNL     1     140.421 145.762 157.282  1.00  0.00     0.073 C 
ATOM      8  O   UNL     1     140.179 144.740 157.977  1.00  0.00    -0.545 OA
ATOM      9  O   UNL     1     139.815 146.968 157.619  1.00  0.00    -0.545 OA
ENDBRANCH   1   7
TORSDOF 1
ENDMDL
MODEL 6
REMARK VINA RESULT:    -3.385      2.352      3.464
REMARK INTER + INTRA:          -3.601
REMARK INTER:                  -3.578
REMARK INTRA:                  -0.024
REMARK UNBOUND:                -0.019
REMARK SMILES O=C([O-])c1cccnc1
REMARK SMILES IDX 4 1 5 2 9 3 6 4 8 5 7 6 2 7 1 8 3 9
REMARK H PARENT
REMARK Flexibility Score: inf
ROOT
ATOM      1  C   UNL     1     142.453 145.557 155.134  1.00  0.00     0.016 A 
ATOM      2  C   UNL     1     141.296 146.345 155.010  1.00  0.00     0.013 A 
ATOM      3  C   UNL     1     142.811 145.090 156.411  1.00  0.00     0.120 A 
ATOM      4  C   UNL     1     140.532 146.649 156.139  1.00  0.00     0.021 A 
ATOM      5  N   UNL     1     142.048 145.401 157.493  1.00  0.00    -0.264 NA
ATOM      6  C   UNL     1     140.928 146.162 157.385  1.00  0.00     0.111 A 
ENDROOT
BRANCH   1   7
ATOM      7  C   UNL     1     143.270 145.228 153.946  1.00  0.00     0.073 C 
ATOM      8  O   UNL     1     143.128 145.873 152.873  1.00  0.00    -0.545 OA
ATOM      9  O   UNL     1     144.207 144.202 153.999  1.00  0.00    -0.545 OA
ENDBRANCH   1   7
TORSDOF 1
ENDMDL
MODEL 7
REMARK VINA RESULT:    -3.364      3.307      3.977
REMARK INTER + INTRA:          -3.579
REMARK INTER:                  -3.563
REMARK INTRA:                  -0.017
REMARK UNBOUND:                -0.019
REMARK SMILES O=C([O-])c1cccnc1
REMARK SMILES IDX 4 1 5 2 9 3 6 4 8 5 7 6 2 7 1 8 3 9
REMARK H PARENT
REMARK Flexibility Score: inf
ROOT
ATOM      1  C   UNL     1     144.625 144.013 155.434  1.00  0.00     0.016 A 
ATOM      2  C   UNL     1     144.686 143.457 154.145  1.00  0.00     0.013 A 
ATOM      3  C   UNL     1     143.801 145.134 155.641  1.00  0.00     0.120 A 
ATOM      4  C   UNL     1     143.939 144.016 153.106  1.00  0.00     0.021 A 
ATOM      5  N   UNL     1     143.084 145.657 154.611  1.00  0.00    -0.264 NA
ATOM      6  C   UNL     1     143.136 145.127 153.361  1.00  0.00     0.111 A 
ENDROOT
BRANCH   1   7
ATOM      7  C   UNL     1     145.411 143.431 156.543  1.00  0.00     0.073 C 
ATOM      8  O   UNL     1     144.844 142.760 157.446  1.00  0.00    -0.545 OA
ATOM      9  O   UNL     1     146.788 143.617 156.604  1.00  0.00    -0.545 OA
ENDBRANCH   1   7
TORSDOF 1
ENDMDL
MODEL 8
REMARK VINA RESULT:    -3.239      8.494      9.533
REMARK INTER + INTRA:          -3.447
REMARK INTER:                  -3.428
REMARK INTRA:                  -0.019
REMARK UNBOUND:                -0.019
REMARK SMILES O=C([O-])c1cccnc1
REMARK SMILES IDX 4 1 5 2 9 3 6 4 8 5 7 6 2 7 1 8 3 9
REMARK H PARENT
REMARK Flexibility Score: inf
ROOT
ATOM      1  C   UNL     1     138.709 148.388 161.626  1.00  0.00     0.016 A 
ATOM      2  C   UNL     1     139.003 149.668 162.124  1.00  0.00     0.013 A 
ATOM      3  C   UNL     1     138.544 147.335 162.544  1.00  0.00     0.120 A 
ATOM      4  C   UNL     1     139.125 149.873 163.500  1.00  0.00     0.021 A 
ATOM      5  N   UNL     1     138.668 147.563 163.879  1.00  0.00    -0.264 NA
ATOM      6  C   UNL     1     138.953 148.797 164.370  1.00  0.00     0.111 A 
ENDROOT
BRANCH   1   7
ATOM      7  C   UNL     1     138.577 148.158 160.171  1.00  0.00     0.073 C 
ATOM      8  O   UNL     1     137.576 147.549 159.708  1.00  0.00    -0.545 OA
ATOM      9  O   UNL     1     139.558 148.610 159.295  1.00  0.00    -0.545 OA
ENDBRANCH   1   7
TORSDOF 1
ENDMDL
MODEL 9
REMARK VINA RESULT:    -3.195      7.260      8.241
REMARK INTER + INTRA:          -3.401
REMARK INTER:                  -3.385
REMARK INTRA:                  -0.016
REMARK UNBOUND:                -0.019
REMARK SMILES O=C([O-])c1cccnc1
REMARK SMILES IDX 4 1 5 2 9 3 6 4 8 5 7 6 2 7 1 8 3 9
REMARK H PARENT
REMARK Flexibility Score: inf
ROOT
ATOM      1  C   UNL     1     136.713 146.359 158.461  1.00  0.00     0.016 A 
ATOM      2  C   UNL     1     135.691 146.972 157.717  1.00  0.00     0.013 A 
ATOM      3  C   UNL     1     136.575 145.000 158.793  1.00  0.00     0.120 A 
ATOM      4  C   UNL     1     134.572 146.235 157.324  1.00  0.00     0.021 A 
ATOM      5  N   UNL     1     135.475 144.306 158.397  1.00  0.00    -0.264 NA
ATOM      6  C   UNL     1     134.481 144.889 157.678  1.00  0.00     0.111 A 
ENDROOT
BRANCH   1   7
ATOM      7  C   UNL     1     137.903 147.129 158.883  1.00  0.00     0.073 C 
ATOM      8  O   UNL     1     137.904 147.761 159.972  1.00  0.00    -0.545 OA
ATOM      9  O   UNL     1     139.039 147.165 158.080  1.00  0.00    -0.545 OA
ENDBRANCH   1   7
TORSDOF 1
ENDMDL
