MODEL 1
REMARK VINA RESULT:    -3.717      0.000      0.000
REMARK INTER + INTRA:          -3.717
REMARK INTER:                  -3.717
REMARK INTRA:                   0.000
REMARK UNBOUND:                 0.000
REMARK SMILES CC(C)=C1CC[C@@H](C)CC1=O
REMARK SMILES IDX 8 1 7 2 6 3 5 4 4 5 2 6 1 7 3 8 10 9 11 10 9 11
REMARK H PARENT
REMARK Flexibility Score: inf
ROOT
ATOM      1  C   UNL     1     201.196 153.335 165.266  1.00  0.00     0.008 C 
ATOM      2  C   UNL     1     200.735 152.217 164.324  1.00  0.00    -0.006 C 
ATOM      3  C   UNL     1     200.254 152.802 162.986  1.00  0.00     0.008 C 
ATOM      4  C   UNL     1     199.886 151.691 161.992  1.00  0.00     0.039 C 
ATOM      5  C   UNL     1     198.903 150.688 162.578  1.00  0.00    -0.006 C 
ATOM      6  C   UNL     1     197.983 150.053 161.792  1.00  0.00    -0.070 C 
ATOM      7  C   UNL     1     197.914 150.310 160.304  1.00  0.00     0.039 C 
ATOM      8  C   UNL     1     196.966 149.097 162.371  1.00  0.00     0.039 C 
ATOM      9  C   UNL     1     199.085 150.357 164.023  1.00  0.00     0.159 C 
ATOM     10  O   UNL     1     198.811 149.213 164.473  1.00  0.00    -0.295 OA
ATOM     11  C   UNL     1     199.610 151.396 164.971  1.00  0.00     0.084 C 
ENDROOT
TORSDOF 0
ENDMDL
MODEL 2
REMARK VINA RESULT:    -3.616     13.335     16.265
REMARK INTER + INTRA:          -3.616
REMARK INTER:                  -3.616
REMARK INTRA:                   0.000
REMARK UNBOUND:                 0.000
REMARK SMILES CC(C)=C1CC[C@@H](C)CC1=O
REMARK SMILES IDX 8 1 7 2 6 3 5 4 4 5 2 6 1 7 3 8 10 9 11 10 9 11
REMARK H PARENT
REMARK Flexibility Score: inf
ROOT
ATOM      1  C   UNL     1     209.980 153.095 168.547  1.00  0.00     0.008 C 
ATOM      2  C   UNL     1     210.815 152.971 169.827  1.00  0.00    -0.006 C 
ATOM      3  C   UNL     1     211.332 154.349 170.271  1.00  0.00     0.008 C 
ATOM      4  C   UNL     1     212.083 154.259 171.606  1.00  0.00     0.039 C 
ATOM      5  C   UNL     1     213.179 153.202 171.589  1.00  0.00    -0.006 C 
ATOM      6  C   UNL     1     214.321 153.352 172.321  1.00  0.00    -0.070 C 
ATOM      7  C   UNL     1     214.539 154.567 173.194  1.00  0.00     0.039 C 
ATOM      8  C   UNL     1     215.440 152.336 172.269  1.00  0.00     0.039 C 
ATOM      9  C   UNL     1     212.875 151.955 170.824  1.00  0.00     0.159 C 
ATOM     10  O   UNL     1     213.340 150.840 171.180  1.00  0.00    -0.295 OA
ATOM     11  C   UNL     1     211.996 152.014 169.609  1.00  0.00     0.084 C 
ENDROOT
TORSDOF 0
ENDMDL
MODEL 3
REMARK VINA RESULT:    -3.615      7.634      9.106
REMARK INTER + INTRA:          -3.615
REMARK INTER:                  -3.615
REMARK INTRA:                   0.000
REMARK UNBOUND:                 0.000
REMARK SMILES CC(C)=C1CC[C@@H](C)CC1=O
REMARK SMILES IDX 8 1 7 2 6 3 5 4 4 5 2 6 1 7 3 8 10 9 11 10 9 11
REMARK H PARENT
REMARK Flexibility Score: inf
ROOT
ATOM      1  C   UNL     1     201.876 143.274 171.293  1.00  0.00     0.008 C 
ATOM      2  C   UNL     1     202.076 144.716 170.810  1.00  0.00    -0.006 C 
ATOM      3  C   UNL     1     200.910 145.151 169.909  1.00  0.00     0.008 C 
ATOM      4  C   UNL     1     201.041 146.625 169.501  1.00  0.00     0.039 C 
ATOM      5  C   UNL     1     202.400 146.942 168.892  1.00  0.00    -0.006 C 
ATOM      6  C   UNL     1     202.540 147.901 167.929  1.00  0.00    -0.070 C 
ATOM      7  C   UNL     1     201.353 148.698 167.439  1.00  0.00     0.039 C 
ATOM      8  C   UNL     1     203.874 148.186 167.278  1.00  0.00     0.039 C 
ATOM      9  C   UNL     1     203.570 146.234 169.493  1.00  0.00     0.159 C 
ATOM     10  O   UNL     1     204.706 146.775 169.549  1.00  0.00    -0.295 OA
ATOM     11  C   UNL     1     203.405 144.850 170.051  1.00  0.00     0.084 C 
ENDROOT
TORSDOF 0
ENDMDL
MODEL 4
REMARK VINA RESULT:    -3.589      1.151      4.071
REMARK INTER + INTRA:          -3.589
REMARK INTER:                  -3.589
REMARK INTRA:                   0.000
REMARK UNBOUND:                 0.000
REMARK SMILES CC(C)=C1CC[C@@H](C)CC1=O
REMARK SMILES IDX 8 1 7 2 6 3 5 4 4 5 2 6 1 7 3 8 10 9 11 10 9 11
REMARK H PARENT
REMARK Flexibility Score: inf
ROOT
ATOM      1  C   UNL     1     197.009 147.182 162.451  1.00  0.00     0.008 C 
ATOM      2  C   UNL     1     197.432 148.616 162.789  1.00  0.00    -0.006 C 
ATOM      3  C   UNL     1     198.171 149.256 161.603  1.00  0.00     0.008 C 
ATOM      4  C   UNL     1     198.511 150.726 161.885  1.00  0.00     0.039 C 
ATOM      5  C   UNL     1     199.252 150.910 163.202  1.00  0.00    -0.006 C 
ATOM      6  C   UNL     1     200.171 151.906 163.366  1.00  0.00    -0.070 C 
ATOM      7  C   UNL     1     200.480 152.879 162.251  1.00  0.00     0.039 C 
ATOM      8  C   UNL     1     200.953 152.065 164.650  1.00  0.00     0.039 C 
ATOM      9  C   UNL     1     198.827 150.020 164.324  1.00  0.00     0.159 C 
ATOM     10  O   UNL     1     198.871 150.408 165.521  1.00  0.00    -0.295 OA
ATOM     11  C   UNL     1     198.329 148.633 164.036  1.00  0.00     0.084 C 
ENDROOT
TORSDOF 0
ENDMDL
MODEL 5
REMARK VINA RESULT:    -3.580      1.657      4.534
REMARK INTER + INTRA:          -3.580
REMARK INTER:                  -3.580
REMARK INTRA:                   0.000
REMARK UNBOUND:                 0.000
REMARK SMILES CC(C)=C1CC[C@@H](C)CC1=O
REMARK SMILES IDX 8 1 7 2 6 3 5 4 4 5 2 6 1 7 3 8 10 9 11 10 9 11
REMARK H PARENT
REMARK Flexibility Score: inf
ROOT
ATOM      1  C   UNL     1     197.366 150.684 158.983  1.00  0.00     0.008 C 
ATOM      2  C   UNL     1     198.252 150.538 160.225  1.00  0.00    -0.006 C 
ATOM      3  C   UNL     1     197.421 150.074 161.431  1.00  0.00     0.008 C 
ATOM      4  C   UNL     1     198.309 149.824 162.658  1.00  0.00     0.039 C 
ATOM      5  C   UNL     1     199.199 151.015 162.985  1.00  0.00    -0.006 C 
ATOM      6  C   UNL     1     199.556 151.301 164.272  1.00  0.00    -0.070 C 
ATOM      7  C   UNL     1     199.095 150.437 165.424  1.00  0.00     0.039 C 
ATOM      8  C   UNL     1     200.394 152.512 164.615  1.00  0.00     0.039 C 
ATOM      9  C   UNL     1     199.746 151.766 161.816  1.00  0.00     0.159 C 
ATOM     10  O   UNL     1     200.876 152.320 161.864  1.00  0.00    -0.295 OA
ATOM     11  C   UNL     1     198.948 151.869 160.549  1.00  0.00     0.084 C 
ENDROOT
TORSDOF 0
ENDMDL
MODEL 6
REMARK VINA RESULT:    -3.472      3.812      6.090
REMARK INTER + INTRA:          -3.472
REMARK INTER:                  -3.472
REMARK INTRA:                   0.000
REMARK UNBOUND:                 0.000
REMARK SMILES CC(C)=C1CC[C@@H](C)CC1=O
REMARK SMILES IDX 8 1 7 2 6 3 5 4 4 5 2 6 1 7 3 8 10 9 11 10 9 11
REMARK H PARENT
REMARK Flexibility Score: inf
ROOT
ATOM      1  C   UNL     1     199.634 152.194 165.551  1.00  0.00     0.008 C 
ATOM      2  C   UNL     1     200.310 153.538 165.255  1.00  0.00    -0.006 C 
ATOM      3  C   UNL     1     199.329 154.699 165.484  1.00  0.00     0.008 C 
ATOM      4  C   UNL     1     200.018 156.057 165.292  1.00  0.00     0.039 C 
ATOM      5  C   UNL     1     200.742 156.159 163.957  1.00  0.00    -0.006 C 
ATOM      6  C   UNL     1     200.856 157.351 163.301  1.00  0.00    -0.070 C 
ATOM      7  C   UNL     1     200.280 158.623 163.881  1.00  0.00     0.039 C 
ATOM      8  C   UNL     1     201.524 157.456 161.949  1.00  0.00     0.039 C 
ATOM      9  C   UNL     1     201.414 154.914 163.478  1.00  0.00     0.159 C 
ATOM     10  O   UNL     1     202.472 154.961 162.796  1.00  0.00    -0.295 OA
ATOM     11  C   UNL     1     200.833 153.571 163.811  1.00  0.00     0.084 C 
ENDROOT
TORSDOF 0
ENDMDL
MODEL 7
REMARK VINA RESULT:    -3.436     17.572     18.506
REMARK INTER + INTRA:          -3.436
REMARK INTER:                  -3.436
REMARK INTRA:                   0.000
REMARK UNBOUND:                 0.000
REMARK SMILES CC(C)=C1CC[C@@H](C)CC1=O
REMARK SMILES IDX 8 1 7 2 6 3 5 4 4 5 2 6 1 7 3 8 10 9 11 10 9 11
REMARK H PARENT
REMARK Flexibility Score: inf
ROOT
ATOM      1  C   UNL     1     215.000 142.875 167.836  1.00  0.00     0.008 C 
ATOM      2  C   UNL     1     215.264 143.847 168.992  1.00  0.00    -0.006 C 
ATOM      3  C   UNL     1     214.380 143.502 170.201  1.00  0.00     0.008 C 
ATOM      4  C   UNL     1     214.705 144.399 171.404  1.00  0.00     0.039 C 
ATOM      5  C   UNL     1     214.663 145.880 171.053  1.00  0.00    -0.006 C 
ATOM      6  C   UNL     1     214.286 146.816 171.973  1.00  0.00    -0.070 C 
ATOM      7  C   UNL     1     213.909 146.422 173.383  1.00  0.00     0.039 C 
ATOM      8  C   UNL     1     214.187 148.283 171.621  1.00  0.00     0.039 C 
ATOM      9  C   UNL     1     215.169 146.248 169.697  1.00  0.00     0.159 C 
ATOM     10  O   UNL     1     215.742 147.350 169.488  1.00  0.00    -0.295 OA
ATOM     11  C   UNL     1     215.005 145.294 168.549  1.00  0.00     0.084 C 
ENDROOT
TORSDOF 0
ENDMDL
MODEL 8
REMARK VINA RESULT:    -3.421      1.463      2.151
REMARK INTER + INTRA:          -3.421
REMARK INTER:                  -3.421
REMARK INTRA:                   0.000
REMARK UNBOUND:                 0.000
REMARK SMILES CC(C)=C1CC[C@@H](C)CC1=O
REMARK SMILES IDX 8 1 7 2 6 3 5 4 4 5 2 6 1 7 3 8 10 9 11 10 9 11
REMARK H PARENT
REMARK Flexibility Score: inf
ROOT
ATOM      1  C   UNL     1     199.985 150.503 165.862  1.00  0.00     0.008 C 
ATOM      2  C   UNL     1     199.865 150.451 164.335  1.00  0.00    -0.006 C 
ATOM      3  C   UNL     1     200.029 151.854 163.731  1.00  0.00     0.008 C 
ATOM      4  C   UNL     1     200.015 151.807 162.197  1.00  0.00     0.039 C 
ATOM      5  C   UNL     1     198.799 151.073 161.648  1.00  0.00    -0.006 C 
ATOM      6  C   UNL     1     198.238 151.424 160.454  1.00  0.00    -0.070 C 
ATOM      7  C   UNL     1     198.811 152.546 159.618  1.00  0.00     0.039 C 
ATOM      8  C   UNL     1     196.997 150.740 159.925  1.00  0.00     0.039 C 
ATOM      9  C   UNL     1     198.341 149.886 162.430  1.00  0.00     0.159 C 
ATOM     10  O   UNL     1     197.813 148.892 161.864  1.00  0.00    -0.295 OA
ATOM     11  C   UNL     1     198.510 149.857 163.921  1.00  0.00     0.084 C 
ENDROOT
TORSDOF 0
ENDMDL
MODEL 9
REMARK VINA RESULT:    -3.360     15.299     17.442
REMARK INTER + INTRA:          -3.360
REMARK INTER:                  -3.360
REMARK INTRA:                   0.000
REMARK UNBOUND:                 0.000
REMARK SMILES CC(C)=C1CC[C@@H](C)CC1=O
REMARK SMILES IDX 8 1 7 2 6 3 5 4 4 5 2 6 1 7 3 8 10 9 11 10 9 11
REMARK H PARENT
REMARK Flexibility Score: inf
ROOT
ATOM      1  C   UNL     1     209.158 160.532 160.331  1.00  0.00     0.008 C 
ATOM      2  C   UNL     1     210.592 161.043 160.514  1.00  0.00    -0.006 C 
ATOM      3  C   UNL     1     211.227 161.369 159.152  1.00  0.00     0.008 C 
ATOM      4  C   UNL     1     212.626 161.978 159.321  1.00  0.00     0.039 C 
ATOM      5  C   UNL     1     213.531 161.126 160.200  1.00  0.00    -0.006 C 
ATOM      6  C   UNL     1     214.880 161.079 159.994  1.00  0.00    -0.070 C 
ATOM      7  C   UNL     1     215.534 161.886 158.895  1.00  0.00     0.039 C 
ATOM      8  C   UNL     1     215.782 160.194 160.824  1.00  0.00     0.039 C 
ATOM      9  C   UNL     1     212.874 160.449 161.358  1.00  0.00     0.159 C 
ATOM     10  O   UNL     1     213.493 160.245 162.435  1.00  0.00    -0.295 OA
ATOM     11  C   UNL     1     211.444 160.002 161.255  1.00  0.00     0.084 C 
ENDROOT
TORSDOF 0
ENDMDL
