MODEL 1
REMARK VINA RESULT:    -3.626      0.000      0.000
REMARK INTER + INTRA:          -5.896
REMARK INTER:                  -5.534
REMARK INTRA:                  -0.362
REMARK UNBOUND:                -0.362
REMARK SMILES O=C([O-])CCCCCCCCC(=O)[O-]
REMARK SMILES IDX 7 1 6 2 5 3 4 4 2 5 1 6 3 7 8 8 9 9 10 10 11 11 12 12 13 13
REMARK SMILES IDX 14 14
REMARK H PARENT
REMARK Flexibility Score: inf
ROOT
ATOM      1  C   UNL     1      57.407  27.514  50.647  1.00  0.00     0.000 C 
ENDROOT
BRANCH   1   2
ATOM      2  C   UNL     1      55.977  27.945  51.029  1.00  0.00     0.000 C 
BRANCH   2   3
ATOM      3  C   UNL     1      54.848  27.184  50.304  1.00  0.00     0.006 C 
BRANCH   3   4
ATOM      4  C   UNL     1      55.207  25.745  49.903  1.00  0.00     0.053 C 
BRANCH   4   5
ATOM      5  C   UNL     1      53.992  24.939  49.561  1.00  0.00     0.041 C 
ATOM      6  O   UNL     1      53.115  25.411  48.790  1.00  0.00    -0.550 OA
ATOM      7  O   UNL     1      53.812  23.681  50.121  1.00  0.00    -0.550 OA
ENDBRANCH   4   5
ENDBRANCH   3   4
ENDBRANCH   2   3
ENDBRANCH   1   2
BRANCH   1   8
ATOM      8  C   UNL     1      58.415  28.665  50.481  1.00  0.00     0.000 C 
BRANCH   8   9
ATOM      9  C   UNL     1      59.450  28.397  49.379  1.00  0.00     0.000 C 
BRANCH   9  10
ATOM     10  C   UNL     1      60.208  27.090  49.644  1.00  0.00     0.006 C 
BRANCH  10  11
ATOM     11  C   UNL     1      61.088  27.208  50.892  1.00  0.00     0.053 C 
BRANCH  11  12
ATOM     12  C   UNL     1      62.511  27.459  50.508  1.00  0.00     0.041 C 
ATOM     13  O   UNL     1      62.886  27.285  49.318  1.00  0.00    -0.550 OA
ATOM     14  O   UNL     1      63.414  27.930  51.453  1.00  0.00    -0.550 OA
ENDBRANCH  11  12
ENDBRANCH  10  11
ENDBRANCH   9  10
ENDBRANCH   8   9
ENDBRANCH   1   8
TORSDOF 9
ENDMDL
MODEL 2
REMARK VINA RESULT:    -3.625     12.856     14.435
REMARK INTER + INTRA:          -5.894
REMARK INTER:                  -5.387
REMARK INTRA:                  -0.507
REMARK UNBOUND:                -0.362
REMARK SMILES O=C([O-])CCCCCCCCC(=O)[O-]
REMARK SMILES IDX 7 1 6 2 5 3 4 4 2 5 1 6 3 7 8 8 9 9 10 10 11 11 12 12 13 13
REMARK SMILES IDX 14 14
REMARK H PARENT
REMARK Flexibility Score: inf
ROOT
ATOM      1  C   UNL     1      62.205  31.756  60.352  1.00  0.00     0.000 C 
ENDROOT
BRANCH   1   2
ATOM      2  C   UNL     1      61.961  33.268  60.525  1.00  0.00     0.000 C 
BRANCH   2   3
ATOM      3  C   UNL     1      63.193  34.163  60.281  1.00  0.00     0.006 C 
BRANCH   3   4
ATOM      4  C   UNL     1      64.374  33.889  61.225  1.00  0.00     0.053 C 
BRANCH   4   5
ATOM      5  C   UNL     1      65.255  35.089  61.383  1.00  0.00     0.041 C 
ATOM      6  O   UNL     1      65.322  35.686  62.490  1.00  0.00    -0.550 OA
ATOM      7  O   UNL     1      65.977  35.569  60.298  1.00  0.00    -0.550 OA
ENDBRANCH   4   5
ENDBRANCH   3   4
ENDBRANCH   2   3
ENDBRANCH   1   2
BRANCH   1   8
ATOM      8  C   UNL     1      61.390  30.851  61.293  1.00  0.00     0.000 C 
BRANCH   8   9
ATOM      9  C   UNL     1      62.176  29.617  61.760  1.00  0.00     0.000 C 
BRANCH   9  10
ATOM     10  C   UNL     1      63.686  29.844  61.625  1.00  0.00     0.006 C 
BRANCH  10  11
ATOM     11  C   UNL     1      64.383  28.597  61.071  1.00  0.00     0.053 C 
BRANCH  11  12
ATOM     12  C   UNL     1      65.799  28.907  60.703  1.00  0.00     0.041 C 
ATOM     13  O   UNL     1      66.061  29.905  59.980  1.00  0.00    -0.550 OA
ATOM     14  O   UNL     1      66.834  28.125  61.198  1.00  0.00    -0.550 OA
ENDBRANCH  11  12
ENDBRANCH  10  11
ENDBRANCH   9  10
ENDBRANCH   8   9
ENDBRANCH   1   8
TORSDOF 9
ENDMDL
MODEL 3
REMARK VINA RESULT:    -3.601      2.273      2.621
REMARK INTER + INTRA:          -5.857
REMARK INTER:                  -5.125
REMARK INTRA:                  -0.732
REMARK UNBOUND:                -0.362
REMARK SMILES O=C([O-])CCCCCCCCC(=O)[O-]
REMARK SMILES IDX 7 1 6 2 5 3 4 4 2 5 1 6 3 7 8 8 9 9 10 10 11 11 12 12 13 13
REMARK SMILES IDX 14 14
REMARK H PARENT
REMARK Flexibility Score: inf
ROOT
ATOM      1  C   UNL     1      58.406  28.608  51.496  1.00  0.00     0.000 C 
ENDROOT
BRANCH   1   2
ATOM      2  C   UNL     1      57.058  27.975  51.895  1.00  0.00     0.000 C 
BRANCH   2   3
ATOM      3  C   UNL     1      56.096  27.689  50.723  1.00  0.00     0.006 C 
BRANCH   3   4
ATOM      4  C   UNL     1      55.954  26.201  50.367  1.00  0.00     0.053 C 
BRANCH   4   5
ATOM      5  C   UNL     1      54.585  25.877  49.852  1.00  0.00     0.041 C 
ATOM      6  O   UNL     1      53.723  26.786  49.726  1.00  0.00    -0.550 OA
ATOM      7  O   UNL     1      54.252  24.564  49.543  1.00  0.00    -0.550 OA
ENDBRANCH   4   5
ENDBRANCH   3   4
ENDBRANCH   2   3
ENDBRANCH   1   2
BRANCH   1   8
ATOM      8  C   UNL     1      58.692  28.637  49.984  1.00  0.00     0.000 C 
BRANCH   8   9
ATOM      9  C   UNL     1      59.945  27.838  49.599  1.00  0.00     0.000 C 
BRANCH   9  10
ATOM     10  C   UNL     1      60.156  26.655  50.552  1.00  0.00     0.006 C 
BRANCH  10  11
ATOM     11  C   UNL     1      59.541  25.373  49.982  1.00  0.00     0.053 C 
BRANCH  11  12
ATOM     12  C   UNL     1      60.063  24.174  50.708  1.00  0.00     0.041 C 
ATOM     13  O   UNL     1      59.615  23.879  51.848  1.00  0.00    -0.550 OA
ATOM     14  O   UNL     1      61.009  23.353  50.107  1.00  0.00    -0.550 OA
ENDBRANCH  11  12
ENDBRANCH  10  11
ENDBRANCH   9  10
ENDBRANCH   8   9
ENDBRANCH   1   8
TORSDOF 9
ENDMDL
MODEL 4
REMARK VINA RESULT:    -3.588     12.365     13.816
REMARK INTER + INTRA:          -5.837
REMARK INTER:                  -5.189
REMARK INTRA:                  -0.648
REMARK UNBOUND:                -0.362
REMARK SMILES O=C([O-])CCCCCCCCC(=O)[O-]
REMARK SMILES IDX 7 1 6 2 5 3 4 4 2 5 1 6 3 7 8 8 9 9 10 10 11 11 12 12 13 13
REMARK SMILES IDX 14 14
REMARK H PARENT
REMARK Flexibility Score: inf
ROOT
ATOM      1  C   UNL     1      61.260  31.188  59.905  1.00  0.00     0.000 C 
ENDROOT
BRANCH   1   2
ATOM      2  C   UNL     1      61.298  30.865  61.412  1.00  0.00     0.000 C 
BRANCH   2   3
ATOM      3  C   UNL     1      62.185  29.664  61.803  1.00  0.00     0.006 C 
BRANCH   3   4
ATOM      4  C   UNL     1      63.130  29.185  60.690  1.00  0.00     0.053 C 
BRANCH   4   5
ATOM      5  C   UNL     1      64.536  29.652  60.909  1.00  0.00     0.041 C 
ATOM      6  O   UNL     1      65.453  28.819  61.132  1.00  0.00    -0.550 OA
ATOM      7  O   UNL     1      64.826  31.010  60.902  1.00  0.00    -0.550 OA
ENDBRANCH   4   5
ENDBRANCH   3   4
ENDBRANCH   2   3
ENDBRANCH   1   2
BRANCH   1   8
ATOM      8  C   UNL     1      61.423  32.677  59.552  1.00  0.00     0.000 C 
BRANCH   8   9
ATOM      9  C   UNL     1      62.226  33.454  60.606  1.00  0.00     0.000 C 
BRANCH   9  10
ATOM     10  C   UNL     1      62.003  34.965  60.462  1.00  0.00     0.006 C 
BRANCH  10  11
ATOM     11  C   UNL     1      62.966  35.751  61.357  1.00  0.00     0.053 C 
BRANCH  11  12
ATOM     12  C   UNL     1      64.383  35.390  61.045  1.00  0.00     0.041 C 
ATOM     13  O   UNL     1      64.872  35.660  59.916  1.00  0.00    -0.550 OA
ATOM     14  O   UNL     1      65.180  34.798  62.016  1.00  0.00    -0.550 OA
ENDBRANCH  11  12
ENDBRANCH  10  11
ENDBRANCH   9  10
ENDBRANCH   8   9
ENDBRANCH   1   8
TORSDOF 9
ENDMDL
MODEL 5
REMARK VINA RESULT:    -3.575     12.111     14.323
REMARK INTER + INTRA:          -5.817
REMARK INTER:                  -5.200
REMARK INTRA:                  -0.617
REMARK UNBOUND:                -0.362
REMARK SMILES O=C([O-])CCCCCCCCC(=O)[O-]
REMARK SMILES IDX 7 1 6 2 5 3 4 4 2 5 1 6 3 7 8 8 9 9 10 10 11 11 12 12 13 13
REMARK SMILES IDX 14 14
REMARK H PARENT
REMARK Flexibility Score: inf
ROOT
ATOM      1  C   UNL     1      61.850  34.046  59.190  1.00  0.00     0.000 C 
ENDROOT
BRANCH   1   2
ATOM      2  C   UNL     1      61.315  34.853  60.389  1.00  0.00     0.000 C 
BRANCH   2   3
ATOM      3  C   UNL     1      62.344  35.783  61.065  1.00  0.00     0.006 C 
BRANCH   3   4
ATOM      4  C   UNL     1      63.780  35.629  60.540  1.00  0.00     0.053 C 
BRANCH   4   5
ATOM      5  C   UNL     1      64.642  34.853  61.487  1.00  0.00     0.041 C 
ATOM      6  O   UNL     1      64.678  33.596  61.426  1.00  0.00    -0.550 OA
ATOM      7  O   UNL     1      65.379  35.517  62.459  1.00  0.00    -0.550 OA
ENDBRANCH   4   5
ENDBRANCH   3   4
ENDBRANCH   2   3
ENDBRANCH   1   2
BRANCH   1   8
ATOM      8  C   UNL     1      61.670  32.522  59.295  1.00  0.00     0.000 C 
BRANCH   8   9
ATOM      9  C   UNL     1      61.681  32.020  60.747  1.00  0.00     0.000 C 
BRANCH   9  10
ATOM     10  C   UNL     1      61.137  30.589  60.838  1.00  0.00     0.006 C 
BRANCH  10  11
ATOM     11  C   UNL     1      61.744  29.844  62.030  1.00  0.00     0.053 C 
BRANCH  11  12
ATOM     12  C   UNL     1      62.981  29.112  61.616  1.00  0.00     0.041 C 
ATOM     13  O   UNL     1      64.095  29.699  61.621  1.00  0.00    -0.550 OA
ATOM     14  O   UNL     1      62.912  27.769  61.270  1.00  0.00    -0.550 OA
ENDBRANCH  11  12
ENDBRANCH  10  11
ENDBRANCH   9  10
ENDBRANCH   8   9
ENDBRANCH   1   8
TORSDOF 9
ENDMDL
MODEL 6
REMARK VINA RESULT:    -3.566      2.373      5.941
REMARK INTER + INTRA:          -5.804
REMARK INTER:                  -4.825
REMARK INTRA:                  -0.979
REMARK UNBOUND:                -0.362
REMARK SMILES O=C([O-])CCCCCCCCC(=O)[O-]
REMARK SMILES IDX 7 1 6 2 5 3 4 4 2 5 1 6 3 7 8 8 9 9 10 10 11 11 12 12 13 13
REMARK SMILES IDX 14 14
REMARK H PARENT
REMARK Flexibility Score: inf
ROOT
ATOM      1  C   UNL     1      59.874  28.733  50.776  1.00  0.00     0.000 C 
ENDROOT
BRANCH   1   2
ATOM      2  C   UNL     1      60.122  27.803  49.571  1.00  0.00     0.000 C 
BRANCH   2   3
ATOM      3  C   UNL     1      60.784  26.452  49.911  1.00  0.00     0.006 C 
BRANCH   3   4
ATOM      4  C   UNL     1      59.827  25.250  49.874  1.00  0.00     0.053 C 
BRANCH   4   5
ATOM      5  C   UNL     1      59.761  24.546  51.195  1.00  0.00     0.041 C 
ATOM      6  O   UNL     1      59.347  25.154  52.217  1.00  0.00    -0.550 OA
ATOM      7  O   UNL     1      60.189  23.229  51.303  1.00  0.00    -0.550 OA
ENDBRANCH   4   5
ENDBRANCH   3   4
ENDBRANCH   2   3
ENDBRANCH   1   2
BRANCH   1   8
ATOM      8  C   UNL     1      58.515  28.550  51.473  1.00  0.00     0.000 C 
BRANCH   8   9
ATOM      9  C   UNL     1      57.419  28.052  50.520  1.00  0.00     0.000 C 
BRANCH   9  10
ATOM     10  C   UNL     1      56.492  27.052  51.222  1.00  0.00     0.006 C 
BRANCH  10  11
ATOM     11  C   UNL     1      56.245  25.821  50.344  1.00  0.00     0.053 C 
BRANCH  11  12
ATOM     12  C   UNL     1      54.842  25.820  49.826  1.00  0.00     0.041 C 
ATOM     13  O   UNL     1      54.317  24.749  49.422  1.00  0.00    -0.550 OA
ATOM     14  O   UNL     1      54.096  26.992  49.834  1.00  0.00    -0.550 OA
ENDBRANCH  11  12
ENDBRANCH  10  11
ENDBRANCH   9  10
ENDBRANCH   8   9
ENDBRANCH   1   8
TORSDOF 9
ENDMDL
MODEL 7
REMARK VINA RESULT:    -3.510      1.591      2.071
REMARK INTER + INTRA:          -5.718
REMARK INTER:                  -4.990
REMARK INTRA:                  -0.729
REMARK UNBOUND:                -0.362
REMARK SMILES O=C([O-])CCCCCCCCC(=O)[O-]
REMARK SMILES IDX 7 1 6 2 5 3 4 4 2 5 1 6 3 7 8 8 9 9 10 10 11 11 12 12 13 13
REMARK SMILES IDX 14 14
REMARK H PARENT
REMARK Flexibility Score: inf
ROOT
ATOM      1  C   UNL     1      57.198  27.859  51.888  1.00  0.00     0.000 C 
ENDROOT
BRANCH   1   2
ATOM      2  C   UNL     1      56.320  27.438  50.694  1.00  0.00     0.000 C 
BRANCH   2   3
ATOM      3  C   UNL     1      56.206  25.916  50.468  1.00  0.00     0.006 C 
BRANCH   3   4
ATOM      4  C   UNL     1      54.987  25.488  49.636  1.00  0.00     0.053 C 
BRANCH   4   5
ATOM      5  C   UNL     1      53.704  25.993  50.222  1.00  0.00     0.041 C 
ATOM      6  O   UNL     1      53.240  25.476  51.272  1.00  0.00    -0.550 OA
ATOM      7  O   UNL     1      53.004  27.012  49.588  1.00  0.00    -0.550 OA
ENDBRANCH   4   5
ENDBRANCH   3   4
ENDBRANCH   2   3
ENDBRANCH   1   2
BRANCH   1   8
ATOM      8  C   UNL     1      58.641  28.259  51.530  1.00  0.00     0.000 C 
BRANCH   8   9
ATOM      9  C   UNL     1      58.830  28.521  50.029  1.00  0.00     0.000 C 
BRANCH   9  10
ATOM     10  C   UNL     1      60.017  27.721  49.476  1.00  0.00     0.006 C 
BRANCH  10  11
ATOM     11  C   UNL     1      59.853  26.226  49.762  1.00  0.00     0.053 C 
BRANCH  11  12
ATOM     12  C   UNL     1      61.126  25.652  50.298  1.00  0.00     0.041 C 
ATOM     13  O   UNL     1      62.007  26.410  50.783  1.00  0.00    -0.550 OA
ATOM     14  O   UNL     1      61.320  24.277  50.308  1.00  0.00    -0.550 OA
ENDBRANCH  11  12
ENDBRANCH  10  11
ENDBRANCH   9  10
ENDBRANCH   8   9
ENDBRANCH   1   8
TORSDOF 9
ENDMDL
MODEL 8
REMARK VINA RESULT:    -3.503      2.275      3.207
REMARK INTER + INTRA:          -5.708
REMARK INTER:                  -4.686
REMARK INTRA:                  -1.022
REMARK UNBOUND:                -0.362
REMARK SMILES O=C([O-])CCCCCCCCC(=O)[O-]
REMARK SMILES IDX 7 1 6 2 5 3 4 4 2 5 1 6 3 7 8 8 9 9 10 10 11 11 12 12 13 13
REMARK SMILES IDX 14 14
REMARK H PARENT
REMARK Flexibility Score: inf
ROOT
ATOM      1  C   UNL     1      54.518  27.970  51.240  1.00  0.00     0.000 C 
ENDROOT
BRANCH   1   2
ATOM      2  C   UNL     1      54.199  27.064  50.035  1.00  0.00     0.000 C 
BRANCH   2   3
ATOM      3  C   UNL     1      54.683  25.605  50.165  1.00  0.00     0.006 C 
BRANCH   3   4
ATOM      4  C   UNL     1      56.193  25.416  49.955  1.00  0.00     0.053 C 
BRANCH   4   5
ATOM      5  C   UNL     1      56.907  25.142  51.243  1.00  0.00     0.041 C 
ATOM      6  O   UNL     1      58.163  25.051  51.265  1.00  0.00    -0.550 OA
ATOM      7  O   UNL     1      56.182  24.952  52.413  1.00  0.00    -0.550 OA
ENDBRANCH   4   5
ENDBRANCH   3   4
ENDBRANCH   2   3
ENDBRANCH   1   2
BRANCH   1   8
ATOM      8  C   UNL     1      55.798  28.813  51.102  1.00  0.00     0.000 C 
BRANCH   8   9
ATOM      9  C   UNL     1      56.741  28.666  52.305  1.00  0.00     0.000 C 
BRANCH   9  10
ATOM     10  C   UNL     1      58.208  28.688  51.860  1.00  0.00     0.006 C 
BRANCH  10  11
ATOM     11  C   UNL     1      58.327  28.487  50.346  1.00  0.00     0.053 C 
BRANCH  11  12
ATOM     12  C   UNL     1      59.746  28.207  49.965  1.00  0.00     0.041 C 
ATOM     13  O   UNL     1      60.037  27.153  49.340  1.00  0.00    -0.550 OA
ATOM     14  O   UNL     1      60.740  29.132  50.255  1.00  0.00    -0.550 OA
ENDBRANCH  11  12
ENDBRANCH  10  11
ENDBRANCH   9  10
ENDBRANCH   8   9
ENDBRANCH   1   8
TORSDOF 9
ENDMDL
MODEL 9
REMARK VINA RESULT:    -3.430     11.464     12.372
REMARK INTER + INTRA:          -5.596
REMARK INTER:                  -4.516
REMARK INTRA:                  -1.080
REMARK UNBOUND:                -0.362
REMARK SMILES O=C([O-])CCCCCCCCC(=O)[O-]
REMARK SMILES IDX 7 1 6 2 5 3 4 4 2 5 1 6 3 7 8 8 9 9 10 10 11 11 12 12 13 13
REMARK SMILES IDX 14 14
REMARK H PARENT
REMARK Flexibility Score: inf
ROOT
ATOM      1  C   UNL     1      61.117  30.814  60.052  1.00  0.00     0.000 C 
ENDROOT
BRANCH   1   2
ATOM      2  C   UNL     1      61.219  30.598  61.575  1.00  0.00     0.000 C 
BRANCH   2   3
ATOM      3  C   UNL     1      62.214  29.505  62.017  1.00  0.00     0.006 C 
BRANCH   3   4
ATOM      4  C   UNL     1      62.486  28.428  60.956  1.00  0.00     0.053 C 
BRANCH   4   5
ATOM      5  C   UNL     1      61.896  27.105  61.337  1.00  0.00     0.041 C 
ATOM      6  O   UNL     1      60.691  26.849  61.076  1.00  0.00    -0.550 OA
ATOM      7  O   UNL     1      62.668  26.168  62.012  1.00  0.00    -0.550 OA
ENDBRANCH   4   5
ENDBRANCH   3   4
ENDBRANCH   2   3
ENDBRANCH   1   2
BRANCH   1   8
ATOM      8  C   UNL     1      61.308  32.267  59.584  1.00  0.00     0.000 C 
BRANCH   8   9
ATOM      9  C   UNL     1      62.192  33.088  60.535  1.00  0.00     0.000 C 
BRANCH   9  10
ATOM     10  C   UNL     1      63.639  33.141  60.031  1.00  0.00     0.006 C 
BRANCH  10  11
ATOM     11  C   UNL     1      64.539  32.202  60.839  1.00  0.00     0.053 C 
BRANCH  11  12
ATOM     12  C   UNL     1      64.932  31.016  60.016  1.00  0.00     0.041 C 
ATOM     13  O   UNL     1      65.665  30.118  60.509  1.00  0.00    -0.550 OA
ATOM     14  O   UNL     1      64.450  30.877  58.721  1.00  0.00    -0.550 OA
ENDBRANCH  11  12
ENDBRANCH  10  11
ENDBRANCH   9  10
ENDBRANCH   8   9
ENDBRANCH   1   8
TORSDOF 9
ENDMDL
