MODEL 1
REMARK VINA RESULT:    -3.957      0.000      0.000
REMARK INTER + INTRA:          -9.920
REMARK INTER:                  -7.427
REMARK INTRA:                  -2.494
REMARK UNBOUND:                -2.494
REMARK SMILES O=C([O-])CCCCCCCCCCCCCCC(=O)[O-]
REMARK SMILES IDX 10 1 9 2 8 3 7 4 6 5 5 6 4 7 2 8 1 9 3 10 11 11 12 12 13 13
REMARK SMILES IDX 14 14 15 15 16 16 17 17 18 18 19 19 20 20
REMARK H PARENT
REMARK Flexibility Score: inf
ROOT
ATOM      1  C   UNL     1       1.621   8.655  -5.609  1.00  0.00     0.000 C 
ENDROOT
BRANCH   1   2
ATOM      2  C   UNL     1       2.906   8.108  -4.969  1.00  0.00     0.000 C 
BRANCH   2   3
ATOM      3  C   UNL     1       4.041   8.029  -6.000  1.00  0.00     0.000 C 
BRANCH   3   4
ATOM      4  C   UNL     1       3.768   6.998  -7.108  1.00  0.00     0.000 C 
BRANCH   4   5
ATOM      5  C   UNL     1       4.269   7.464  -8.485  1.00  0.00     0.000 C 
BRANCH   5   6
ATOM      6  C   UNL     1       5.066   8.780  -8.416  1.00  0.00     0.006 C 
BRANCH   6   7
ATOM      7  C   UNL     1       6.380   8.770  -9.215  1.00  0.00     0.053 C 
BRANCH   7   8
ATOM      8  C   UNL     1       7.506   8.162  -8.438  1.00  0.00     0.041 C 
ATOM      9  O   UNL     1       8.521   7.717  -9.036  1.00  0.00    -0.550 OA
ATOM     10  O   UNL     1       7.451   8.118  -7.050  1.00  0.00    -0.550 OA
ENDBRANCH   7   8
ENDBRANCH   6   7
ENDBRANCH   5   6
ENDBRANCH   4   5
ENDBRANCH   3   4
ENDBRANCH   2   3
ENDBRANCH   1   2
BRANCH   1  11
ATOM     11  C   UNL     1       1.810  10.056  -6.211  1.00  0.00     0.000 C 
BRANCH  11  12
ATOM     12  C   UNL     1       1.499  10.099  -7.718  1.00  0.00     0.000 C 
BRANCH  12  13
ATOM     13  C   UNL     1       0.755   8.844  -8.203  1.00  0.00     0.000 C 
BRANCH  13  14
ATOM     14  C   UNL     1       1.013   8.541  -9.687  1.00  0.00     0.000 C 
BRANCH  14  15
ATOM     15  C   UNL     1       0.939   7.034  -9.960  1.00  0.00     0.000 C 
BRANCH  15  16
ATOM     16  C   UNL     1       0.264   6.295  -8.795  1.00  0.00     0.006 C 
BRANCH  16  17
ATOM     17  C   UNL     1       0.856   4.897  -8.574  1.00  0.00     0.053 C 
BRANCH  17  18
ATOM     18  C   UNL     1       0.519   4.360  -7.216  1.00  0.00     0.041 C 
ATOM     19  O   UNL     1      -0.225   3.350  -7.100  1.00  0.00    -0.550 OA
ATOM     20  O   UNL     1       1.000   4.995  -6.078  1.00  0.00    -0.550 OA
ENDBRANCH  17  18
ENDBRANCH  16  17
ENDBRANCH  15  16
ENDBRANCH  14  15
ENDBRANCH  13  14
ENDBRANCH  12  13
ENDBRANCH  11  12
ENDBRANCH   1  11
TORSDOF 15
ENDMDL
MODEL 2
REMARK VINA RESULT:    -3.901      1.634      3.513
REMARK INTER + INTRA:          -9.816
REMARK INTER:                  -7.579
REMARK INTRA:                  -2.237
REMARK UNBOUND:                -2.494
REMARK SMILES O=C([O-])CCCCCCCCCCCCCCC(=O)[O-]
REMARK SMILES IDX 10 1 9 2 8 3 7 4 6 5 5 6 4 7 2 8 1 9 3 10 11 11 12 12 13 13
REMARK SMILES IDX 14 14 15 15 16 16 17 17 18 18 19 19 20 20
REMARK H PARENT
REMARK Flexibility Score: inf
ROOT
ATOM      1  C   UNL     1       2.233   5.938  -8.816  1.00  0.00     0.000 C 
ENDROOT
BRANCH   1   2
ATOM      2  C   UNL     1       3.155   6.453  -9.931  1.00  0.00     0.000 C 
BRANCH   2   3
ATOM      3  C   UNL     1       4.257   7.357  -9.357  1.00  0.00     0.000 C 
BRANCH   3   4
ATOM      4  C   UNL     1       4.365   7.262  -7.826  1.00  0.00     0.000 C 
BRANCH   4   5
ATOM      5  C   UNL     1       5.282   8.344  -7.230  1.00  0.00     0.000 C 
BRANCH   5   6
ATOM      6  C   UNL     1       5.713   9.398  -8.268  1.00  0.00     0.006 C 
BRANCH   6   7
ATOM      7  C   UNL     1       7.224   9.678  -8.297  1.00  0.00     0.053 C 
BRANCH   7   8
ATOM      8  C   UNL     1       8.031   8.417  -8.331  1.00  0.00     0.041 C 
ATOM      9  O   UNL     1       7.877   7.591  -9.268  1.00  0.00    -0.550 OA
ATOM     10  O   UNL     1       8.977   8.170  -7.344  1.00  0.00    -0.550 OA
ENDBRANCH   7   8
ENDBRANCH   6   7
ENDBRANCH   5   6
ENDBRANCH   4   5
ENDBRANCH   3   4
ENDBRANCH   2   3
ENDBRANCH   1   2
BRANCH   1  11
ATOM     11  C   UNL     1       0.761   5.862  -9.253  1.00  0.00     0.000 C 
BRANCH  11  12
ATOM     12  C   UNL     1      -0.077   7.037  -8.716  1.00  0.00     0.000 C 
BRANCH  12  13
ATOM     13  C   UNL     1       0.632   7.797  -7.584  1.00  0.00     0.000 C 
BRANCH  13  14
ATOM     14  C   UNL     1       1.074   9.206  -8.005  1.00  0.00     0.000 C 
BRANCH  14  15
ATOM     15  C   UNL     1       1.878   9.886  -6.890  1.00  0.00     0.000 C 
BRANCH  15  16
ATOM     16  C   UNL     1       1.523   9.295  -5.516  1.00  0.00     0.006 C 
BRANCH  16  17
ATOM     17  C   UNL     1       2.757   8.762  -4.778  1.00  0.00     0.053 C 
BRANCH  17  18
ATOM     18  C   UNL     1       2.518   7.396  -4.210  1.00  0.00     0.041 C 
ATOM     19  O   UNL     1       2.515   6.387  -4.965  1.00  0.00    -0.550 OA
ATOM     20  O   UNL     1       2.264   7.241  -2.854  1.00  0.00    -0.550 OA
ENDBRANCH  17  18
ENDBRANCH  16  17
ENDBRANCH  15  16
ENDBRANCH  14  15
ENDBRANCH  13  14
ENDBRANCH  12  13
ENDBRANCH  11  12
ENDBRANCH   1  11
TORSDOF 15
ENDMDL
MODEL 3
REMARK VINA RESULT:    -3.872      1.970      5.725
REMARK INTER + INTRA:          -9.760
REMARK INTER:                  -7.555
REMARK INTRA:                  -2.206
REMARK UNBOUND:                -2.494
REMARK SMILES O=C([O-])CCCCCCCCCCCCCCC(=O)[O-]
REMARK SMILES IDX 10 1 9 2 8 3 7 4 6 5 5 6 4 7 2 8 1 9 3 10 11 11 12 12 13 13
REMARK SMILES IDX 14 14 15 15 16 16 17 17 18 18 19 19 20 20
REMARK H PARENT
REMARK Flexibility Score: inf
ROOT
ATOM      1  C   UNL     1      -0.068   6.826  -9.350  1.00  0.00     0.000 C 
ENDROOT
BRANCH   1   2
ATOM      2  C   UNL     1       0.594   5.502  -9.760  1.00  0.00     0.000 C 
BRANCH   2   3
ATOM      3  C   UNL     1       1.266   4.829  -8.554  1.00  0.00     0.000 C 
BRANCH   3   4
ATOM      4  C   UNL     1       0.321   4.684  -7.350  1.00  0.00     0.000 C 
BRANCH   4   5
ATOM      5  C   UNL     1       1.044   4.870  -6.005  1.00  0.00     0.000 C 
BRANCH   5   6
ATOM      6  C   UNL     1       2.224   5.856  -6.094  1.00  0.00     0.006 C 
BRANCH   6   7
ATOM      7  C   UNL     1       1.883   7.293  -5.668  1.00  0.00     0.053 C 
BRANCH   7   8
ATOM      8  C   UNL     1       2.638   7.711  -4.444  1.00  0.00     0.041 C 
ATOM      9  O   UNL     1       3.486   8.639  -4.508  1.00  0.00    -0.550 OA
ATOM     10  O   UNL     1       2.380   7.099  -3.224  1.00  0.00    -0.550 OA
ENDBRANCH   7   8
ENDBRANCH   6   7
ENDBRANCH   5   6
ENDBRANCH   4   5
ENDBRANCH   3   4
ENDBRANCH   2   3
ENDBRANCH   1   2
BRANCH   1  11
ATOM     11  C   UNL     1       0.682   8.054  -9.889  1.00  0.00     0.000 C 
BRANCH  11  12
ATOM     12  C   UNL     1       1.234   8.950  -8.765  1.00  0.00     0.000 C 
BRANCH  12  13
ATOM     13  C   UNL     1       2.766   9.064  -8.801  1.00  0.00     0.000 C 
BRANCH  13  14
ATOM     14  C   UNL     1       3.444   7.775  -9.287  1.00  0.00     0.000 C 
BRANCH  14  15
ATOM     15  C   UNL     1       4.642   7.415  -8.400  1.00  0.00     0.000 C 
BRANCH  15  16
ATOM     16  C   UNL     1       5.130   8.640  -7.610  1.00  0.00     0.006 C 
BRANCH  16  17
ATOM     17  C   UNL     1       6.480   9.158  -8.120  1.00  0.00     0.053 C 
BRANCH  17  18
ATOM     18  C   UNL     1       7.624   8.363  -7.569  1.00  0.00     0.041 C 
ATOM     19  O   UNL     1       8.680   8.221  -8.242  1.00  0.00    -0.550 OA
ATOM     20  O   UNL     1       7.512   7.750  -6.328  1.00  0.00    -0.550 OA
ENDBRANCH  17  18
ENDBRANCH  16  17
ENDBRANCH  15  16
ENDBRANCH  14  15
ENDBRANCH  13  14
ENDBRANCH  12  13
ENDBRANCH  11  12
ENDBRANCH   1  11
TORSDOF 15
ENDMDL
MODEL 4
REMARK VINA RESULT:    -3.778      0.810      6.087
REMARK INTER + INTRA:          -9.585
REMARK INTER:                  -7.339
REMARK INTRA:                  -2.247
REMARK UNBOUND:                -2.494
REMARK SMILES O=C([O-])CCCCCCCCCCCCCCC(=O)[O-]
REMARK SMILES IDX 10 1 9 2 8 3 7 4 6 5 5 6 4 7 2 8 1 9 3 10 11 11 12 12 13 13
REMARK SMILES IDX 14 14 15 15 16 16 17 17 18 18 19 19 20 20
REMARK H PARENT
REMARK Flexibility Score: inf
ROOT
ATOM      1  C   UNL     1       3.118   9.187  -4.877  1.00  0.00     0.000 C 
ENDROOT
BRANCH   1   2
ATOM      2  C   UNL     1       2.204  10.052  -5.757  1.00  0.00     0.000 C 
BRANCH   2   3
ATOM      3  C   UNL     1       1.113   9.198  -6.420  1.00  0.00     0.000 C 
BRANCH   3   4
ATOM      4  C   UNL     1       1.108   9.324  -7.952  1.00  0.00     0.000 C 
BRANCH   4   5
ATOM      5  C   UNL     1       0.661   8.028  -8.651  1.00  0.00     0.000 C 
BRANCH   5   6
ATOM      6  C   UNL     1       0.144   6.966  -7.662  1.00  0.00     0.006 C 
BRANCH   6   7
ATOM      7  C   UNL     1       0.303   5.516  -8.148  1.00  0.00     0.053 C 
BRANCH   7   8
ATOM      8  C   UNL     1       0.373   4.545  -7.011  1.00  0.00     0.041 C 
ATOM      9  O   UNL     1      -0.163   3.411  -7.112  1.00  0.00    -0.550 OA
ATOM     10  O   UNL     1       1.059   4.881  -5.850  1.00  0.00    -0.550 OA
ENDBRANCH   7   8
ENDBRANCH   6   7
ENDBRANCH   5   6
ENDBRANCH   4   5
ENDBRANCH   3   4
ENDBRANCH   2   3
ENDBRANCH   1   2
BRANCH   1  11
ATOM     11  C   UNL     1       3.343   7.782  -5.459  1.00  0.00     0.000 C 
BRANCH  11  12
ATOM     12  C   UNL     1       4.388   7.770  -6.590  1.00  0.00     0.000 C 
BRANCH  12  13
ATOM     13  C   UNL     1       3.965   6.887  -7.774  1.00  0.00     0.000 C 
BRANCH  13  14
ATOM     14  C   UNL     1       4.347   7.495  -9.131  1.00  0.00     0.000 C 
BRANCH  14  15
ATOM     15  C   UNL     1       4.813   8.947  -8.971  1.00  0.00     0.000 C 
BRANCH  15  16
ATOM     16  C   UNL     1       5.979   9.260  -9.922  1.00  0.00     0.006 C 
BRANCH  16  17
ATOM     17  C   UNL     1       7.275   9.579  -9.166  1.00  0.00     0.053 C 
BRANCH  17  18
ATOM     18  C   UNL     1       7.900   8.345  -8.591  1.00  0.00     0.041 C 
ATOM     19  O   UNL     1       8.326   7.436  -9.351  1.00  0.00    -0.550 OA
ATOM     20  O   UNL     1       7.982   8.185  -7.214  1.00  0.00    -0.550 OA
ENDBRANCH  17  18
ENDBRANCH  16  17
ENDBRANCH  15  16
ENDBRANCH  14  15
ENDBRANCH  13  14
ENDBRANCH  12  13
ENDBRANCH  11  12
ENDBRANCH   1  11
TORSDOF 15
ENDMDL
MODEL 5
REMARK VINA RESULT:    -3.763      0.978      6.189
REMARK INTER + INTRA:          -9.557
REMARK INTER:                  -7.586
REMARK INTRA:                  -1.971
REMARK UNBOUND:                -2.494
REMARK SMILES O=C([O-])CCCCCCCCCCCCCCC(=O)[O-]
REMARK SMILES IDX 10 1 9 2 8 3 7 4 6 5 5 6 4 7 2 8 1 9 3 10 11 11 12 12 13 13
REMARK SMILES IDX 14 14 15 15 16 16 17 17 18 18 19 19 20 20
REMARK H PARENT
REMARK Flexibility Score: inf
ROOT
ATOM      1  C   UNL     1       1.064   8.872  -6.814  1.00  0.00     0.000 C 
ENDROOT
BRANCH   1   2
ATOM      2  C   UNL     1       1.161   9.794  -8.038  1.00  0.00     0.000 C 
BRANCH   2   3
ATOM      3  C   UNL     1       1.135   8.981  -9.341  1.00  0.00     0.000 C 
BRANCH   3   4
ATOM      4  C   UNL     1       1.715   7.567  -9.170  1.00  0.00     0.000 C 
BRANCH   4   5
ATOM      5  C   UNL     1       0.676   6.465  -9.440  1.00  0.00     0.000 C 
BRANCH   5   6
ATOM      6  C   UNL     1       1.198   5.057  -9.096  1.00  0.00     0.006 C 
BRANCH   6   7
ATOM      7  C   UNL     1       1.557   4.858  -7.614  1.00  0.00     0.053 C 
BRANCH   7   8
ATOM      8  C   UNL     1       0.463   4.171  -6.858  1.00  0.00     0.041 C 
ATOM      9  O   UNL     1       0.222   4.488  -5.663  1.00  0.00    -0.550 OA
ATOM     10  O   UNL     1      -0.315   3.204  -7.482  1.00  0.00    -0.550 OA
ENDBRANCH   7   8
ENDBRANCH   6   7
ENDBRANCH   5   6
ENDBRANCH   4   5
ENDBRANCH   3   4
ENDBRANCH   2   3
ENDBRANCH   1   2
BRANCH   1  11
ATOM     11  C   UNL     1       1.524   9.558  -5.518  1.00  0.00     0.000 C 
BRANCH  11  12
ATOM     12  C   UNL     1       3.032   9.384  -5.259  1.00  0.00     0.000 C 
BRANCH  12  13
ATOM     13  C   UNL     1       3.513   7.948  -5.521  1.00  0.00     0.000 C 
BRANCH  13  14
ATOM     14  C   UNL     1       4.563   7.872  -6.639  1.00  0.00     0.000 C 
BRANCH  14  15
ATOM     15  C   UNL     1       4.701   9.221  -7.356  1.00  0.00     0.000 C 
BRANCH  15  16
ATOM     16  C   UNL     1       5.137   9.027  -8.817  1.00  0.00     0.006 C 
BRANCH  16  17
ATOM     17  C   UNL     1       6.200   7.932  -8.965  1.00  0.00     0.053 C 
BRANCH  17  18
ATOM     18  C   UNL     1       7.588   8.492  -8.897  1.00  0.00     0.041 C 
ATOM     19  O   UNL     1       7.956   9.375  -9.715  1.00  0.00    -0.550 OA
ATOM     20  O   UNL     1       8.485   8.013  -7.951  1.00  0.00    -0.550 OA
ENDBRANCH  17  18
ENDBRANCH  16  17
ENDBRANCH  15  16
ENDBRANCH  14  15
ENDBRANCH  13  14
ENDBRANCH  12  13
ENDBRANCH  11  12
ENDBRANCH   1  11
TORSDOF 15
ENDMDL
MODEL 6
REMARK VINA RESULT:    -3.644      1.686      6.270
REMARK INTER + INTRA:          -9.333
REMARK INTER:                  -7.495
REMARK INTRA:                  -1.837
REMARK UNBOUND:                -2.494
REMARK SMILES O=C([O-])CCCCCCCCCCCCCCC(=O)[O-]
REMARK SMILES IDX 10 1 9 2 8 3 7 4 6 5 5 6 4 7 2 8 1 9 3 10 11 11 12 12 13 13
REMARK SMILES IDX 14 14 15 15 16 16 17 17 18 18 19 19 20 20
REMARK H PARENT
REMARK Flexibility Score: inf
ROOT
ATOM      1  C   UNL     1       2.087   5.455  -8.926  1.00  0.00     0.000 C 
ENDROOT
BRANCH   1   2
ATOM      2  C   UNL     1       0.572   5.683  -8.813  1.00  0.00     0.000 C 
BRANCH   2   3
ATOM      3  C   UNL     1       0.254   7.176  -8.641  1.00  0.00     0.000 C 
BRANCH   3   4
ATOM      4  C   UNL     1       0.367   7.644  -7.181  1.00  0.00     0.000 C 
BRANCH   4   5
ATOM      5  C   UNL     1       1.257   8.889  -7.026  1.00  0.00     0.000 C 
BRANCH   5   6
ATOM      6  C   UNL     1       1.490   9.274  -5.552  1.00  0.00     0.006 C 
BRANCH   6   7
ATOM      7  C   UNL     1       2.768   8.682  -4.937  1.00  0.00     0.053 C 
BRANCH   7   8
ATOM      8  C   UNL     1       2.509   7.379  -4.246  1.00  0.00     0.041 C 
ATOM      9  O   UNL     1       2.525   6.302  -4.897  1.00  0.00    -0.550 OA
ATOM     10  O   UNL     1       2.283   7.351  -2.875  1.00  0.00    -0.550 OA
ENDBRANCH   7   8
ENDBRANCH   6   7
ENDBRANCH   5   6
ENDBRANCH   4   5
ENDBRANCH   3   4
ENDBRANCH   2   3
ENDBRANCH   1   2
BRANCH   1  11
ATOM     11  C   UNL     1       2.742   6.348  -9.991  1.00  0.00     0.000 C 
BRANCH  11  12
ATOM     12  C   UNL     1       3.834   7.262  -9.407  1.00  0.00     0.000 C 
BRANCH  12  13
ATOM     13  C   UNL     1       4.095   6.991  -7.917  1.00  0.00     0.000 C 
BRANCH  13  14
ATOM     14  C   UNL     1       5.278   7.802  -7.367  1.00  0.00     0.000 C 
BRANCH  14  15
ATOM     15  C   UNL     1       5.329   9.197  -8.002  1.00  0.00     0.000 C 
BRANCH  15  16
ATOM     16  C   UNL     1       6.745   9.789  -7.917  1.00  0.00     0.006 C 
BRANCH  16  17
ATOM     17  C   UNL     1       7.580   9.477  -9.165  1.00  0.00     0.053 C 
BRANCH  17  18
ATOM     18  C   UNL     1       8.356   8.204  -9.010  1.00  0.00     0.041 C 
ATOM     19  O   UNL     1       9.239   8.105  -8.118  1.00  0.00    -0.550 OA
ATOM     20  O   UNL     1       8.126   7.141  -9.873  1.00  0.00    -0.550 OA
ENDBRANCH  17  18
ENDBRANCH  16  17
ENDBRANCH  15  16
ENDBRANCH  14  15
ENDBRANCH  13  14
ENDBRANCH  12  13
ENDBRANCH  11  12
ENDBRANCH   1  11
TORSDOF 15
ENDMDL
MODEL 7
REMARK VINA RESULT:    -3.614      1.942      3.320
REMARK INTER + INTRA:          -9.276
REMARK INTER:                  -7.551
REMARK INTRA:                  -1.726
REMARK UNBOUND:                -2.494
REMARK SMILES O=C([O-])CCCCCCCCCCCCCCC(=O)[O-]
REMARK SMILES IDX 10 1 9 2 8 3 7 4 6 5 5 6 4 7 2 8 1 9 3 10 11 11 12 12 13 13
REMARK SMILES IDX 14 14 15 15 16 16 17 17 18 18 19 19 20 20
REMARK H PARENT
REMARK Flexibility Score: inf
ROOT
ATOM      1  C   UNL     1       2.210   6.491  -4.300  1.00  0.00     0.000 C 
ENDROOT
BRANCH   1   2
ATOM      2  C   UNL     1       2.770   7.914  -4.156  1.00  0.00     0.000 C 
BRANCH   2   3
ATOM      3  C   UNL     1       2.297   8.810  -5.311  1.00  0.00     0.000 C 
BRANCH   3   4
ATOM      4  C   UNL     1       3.227  10.011  -5.551  1.00  0.00     0.000 C 
BRANCH   4   5
ATOM      5  C   UNL     1       3.971   9.923  -6.894  1.00  0.00     0.000 C 
BRANCH   5   6
ATOM      6  C   UNL     1       4.191   8.471  -7.360  1.00  0.00     0.006 C 
BRANCH   6   7
ATOM      7  C   UNL     1       5.522   7.853  -6.901  1.00  0.00     0.053 C 
BRANCH   7   8
ATOM      8  C   UNL     1       6.657   8.225  -7.803  1.00  0.00     0.041 C 
ATOM      9  O   UNL     1       7.843   8.179  -7.383  1.00  0.00    -0.550 OA
ATOM     10  O   UNL     1       6.409   8.592  -9.120  1.00  0.00    -0.550 OA
ENDBRANCH   7   8
ENDBRANCH   6   7
ENDBRANCH   5   6
ENDBRANCH   4   5
ENDBRANCH   3   4
ENDBRANCH   2   3
ENDBRANCH   1   2
BRANCH   1  11
ATOM     11  C   UNL     1       1.893   6.126  -5.759  1.00  0.00     0.000 C 
BRANCH  11  12
ATOM     12  C   UNL     1       1.125   4.797  -5.882  1.00  0.00     0.000 C 
BRANCH  12  13
ATOM     13  C   UNL     1       0.458   4.626  -7.256  1.00  0.00     0.000 C 
BRANCH  13  14
ATOM     14  C   UNL     1       1.443   4.822  -8.419  1.00  0.00     0.000 C 
BRANCH  14  15
ATOM     15  C   UNL     1       0.697   4.969  -9.750  1.00  0.00     0.000 C 
BRANCH  15  16
ATOM     16  C   UNL     1       0.162   6.399  -9.927  1.00  0.00     0.006 C 
BRANCH  16  17
ATOM     17  C   UNL     1       1.211   7.459  -9.573  1.00  0.00     0.053 C 
BRANCH  17  18
ATOM     18  C   UNL     1       0.693   8.438  -8.563  1.00  0.00     0.041 C 
ATOM     19  O   UNL     1       0.978   9.661  -8.661  1.00  0.00    -0.550 OA
ATOM     20  O   UNL     1      -0.078   7.994  -7.496  1.00  0.00    -0.550 OA
ENDBRANCH  17  18
ENDBRANCH  16  17
ENDBRANCH  15  16
ENDBRANCH  14  15
ENDBRANCH  13  14
ENDBRANCH  12  13
ENDBRANCH  11  12
ENDBRANCH   1  11
TORSDOF 15
ENDMDL
MODEL 8
REMARK VINA RESULT:    -3.613     18.675     21.722
REMARK INTER + INTRA:          -9.276
REMARK INTER:                  -6.938
REMARK INTRA:                  -2.338
REMARK UNBOUND:                -2.494
REMARK SMILES O=C([O-])CCCCCCCCCCCCCCC(=O)[O-]
REMARK SMILES IDX 10 1 9 2 8 3 7 4 6 5 5 6 4 7 2 8 1 9 3 10 11 11 12 12 13 13
REMARK SMILES IDX 14 14 15 15 16 16 17 17 18 18 19 19 20 20
REMARK H PARENT
REMARK Flexibility Score: inf
ROOT
ATOM      1  C   UNL     1      -5.825  -2.938   9.729  1.00  0.00     0.000 C 
ENDROOT
BRANCH   1   2
ATOM      2  C   UNL     1      -5.598  -4.431  10.007  1.00  0.00     0.000 C 
BRANCH   2   3
ATOM      3  C   UNL     1      -4.100  -4.771   9.988  1.00  0.00     0.000 C 
BRANCH   3   4
ATOM      4  C   UNL     1      -3.599  -5.170   8.591  1.00  0.00     0.000 C 
BRANCH   4   5
ATOM      5  C   UNL     1      -4.700  -5.813   7.729  1.00  0.00     0.000 C 
BRANCH   5   6
ATOM      6  C   UNL     1      -4.782  -5.205   6.316  1.00  0.00     0.006 C 
BRANCH   6   7
ATOM      7  C   UNL     1      -4.974  -3.680   6.292  1.00  0.00     0.053 C 
BRANCH   7   8
ATOM      8  C   UNL     1      -4.196  -3.033   5.188  1.00  0.00     0.041 C 
ATOM      9  O   UNL     1      -4.399  -1.826   4.893  1.00  0.00    -0.550 OA
ATOM     10  O   UNL     1      -3.223  -3.753   4.506  1.00  0.00    -0.550 OA
ENDBRANCH   7   8
ENDBRANCH   6   7
ENDBRANCH   5   6
ENDBRANCH   4   5
ENDBRANCH   3   4
ENDBRANCH   2   3
ENDBRANCH   1   2
BRANCH   1  11
ATOM     11  C   UNL     1      -7.185  -2.659   9.069  1.00  0.00     0.000 C 
BRANCH  11  12
ATOM     12  C   UNL     1      -7.885  -3.944   8.591  1.00  0.00     0.000 C 
BRANCH  12  13
ATOM     13  C   UNL     1      -8.979  -3.666   7.548  1.00  0.00     0.000 C 
BRANCH  13  14
ATOM     14  C   UNL     1      -9.199  -4.850   6.594  1.00  0.00     0.000 C 
BRANCH  14  15
ATOM     15  C   UNL     1      -8.374  -6.067   7.029  1.00  0.00     0.000 C 
BRANCH  15  16
ATOM     16  C   UNL     1      -8.051  -6.971   5.829  1.00  0.00     0.006 C 
BRANCH  16  17
ATOM     17  C   UNL     1      -8.004  -8.454   6.216  1.00  0.00     0.053 C 
BRANCH  17  18
ATOM     18  C   UNL     1      -6.665  -8.844   6.763  1.00  0.00     0.041 C 
ATOM     19  O   UNL     1      -6.494  -8.952   8.006  1.00  0.00    -0.550 OA
ATOM     20  O   UNL     1      -5.597  -9.055   5.901  1.00  0.00    -0.550 OA
ENDBRANCH  17  18
ENDBRANCH  16  17
ENDBRANCH  15  16
ENDBRANCH  14  15
ENDBRANCH  13  14
ENDBRANCH  12  13
ENDBRANCH  11  12
ENDBRANCH   1  11
TORSDOF 15
ENDMDL
MODEL 9
REMARK VINA RESULT:    -3.584      1.829      3.932
REMARK INTER + INTRA:          -9.221
REMARK INTER:                  -7.141
REMARK INTRA:                  -2.081
REMARK UNBOUND:                -2.494
REMARK SMILES O=C([O-])CCCCCCCCCCCCCCC(=O)[O-]
REMARK SMILES IDX 10 1 9 2 8 3 7 4 6 5 5 6 4 7 2 8 1 9 3 10 11 11 12 12 13 13
REMARK SMILES IDX 14 14 15 15 16 16 17 17 18 18 19 19 20 20
REMARK H PARENT
REMARK Flexibility Score: inf
ROOT
ATOM      1  C   UNL     1       2.815   5.984  -9.738  1.00  0.00     0.000 C 
ENDROOT
BRANCH   1   2
ATOM      2  C   UNL     1       3.672   7.254  -9.847  1.00  0.00     0.000 C 
BRANCH   2   3
ATOM      3  C   UNL     1       2.821   8.511  -9.612  1.00  0.00     0.000 C 
BRANCH   3   4
ATOM      4  C   UNL     1       3.543   9.567  -8.759  1.00  0.00     0.000 C 
BRANCH   4   5
ATOM      5  C   UNL     1       4.663   8.963  -7.894  1.00  0.00     0.000 C 
BRANCH   5   6
ATOM      6  C   UNL     1       6.039   9.597  -8.173  1.00  0.00     0.006 C 
BRANCH   6   7
ATOM      7  C   UNL     1       7.014   8.687  -8.937  1.00  0.00     0.053 C 
BRANCH   7   8
ATOM      8  C   UNL     1       8.177   8.271  -8.091  1.00  0.00     0.041 C 
ATOM      9  O   UNL     1       8.052   8.181  -6.842  1.00  0.00    -0.550 OA
ATOM     10  O   UNL     1       9.391   7.949  -8.686  1.00  0.00    -0.550 OA
ENDBRANCH   7   8
ENDBRANCH   6   7
ENDBRANCH   5   6
ENDBRANCH   4   5
ENDBRANCH   3   4
ENDBRANCH   2   3
ENDBRANCH   1   2
BRANCH   1  11
ATOM     11  C   UNL     1       1.344   6.228 -10.111  1.00  0.00     0.000 C 
BRANCH  11  12
ATOM     12  C   UNL     1       0.370   5.420  -9.235  1.00  0.00     0.000 C 
BRANCH  12  13
ATOM     13  C   UNL     1       1.093   4.564  -8.184  1.00  0.00     0.000 C 
BRANCH  13  14
ATOM     14  C   UNL     1       0.498   4.726  -6.777  1.00  0.00     0.000 C 
BRANCH  14  15
ATOM     15  C   UNL     1       1.559   5.215  -5.784  1.00  0.00     0.000 C 
BRANCH  15  16
ATOM     16  C   UNL     1       2.336   6.413  -6.353  1.00  0.00     0.006 C 
BRANCH  16  17
ATOM     17  C   UNL     1       2.143   7.682  -5.514  1.00  0.00     0.053 C 
BRANCH  17  18
ATOM     18  C   UNL     1       1.221   8.655  -6.183  1.00  0.00     0.041 C 
ATOM     19  O   UNL     1       0.392   8.256  -7.042  1.00  0.00    -0.550 OA
ATOM     20  O   UNL     1       1.302  10.008  -5.881  1.00  0.00    -0.550 OA
ENDBRANCH  17  18
ENDBRANCH  16  17
ENDBRANCH  15  16
ENDBRANCH  14  15
ENDBRANCH  13  14
ENDBRANCH  12  13
ENDBRANCH  11  12
ENDBRANCH   1  11
TORSDOF 15
ENDMDL
