MODEL 1
REMARK VINA RESULT:    -6.228      0.000      0.000
REMARK INTER + INTRA:          -6.774
REMARK INTER:                  -6.774
REMARK INTRA:                   0.000
REMARK UNBOUND:                 0.000
REMARK SMILES Cc1cc(O)c2c(c1)C(=O)c1cc(O)cc(O)c1C2=O
REMARK SMILES IDX 1 1 2 2 8 3 7 4 6 5 4 6 3 7 19 8 20 9 18 10 11 11 9 12 10 13
REMARK SMILES IDX 12 14 13 15 15 16 16 17 5 18 17 20 14 22
REMARK H PARENT 5 19 17 21 14 23
REMARK Flexibility Score: inf
ROOT
ATOM      1  C   UNL     1      20.845  10.091   0.673  1.00  0.00     0.044 C 
ATOM      2  C   UNL     1      20.250  11.453   0.876  1.00  0.00    -0.047 A 
ATOM      3  C   UNL     1      18.935  11.715   0.472  1.00  0.00     0.016 A 
ATOM      4  C   UNL     1      18.356  12.978   0.688  1.00  0.00     0.038 A 
ATOM      5  C   UNL     1      19.098  13.988   1.338  1.00  0.00     0.076 A 
ATOM      6  C   UNL     1      20.421  13.715   1.756  1.00  0.00     0.127 A 
ATOM      7  C   UNL     1      20.982  12.451   1.529  1.00  0.00     0.050 A 
ATOM      8  C   UNL     1      18.458  15.305   1.593  1.00  0.00     0.201 C 
ATOM      9  O   UNL     1      18.947  16.074   2.464  1.00  0.00    -0.288 OA
ATOM     10  C   UNL     1      17.183  15.663   0.910  1.00  0.00     0.076 A 
ATOM     11  C   UNL     1      16.423  14.625   0.319  1.00  0.00     0.041 A 
ATOM     12  C   UNL     1      16.971  13.252   0.243  1.00  0.00     0.194 C 
ATOM     13  O   UNL     1      16.263  12.314  -0.220  1.00  0.00    -0.289 OA
ATOM     14  C   UNL     1      15.148  14.903  -0.204  1.00  0.00     0.059 A 
ATOM     15  C   UNL     1      14.629  16.196  -0.162  1.00  0.00     0.120 A 
ATOM     16  C   UNL     1      15.394  17.233   0.376  1.00  0.00     0.093 A 
ATOM     17  C   UNL     1      16.675  16.991   0.879  1.00  0.00     0.131 A 
ENDROOT
BRANCH   6  18
ATOM     18  O   UNL     1      21.184  14.696   2.389  1.00  0.00    -0.507 OA
ATOM     19  H   UNL     1      21.938  14.460   3.024  1.00  0.00     0.293 HD
ENDBRANCH   6  18
BRANCH  17  20
ATOM     20  O   UNL     1      17.415  18.099   1.299  1.00  0.00    -0.507 OA
ATOM     21  H   UNL     1      18.258  18.035   1.853  1.00  0.00     0.293 HD
ENDBRANCH  17  20
BRANCH  15  22
ATOM     22  O   UNL     1      13.356  16.443  -0.671  1.00  0.00    -0.508 OA
ATOM     23  H   UNL     1      13.004  17.386  -0.785  1.00  0.00     0.293 HD
ENDBRANCH  15  22
TORSDOF 3
ENDMDL
MODEL 2
REMARK VINA RESULT:    -5.936      1.385      5.503
REMARK INTER + INTRA:          -6.456
REMARK INTER:                  -6.456
REMARK INTRA:                   0.000
REMARK UNBOUND:                 0.000
REMARK SMILES Cc1cc(O)c2c(c1)C(=O)c1cc(O)cc(O)c1C2=O
REMARK SMILES IDX 1 1 2 2 8 3 7 4 6 5 4 6 3 7 19 8 20 9 18 10 11 11 9 12 10 13
REMARK SMILES IDX 12 14 13 15 15 16 16 17 5 18 17 20 14 22
REMARK H PARENT 5 19 17 21 14 23
REMARK Flexibility Score: inf
ROOT
ATOM      1  C   UNL     1      12.315  15.177  -1.429  1.00  0.00     0.044 C 
ATOM      2  C   UNL     1      13.616  15.321  -0.696  1.00  0.00    -0.047 A 
ATOM      3  C   UNL     1      14.549  14.277  -0.702  1.00  0.00     0.016 A 
ATOM      4  C   UNL     1      15.785  14.415  -0.046  1.00  0.00     0.038 A 
ATOM      5  C   UNL     1      16.101  15.624   0.608  1.00  0.00     0.076 A 
ATOM      6  C   UNL     1      15.162  16.681   0.601  1.00  0.00     0.127 A 
ATOM      7  C   UNL     1      13.934  16.524  -0.055  1.00  0.00     0.050 A 
ATOM      8  C   UNL     1      17.428  15.768   1.263  1.00  0.00     0.201 C 
ATOM      9  O   UNL     1      17.868  16.919   1.528  1.00  0.00    -0.288 OA
ATOM     10  C   UNL     1      18.280  14.568   1.499  1.00  0.00     0.076 A 
ATOM     11  C   UNL     1      17.984  13.383   0.784  1.00  0.00     0.041 A 
ATOM     12  C   UNL     1      16.759  13.300  -0.044  1.00  0.00     0.194 C 
ATOM     13  O   UNL     1      16.533  12.267  -0.735  1.00  0.00    -0.289 OA
ATOM     14  C   UNL     1      18.851  12.280   0.870  1.00  0.00     0.059 A 
ATOM     15  C   UNL     1      19.994  12.335   1.665  1.00  0.00     0.120 A 
ATOM     16  C   UNL     1      20.266  13.484   2.410  1.00  0.00     0.093 A 
ATOM     17  C   UNL     1      19.407  14.586   2.365  1.00  0.00     0.131 A 
ENDROOT
BRANCH   6  18
ATOM     18  O   UNL     1      15.439  17.885   1.250  1.00  0.00    -0.507 OA
ATOM     19  H   UNL     1      16.389  18.212   1.385  1.00  0.00     0.293 HD
ENDBRANCH   6  18
BRANCH  17  20
ATOM     20  O   UNL     1      19.693  15.652   3.222  1.00  0.00    -0.507 OA
ATOM     21  H   UNL     1      19.338  16.589   3.090  1.00  0.00     0.293 HD
ENDBRANCH  17  20
BRANCH  15  22
ATOM     22  O   UNL     1      20.848  11.235   1.719  1.00  0.00    -0.508 OA
ATOM     23  H   UNL     1      20.825  10.511   1.010  1.00  0.00     0.293 HD
ENDBRANCH  15  22
TORSDOF 3
ENDMDL
MODEL 3
REMARK VINA RESULT:    -5.935      2.519      6.266
REMARK INTER + INTRA:          -6.456
REMARK INTER:                  -6.456
REMARK INTRA:                   0.000
REMARK UNBOUND:                 0.000
REMARK SMILES Cc1cc(O)c2c(c1)C(=O)c1cc(O)cc(O)c1C2=O
REMARK SMILES IDX 1 1 2 2 8 3 7 4 6 5 4 6 3 7 19 8 20 9 18 10 11 11 9 12 10 13
REMARK SMILES IDX 12 14 13 15 15 16 16 17 5 18 17 20 14 22
REMARK H PARENT 5 19 17 21 14 23
REMARK Flexibility Score: inf
ROOT
ATOM      1  C   UNL     1      16.096  17.040  -0.013  1.00  0.00     0.044 C 
ATOM      2  C   UNL     1      16.979  15.926   0.470  1.00  0.00    -0.047 A 
ATOM      3  C   UNL     1      18.098  15.539  -0.277  1.00  0.00     0.016 A 
ATOM      4  C   UNL     1      18.950  14.520   0.183  1.00  0.00     0.038 A 
ATOM      5  C   UNL     1      18.690  13.893   1.420  1.00  0.00     0.076 A 
ATOM      6  C   UNL     1      17.566  14.296   2.178  1.00  0.00     0.127 A 
ATOM      7  C   UNL     1      16.727  15.311   1.701  1.00  0.00     0.050 A 
ATOM      8  C   UNL     1      19.623  12.844   1.911  1.00  0.00     0.201 C 
ATOM      9  O   UNL     1      19.624  12.537   3.133  1.00  0.00    -0.288 OA
ATOM     10  C   UNL     1      20.627  12.245   0.988  1.00  0.00     0.076 A 
ATOM     11  C   UNL     1      20.919  12.923  -0.220  1.00  0.00     0.041 A 
ATOM     12  C   UNL     1      20.122  14.105  -0.621  1.00  0.00     0.194 C 
ATOM     13  O   UNL     1      20.429  14.750  -1.662  1.00  0.00    -0.289 OA
ATOM     14  C   UNL     1      21.963  12.468  -1.043  1.00  0.00     0.059 A 
ATOM     15  C   UNL     1      22.706  11.342  -0.691  1.00  0.00     0.120 A 
ATOM     16  C   UNL     1      22.392  10.640   0.474  1.00  0.00     0.093 A 
ATOM     17  C   UNL     1      21.341  11.055   1.298  1.00  0.00     0.131 A 
ENDROOT
BRANCH   6  18
ATOM     18  O   UNL     1      17.275  13.687   3.399  1.00  0.00    -0.507 OA
ATOM     19  H   UNL     1      16.321  13.517   3.697  1.00  0.00     0.293 HD
ENDBRANCH   6  18
BRANCH  17  20
ATOM     20  O   UNL     1      21.023  10.238   2.386  1.00  0.00    -0.507 OA
ATOM     21  H   UNL     1      21.093  10.533   3.349  1.00  0.00     0.293 HD
ENDBRANCH  17  20
BRANCH  15  22
ATOM     22  O   UNL     1      23.748  10.920  -1.515  1.00  0.00    -0.508 OA
ATOM     23  H   UNL     1      23.590  10.672  -2.485  1.00  0.00     0.293 HD
ENDBRANCH  15  22
TORSDOF 3
ENDMDL
MODEL 4
REMARK VINA RESULT:    -5.869     17.127     18.056
REMARK INTER + INTRA:          -6.383
REMARK INTER:                  -6.383
REMARK INTRA:                   0.000
REMARK UNBOUND:                 0.000
REMARK SMILES Cc1cc(O)c2c(c1)C(=O)c1cc(O)cc(O)c1C2=O
REMARK SMILES IDX 1 1 2 2 8 3 7 4 6 5 4 6 3 7 19 8 20 9 18 10 11 11 9 12 10 13
REMARK SMILES IDX 12 14 13 15 15 16 16 17 5 18 17 20 14 22
REMARK H PARENT 5 19 17 21 14 23
REMARK Flexibility Score: inf
ROOT
ATOM      1  C   UNL     1      29.813  20.813  15.489  1.00  0.00     0.044 C 
ATOM      2  C   UNL     1      28.612  19.927  15.644  1.00  0.00    -0.047 A 
ATOM      3  C   UNL     1      27.370  20.476  15.983  1.00  0.00     0.016 A 
ATOM      4  C   UNL     1      26.231  19.660  16.098  1.00  0.00     0.038 A 
ATOM      5  C   UNL     1      26.333  18.275  15.848  1.00  0.00     0.076 A 
ATOM      6  C   UNL     1      27.587  17.726  15.492  1.00  0.00     0.127 A 
ATOM      7  C   UNL     1      28.711  18.555  15.387  1.00  0.00     0.050 A 
ATOM      8  C   UNL     1      25.112  17.431  15.935  1.00  0.00     0.201 C 
ATOM      9  O   UNL     1      25.098  16.300  15.380  1.00  0.00    -0.288 OA
ATOM     10  C   UNL     1      23.876  17.967  16.573  1.00  0.00     0.076 A 
ATOM     11  C   UNL     1      23.768  19.367  16.756  1.00  0.00     0.041 A 
ATOM     12  C   UNL     1      24.925  20.246  16.473  1.00  0.00     0.194 C 
ATOM     13  O   UNL     1      24.804  21.499  16.571  1.00  0.00    -0.289 OA
ATOM     14  C   UNL     1      22.561  19.920  17.218  1.00  0.00     0.059 A 
ATOM     15  C   UNL     1      21.471  19.102  17.513  1.00  0.00     0.120 A 
ATOM     16  C   UNL     1      21.587  17.717  17.379  1.00  0.00     0.093 A 
ATOM     17  C   UNL     1      22.784  17.138  16.948  1.00  0.00     0.131 A 
ENDROOT
BRANCH   6  18
ATOM     18  O   UNL     1      27.723  16.358  15.251  1.00  0.00    -0.507 OA
ATOM     19  H   UNL     1      27.331  15.664  15.878  1.00  0.00     0.293 HD
ENDBRANCH   6  18
BRANCH  17  20
ATOM     20  O   UNL     1      22.852  15.742  16.944  1.00  0.00    -0.507 OA
ATOM     21  H   UNL     1      22.210  15.148  17.449  1.00  0.00     0.293 HD
ENDBRANCH  17  20
BRANCH  15  22
ATOM     22  O   UNL     1      20.279  19.676  17.952  1.00  0.00    -0.508 OA
ATOM     23  H   UNL     1      19.907  20.516  17.525  1.00  0.00     0.293 HD
ENDBRANCH  15  22
TORSDOF 3
ENDMDL
MODEL 5
REMARK VINA RESULT:    -5.845     16.949     19.226
REMARK INTER + INTRA:          -6.358
REMARK INTER:                  -6.358
REMARK INTRA:                   0.000
REMARK UNBOUND:                 0.000
REMARK SMILES Cc1cc(O)c2c(c1)C(=O)c1cc(O)cc(O)c1C2=O
REMARK SMILES IDX 1 1 2 2 8 3 7 4 6 5 4 6 3 7 19 8 20 9 18 10 11 11 9 12 10 13
REMARK SMILES IDX 12 14 13 15 15 16 16 17 5 18 17 20 14 22
REMARK H PARENT 5 19 17 21 14 23
REMARK Flexibility Score: inf
ROOT
ATOM      1  C   UNL     1      22.081  17.521  16.890  1.00  0.00     0.044 C 
ATOM      2  C   UNL     1      23.497  17.891  16.561  1.00  0.00    -0.047 A 
ATOM      3  C   UNL     1      24.015  19.128  16.964  1.00  0.00     0.016 A 
ATOM      4  C   UNL     1      25.351  19.470  16.690  1.00  0.00     0.038 A 
ATOM      5  C   UNL     1      26.188  18.552  16.022  1.00  0.00     0.076 A 
ATOM      6  C   UNL     1      25.665  17.298  15.629  1.00  0.00     0.127 A 
ATOM      7  C   UNL     1      24.330  16.976  15.907  1.00  0.00     0.050 A 
ATOM      8  C   UNL     1      27.608  18.913  15.775  1.00  0.00     0.201 C 
ATOM      9  O   UNL     1      28.444  18.006  15.519  1.00  0.00    -0.288 OA
ATOM     10  C   UNL     1      28.062  20.323  15.942  1.00  0.00     0.076 A 
ATOM     11  C   UNL     1      27.236  21.212  16.671  1.00  0.00     0.041 A 
ATOM     12  C   UNL     1      25.885  20.787  17.105  1.00  0.00     0.194 C 
ATOM     13  O   UNL     1      25.179  21.557  17.814  1.00  0.00    -0.289 OA
ATOM     14  C   UNL     1      27.697  22.505  16.975  1.00  0.00     0.059 A 
ATOM     15  C   UNL     1      28.956  22.928  16.551  1.00  0.00     0.120 A 
ATOM     16  C   UNL     1      29.756  22.072  15.791  1.00  0.00     0.093 A 
ATOM     17  C   UNL     1      29.311  20.791  15.451  1.00  0.00     0.131 A 
ENDROOT
BRANCH   6  18
ATOM     18  O   UNL     1      26.463  16.373  14.955  1.00  0.00    -0.507 OA
ATOM     19  H   UNL     1      26.200  15.999  14.050  1.00  0.00     0.293 HD
ENDBRANCH   6  18
BRANCH  17  20
ATOM     20  O   UNL     1      30.125  20.039  14.599  1.00  0.00    -0.507 OA
ATOM     21  H   UNL     1      31.110  20.216  14.463  1.00  0.00     0.293 HD
ENDBRANCH  17  20
BRANCH  15  22
ATOM     22  O   UNL     1      29.398  24.208  16.879  1.00  0.00    -0.508 OA
ATOM     23  H   UNL     1      30.216  24.615  16.442  1.00  0.00     0.293 HD
ENDBRANCH  15  22
TORSDOF 3
ENDMDL
MODEL 6
REMARK VINA RESULT:    -5.802      1.952      3.933
REMARK INTER + INTRA:          -6.311
REMARK INTER:                  -6.311
REMARK INTRA:                   0.000
REMARK UNBOUND:                 0.000
REMARK SMILES Cc1cc(O)c2c(c1)C(=O)c1cc(O)cc(O)c1C2=O
REMARK SMILES IDX 1 1 2 2 8 3 7 4 6 5 4 6 3 7 19 8 20 9 18 10 11 11 9 12 10 13
REMARK SMILES IDX 12 14 13 15 15 16 16 17 5 18 17 20 14 22
REMARK H PARENT 5 19 17 21 14 23
REMARK Flexibility Score: inf
ROOT
ATOM      1  C   UNL     1      20.256  15.250   3.312  1.00  0.00     0.044 C 
ATOM      2  C   UNL     1      19.169  14.829   2.367  1.00  0.00    -0.047 A 
ATOM      3  C   UNL     1      18.165  15.733   2.000  1.00  0.00     0.016 A 
ATOM      4  C   UNL     1      17.161  15.360   1.089  1.00  0.00     0.038 A 
ATOM      5  C   UNL     1      17.174  14.068   0.522  1.00  0.00     0.076 A 
ATOM      6  C   UNL     1      18.197  13.162   0.885  1.00  0.00     0.127 A 
ATOM      7  C   UNL     1      19.187  13.551   1.797  1.00  0.00     0.050 A 
ATOM      8  C   UNL     1      16.128  13.701  -0.469  1.00  0.00     0.201 C 
ATOM      9  O   UNL     1      16.318  12.723  -1.239  1.00  0.00    -0.288 OA
ATOM     10  C   UNL     1      14.916  14.554  -0.628  1.00  0.00     0.076 A 
ATOM     11  C   UNL     1      14.947  15.870  -0.106  1.00  0.00     0.041 A 
ATOM     12  C   UNL     1      16.094  16.316   0.719  1.00  0.00     0.194 C 
ATOM     13  O   UNL     1      16.152  17.510   1.125  1.00  0.00    -0.289 OA
ATOM     14  C   UNL     1      13.882  16.750  -0.364  1.00  0.00     0.059 A 
ATOM     15  C   UNL     1      12.785  16.336  -1.117  1.00  0.00     0.120 A 
ATOM     16  C   UNL     1      12.727  15.025  -1.595  1.00  0.00     0.093 A 
ATOM     17  C   UNL     1      13.759  14.120  -1.330  1.00  0.00     0.131 A 
ENDROOT
BRANCH   6  18
ATOM     18  O   UNL     1      18.230  11.874   0.351  1.00  0.00    -0.507 OA
ATOM     19  H   UNL     1      17.551  11.562  -0.334  1.00  0.00     0.293 HD
ENDBRANCH   6  18
BRANCH  17  20
ATOM     20  O   UNL     1      13.573  12.801  -1.750  1.00  0.00    -0.507 OA
ATOM     21  H   UNL     1      14.289  12.249  -2.200  1.00  0.00     0.293 HD
ENDBRANCH  17  20
BRANCH  15  22
ATOM     22  O   UNL     1      11.750  17.233  -1.375  1.00  0.00    -0.508 OA
ATOM     23  H   UNL     1      10.874  17.192  -0.867  1.00  0.00     0.293 HD
ENDBRANCH  15  22
TORSDOF 3
ENDMDL
MODEL 7
REMARK VINA RESULT:    -5.671      2.081      5.837
REMARK INTER + INTRA:          -6.168
REMARK INTER:                  -6.168
REMARK INTRA:                   0.000
REMARK UNBOUND:                 0.000
REMARK SMILES Cc1cc(O)c2c(c1)C(=O)c1cc(O)cc(O)c1C2=O
REMARK SMILES IDX 1 1 2 2 8 3 7 4 6 5 4 6 3 7 19 8 20 9 18 10 11 11 9 12 10 13
REMARK SMILES IDX 12 14 13 15 15 16 16 17 5 18 17 20 14 22
REMARK H PARENT 5 19 17 21 14 23
REMARK Flexibility Score: inf
ROOT
ATOM      1  C   UNL     1      15.299  16.323   0.807  1.00  0.00     0.044 C 
ATOM      2  C   UNL     1      16.417  15.338   0.982  1.00  0.00    -0.047 A 
ATOM      3  C   UNL     1      16.550  14.258   0.101  1.00  0.00     0.016 A 
ATOM      4  C   UNL     1      17.613  13.348   0.234  1.00  0.00     0.038 A 
ATOM      5  C   UNL     1      18.572  13.535   1.253  1.00  0.00     0.076 A 
ATOM      6  C   UNL     1      18.442  14.635   2.132  1.00  0.00     0.127 A 
ATOM      7  C   UNL     1      17.374  15.528   1.985  1.00  0.00     0.050 A 
ATOM      8  C   UNL     1      19.712  12.587   1.357  1.00  0.00     0.201 C 
ATOM      9  O   UNL     1      20.743  12.924   1.998  1.00  0.00    -0.288 OA
ATOM     10  C   UNL     1      19.683  11.296   0.613  1.00  0.00     0.076 A 
ATOM     11  C   UNL     1      18.755  11.153  -0.447  1.00  0.00     0.041 A 
ATOM     12  C   UNL     1      17.736  12.199  -0.691  1.00  0.00     0.194 C 
ATOM     13  O   UNL     1      16.956  12.103  -1.679  1.00  0.00    -0.289 OA
ATOM     14  C   UNL     1      18.798  10.010  -1.264  1.00  0.00     0.059 A 
ATOM     15  C   UNL     1      19.735   9.005  -1.031  1.00  0.00     0.120 A 
ATOM     16  C   UNL     1      20.621   9.118   0.042  1.00  0.00     0.093 A 
ATOM     17  C   UNL     1      20.583  10.231   0.887  1.00  0.00     0.131 A 
ENDROOT
BRANCH   6  18
ATOM     18  O   UNL     1      19.366  14.839   3.158  1.00  0.00    -0.507 OA
ATOM     19  H   UNL     1      19.131  15.364   3.992  1.00  0.00     0.293 HD
ENDBRANCH   6  18
BRANCH  17  20
ATOM     20  O   UNL     1      21.429  10.216   1.999  1.00  0.00    -0.507 OA
ATOM     21  H   UNL     1      22.428  10.355   1.947  1.00  0.00     0.293 HD
ENDBRANCH  17  20
BRANCH  15  22
ATOM     22  O   UNL     1      19.769   7.889  -1.866  1.00  0.00    -0.508 OA
ATOM     23  H   UNL     1      20.053   7.961  -2.836  1.00  0.00     0.293 HD
ENDBRANCH  15  22
TORSDOF 3
ENDMDL
MODEL 8
REMARK VINA RESULT:    -5.577      1.715      6.319
REMARK INTER + INTRA:          -6.066
REMARK INTER:                  -6.066
REMARK INTRA:                   0.000
REMARK UNBOUND:                 0.000
REMARK SMILES Cc1cc(O)c2c(c1)C(=O)c1cc(O)cc(O)c1C2=O
REMARK SMILES IDX 1 1 2 2 8 3 7 4 6 5 4 6 3 7 19 8 20 9 18 10 11 11 9 12 10 13
REMARK SMILES IDX 12 14 13 15 15 16 16 17 5 18 17 20 14 22
REMARK H PARENT 5 19 17 21 14 23
REMARK Flexibility Score: inf
ROOT
ATOM      1  C   UNL     1      16.633  18.476   0.878  1.00  0.00     0.044 C 
ATOM      2  C   UNL     1      16.867  17.040   0.512  1.00  0.00    -0.047 A 
ATOM      3  C   UNL     1      17.802  16.275   1.219  1.00  0.00     0.016 A 
ATOM      4  C   UNL     1      18.005  14.919   0.907  1.00  0.00     0.038 A 
ATOM      5  C   UNL     1      17.244  14.314  -0.117  1.00  0.00     0.076 A 
ATOM      6  C   UNL     1      16.291  15.087  -0.820  1.00  0.00     0.127 A 
ATOM      7  C   UNL     1      16.106  16.437  -0.496  1.00  0.00     0.050 A 
ATOM      8  C   UNL     1      17.442  12.870  -0.409  1.00  0.00     0.201 C 
ATOM      9  O   UNL     1      16.554  12.237  -1.040  1.00  0.00    -0.288 OA
ATOM     10  C   UNL     1      18.626  12.151   0.140  1.00  0.00     0.076 A 
ATOM     11  C   UNL     1      19.338  12.747   1.209  1.00  0.00     0.041 A 
ATOM     12  C   UNL     1      19.007  14.122   1.649  1.00  0.00     0.194 C 
ATOM     13  O   UNL     1      19.595  14.624   2.647  1.00  0.00    -0.289 OA
ATOM     14  C   UNL     1      20.366  12.033   1.848  1.00  0.00     0.059 A 
ATOM     15  C   UNL     1      20.706  10.748   1.429  1.00  0.00     0.120 A 
ATOM     16  C   UNL     1      20.040  10.174   0.345  1.00  0.00     0.093 A 
ATOM     17  C   UNL     1      19.031  10.871  -0.327  1.00  0.00     0.131 A 
ENDROOT
BRANCH   6  18
ATOM     18  O   UNL     1      15.533  14.521  -1.845  1.00  0.00    -0.507 OA
ATOM     19  H   UNL     1      14.532  14.388  -1.758  1.00  0.00     0.293 HD
ENDBRANCH   6  18
BRANCH  17  20
ATOM     20  O   UNL     1      18.491  10.270  -1.467  1.00  0.00    -0.507 OA
ATOM     21  H   UNL     1      17.873   9.472  -1.441  1.00  0.00     0.293 HD
ENDBRANCH  17  20
BRANCH  15  22
ATOM     22  O   UNL     1      21.717  10.054   2.090  1.00  0.00    -0.508 OA
ATOM     23  H   UNL     1      21.869  10.160   3.086  1.00  0.00     0.293 HD
ENDBRANCH  15  22
TORSDOF 3
ENDMDL
MODEL 9
REMARK VINA RESULT:    -5.436      1.769      6.432
REMARK INTER + INTRA:          -5.913
REMARK INTER:                  -5.913
REMARK INTRA:                   0.000
REMARK UNBOUND:                 0.000
REMARK SMILES Cc1cc(O)c2c(c1)C(=O)c1cc(O)cc(O)c1C2=O
REMARK SMILES IDX 1 1 2 2 8 3 7 4 6 5 4 6 3 7 19 8 20 9 18 10 11 11 9 12 10 13
REMARK SMILES IDX 12 14 13 15 15 16 16 17 5 18 17 20 14 22
REMARK H PARENT 5 19 17 21 14 23
REMARK Flexibility Score: inf
ROOT
ATOM      1  C   UNL     1      11.948  17.736  -1.979  1.00  0.00     0.044 C 
ATOM      2  C   UNL     1      12.936  16.719  -1.488  1.00  0.00    -0.047 A 
ATOM      3  C   UNL     1      13.961  17.097  -0.612  1.00  0.00     0.016 A 
ATOM      4  C   UNL     1      14.871  16.145  -0.119  1.00  0.00     0.038 A 
ATOM      5  C   UNL     1      14.741  14.791  -0.494  1.00  0.00     0.076 A 
ATOM      6  C   UNL     1      13.697  14.411  -1.369  1.00  0.00     0.127 A 
ATOM      7  C   UNL     1      12.801  15.374  -1.851  1.00  0.00     0.050 A 
ATOM      8  C   UNL     1      15.688  13.791   0.066  1.00  0.00     0.201 C 
ATOM      9  O   UNL     1      15.384  12.568   0.043  1.00  0.00    -0.288 OA
ATOM     10  C   UNL     1      16.932  14.240   0.753  1.00  0.00     0.076 A 
ATOM     11  C   UNL     1      17.015  15.588   1.176  1.00  0.00     0.041 A 
ATOM     12  C   UNL     1      15.961  16.556   0.793  1.00  0.00     0.194 C 
ATOM     13  O   UNL     1      16.002  17.740   1.231  1.00  0.00    -0.289 OA
ATOM     14  C   UNL     1      18.107  16.010   1.955  1.00  0.00     0.059 A 
ATOM     15  C   UNL     1      19.120  15.117   2.301  1.00  0.00     0.120 A 
ATOM     16  C   UNL     1      19.067  13.798   1.847  1.00  0.00     0.093 A 
ATOM     17  C   UNL     1      18.007  13.358   1.049  1.00  0.00     0.131 A 
ENDROOT
BRANCH   6  18
ATOM     18  O   UNL     1      13.550  13.082  -1.767  1.00  0.00    -0.507 OA
ATOM     19  H   UNL     1      14.174  12.354  -1.438  1.00  0.00     0.293 HD
ENDBRANCH   6  18
BRANCH  17  20
ATOM     20  O   UNL     1      18.084  12.056   0.547  1.00  0.00    -0.507 OA
ATOM     21  H   UNL     1      17.609  11.267   0.959  1.00  0.00     0.293 HD
ENDBRANCH  17  20
BRANCH  15  22
ATOM     22  O   UNL     1      20.183  15.555   3.089  1.00  0.00    -0.508 OA
ATOM     23  H   UNL     1      20.616  14.952   3.779  1.00  0.00     0.293 HD
ENDBRANCH  15  22
TORSDOF 3
ENDMDL
