MODEL 1
REMARK VINA RESULT:    -7.362      0.000      0.000
REMARK INTER + INTRA:          -8.947
REMARK INTER:                  -8.653
REMARK INTRA:                  -0.294
REMARK UNBOUND:                -0.294
REMARK SMILES O=c1cc(-c2ccc(O)c(O)c2)oc2cc(O)cc(O)c12
REMARK SMILES IDX 4 1 3 2 2 3 1 4 21 5 19 6 18 7 16 8 15 9 14 10 13 11 5 12
REMARK SMILES IDX 6 13 7 14 8 15 12 16 10 17 9 18 11 20 20 22 17 24
REMARK H PARENT 9 19 11 21 20 23 17 25
REMARK Flexibility Score: inf
ROOT
ATOM      1  C   UNL     1     -13.654  55.532  18.304  1.00  0.00     0.138 A 
ATOM      2  C   UNL     1     -13.938  56.544  19.230  1.00  0.00     0.100 A 
ATOM      3  C   UNL     1     -15.114  56.484  19.980  1.00  0.00     0.197 A 
ATOM      4  O   UNL     1     -15.366  57.436  20.763  1.00  0.00    -0.289 OA
ATOM      5  C   UNL     1     -15.991  55.384  19.827  1.00  0.00     0.107 A 
ATOM      6  C   UNL     1     -17.202  55.199  20.561  1.00  0.00     0.134 A 
ATOM      7  C   UNL     1     -18.038  54.120  20.251  1.00  0.00     0.093 A 
ATOM      8  C   UNL     1     -17.682  53.187  19.273  1.00  0.00     0.123 A 
ATOM      9  C   UNL     1     -16.479  53.332  18.585  1.00  0.00     0.094 A 
ATOM     10  C   UNL     1     -15.639  54.417  18.848  1.00  0.00     0.146 A 
ATOM     11  O   UNL     1     -14.510  54.526  18.155  1.00  0.00    -0.456 OA
ENDROOT
BRANCH   1  12
ATOM     12  C   UNL     1     -12.417  55.543  17.482  1.00  0.00     0.021 A 
ATOM     13  C   UNL     1     -12.016  54.369  16.823  1.00  0.00     0.016 A 
ATOM     14  C   UNL     1     -10.860  54.354  16.039  1.00  0.00     0.051 A 
ATOM     15  C   UNL     1     -10.092  55.511  15.889  1.00  0.00     0.157 A 
ATOM     16  C   UNL     1     -11.647  56.712  17.318  1.00  0.00     0.062 A 
ATOM     17  C   UNL     1     -10.488  56.697  16.528  1.00  0.00     0.158 A 
BRANCH  15  18
ATOM     18  O   UNL     1      -8.942  55.466  15.100  1.00  0.00    -0.504 OA
ATOM     19  H   UNL     1      -8.345  56.274  14.972  1.00  0.00     0.293 HD
ENDBRANCH  15  18
BRANCH  17  20
ATOM     20  O   UNL     1      -9.731  57.859  16.374  1.00  0.00    -0.504 OA
ATOM     21  H   UNL     1      -9.790  58.623  17.038  1.00  0.00     0.293 HD
ENDBRANCH  17  20
ENDBRANCH   1  12
BRANCH   6  22
ATOM     22  O   UNL     1     -17.614  56.024  21.612  1.00  0.00    -0.507 OA
ATOM     23  H   UNL     1     -17.199  56.045  22.530  1.00  0.00     0.293 HD
ENDBRANCH   6  22
BRANCH   8  24
ATOM     24  O   UNL     1     -18.515  52.109  18.983  1.00  0.00    -0.508 OA
ATOM     25  H   UNL     1     -18.931  51.993  18.066  1.00  0.00     0.293 HD
ENDBRANCH   8  24
TORSDOF 5
ENDMDL
MODEL 2
REMARK VINA RESULT:    -6.942      3.347      4.737
REMARK INTER + INTRA:          -8.454
REMARK INTER:                  -8.166
REMARK INTRA:                  -0.288
REMARK UNBOUND:                -0.294
REMARK SMILES O=c1cc(-c2ccc(O)c(O)c2)oc2cc(O)cc(O)c12
REMARK SMILES IDX 4 1 3 2 2 3 1 4 21 5 19 6 18 7 16 8 15 9 14 10 13 11 5 12
REMARK SMILES IDX 6 13 7 14 8 15 12 16 10 17 9 18 11 20 20 22 17 24
REMARK H PARENT 9 19 11 21 20 23 17 25
REMARK Flexibility Score: inf
ROOT
ATOM      1  C   UNL     1     -14.575  54.871  19.378  1.00  0.00     0.138 A 
ATOM      2  C   UNL     1     -15.416  53.776  19.138  1.00  0.00     0.100 A 
ATOM      3  C   UNL     1     -16.637  53.972  18.491  1.00  0.00     0.197 A 
ATOM      4  O   UNL     1     -17.393  52.977  18.341  1.00  0.00    -0.289 OA
ATOM      5  C   UNL     1     -17.000  55.266  18.050  1.00  0.00     0.107 A 
ATOM      6  C   UNL     1     -18.205  55.580  17.350  1.00  0.00     0.134 A 
ATOM      7  C   UNL     1     -18.500  56.916  17.051  1.00  0.00     0.093 A 
ATOM      8  C   UNL     1     -17.610  57.942  17.375  1.00  0.00     0.123 A 
ATOM      9  C   UNL     1     -16.410  57.641  18.014  1.00  0.00     0.094 A 
ATOM     10  C   UNL     1     -16.101  56.322  18.356  1.00  0.00     0.146 A 
ATOM     11  O   UNL     1     -14.953  56.082  18.982  1.00  0.00    -0.456 OA
ENDROOT
BRANCH   1  12
ATOM     12  C   UNL     1     -13.264  54.721  20.059  1.00  0.00     0.021 A 
ATOM     13  C   UNL     1     -12.221  55.612  19.754  1.00  0.00     0.016 A 
ATOM     14  C   UNL     1     -10.980  55.496  20.385  1.00  0.00     0.051 A 
ATOM     15  C   UNL     1     -10.761  54.498  21.337  1.00  0.00     0.157 A 
ATOM     16  C   UNL     1     -13.043  53.723  21.029  1.00  0.00     0.062 A 
ATOM     17  C   UNL     1     -11.797  53.609  21.664  1.00  0.00     0.158 A 
BRANCH  15  18
ATOM     18  O   UNL     1      -9.511  54.407  21.949  1.00  0.00    -0.504 OA
ATOM     19  H   UNL     1      -9.086  55.193  22.425  1.00  0.00     0.293 HD
ENDBRANCH  15  18
BRANCH  17  20
ATOM     20  O   UNL     1     -11.588  52.617  22.622  1.00  0.00    -0.504 OA
ATOM     21  H   UNL     1     -10.736  52.069  22.642  1.00  0.00     0.293 HD
ENDBRANCH  17  20
ENDBRANCH   1  12
BRANCH   6  22
ATOM     22  O   UNL     1     -19.125  54.626  16.907  1.00  0.00    -0.507 OA
ATOM     23  H   UNL     1     -19.073  53.637  17.099  1.00  0.00     0.293 HD
ENDBRANCH   6  22
BRANCH   8  24
ATOM     24  O   UNL     1     -17.907  59.266  17.060  1.00  0.00    -0.508 OA
ATOM     25  H   UNL     1     -18.527  59.503  16.294  1.00  0.00     0.293 HD
ENDBRANCH   8  24
TORSDOF 5
ENDMDL
MODEL 3
REMARK VINA RESULT:    -6.821      1.473      7.303
REMARK INTER + INTRA:          -8.311
REMARK INTER:                  -8.014
REMARK INTRA:                  -0.297
REMARK UNBOUND:                -0.294
REMARK SMILES O=c1cc(-c2ccc(O)c(O)c2)oc2cc(O)cc(O)c12
REMARK SMILES IDX 4 1 3 2 2 3 1 4 21 5 19 6 18 7 16 8 15 9 14 10 13 11 5 12
REMARK SMILES IDX 6 13 7 14 8 15 12 16 10 17 9 18 11 20 20 22 17 24
REMARK H PARENT 9 19 11 21 20 23 17 25
REMARK Flexibility Score: inf
ROOT
ATOM      1  C   UNL     1     -13.398  55.074  18.110  1.00  0.00     0.138 A 
ATOM      2  C   UNL     1     -12.743  53.958  17.572  1.00  0.00     0.100 A 
ATOM      3  C   UNL     1     -11.679  54.142  16.687  1.00  0.00     0.197 A 
ATOM      4  O   UNL     1     -11.149  53.120  16.179  1.00  0.00    -0.289 OA
ATOM      5  C   UNL     1     -11.246  55.451  16.369  1.00  0.00     0.107 A 
ATOM      6  C   UNL     1     -10.151  55.760  15.506  1.00  0.00     0.134 A 
ATOM      7  C   UNL     1      -9.879  57.096  15.188  1.00  0.00     0.093 A 
ATOM      8  C   UNL     1     -10.624  58.137  15.747  1.00  0.00     0.123 A 
ATOM      9  C   UNL     1     -11.663  57.849  16.629  1.00  0.00     0.094 A 
ATOM     10  C   UNL     1     -11.981  56.525  16.939  1.00  0.00     0.146 A 
ATOM     11  O   UNL     1     -12.992  56.294  17.771  1.00  0.00    -0.456 OA
ENDROOT
BRANCH   1  12
ATOM     12  C   UNL     1     -14.533  54.938  19.058  1.00  0.00     0.021 A 
ATOM     13  C   UNL     1     -15.482  53.921  18.857  1.00  0.00     0.016 A 
ATOM     14  C   UNL     1     -16.556  53.768  19.737  1.00  0.00     0.051 A 
ATOM     15  C   UNL     1     -16.696  54.618  20.837  1.00  0.00     0.157 A 
ATOM     16  C   UNL     1     -14.670  55.785  20.176  1.00  0.00     0.062 A 
ATOM     17  C   UNL     1     -15.748  55.629  21.060  1.00  0.00     0.158 A 
BRANCH  15  18
ATOM     18  O   UNL     1     -17.778  54.442  21.698  1.00  0.00    -0.504 OA
ATOM     19  H   UNL     1     -18.718  54.721  21.446  1.00  0.00     0.293 HD
ENDBRANCH  15  18
BRANCH  17  20
ATOM     20  O   UNL     1     -15.875  56.474  22.163  1.00  0.00    -0.504 OA
ATOM     21  H   UNL     1     -15.066  56.882  22.616  1.00  0.00     0.293 HD
ENDBRANCH  17  20
ENDBRANCH   1  12
BRANCH   6  22
ATOM     22  O   UNL     1      -9.292  54.803  14.957  1.00  0.00    -0.507 OA
ATOM     23  H   UNL     1      -9.442  54.321  14.084  1.00  0.00     0.293 HD
ENDBRANCH   6  22
BRANCH   8  24
ATOM     24  O   UNL     1     -10.335  59.464  15.436  1.00  0.00    -0.508 OA
ATOM     25  H   UNL     1     -10.668  60.229  16.012  1.00  0.00     0.293 HD
ENDBRANCH   8  24
TORSDOF 5
ENDMDL
MODEL 4
REMARK VINA RESULT:    -6.755      1.815      7.097
REMARK INTER + INTRA:          -8.234
REMARK INTER:                  -7.960
REMARK INTRA:                  -0.274
REMARK UNBOUND:                -0.294
REMARK SMILES O=c1cc(-c2ccc(O)c(O)c2)oc2cc(O)cc(O)c12
REMARK SMILES IDX 4 1 3 2 2 3 1 4 21 5 19 6 18 7 16 8 15 9 14 10 13 11 5 12
REMARK SMILES IDX 6 13 7 14 8 15 12 16 10 17 9 18 11 20 20 22 17 24
REMARK H PARENT 9 19 11 21 20 23 17 25
REMARK Flexibility Score: inf
ROOT
ATOM      1  C   UNL     1     -13.481  56.589  17.997  1.00  0.00     0.138 A 
ATOM      2  C   UNL     1     -13.785  57.867  17.510  1.00  0.00     0.100 A 
ATOM      3  C   UNL     1     -12.914  58.492  16.616  1.00  0.00     0.197 A 
ATOM      4  O   UNL     1     -13.189  59.660  16.241  1.00  0.00    -0.289 OA
ATOM      5  C   UNL     1     -11.749  57.816  16.181  1.00  0.00     0.107 A 
ATOM      6  C   UNL     1     -10.804  58.341  15.247  1.00  0.00     0.134 A 
ATOM      7  C   UNL     1      -9.637  57.619  14.968  1.00  0.00     0.093 A 
ATOM      8  C   UNL     1      -9.407  56.368  15.545  1.00  0.00     0.123 A 
ATOM      9  C   UNL     1     -10.345  55.825  16.419  1.00  0.00     0.094 A 
ATOM     10  C   UNL     1     -11.503  56.535  16.744  1.00  0.00     0.146 A 
ATOM     11  O   UNL     1     -12.364  55.988  17.597  1.00  0.00    -0.456 OA
ENDROOT
BRANCH   1  12
ATOM     12  C   UNL     1     -14.373  55.876  18.946  1.00  0.00     0.021 A 
ATOM     13  C   UNL     1     -14.756  54.552  18.671  1.00  0.00     0.016 A 
ATOM     14  C   UNL     1     -15.590  53.857  19.551  1.00  0.00     0.051 A 
ATOM     15  C   UNL     1     -16.045  54.465  20.723  1.00  0.00     0.157 A 
ATOM     16  C   UNL     1     -14.824  56.481  20.136  1.00  0.00     0.062 A 
ATOM     17  C   UNL     1     -15.659  55.782  21.020  1.00  0.00     0.158 A 
BRANCH  15  18
ATOM     18  O   UNL     1     -16.877  53.746  21.581  1.00  0.00    -0.504 OA
ATOM     19  H   UNL     1     -16.995  52.744  21.503  1.00  0.00     0.293 HD
ENDBRANCH  15  18
BRANCH  17  20
ATOM     20  O   UNL     1     -16.101  56.390  22.194  1.00  0.00    -0.504 OA
ATOM     21  H   UNL     1     -15.787  57.315  22.464  1.00  0.00     0.293 HD
ENDBRANCH  17  20
ENDBRANCH   1  12
BRANCH   6  22
ATOM     22  O   UNL     1     -10.973  59.542  14.553  1.00  0.00    -0.507 OA
ATOM     23  H   UNL     1     -11.111  60.445  14.981  1.00  0.00     0.293 HD
ENDBRANCH   6  22
BRANCH   8  24
ATOM     24  O   UNL     1      -8.249  55.652  15.249  1.00  0.00    -0.508 OA
ATOM     25  H   UNL     1      -7.394  56.118  14.969  1.00  0.00     0.293 HD
ENDBRANCH   8  24
TORSDOF 5
ENDMDL
MODEL 5
REMARK VINA RESULT:    -6.646      1.843      7.134
REMARK INTER + INTRA:          -8.105
REMARK INTER:                  -7.810
REMARK INTRA:                  -0.295
REMARK UNBOUND:                -0.294
REMARK SMILES O=c1cc(-c2ccc(O)c(O)c2)oc2cc(O)cc(O)c12
REMARK SMILES IDX 4 1 3 2 2 3 1 4 21 5 19 6 18 7 16 8 15 9 14 10 13 11 5 12
REMARK SMILES IDX 6 13 7 14 8 15 12 16 10 17 9 18 11 20 20 22 17 24
REMARK H PARENT 9 19 11 21 20 23 17 25
REMARK Flexibility Score: inf
ROOT
ATOM      1  C   UNL     1     -12.258  54.934  17.497  1.00  0.00     0.138 A 
ATOM      2  C   UNL     1     -11.464  56.083  17.386  1.00  0.00     0.100 A 
ATOM      3  C   UNL     1     -10.486  56.154  16.393  1.00  0.00     0.197 A 
ATOM      4  O   UNL     1      -9.754  57.177  16.356  1.00  0.00    -0.289 OA
ATOM      5  C   UNL     1     -10.328  55.082  15.483  1.00  0.00     0.107 A 
ATOM      6  C   UNL     1      -9.386  55.057  14.410  1.00  0.00     0.134 A 
ATOM      7  C   UNL     1      -9.254  53.897  13.636  1.00  0.00     0.093 A 
ATOM      8  C   UNL     1     -10.068  52.784  13.858  1.00  0.00     0.123 A 
ATOM      9  C   UNL     1     -11.024  52.816  14.871  1.00  0.00     0.094 A 
ATOM     10  C   UNL     1     -11.156  53.945  15.683  1.00  0.00     0.146 A 
ATOM     11  O   UNL     1     -12.069  53.927  16.650  1.00  0.00    -0.456 OA
ENDROOT
BRANCH   1  12
ATOM     12  C   UNL     1     -13.315  54.805  18.532  1.00  0.00     0.021 A 
ATOM     13  C   UNL     1     -14.236  53.747  18.450  1.00  0.00     0.016 A 
ATOM     14  C   UNL     1     -15.237  53.600  19.414  1.00  0.00     0.051 A 
ATOM     15  C   UNL     1     -15.329  54.498  20.480  1.00  0.00     0.157 A 
ATOM     16  C   UNL     1     -13.404  55.701  19.616  1.00  0.00     0.062 A 
ATOM     17  C   UNL     1     -14.407  55.552  20.585  1.00  0.00     0.158 A 
BRANCH  15  18
ATOM     18  O   UNL     1     -16.339  54.326  21.427  1.00  0.00    -0.504 OA
ATOM     19  H   UNL     1     -16.140  54.229  22.415  1.00  0.00     0.293 HD
ENDBRANCH  15  18
BRANCH  17  20
ATOM     20  O   UNL     1     -14.487  56.444  21.653  1.00  0.00    -0.504 OA
ATOM     21  H   UNL     1     -14.526  56.122  22.613  1.00  0.00     0.293 HD
ENDBRANCH  17  20
ENDBRANCH   1  12
BRANCH   6  22
ATOM     22  O   UNL     1      -8.581  56.140  14.049  1.00  0.00    -0.507 OA
ATOM     23  H   UNL     1      -8.538  57.021  14.539  1.00  0.00     0.293 HD
ENDBRANCH   6  22
BRANCH   8  24
ATOM     24  O   UNL     1      -9.938  51.641  13.073  1.00  0.00    -0.508 OA
ATOM     25  H   UNL     1      -9.704  50.742  13.479  1.00  0.00     0.293 HD
ENDBRANCH   8  24
TORSDOF 5
ENDMDL
MODEL 6
REMARK VINA RESULT:    -6.613      2.485      7.738
REMARK INTER + INTRA:          -8.067
REMARK INTER:                  -7.799
REMARK INTRA:                  -0.268
REMARK UNBOUND:                -0.294
REMARK SMILES O=c1cc(-c2ccc(O)c(O)c2)oc2cc(O)cc(O)c12
REMARK SMILES IDX 4 1 3 2 2 3 1 4 21 5 19 6 18 7 16 8 15 9 14 10 13 11 5 12
REMARK SMILES IDX 6 13 7 14 8 15 12 16 10 17 9 18 11 20 20 22 17 24
REMARK H PARENT 9 19 11 21 20 23 17 25
REMARK Flexibility Score: inf
ROOT
ATOM      1  C   UNL     1     -12.013  55.780  17.709  1.00  0.00     0.138 A 
ATOM      2  C   UNL     1     -11.778  54.535  17.111  1.00  0.00     0.100 A 
ATOM      3  C   UNL     1     -10.831  54.427  16.090  1.00  0.00     0.197 A 
ATOM      4  O   UNL     1     -10.683  53.307  15.537  1.00  0.00    -0.289 OA
ATOM      5  C   UNL     1     -10.091  55.565  15.693  1.00  0.00     0.107 A 
ATOM      6  C   UNL     1      -9.077  55.567  14.688  1.00  0.00     0.134 A 
ATOM      7  C   UNL     1      -8.482  56.778  14.312  1.00  0.00     0.093 A 
ATOM      8  C   UNL     1      -8.821  57.977  14.943  1.00  0.00     0.123 A 
ATOM      9  C   UNL     1      -9.774  57.978  15.959  1.00  0.00     0.094 A 
ATOM     10  C   UNL     1     -10.411  56.792  16.334  1.00  0.00     0.146 A 
ATOM     11  O   UNL     1     -11.327  56.841  17.296  1.00  0.00    -0.456 OA
ENDROOT
BRANCH   1  12
ATOM     12  C   UNL     1     -13.005  55.953  18.800  1.00  0.00     0.021 A 
ATOM     13  C   UNL     1     -12.716  55.454  20.081  1.00  0.00     0.016 A 
ATOM     14  C   UNL     1     -13.630  55.609  21.127  1.00  0.00     0.051 A 
ATOM     15  C   UNL     1     -14.840  56.273  20.915  1.00  0.00     0.157 A 
ATOM     16  C   UNL     1     -14.221  56.635  18.594  1.00  0.00     0.062 A 
ATOM     17  C   UNL     1     -15.137  56.792  19.645  1.00  0.00     0.158 A 
BRANCH  15  18
ATOM     18  O   UNL     1     -15.733  56.412  21.978  1.00  0.00    -0.504 OA
ATOM     19  H   UNL     1     -15.538  57.010  22.771  1.00  0.00     0.293 HD
ENDBRANCH  15  18
BRANCH  17  20
ATOM     20  O   UNL     1     -16.339  57.466  19.430  1.00  0.00    -0.504 OA
ATOM     21  H   UNL     1     -16.948  57.233  18.655  1.00  0.00     0.293 HD
ENDBRANCH  17  20
ENDBRANCH   1  12
BRANCH   6  22
ATOM     22  O   UNL     1      -8.604  54.417  14.050  1.00  0.00    -0.507 OA
ATOM     23  H   UNL     1      -8.694  53.478  14.405  1.00  0.00     0.293 HD
ENDBRANCH   6  22
BRANCH   8  24
ATOM     24  O   UNL     1      -8.212  59.173  14.571  1.00  0.00    -0.508 OA
ATOM     25  H   UNL     1      -8.715  60.053  14.591  1.00  0.00     0.293 HD
ENDBRANCH   8  24
TORSDOF 5
ENDMDL
MODEL 7
REMARK VINA RESULT:    -6.589      2.655      3.451
REMARK INTER + INTRA:          -8.039
REMARK INTER:                  -7.772
REMARK INTRA:                  -0.266
REMARK UNBOUND:                -0.294
REMARK SMILES O=c1cc(-c2ccc(O)c(O)c2)oc2cc(O)cc(O)c12
REMARK SMILES IDX 4 1 3 2 2 3 1 4 21 5 19 6 18 7 16 8 15 9 14 10 13 11 5 12
REMARK SMILES IDX 6 13 7 14 8 15 12 16 10 17 9 18 11 20 20 22 17 24
REMARK H PARENT 9 19 11 21 20 23 17 25
REMARK Flexibility Score: inf
ROOT
ATOM      1  C   UNL     1     -12.192  55.172  17.504  1.00  0.00     0.138 A 
ATOM      2  C   UNL     1     -11.906  54.893  18.847  1.00  0.00     0.100 A 
ATOM      3  C   UNL     1     -12.772  55.342  19.845  1.00  0.00     0.197 A 
ATOM      4  O   UNL     1     -12.458  55.122  21.044  1.00  0.00    -0.289 OA
ATOM      5  C   UNL     1     -13.949  56.043  19.493  1.00  0.00     0.107 A 
ATOM      6  C   UNL     1     -14.922  56.521  20.423  1.00  0.00     0.134 A 
ATOM      7  C   UNL     1     -15.998  57.290  19.961  1.00  0.00     0.093 A 
ATOM      8  C   UNL     1     -16.167  57.550  18.599  1.00  0.00     0.123 A 
ATOM      9  C   UNL     1     -15.251  57.047  17.679  1.00  0.00     0.094 A 
ATOM     10  C   UNL     1     -14.148  56.306  18.111  1.00  0.00     0.146 A 
ATOM     11  O   UNL     1     -13.287  55.861  17.201  1.00  0.00    -0.456 OA
ENDROOT
BRANCH   1  12
ATOM     12  C   UNL     1     -11.308  54.717  16.401  1.00  0.00     0.021 A 
ATOM     13  C   UNL     1     -10.369  55.609  15.856  1.00  0.00     0.016 A 
ATOM     14  C   UNL     1      -9.522  55.203  14.821  1.00  0.00     0.051 A 
ATOM     15  C   UNL     1      -9.589  53.901  14.321  1.00  0.00     0.157 A 
ATOM     16  C   UNL     1     -11.364  53.400  15.903  1.00  0.00     0.062 A 
ATOM     17  C   UNL     1     -10.512  52.993  14.866  1.00  0.00     0.158 A 
BRANCH  15  18
ATOM     18  O   UNL     1      -8.731  53.525  13.288  1.00  0.00    -0.504 OA
ATOM     19  H   UNL     1      -9.071  53.102  12.433  1.00  0.00     0.293 HD
ENDBRANCH  15  18
BRANCH  17  20
ATOM     20  O   UNL     1     -10.576  51.688  14.378  1.00  0.00    -0.504 OA
ATOM     21  H   UNL     1     -10.168  50.911  14.885  1.00  0.00     0.293 HD
ENDBRANCH  17  20
ENDBRANCH   1  12
BRANCH   6  22
ATOM     22  O   UNL     1     -14.894  56.251  21.794  1.00  0.00    -0.507 OA
ATOM     23  H   UNL     1     -15.628  55.792  22.311  1.00  0.00     0.293 HD
ENDBRANCH   6  22
BRANCH   8  24
ATOM     24  O   UNL     1     -17.249  58.304  18.149  1.00  0.00    -0.508 OA
ATOM     25  H   UNL     1     -18.183  58.164  18.518  1.00  0.00     0.293 HD
ENDBRANCH   8  24
TORSDOF 5
ENDMDL
