MODEL 1
REMARK VINA RESULT:     0.000      0.000      0.000
REMARK INTER + INTRA:          -0.028
REMARK INTER:                   0.000
REMARK INTRA:                  -0.028
REMARK UNBOUND:                -0.028
REMARK SMILES C=C(C)[C@@H]1CC[C@]2(C(=O)[O-])CC[C@]3(C)[C@@H](CC[C@H]4[C@]5(C)CC[C@H](O)C(C)(C)[C@@H]5CC[C@@]43C)[C@@H]12
REMARK SMILES IDX 7 1 6 2 33 3 11 4 5 5 15 6 4 7 12 8 16 9 13 10 17 11 31 12
REMARK SMILES IDX 14 13 18 14 30 15 32 16 19 17 29 18 21 19 20 20 28 21 22 22
REMARK SMILES IDX 25 23 23 24 26 25 27 26 8 27 9 28 10 29 2 30 3 31 1 32 24 33
REMARK H PARENT 24 34
REMARK Flexibility Score: inf
ROOT
ATOM      1  C   UNL     1       8.393  22.513  52.886  1.00  0.00     0.014 C 
ATOM      2  C   UNL     1       8.427  21.784  54.242  1.00  0.00     0.014 C 
ATOM      3  C   UNL     1       6.935  23.000  52.866  1.00  0.00     0.012 C 
ATOM      4  C   UNL     1       9.297  23.765  52.804  1.00  0.00     0.014 C 
ATOM      5  C   UNL     1       7.030  21.136  54.398  1.00  0.00     0.009 C 
ATOM      6  C   UNL     1       6.503  23.810  51.608  1.00  0.00     0.000 C 
ATOM      7  C   UNL     1       6.099  21.818  53.363  1.00  0.00     0.018 C 
ATOM      8  C   UNL     1       8.956  24.644  51.563  1.00  0.00     0.008 C 
ATOM      9  C   UNL     1       6.370  22.917  50.352  1.00  0.00     0.005 C 
ATOM     10  C   UNL     1       7.441  25.085  51.417  1.00  0.00    -0.024 C 
ATOM     11  C   UNL     1       5.986  23.710  49.116  1.00  0.00     0.005 C 
ATOM     12  C   UNL     1       7.123  25.832  49.999  1.00  0.00    -0.024 C 
ATOM     13  C   UNL     1       7.166  26.094  52.590  1.00  0.00     0.012 C 
ATOM     14  C   UNL     1       7.063  24.781  48.821  1.00  0.00     0.002 C 
ATOM     15  C   UNL     1       8.229  26.877  49.651  1.00  0.00     0.008 C 
ATOM     16  C   UNL     1       5.767  26.606  50.126  1.00  0.00     0.012 C 
ATOM     17  C   UNL     1       7.048  25.308  47.312  1.00  0.00    -0.026 C 
ATOM     18  C   UNL     1       8.115  27.486  48.250  1.00  0.00     0.005 C 
ATOM     19  C   UNL     1       7.364  24.099  46.361  1.00  0.00     0.010 C 
ATOM     20  C   UNL     1       5.638  25.844  46.886  1.00  0.00     0.012 C 
ATOM     21  C   UNL     1       8.113  26.458  47.084  1.00  0.00     0.003 C 
ATOM     22  C   UNL     1       7.938  24.533  45.013  1.00  0.00     0.033 C 
ATOM     23  C   UNL     1       9.529  26.007  46.503  1.00  0.00    -0.006 C 
ATOM     24  C   UNL     1       9.310  25.222  45.144  1.00  0.00     0.120 C 
ATOM     25  C   UNL     1      10.387  27.259  46.164  1.00  0.00     0.014 C 
ATOM     26  C   UNL     1      10.372  25.157  47.494  1.00  0.00     0.014 C 
ENDROOT
BRANCH   1  27
ATOM     27  C   UNL     1       8.784  21.488  51.812  1.00  0.00     0.048 C 
ATOM     28  O   UNL     1       9.766  21.694  51.048  1.00  0.00    -0.550 OA
ATOM     29  O   UNL     1       8.114  20.276  51.703  1.00  0.00    -0.550 OA
ENDBRANCH   1  27
BRANCH   7  30
ATOM     30  C   UNL     1       4.742  22.230  53.926  1.00  0.00    -0.077 C 
ATOM     31  C   UNL     1       4.662  23.314  54.969  1.00  0.00     0.039 C 
ATOM     32  C   UNL     1       3.601  21.640  53.528  1.00  0.00     0.008 C 
ENDBRANCH   7  30
BRANCH  24  33
ATOM     33  O   UNL     1      10.316  24.263  44.923  1.00  0.00    -0.393 OA
ATOM     34  H   UNL     1      10.981  24.673  44.311  1.00  0.00     0.210 HD
ENDBRANCH  24  33
TORSDOF 3
ENDMDL
MODEL 2
REMARK VINA RESULT:     0.000      5.568      7.973
REMARK INTER + INTRA:          -0.028
REMARK INTER:                   0.000
REMARK INTRA:                  -0.028
REMARK UNBOUND:                -0.028
REMARK SMILES C=C(C)[C@@H]1CC[C@]2(C(=O)[O-])CC[C@]3(C)[C@@H](CC[C@H]4[C@]5(C)CC[C@H](O)C(C)(C)[C@@H]5CC[C@@]43C)[C@@H]12
REMARK SMILES IDX 7 1 6 2 33 3 11 4 5 5 15 6 4 7 12 8 16 9 13 10 17 11 31 12
REMARK SMILES IDX 14 13 18 14 30 15 32 16 19 17 29 18 21 19 20 20 28 21 22 22
REMARK SMILES IDX 25 23 23 24 26 25 27 26 8 27 9 28 10 29 2 30 3 31 1 32 24 33
REMARK H PARENT 24 34
REMARK Flexibility Score: inf
ROOT
ATOM      1  C   UNL     1      11.387  22.505  57.282  1.00  0.00     0.014 C 
ATOM      2  C   UNL     1      12.446  23.259  58.108  1.00  0.00     0.014 C 
ATOM      3  C   UNL     1      10.157  23.397  57.524  1.00  0.00     0.012 C 
ATOM      4  C   UNL     1      11.649  22.487  55.758  1.00  0.00     0.014 C 
ATOM      5  C   UNL     1      11.692  23.813  59.340  1.00  0.00     0.009 C 
ATOM      6  C   UNL     1       8.841  22.946  56.825  1.00  0.00     0.000 C 
ATOM      7  C   UNL     1      10.178  23.731  59.016  1.00  0.00     0.018 C 
ATOM      8  C   UNL     1      10.390  22.032  54.960  1.00  0.00     0.008 C 
ATOM      9  C   UNL     1       8.229  21.684  57.480  1.00  0.00     0.005 C 
ATOM     10  C   UNL     1       9.055  22.835  55.248  1.00  0.00    -0.024 C 
ATOM     11  C   UNL     1       6.966  21.221  56.777  1.00  0.00     0.005 C 
ATOM     12  C   UNL     1       7.742  22.180  54.529  1.00  0.00    -0.024 C 
ATOM     13  C   UNL     1       9.280  24.278  54.668  1.00  0.00     0.012 C 
ATOM     14  C   UNL     1       7.279  20.881  55.300  1.00  0.00     0.002 C 
ATOM     15  C   UNL     1       8.052  21.775  53.053  1.00  0.00     0.008 C 
ATOM     16  C   UNL     1       6.597  23.248  54.493  1.00  0.00     0.012 C 
ATOM     17  C   UNL     1       6.198  19.921  54.620  1.00  0.00    -0.026 C 
ATOM     18  C   UNL     1       6.940  20.979  52.363  1.00  0.00     0.005 C 
ATOM     19  C   UNL     1       6.196  18.552  55.390  1.00  0.00     0.010 C 
ATOM     20  C   UNL     1       4.742  20.491  54.735  1.00  0.00     0.012 C 
ATOM     21  C   UNL     1       6.520  19.670  53.089  1.00  0.00     0.003 C 
ATOM     22  C   UNL     1       5.675  17.390  54.545  1.00  0.00     0.033 C 
ATOM     23  C   UNL     1       7.341  18.345  52.746  1.00  0.00    -0.006 C 
ATOM     24  C   UNL     1       6.574  17.089  53.331  1.00  0.00     0.120 C 
ATOM     25  C   UNL     1       7.413  18.150  51.205  1.00  0.00     0.014 C 
ATOM     26  C   UNL     1       8.811  18.371  53.251  1.00  0.00     0.014 C 
ENDROOT
BRANCH   1  27
ATOM     27  C   UNL     1      11.313  21.077  57.838  1.00  0.00     0.048 C 
ATOM     28  O   UNL     1      11.514  20.080  57.093  1.00  0.00    -0.550 OA
ATOM     29  O   UNL     1      11.095  20.847  59.192  1.00  0.00    -0.550 OA
ENDBRANCH   1  27
BRANCH   7  30
ATOM     30  C   UNL     1       9.399  24.997  59.364  1.00  0.00    -0.077 C 
ATOM     31  C   UNL     1       9.669  26.272  58.609  1.00  0.00     0.039 C 
ATOM     32  C   UNL     1       8.481  25.017  60.346  1.00  0.00     0.008 C 
ENDBRANCH   7  30
BRANCH  24  33
ATOM     33  O   UNL     1       7.456  16.047  53.675  1.00  0.00    -0.393 OA
ATOM     34  H   UNL     1       8.302  16.205  53.180  1.00  0.00     0.210 HD
ENDBRANCH  24  33
TORSDOF 3
ENDMDL
MODEL 3
REMARK VINA RESULT:     0.001     10.355     14.375
REMARK INTER + INTRA:          -0.026
REMARK INTER:                   0.000
REMARK INTRA:                  -0.026
REMARK UNBOUND:                -0.028
REMARK SMILES C=C(C)[C@@H]1CC[C@]2(C(=O)[O-])CC[C@]3(C)[C@@H](CC[C@H]4[C@]5(C)CC[C@H](O)C(C)(C)[C@@H]5CC[C@@]43C)[C@@H]12
REMARK SMILES IDX 7 1 6 2 33 3 11 4 5 5 15 6 4 7 12 8 16 9 13 10 17 11 31 12
REMARK SMILES IDX 14 13 18 14 30 15 32 16 19 17 29 18 21 19 20 20 28 21 22 22
REMARK SMILES IDX 25 23 23 24 26 25 27 26 8 27 9 28 10 29 2 30 3 31 1 32 24 33
REMARK H PARENT 24 34
REMARK Flexibility Score: inf
ROOT
ATOM      1  C   UNL     1      14.999  17.630  54.071  1.00  0.00     0.014 C 
ATOM      2  C   UNL     1      14.266  17.252  52.771  1.00  0.00     0.014 C 
ATOM      3  C   UNL     1      16.192  18.417  53.503  1.00  0.00     0.012 C 
ATOM      4  C   UNL     1      14.215  18.589  54.998  1.00  0.00     0.014 C 
ATOM      5  C   UNL     1      15.381  16.994  51.729  1.00  0.00     0.009 C 
ATOM      6  C   UNL     1      17.195  18.984  54.549  1.00  0.00     0.000 C 
ATOM      7  C   UNL     1      16.684  17.606  52.302  1.00  0.00     0.018 C 
ATOM      8  C   UNL     1      15.130  19.205  56.099  1.00  0.00     0.008 C 
ATOM      9  C   UNL     1      18.056  17.875  55.199  1.00  0.00     0.005 C 
ATOM     10  C   UNL     1      16.443  19.932  55.588  1.00  0.00    -0.024 C 
ATOM     11  C   UNL     1      19.009  18.422  56.247  1.00  0.00     0.005 C 
ATOM     12  C   UNL     1      17.445  20.376  56.799  1.00  0.00    -0.024 C 
ATOM     13  C   UNL     1      15.960  21.224  54.833  1.00  0.00     0.012 C 
ATOM     14  C   UNL     1      18.210  19.119  57.373  1.00  0.00     0.002 C 
ATOM     15  C   UNL     1      16.653  21.032  57.974  1.00  0.00     0.008 C 
ATOM     16  C   UNL     1      18.453  21.446  56.258  1.00  0.00     0.012 C 
ATOM     17  C   UNL     1      19.025  19.267  58.741  1.00  0.00    -0.026 C 
ATOM     18  C   UNL     1      17.484  21.304  59.232  1.00  0.00     0.005 C 
ATOM     19  C   UNL     1      19.363  17.828  59.274  1.00  0.00     0.010 C 
ATOM     20  C   UNL     1      20.399  19.993  58.538  1.00  0.00     0.012 C 
ATOM     21  C   UNL     1      18.194  20.058  59.833  1.00  0.00     0.003 C 
ATOM     22  C   UNL     1      19.604  17.791  60.783  1.00  0.00     0.033 C 
ATOM     23  C   UNL     1      17.367  19.174  60.872  1.00  0.00    -0.006 C 
ATOM     24  C   UNL     1      18.349  18.162  61.595  1.00  0.00     0.120 C 
ATOM     25  C   UNL     1      16.763  20.082  61.981  1.00  0.00     0.014 C 
ATOM     26  C   UNL     1      16.171  18.413  60.236  1.00  0.00     0.014 C 
ENDROOT
BRANCH   1  27
ATOM     27  C   UNL     1      15.331  16.321  54.800  1.00  0.00     0.048 C 
ATOM     28  O   UNL     1      14.925  16.112  55.975  1.00  0.00    -0.550 OA
ATOM     29  O   UNL     1      16.024  15.301  54.157  1.00  0.00    -0.550 OA
ENDBRANCH   1  27
BRANCH   7  30
ATOM     30  C   UNL     1      17.476  18.436  51.295  1.00  0.00    -0.077 C 
ATOM     31  C   UNL     1      16.898  19.723  50.768  1.00  0.00     0.039 C 
ATOM     32  C   UNL     1      18.680  18.043  50.844  1.00  0.00     0.008 C 
ENDBRANCH   7  30
BRANCH  24  33
ATOM     33  O   UNL     1      17.694  16.975  61.976  1.00  0.00    -0.393 OA
ATOM     34  H   UNL     1      16.744  17.206  62.142  1.00  0.00     0.210 HD
ENDBRANCH  24  33
TORSDOF 3
ENDMDL
MODEL 4
REMARK VINA RESULT:     0.001      6.252      8.683
REMARK INTER + INTRA:          -0.026
REMARK INTER:                   0.000
REMARK INTRA:                  -0.026
REMARK UNBOUND:                -0.028
REMARK SMILES C=C(C)[C@@H]1CC[C@]2(C(=O)[O-])CC[C@]3(C)[C@@H](CC[C@H]4[C@]5(C)CC[C@H](O)C(C)(C)[C@@H]5CC[C@@]43C)[C@@H]12
REMARK SMILES IDX 7 1 6 2 33 3 11 4 5 5 15 6 4 7 12 8 16 9 13 10 17 11 31 12
REMARK SMILES IDX 14 13 18 14 30 15 32 16 19 17 29 18 21 19 20 20 28 21 22 22
REMARK SMILES IDX 25 23 23 24 26 25 27 26 8 27 9 28 10 29 2 30 3 31 1 32 24 33
REMARK H PARENT 24 34
REMARK Flexibility Score: inf
ROOT
ATOM      1  C   UNL     1      15.424  20.377  51.746  1.00  0.00     0.014 C 
ATOM      2  C   UNL     1      15.710  18.870  51.871  1.00  0.00     0.014 C 
ATOM      3  C   UNL     1      14.859  20.438  50.317  1.00  0.00     0.012 C 
ATOM      4  C   UNL     1      14.326  20.907  52.697  1.00  0.00     0.014 C 
ATOM      5  C   UNL     1      16.175  18.419  50.465  1.00  0.00     0.009 C 
ATOM      6  C   UNL     1      14.437  21.848  49.810  1.00  0.00     0.000 C 
ATOM      7  C   UNL     1      15.770  19.541  49.476  1.00  0.00     0.018 C 
ATOM      8  C   UNL     1      13.840  22.329  52.285  1.00  0.00     0.008 C 
ATOM      9  C   UNL     1      15.655  22.756  49.517  1.00  0.00     0.005 C 
ATOM     10  C   UNL     1      13.352  22.491  50.785  1.00  0.00    -0.024 C 
ATOM     11  C   UNL     1      15.246  24.144  49.058  1.00  0.00     0.005 C 
ATOM     12  C   UNL     1      13.048  24.042  50.373  1.00  0.00    -0.024 C 
ATOM     13  C   UNL     1      12.019  21.667  50.669  1.00  0.00     0.012 C 
ATOM     14  C   UNL     1      14.398  24.832  50.153  1.00  0.00     0.002 C 
ATOM     15  C   UNL     1      12.241  24.775  51.491  1.00  0.00     0.008 C 
ATOM     16  C   UNL     1      12.172  24.059  49.074  1.00  0.00     0.012 C 
ATOM     17  C   UNL     1      14.351  26.424  50.022  1.00  0.00    -0.026 C 
ATOM     18  C   UNL     1      12.077  26.283  51.276  1.00  0.00     0.005 C 
ATOM     19  C   UNL     1      15.811  26.979  50.191  1.00  0.00     0.010 C 
ATOM     20  C   UNL     1      13.866  26.889  48.607  1.00  0.00     0.012 C 
ATOM     21  C   UNL     1      13.406  27.073  51.116  1.00  0.00     0.003 C 
ATOM     22  C   UNL     1      15.848  28.434  50.657  1.00  0.00     0.033 C 
ATOM     23  C   UNL     1      14.116  27.591  52.448  1.00  0.00    -0.006 C 
ATOM     24  C   UNL     1      15.255  28.622  52.066  1.00  0.00     0.120 C 
ATOM     25  C   UNL     1      13.092  28.361  53.330  1.00  0.00     0.014 C 
ATOM     26  C   UNL     1      14.686  26.452  53.338  1.00  0.00     0.014 C 
ENDROOT
BRANCH   1  27
ATOM     27  C   UNL     1      16.751  21.110  51.986  1.00  0.00     0.048 C 
ATOM     28  O   UNL     1      16.859  21.971  52.901  1.00  0.00    -0.550 OA
ATOM     29  O   UNL     1      17.887  20.791  51.250  1.00  0.00    -0.550 OA
ENDBRANCH   1  27
BRANCH   7  30
ATOM     30  C   UNL     1      15.108  19.034  48.198  1.00  0.00    -0.077 C 
ATOM     31  C   UNL     1      13.757  18.370  48.268  1.00  0.00     0.039 C 
ATOM     32  C   UNL     1      15.705  19.145  46.998  1.00  0.00     0.008 C 
ENDBRANCH   7  30
BRANCH  24  33
ATOM     33  O   UNL     1      16.309  28.612  53.000  1.00  0.00    -0.393 OA
ATOM     34  H   UNL     1      16.942  29.328  52.734  1.00  0.00     0.210 HD
ENDBRANCH  24  33
TORSDOF 3
ENDMDL
MODEL 5
REMARK VINA RESULT:     0.001     12.087     14.514
REMARK INTER + INTRA:          -0.026
REMARK INTER:                   0.000
REMARK INTRA:                  -0.026
REMARK UNBOUND:                -0.028
REMARK SMILES C=C(C)[C@@H]1CC[C@]2(C(=O)[O-])CC[C@]3(C)[C@@H](CC[C@H]4[C@]5(C)CC[C@H](O)C(C)(C)[C@@H]5CC[C@@]43C)[C@@H]12
REMARK SMILES IDX 7 1 6 2 33 3 11 4 5 5 15 6 4 7 12 8 16 9 13 10 17 11 31 12
REMARK SMILES IDX 14 13 18 14 30 15 32 16 19 17 29 18 21 19 20 20 28 21 22 22
REMARK SMILES IDX 25 23 23 24 26 25 27 26 8 27 9 28 10 29 2 30 3 31 1 32 24 33
REMARK H PARENT 24 34
REMARK Flexibility Score: inf
ROOT
ATOM      1  C   UNL     1      17.220  13.671  49.583  1.00  0.00     0.014 C 
ATOM      2  C   UNL     1      16.770  12.424  50.365  1.00  0.00     0.014 C 
ATOM      3  C   UNL     1      17.641  13.029  48.250  1.00  0.00     0.012 C 
ATOM      4  C   UNL     1      16.089  14.679  49.270  1.00  0.00     0.014 C 
ATOM      5  C   UNL     1      17.728  11.291  49.924  1.00  0.00     0.009 C 
ATOM      6  C   UNL     1      18.171  14.007  47.160  1.00  0.00     0.000 C 
ATOM      7  C   UNL     1      18.431  11.775  48.630  1.00  0.00     0.018 C 
ATOM      8  C   UNL     1      16.524  15.719  48.194  1.00  0.00     0.008 C 
ATOM      9  C   UNL     1      19.575  14.560  47.499  1.00  0.00     0.005 C 
ATOM     10  C   UNL     1      17.081  15.124  46.834  1.00  0.00    -0.024 C 
ATOM     11  C   UNL     1      20.078  15.542  46.457  1.00  0.00     0.005 C 
ATOM     12  C   UNL     1      17.697  16.263  45.838  1.00  0.00    -0.024 C 
ATOM     13  C   UNL     1      15.856  14.441  46.124  1.00  0.00     0.012 C 
ATOM     14  C   UNL     1      19.110  16.744  46.355  1.00  0.00     0.002 C 
ATOM     15  C   UNL     1      16.763  17.512  45.765  1.00  0.00     0.008 C 
ATOM     16  C   UNL     1      17.802  15.669  44.393  1.00  0.00     0.012 C 
ATOM     17  C   UNL     1      19.770  18.046  45.704  1.00  0.00    -0.026 C 
ATOM     18  C   UNL     1      17.352  18.706  45.007  1.00  0.00     0.005 C 
ATOM     19  C   UNL     1      20.951  18.517  46.626  1.00  0.00     0.010 C 
ATOM     20  C   UNL     1      20.399  17.753  44.299  1.00  0.00     0.012 C 
ATOM     21  C   UNL     1      18.717  19.220  45.548  1.00  0.00     0.003 C 
ATOM     22  C   UNL     1      21.281  20.000  46.465  1.00  0.00     0.033 C 
ATOM     23  C   UNL     1      18.680  20.299  46.723  1.00  0.00    -0.006 C 
ATOM     24  C   UNL     1      20.126  20.918  46.909  1.00  0.00     0.120 C 
ATOM     25  C   UNL     1      17.737  21.474  46.336  1.00  0.00     0.014 C 
ATOM     26  C   UNL     1      18.147  19.741  48.072  1.00  0.00     0.014 C 
ENDROOT
BRANCH   1  27
ATOM     27  C   UNL     1      18.334  14.340  50.400  1.00  0.00     0.048 C 
ATOM     28  O   UNL     1      18.230  15.538  50.778  1.00  0.00    -0.550 OA
ATOM     29  O   UNL     1      19.451  13.620  50.807  1.00  0.00    -0.550 OA
ENDBRANCH   1  27
BRANCH   7  30
ATOM     30  C   UNL     1      18.475  10.728  47.519  1.00  0.00    -0.077 C 
ATOM     31  C   UNL     1      17.195  10.280  46.863  1.00  0.00     0.039 C 
ATOM     32  C   UNL     1      19.631  10.175  47.113  1.00  0.00     0.008 C 
ENDBRANCH   7  30
BRANCH  24  33
ATOM     33  O   UNL     1      20.359  21.320  48.238  1.00  0.00    -0.393 OA
ATOM     34  H   UNL     1      20.232  22.304  48.272  1.00  0.00     0.210 HD
ENDBRANCH  24  33
TORSDOF 3
ENDMDL
MODEL 6
REMARK VINA RESULT:     0.006      4.299      7.928
REMARK INTER + INTRA:          -0.021
REMARK INTER:                   0.000
REMARK INTRA:                  -0.021
REMARK UNBOUND:                -0.028
REMARK SMILES C=C(C)[C@@H]1CC[C@]2(C(=O)[O-])CC[C@]3(C)[C@@H](CC[C@H]4[C@]5(C)CC[C@H](O)C(C)(C)[C@@H]5CC[C@@]43C)[C@@H]12
REMARK SMILES IDX 7 1 6 2 33 3 11 4 5 5 15 6 4 7 12 8 16 9 13 10 17 11 31 12
REMARK SMILES IDX 14 13 18 14 30 15 32 16 19 17 29 18 21 19 20 20 28 21 22 22
REMARK SMILES IDX 25 23 23 24 26 25 27 26 8 27 9 28 10 29 2 30 3 31 1 32 24 33
REMARK H PARENT 24 34
REMARK Flexibility Score: inf
ROOT
ATOM      1  C   UNL     1      10.204  22.357  51.741  1.00  0.00     0.014 C 
ATOM      2  C   UNL     1      10.902  21.672  50.552  1.00  0.00     0.014 C 
ATOM      3  C   UNL     1      10.698  21.475  52.901  1.00  0.00     0.012 C 
ATOM      4  C   UNL     1      10.682  23.800  52.025  1.00  0.00     0.014 C 
ATOM      5  C   UNL     1      10.901  20.161  50.886  1.00  0.00     0.009 C 
ATOM      6  C   UNL     1      10.190  21.868  54.319  1.00  0.00     0.000 C 
ATOM      7  C   UNL     1      10.586  20.034  52.398  1.00  0.00     0.018 C 
ATOM      8  C   UNL     1      10.211  24.299  53.424  1.00  0.00     0.008 C 
ATOM      9  C   UNL     1       8.692  21.537  54.520  1.00  0.00     0.005 C 
ATOM     10  C   UNL     1      10.586  23.375  54.657  1.00  0.00    -0.024 C 
ATOM     11  C   UNL     1       8.185  21.954  55.889  1.00  0.00     0.005 C 
ATOM     12  C   UNL     1       9.893  23.858  56.056  1.00  0.00    -0.024 C 
ATOM     13  C   UNL     1      12.147  23.464  54.810  1.00  0.00     0.012 C 
ATOM     14  C   UNL     1       8.360  23.479  56.074  1.00  0.00     0.002 C 
ATOM     15  C   UNL     1      10.007  25.404  56.237  1.00  0.00     0.008 C 
ATOM     16  C   UNL     1      10.649  23.188  57.253  1.00  0.00     0.012 C 
ATOM     17  C   UNL     1       7.423  24.099  57.211  1.00  0.00    -0.026 C 
ATOM     18  C   UNL     1       9.219  25.968  57.424  1.00  0.00     0.005 C 
ATOM     19  C   UNL     1       5.925  23.881  56.792  1.00  0.00     0.010 C 
ATOM     20  C   UNL     1       7.604  23.375  58.589  1.00  0.00     0.012 C 
ATOM     21  C   UNL     1       7.698  25.646  57.416  1.00  0.00     0.003 C 
ATOM     22  C   UNL     1       4.970  24.881  57.442  1.00  0.00     0.033 C 
ATOM     23  C   UNL     1       6.741  26.647  56.624  1.00  0.00    -0.006 C 
ATOM     24  C   UNL     1       5.233  26.331  56.995  1.00  0.00     0.120 C 
ATOM     25  C   UNL     1       7.016  28.111  57.072  1.00  0.00     0.014 C 
ATOM     26  C   UNL     1       6.941  26.619  55.083  1.00  0.00     0.014 C 
ENDROOT
BRANCH   1  27
ATOM     27  C   UNL     1       8.696  22.329  51.458  1.00  0.00     0.048 C 
ATOM     28  O   UNL     1       8.024  23.395  51.419  1.00  0.00    -0.550 OA
ATOM     29  O   UNL     1       8.046  21.136  51.164  1.00  0.00    -0.550 OA
ENDBRANCH   1  27
BRANCH   7  30
ATOM     30  C   UNL     1      11.497  19.062  53.143  1.00  0.00    -0.077 C 
ATOM     31  C   UNL     1      12.962  19.377  53.297  1.00  0.00     0.039 C 
ATOM     32  C   UNL     1      11.033  17.909  53.658  1.00  0.00     0.008 C 
ENDBRANCH   7  30
BRANCH  24  33
ATOM     33  O   UNL     1       4.356  26.641  55.938  1.00  0.00    -0.393 OA
ATOM     34  H   UNL     1       3.595  27.143  56.328  1.00  0.00     0.210 HD
ENDBRANCH  24  33
TORSDOF 3
ENDMDL
MODEL 7
REMARK VINA RESULT:     0.006      4.295      7.993
REMARK INTER + INTRA:          -0.021
REMARK INTER:                   0.000
REMARK INTRA:                  -0.021
REMARK UNBOUND:                -0.028
REMARK SMILES C=C(C)[C@@H]1CC[C@]2(C(=O)[O-])CC[C@]3(C)[C@@H](CC[C@H]4[C@]5(C)CC[C@H](O)C(C)(C)[C@@H]5CC[C@@]43C)[C@@H]12
REMARK SMILES IDX 7 1 6 2 33 3 11 4 5 5 15 6 4 7 12 8 16 9 13 10 17 11 31 12
REMARK SMILES IDX 14 13 18 14 30 15 32 16 19 17 29 18 21 19 20 20 28 21 22 22
REMARK SMILES IDX 25 23 23 24 26 25 27 26 8 27 9 28 10 29 2 30 3 31 1 32 24 33
REMARK H PARENT 24 34
REMARK Flexibility Score: inf
ROOT
ATOM      1  C   UNL     1      13.175  27.460  51.916  1.00  0.00     0.014 C 
ATOM      2  C   UNL     1      14.264  28.538  51.766  1.00  0.00     0.014 C 
ATOM      3  C   UNL     1      14.043  26.222  52.193  1.00  0.00     0.012 C 
ATOM      4  C   UNL     1      12.242  27.650  53.134  1.00  0.00     0.014 C 
ATOM      5  C   UNL     1      15.455  27.831  51.077  1.00  0.00     0.009 C 
ATOM      6  C   UNL     1      13.275  24.885  52.409  1.00  0.00     0.000 C 
ATOM      7  C   UNL     1      15.208  26.306  51.204  1.00  0.00     0.018 C 
ATOM      8  C   UNL     1      11.410  26.366  53.430  1.00  0.00     0.008 C 
ATOM      9  C   UNL     1      12.666  24.338  51.096  1.00  0.00     0.005 C 
ATOM     10  C   UNL     1      12.236  25.026  53.611  1.00  0.00    -0.024 C 
ATOM     11  C   UNL     1      11.884  23.054  51.310  1.00  0.00     0.005 C 
ATOM     12  C   UNL     1      11.292  23.697  53.720  1.00  0.00    -0.024 C 
ATOM     13  C   UNL     1      13.038  25.186  54.953  1.00  0.00     0.012 C 
ATOM     14  C   UNL     1      10.722  23.305  52.300  1.00  0.00     0.002 C 
ATOM     15  C   UNL     1      10.078  23.945  54.671  1.00  0.00     0.008 C 
ATOM     16  C   UNL     1      12.133  22.525  54.329  1.00  0.00     0.012 C 
ATOM     17  C   UNL     1       9.555  22.216  52.207  1.00  0.00    -0.026 C 
ATOM     18  C   UNL     1       9.036  22.822  54.683  1.00  0.00     0.005 C 
ATOM     19  C   UNL     1       8.925  22.285  50.770  1.00  0.00     0.010 C 
ATOM     20  C   UNL     1      10.093  20.754  52.381  1.00  0.00     0.012 C 
ATOM     21  C   UNL     1       8.431  22.470  53.295  1.00  0.00     0.003 C 
ATOM     22  C   UNL     1       7.493  21.754  50.719  1.00  0.00     0.033 C 
ATOM     23  C   UNL     1       7.160  23.307  52.816  1.00  0.00    -0.006 C 
ATOM     24  C   UNL     1       6.514  22.601  51.554  1.00  0.00     0.120 C 
ATOM     25  C   UNL     1       6.076  23.310  53.931  1.00  0.00     0.014 C 
ATOM     26  C   UNL     1       7.470  24.799  52.508  1.00  0.00     0.014 C 
ENDROOT
BRANCH   1  27
ATOM     27  C   UNL     1      12.369  27.449  50.610  1.00  0.00     0.048 C 
ATOM     28  O   UNL     1      11.122  27.640  50.616  1.00  0.00    -0.550 OA
ATOM     29  O   UNL     1      13.002  27.302  49.381  1.00  0.00    -0.550 OA
ENDBRANCH   1  27
BRANCH   7  30
ATOM     30  C   UNL     1      16.436  25.513  51.647  1.00  0.00    -0.077 C 
ATOM     31  C   UNL     1      16.997  25.714  53.030  1.00  0.00     0.039 C 
ATOM     32  C   UNL     1      17.050  24.643  50.826  1.00  0.00     0.008 C 
ENDBRANCH   7  30
BRANCH  24  33
ATOM     33  O   UNL     1       5.881  23.525  50.701  1.00  0.00    -0.393 OA
ATOM     34  H   UNL     1       6.278  23.409  49.799  1.00  0.00     0.210 HD
ENDBRANCH  24  33
TORSDOF 3
ENDMDL
MODEL 8
REMARK VINA RESULT:     0.006      9.293     13.473
REMARK INTER + INTRA:          -0.021
REMARK INTER:                   0.000
REMARK INTRA:                  -0.021
REMARK UNBOUND:                -0.028
REMARK SMILES C=C(C)[C@@H]1CC[C@]2(C(=O)[O-])CC[C@]3(C)[C@@H](CC[C@H]4[C@]5(C)CC[C@H](O)C(C)(C)[C@@H]5CC[C@@]43C)[C@@H]12
REMARK SMILES IDX 7 1 6 2 33 3 11 4 5 5 15 6 4 7 12 8 16 9 13 10 17 11 31 12
REMARK SMILES IDX 14 13 18 14 30 15 32 16 19 17 29 18 21 19 20 20 28 21 22 22
REMARK SMILES IDX 25 23 23 24 26 25 27 26 8 27 9 28 10 29 2 30 3 31 1 32 24 33
REMARK H PARENT 24 34
REMARK Flexibility Score: inf
ROOT
ATOM      1  C   UNL     1      10.976  16.065  52.788  1.00  0.00     0.014 C 
ATOM      2  C   UNL     1      10.784  16.174  51.264  1.00  0.00     0.014 C 
ATOM      3  C   UNL     1      12.052  14.967  52.856  1.00  0.00     0.012 C 
ATOM      4  C   UNL     1      11.566  17.329  53.456  1.00  0.00     0.014 C 
ATOM      5  C   UNL     1      10.947  14.734  50.722  1.00  0.00     0.009 C 
ATOM      6  C   UNL     1      12.527  14.567  54.284  1.00  0.00     0.000 C 
ATOM      7  C   UNL     1      11.619  13.903  51.845  1.00  0.00     0.018 C 
ATOM      8  C   UNL     1      12.061  17.039  54.905  1.00  0.00     0.008 C 
ATOM      9  C   UNL     1      11.455  13.760  55.055  1.00  0.00     0.005 C 
ATOM     10  C   UNL     1      13.086  15.840  55.064  1.00  0.00    -0.024 C 
ATOM     11  C   UNL     1      11.902  13.400  56.461  1.00  0.00     0.005 C 
ATOM     12  C   UNL     1      13.405  15.470  56.623  1.00  0.00    -0.024 C 
ATOM     13  C   UNL     1      14.417  16.310  54.374  1.00  0.00     0.012 C 
ATOM     14  C   UNL     1      12.193  14.688  57.266  1.00  0.00     0.002 C 
ATOM     15  C   UNL     1      13.646  16.760  57.470  1.00  0.00     0.008 C 
ATOM     16  C   UNL     1      14.717  14.616  56.684  1.00  0.00     0.012 C 
ATOM     17  C   UNL     1      12.162  14.474  58.850  1.00  0.00    -0.026 C 
ATOM     18  C   UNL     1      13.763  16.520  58.979  1.00  0.00     0.005 C 
ATOM     19  C   UNL     1      10.715  14.022  59.261  1.00  0.00     0.010 C 
ATOM     20  C   UNL     1      13.128  13.330  59.313  1.00  0.00     0.012 C 
ATOM     21  C   UNL     1      12.546  15.801  59.627  1.00  0.00     0.003 C 
ATOM     22  C   UNL     1      10.383  14.334  60.720  1.00  0.00     0.033 C 
ATOM     23  C   UNL     1      11.331  16.712  60.116  1.00  0.00    -0.006 C 
ATOM     24  C   UNL     1      10.356  15.845  61.014  1.00  0.00     0.120 C 
ATOM     25  C   UNL     1      11.860  17.867  61.013  1.00  0.00     0.014 C 
ATOM     26  C   UNL     1      10.547  17.388  58.956  1.00  0.00     0.014 C 
ENDROOT
BRANCH   1  27
ATOM     27  C   UNL     1       9.609  15.717  53.392  1.00  0.00     0.048 C 
ATOM     28  O   UNL     1       9.082  16.455  54.268  1.00  0.00    -0.550 OA
ATOM     29  O   UNL     1       8.884  14.622  52.937  1.00  0.00    -0.550 OA
ENDBRANCH   1  27
BRANCH   7  30
ATOM     30  C   UNL     1      12.769  13.023  51.364  1.00  0.00    -0.077 C 
ATOM     31  C   UNL     1      14.030  13.660  50.841  1.00  0.00     0.039 C 
ATOM     32  C   UNL     1      12.686  11.681  51.374  1.00  0.00     0.008 C 
ENDBRANCH   7  30
BRANCH  24  33
ATOM     33  O   UNL     1       9.024  16.294  60.931  1.00  0.00    -0.393 OA
ATOM     34  H   UNL     1       8.843  16.824  61.749  1.00  0.00     0.210 HD
ENDBRANCH  24  33
TORSDOF 3
ENDMDL
MODEL 9
REMARK VINA RESULT:     0.006      6.357      8.937
REMARK INTER + INTRA:          -0.021
REMARK INTER:                   0.000
REMARK INTRA:                  -0.021
REMARK UNBOUND:                -0.028
REMARK SMILES C=C(C)[C@@H]1CC[C@]2(C(=O)[O-])CC[C@]3(C)[C@@H](CC[C@H]4[C@]5(C)CC[C@H](O)C(C)(C)[C@@H]5CC[C@@]43C)[C@@H]12
REMARK SMILES IDX 7 1 6 2 33 3 11 4 5 5 15 6 4 7 12 8 16 9 13 10 17 11 31 12
REMARK SMILES IDX 14 13 18 14 30 15 32 16 19 17 29 18 21 19 20 20 28 21 22 22
REMARK SMILES IDX 25 23 23 24 26 25 27 26 8 27 9 28 10 29 2 30 3 31 1 32 24 33
REMARK H PARENT 24 34
REMARK Flexibility Score: inf
ROOT
ATOM      1  C   UNL     1       6.655  18.482  46.860  1.00  0.00     0.014 C 
ATOM      2  C   UNL     1       5.134  18.717  46.794  1.00  0.00     0.014 C 
ATOM      3  C   UNL     1       7.163  19.729  46.118  1.00  0.00     0.012 C 
ATOM      4  C   UNL     1       7.252  18.521  48.286  1.00  0.00     0.014 C 
ATOM      5  C   UNL     1       4.878  19.382  45.421  1.00  0.00     0.009 C 
ATOM      6  C   UNL     1       8.708  19.856  45.977  1.00  0.00     0.000 C 
ATOM      7  C   UNL     1       6.249  19.885  44.901  1.00  0.00     0.018 C 
ATOM      8  C   UNL     1       8.806  18.632  48.258  1.00  0.00     0.008 C 
ATOM      9  C   UNL     1       9.291  18.843  44.963  1.00  0.00     0.005 C 
ATOM     10  C   UNL     1       9.404  19.831  47.411  1.00  0.00    -0.024 C 
ATOM     11  C   UNL     1      10.802  18.939  44.852  1.00  0.00     0.005 C 
ATOM     12  C   UNL     1      11.030  19.768  47.266  1.00  0.00    -0.024 C 
ATOM     13  C   UNL     1       9.017  21.145  48.182  1.00  0.00     0.012 C 
ATOM     14  C   UNL     1      11.451  18.656  46.227  1.00  0.00     0.002 C 
ATOM     15  C   UNL     1      11.705  19.427  48.633  1.00  0.00     0.008 C 
ATOM     16  C   UNL     1      11.555  21.176  46.823  1.00  0.00     0.012 C 
ATOM     17  C   UNL     1      12.987  18.223  46.135  1.00  0.00    -0.026 C 
ATOM     18  C   UNL     1      13.211  19.158  48.551  1.00  0.00     0.005 C 
ATOM     19  C   UNL     1      13.076  16.879  45.327  1.00  0.00     0.010 C 
ATOM     20  C   UNL     1      13.851  19.267  45.347  1.00  0.00     0.012 C 
ATOM     21  C   UNL     1      13.625  18.025  47.571  1.00  0.00     0.003 C 
ATOM     22  C   UNL     1      14.335  16.073  45.643  1.00  0.00     0.033 C 
ATOM     23  C   UNL     1      13.641  16.533  48.139  1.00  0.00    -0.006 C 
ATOM     24  C   UNL     1      14.380  15.588  47.105  1.00  0.00     0.120 C 
ATOM     25  C   UNL     1      14.459  16.477  49.461  1.00  0.00     0.014 C 
ATOM     26  C   UNL     1      12.230  15.976  48.477  1.00  0.00     0.014 C 
ENDROOT
BRANCH   1  27
ATOM     27  C   UNL     1       6.932  17.130  46.190  1.00  0.00     0.048 C 
ATOM     28  O   UNL     1       7.521  16.206  46.815  1.00  0.00    -0.550 OA
ATOM     29  O   UNL     1       6.477  16.863  44.904  1.00  0.00    -0.550 OA
ENDBRANCH   1  27
BRANCH   7  30
ATOM     30  C   UNL     1       6.218  21.306  44.345  1.00  0.00    -0.077 C 
ATOM     31  C   UNL     1       5.948  22.465  45.268  1.00  0.00     0.039 C 
ATOM     32  C   UNL     1       6.411  21.560  43.038  1.00  0.00     0.008 C 
ENDBRANCH   7  30
BRANCH  24  33
ATOM     33  O   UNL     1      13.889  14.270  47.154  1.00  0.00    -0.393 OA
ATOM     34  H   UNL     1      13.998  13.952  48.088  1.00  0.00     0.210 HD
ENDBRANCH  24  33
TORSDOF 3
ENDMDL
