MODEL 1
REMARK VINA RESULT:    -5.161      0.000      0.000
REMARK INTER + INTRA:          -5.697
REMARK INTER:                  -5.463
REMARK INTRA:                  -0.234
REMARK UNBOUND:                -0.234
REMARK SMILES CC1=CC[C@H]2[C@@H]3[C@@H](C(C)C)CC[C@@]2(C)[C@H]13
REMARK SMILES IDX 1 1 2 2 3 3 4 4 5 5 6 6 15 7 13 8 12 9 11 10 7 11 14 12 8 13
REMARK SMILES IDX 9 14 10 15
REMARK H PARENT
REMARK Flexibility Score: inf
ROOT
ATOM      1  C   UNL     1      58.768  46.383  40.512  1.00  0.00     0.039 C 
ATOM      2  C   UNL     1      58.327  45.659  41.748  1.00  0.00    -0.073 C 
ATOM      3  C   UNL     1      59.109  45.618  42.858  1.00  0.00    -0.027 C 
ATOM      4  C   UNL     1      58.612  44.848  44.085  1.00  0.00     0.031 C 
ATOM      5  C   UNL     1      57.192  44.250  43.815  1.00  0.00     0.003 C 
ATOM      6  C   UNL     1      56.330  45.365  43.179  1.00  0.00     0.004 C 
ATOM      7  C   UNL     1      56.970  44.954  41.826  1.00  0.00     0.024 C 
ATOM      8  C   UNL     1      57.126  43.541  42.440  1.00  0.00    -0.022 C 
ATOM      9  C   UNL     1      55.786  42.749  42.342  1.00  0.00     0.008 C 
ATOM     10  C   UNL     1      54.541  43.668  42.453  1.00  0.00     0.005 C 
ATOM     11  C   UNL     1      54.823  44.967  43.266  1.00  0.00    -0.005 C 
ATOM     12  C   UNL     1      58.321  42.664  41.999  1.00  0.00     0.012 C 
ENDROOT
BRANCH  11  13
ATOM     13  C   UNL     1      53.844  46.123  42.893  1.00  0.00    -0.014 C 
ATOM     14  C   UNL     1      53.200  46.811  44.108  1.00  0.00     0.007 C 
ATOM     15  C   UNL     1      52.751  45.640  41.926  1.00  0.00     0.007 C 
ENDBRANCH  11  13
TORSDOF 1
ENDMDL
MODEL 2
REMARK VINA RESULT:    -4.719      1.170      2.823
REMARK INTER + INTRA:          -5.229
REMARK INTER:                  -4.972
REMARK INTRA:                  -0.257
REMARK UNBOUND:                -0.234
REMARK SMILES CC1=CC[C@H]2[C@@H]3[C@@H](C(C)C)CC[C@@]2(C)[C@H]13
REMARK SMILES IDX 1 1 2 2 3 3 4 4 5 5 6 6 15 7 13 8 12 9 11 10 7 11 14 12 8 13
REMARK SMILES IDX 9 14 10 15
REMARK H PARENT
REMARK Flexibility Score: inf
ROOT
ATOM      1  C   UNL     1      59.334  42.124  40.752  1.00  0.00     0.039 C 
ATOM      2  C   UNL     1      58.972  43.560  40.991  1.00  0.00    -0.073 C 
ATOM      3  C   UNL     1      59.499  44.555  40.232  1.00  0.00    -0.027 C 
ATOM      4  C   UNL     1      59.105  46.004  40.534  1.00  0.00     0.031 C 
ATOM      5  C   UNL     1      58.077  46.054  41.711  1.00  0.00     0.003 C 
ATOM      6  C   UNL     1      56.997  44.982  41.433  1.00  0.00     0.004 C 
ATOM      7  C   UNL     1      57.976  43.968  42.080  1.00  0.00     0.024 C 
ATOM      8  C   UNL     1      58.525  45.164  42.896  1.00  0.00    -0.022 C 
ATOM      9  C   UNL     1      57.609  45.456  44.125  1.00  0.00     0.008 C 
ATOM     10  C   UNL     1      56.116  45.141  43.843  1.00  0.00     0.005 C 
ATOM     11  C   UNL     1      55.751  45.258  42.332  1.00  0.00    -0.005 C 
ATOM     12  C   UNL     1      60.016  45.168  43.305  1.00  0.00     0.012 C 
ENDROOT
BRANCH  11  13
ATOM     13  C   UNL     1      54.502  44.402  41.959  1.00  0.00    -0.014 C 
ATOM     14  C   UNL     1      53.160  45.091  42.262  1.00  0.00     0.007 C 
ATOM     15  C   UNL     1      54.545  43.022  42.635  1.00  0.00     0.007 C 
ENDBRANCH  11  13
TORSDOF 1
ENDMDL
MODEL 3
REMARK VINA RESULT:    -4.384      1.702      5.127
REMARK INTER + INTRA:          -4.875
REMARK INTER:                  -4.616
REMARK INTRA:                  -0.259
REMARK UNBOUND:                -0.234
REMARK SMILES CC1=CC[C@H]2[C@@H]3[C@@H](C(C)C)CC[C@@]2(C)[C@H]13
REMARK SMILES IDX 1 1 2 2 3 3 4 4 5 5 6 6 15 7 13 8 12 9 11 10 7 11 14 12 8 13
REMARK SMILES IDX 9 14 10 15
REMARK H PARENT
REMARK Flexibility Score: inf
ROOT
ATOM      1  C   UNL     1      54.808  42.979  42.271  1.00  0.00     0.039 C 
ATOM      2  C   UNL     1      55.941  43.876  42.670  1.00  0.00    -0.073 C 
ATOM      3  C   UNL     1      55.864  44.659  43.778  1.00  0.00    -0.027 C 
ATOM      4  C   UNL     1      57.047  45.568  44.125  1.00  0.00     0.031 C 
ATOM      5  C   UNL     1      58.202  45.378  43.089  1.00  0.00     0.003 C 
ATOM      6  C   UNL     1      58.405  43.858  42.889  1.00  0.00     0.004 C 
ATOM      7  C   UNL     1      57.242  43.935  41.865  1.00  0.00     0.024 C 
ATOM      8  C   UNL     1      57.672  45.405  41.634  1.00  0.00    -0.022 C 
ATOM      9  C   UNL     1      58.883  45.475  40.653  1.00  0.00     0.008 C 
ATOM     10  C   UNL     1      59.827  44.250  40.783  1.00  0.00     0.005 C 
ATOM     11  C   UNL     1      59.784  43.605  42.202  1.00  0.00    -0.005 C 
ATOM     12  C   UNL     1      56.593  46.447  41.257  1.00  0.00     0.012 C 
ENDROOT
BRANCH  11  13
ATOM     13  C   UNL     1      60.214  42.106  42.183  1.00  0.00    -0.014 C 
ATOM     14  C   UNL     1      61.572  41.839  42.854  1.00  0.00     0.007 C 
ATOM     15  C   UNL     1      60.217  41.542  40.753  1.00  0.00     0.007 C 
ENDBRANCH  11  13
TORSDOF 1
ENDMDL
MODEL 4
REMARK VINA RESULT:    -4.223     18.395     20.365
REMARK INTER + INTRA:          -4.704
REMARK INTER:                  -4.291
REMARK INTRA:                  -0.413
REMARK UNBOUND:                -0.234
REMARK SMILES CC1=CC[C@H]2[C@@H]3[C@@H](C(C)C)CC[C@@]2(C)[C@H]13
REMARK SMILES IDX 1 1 2 2 3 3 4 4 5 5 6 6 15 7 13 8 12 9 11 10 7 11 14 12 8 13
REMARK SMILES IDX 9 14 10 15
REMARK H PARENT
REMARK Flexibility Score: inf
ROOT
ATOM      1  C   UNL     1      48.532  30.050  30.115  1.00  0.00     0.039 C 
ATOM      2  C   UNL     1      49.305  31.327  29.980  1.00  0.00    -0.073 C 
ATOM      3  C   UNL     1      50.058  31.807  31.004  1.00  0.00    -0.027 C 
ATOM      4  C   UNL     1      50.813  33.126  30.812  1.00  0.00     0.031 C 
ATOM      5  C   UNL     1      50.582  33.681  29.369  1.00  0.00     0.003 C 
ATOM      6  C   UNL     1      50.779  32.507  28.381  1.00  0.00     0.004 C 
ATOM      7  C   UNL     1      49.302  32.136  28.680  1.00  0.00     0.024 C 
ATOM      8  C   UNL     1      49.085  33.640  28.976  1.00  0.00    -0.022 C 
ATOM      9  C   UNL     1      48.886  34.438  27.650  1.00  0.00     0.008 C 
ATOM     10  C   UNL     1      49.695  33.840  26.468  1.00  0.00     0.005 C 
ATOM     11  C   UNL     1      50.967  33.072  26.938  1.00  0.00    -0.005 C 
ATOM     12  C   UNL     1      48.030  34.048  30.031  1.00  0.00     0.012 C 
ENDROOT
BRANCH  11  13
ATOM     13  C   UNL     1      51.429  32.004  25.899  1.00  0.00    -0.014 C 
ATOM     14  C   UNL     1      50.274  31.349  25.122  1.00  0.00     0.007 C 
ATOM     15  C   UNL     1      52.296  30.920  26.557  1.00  0.00     0.007 C 
ENDBRANCH  11  13
TORSDOF 1
ENDMDL
MODEL 5
REMARK VINA RESULT:    -3.957     18.710     20.682
REMARK INTER + INTRA:          -4.423
REMARK INTER:                  -4.117
REMARK INTRA:                  -0.306
REMARK UNBOUND:                -0.234
REMARK SMILES CC1=CC[C@H]2[C@@H]3[C@@H](C(C)C)CC[C@@]2(C)[C@H]13
REMARK SMILES IDX 1 1 2 2 3 3 4 4 5 5 6 6 15 7 13 8 12 9 11 10 7 11 14 12 8 13
REMARK SMILES IDX 9 14 10 15
REMARK H PARENT
REMARK Flexibility Score: inf
ROOT
ATOM      1  C   UNL     1      51.077  34.193  30.640  1.00  0.00     0.039 C 
ATOM      2  C   UNL     1      50.119  33.398  29.806  1.00  0.00    -0.073 C 
ATOM      3  C   UNL     1      48.891  33.883  29.487  1.00  0.00    -0.027 C 
ATOM      4  C   UNL     1      47.948  33.016  28.647  1.00  0.00     0.031 C 
ATOM      5  C   UNL     1      48.643  31.669  28.263  1.00  0.00     0.003 C 
ATOM      6  C   UNL     1      50.067  32.005  27.762  1.00  0.00     0.004 C 
ATOM      7  C   UNL     1      50.486  32.017  29.256  1.00  0.00     0.024 C 
ATOM      8  C   UNL     1      49.328  31.015  29.488  1.00  0.00    -0.022 C 
ATOM      9  C   UNL     1      49.771  29.567  29.108  1.00  0.00     0.008 C 
ATOM     10  C   UNL     1      50.788  29.544  27.937  1.00  0.00     0.005 C 
ATOM     11  C   UNL     1      50.648  30.777  26.994  1.00  0.00    -0.005 C 
ATOM     12  C   UNL     1      48.591  31.029  30.847  1.00  0.00     0.012 C 
ENDROOT
BRANCH  11  13
ATOM     13  C   UNL     1      51.969  31.083  26.222  1.00  0.00    -0.014 C 
ATOM     14  C   UNL     1      53.095  30.069  26.488  1.00  0.00     0.007 C 
ATOM     15  C   UNL     1      52.469  32.507  26.509  1.00  0.00     0.007 C 
ENDBRANCH  11  13
TORSDOF 1
ENDMDL
MODEL 6
REMARK VINA RESULT:    -3.912     21.538     23.554
REMARK INTER + INTRA:          -4.375
REMARK INTER:                  -4.211
REMARK INTRA:                  -0.164
REMARK UNBOUND:                -0.234
REMARK SMILES CC1=CC[C@H]2[C@@H]3[C@@H](C(C)C)CC[C@@]2(C)[C@H]13
REMARK SMILES IDX 1 1 2 2 3 3 4 4 5 5 6 6 15 7 13 8 12 9 11 10 7 11 14 12 8 13
REMARK SMILES IDX 9 14 10 15
REMARK H PARENT
REMARK Flexibility Score: inf
ROOT
ATOM      1  C   UNL     1      53.375  32.092  26.190  1.00  0.00     0.039 C 
ATOM      2  C   UNL     1      53.225  30.684  25.697  1.00  0.00    -0.073 C 
ATOM      3  C   UNL     1      52.780  30.421  24.440  1.00  0.00    -0.027 C 
ATOM      4  C   UNL     1      52.630  28.963  23.999  1.00  0.00     0.031 C 
ATOM      5  C   UNL     1      53.082  27.998  25.143  1.00  0.00     0.003 C 
ATOM      6  C   UNL     1      54.429  28.524  25.692  1.00  0.00     0.004 C 
ATOM      7  C   UNL     1      53.585  29.482  26.573  1.00  0.00     0.024 C 
ATOM      8  C   UNL     1      52.472  28.408  26.506  1.00  0.00    -0.022 C 
ATOM      9  C   UNL     1      52.740  27.274  27.544  1.00  0.00     0.008 C 
ATOM     10  C   UNL     1      54.253  27.018  27.769  1.00  0.00     0.005 C 
ATOM     11  C   UNL     1      55.119  27.402  26.531  1.00  0.00    -0.005 C 
ATOM     12  C   UNL     1      50.994  28.861  26.552  1.00  0.00     0.012 C 
ENDROOT
BRANCH  11  13
ATOM     13  C   UNL     1      56.595  27.723  26.919  1.00  0.00    -0.014 C 
ATOM     14  C   UNL     1      56.852  29.210  27.219  1.00  0.00     0.007 C 
ATOM     15  C   UNL     1      57.577  27.230  25.844  1.00  0.00     0.007 C 
ENDBRANCH  11  13
TORSDOF 1
ENDMDL
MODEL 7
REMARK VINA RESULT:    -3.864     18.839     20.580
REMARK INTER + INTRA:          -4.324
REMARK INTER:                  -3.961
REMARK INTRA:                  -0.363
REMARK UNBOUND:                -0.234
REMARK SMILES CC1=CC[C@H]2[C@@H]3[C@@H](C(C)C)CC[C@@]2(C)[C@H]13
REMARK SMILES IDX 1 1 2 2 3 3 4 4 5 5 6 6 15 7 13 8 12 9 11 10 7 11 14 12 8 13
REMARK SMILES IDX 9 14 10 15
REMARK H PARENT
REMARK Flexibility Score: inf
ROOT
ATOM      1  C   UNL     1      53.474  32.114  26.361  1.00  0.00     0.039 C 
ATOM      2  C   UNL     1      52.050  31.702  26.586  1.00  0.00    -0.073 C 
ATOM      3  C   UNL     1      51.608  30.469  26.225  1.00  0.00    -0.027 C 
ATOM      4  C   UNL     1      50.138  30.111  26.464  1.00  0.00     0.031 C 
ATOM      5  C   UNL     1      49.393  31.299  27.155  1.00  0.00     0.003 C 
ATOM      6  C   UNL     1      50.285  31.797  28.316  1.00  0.00     0.004 C 
ATOM      7  C   UNL     1      51.037  32.637  27.250  1.00  0.00     0.024 C 
ATOM      8  C   UNL     1      49.706  32.647  26.459  1.00  0.00    -0.022 C 
ATOM      9  C   UNL     1      48.743  33.741  27.016  1.00  0.00     0.008 C 
ATOM     10  C   UNL     1      48.907  33.956  28.545  1.00  0.00     0.005 C 
ATOM     11  C   UNL     1      49.434  32.685  29.277  1.00  0.00    -0.005 C 
ATOM     12  C   UNL     1      49.757  32.690  24.914  1.00  0.00     0.012 C 
ENDROOT
BRANCH  11  13
ATOM     13  C   UNL     1      50.153  33.032  30.618  1.00  0.00    -0.014 C 
ATOM     14  C   UNL     1      51.139  34.208  30.510  1.00  0.00     0.007 C 
ATOM     15  C   UNL     1      50.867  31.804  31.205  1.00  0.00     0.007 C 
ENDBRANCH  11  13
TORSDOF 1
ENDMDL
MODEL 8
REMARK VINA RESULT:    -3.847     21.824     23.626
REMARK INTER + INTRA:          -4.306
REMARK INTER:                  -3.885
REMARK INTRA:                  -0.421
REMARK UNBOUND:                -0.234
REMARK SMILES CC1=CC[C@H]2[C@@H]3[C@@H](C(C)C)CC[C@@]2(C)[C@H]13
REMARK SMILES IDX 1 1 2 2 3 3 4 4 5 5 6 6 15 7 13 8 12 9 11 10 7 11 14 12 8 13
REMARK SMILES IDX 9 14 10 15
REMARK H PARENT
REMARK Flexibility Score: inf
ROOT
ATOM      1  C   UNL     1      56.910  29.715  28.003  1.00  0.00     0.039 C 
ATOM      2  C   UNL     1      56.479  28.988  26.764  1.00  0.00    -0.073 C 
ATOM      3  C   UNL     1      57.254  28.019  26.211  1.00  0.00    -0.027 C 
ATOM      4  C   UNL     1      56.769  27.323  24.935  1.00  0.00     0.031 C 
ATOM      5  C   UNL     1      55.369  27.875  24.512  1.00  0.00     0.003 C 
ATOM      6  C   UNL     1      54.481  27.914  25.777  1.00  0.00     0.004 C 
ATOM      7  C   UNL     1      55.142  29.285  26.081  1.00  0.00     0.024 C 
ATOM      8  C   UNL     1      55.332  29.422  24.550  1.00  0.00    -0.022 C 
ATOM      9  C   UNL     1      54.016  29.916  23.875  1.00  0.00     0.008 C 
ATOM     10  C   UNL     1      52.745  29.402  24.601  1.00  0.00     0.005 C 
ATOM     11  C   UNL     1      52.985  28.059  25.355  1.00  0.00    -0.005 C 
ATOM     12  C   UNL     1      56.554  30.207  24.019  1.00  0.00     0.012 C 
ENDROOT
BRANCH  11  13
ATOM     13  C   UNL     1      51.976  27.851  26.527  1.00  0.00    -0.014 C 
ATOM     14  C   UNL     1      51.475  29.161  27.159  1.00  0.00     0.007 C 
ATOM     15  C   UNL     1      52.562  26.937  27.615  1.00  0.00     0.007 C 
ENDBRANCH  11  13
TORSDOF 1
ENDMDL
MODEL 9
REMARK VINA RESULT:    -3.669     20.934     22.634
REMARK INTER + INTRA:          -4.118
REMARK INTER:                  -3.868
REMARK INTRA:                  -0.250
REMARK UNBOUND:                -0.234
REMARK SMILES CC1=CC[C@H]2[C@@H]3[C@@H](C(C)C)CC[C@@]2(C)[C@H]13
REMARK SMILES IDX 1 1 2 2 3 3 4 4 5 5 6 6 15 7 13 8 12 9 11 10 7 11 14 12 8 13
REMARK SMILES IDX 9 14 10 15
REMARK H PARENT
REMARK Flexibility Score: inf
ROOT
ATOM      1  C   UNL     1      56.982  29.871  27.979  1.00  0.00     0.039 C 
ATOM      2  C   UNL     1      56.139  29.441  26.816  1.00  0.00    -0.073 C 
ATOM      3  C   UNL     1      56.211  28.178  26.322  1.00  0.00    -0.027 C 
ATOM      4  C   UNL     1      55.339  27.803  25.121  1.00  0.00     0.031 C 
ATOM      5  C   UNL     1      54.450  29.016  24.692  1.00  0.00     0.003 C 
ATOM      6  C   UNL     1      53.819  29.608  25.975  1.00  0.00     0.004 C 
ATOM      7  C   UNL     1      55.145  30.394  26.148  1.00  0.00     0.024 C 
ATOM      8  C   UNL     1      55.276  30.323  24.607  1.00  0.00    -0.022 C 
ATOM      9  C   UNL     1      54.407  31.429  23.930  1.00  0.00     0.008 C 
ATOM     10  C   UNL     1      53.116  31.745  24.730  1.00  0.00     0.005 C 
ATOM     11  C   UNL     1      52.626  30.536  25.583  1.00  0.00    -0.005 C 
ATOM     12  C   UNL     1      56.688  30.269  23.980  1.00  0.00     0.012 C 
ENDROOT
BRANCH  11  13
ATOM     13  C   UNL     1      51.752  30.984  26.795  1.00  0.00    -0.014 C 
ATOM     14  C   UNL     1      50.301  30.478  26.738  1.00  0.00     0.007 C 
ATOM     15  C   UNL     1      51.767  32.511  26.963  1.00  0.00     0.007 C 
ENDBRANCH  11  13
TORSDOF 1
ENDMDL
