MODEL 1
REMARK VINA RESULT:    13.184      0.000      0.000
REMARK INTER + INTRA:          13.184
REMARK INTER:                  13.184
REMARK INTRA:                   0.000
REMARK UNBOUND:                 0.000
REMARK SMILES C=C1CCC[C@]2(C)CC(=O)C(=C(C)C)C[C@@H]12
REMARK SMILES IDX 13 1 12 2 11 3 15 4 16 5 2 6 1 7 3 8 4 9 5 10 6 11 8 12 9 13
REMARK SMILES IDX 10 14 7 15 14 16
REMARK H PARENT
REMARK Flexibility Score: inf
ROOT
ATOM      1  C   UNL     1      -0.913   8.147   9.303  1.00  0.00     0.039 C 
ATOM      2  C   UNL     1      -2.397   7.922   9.485  1.00  0.00    -0.070 C 
ATOM      3  C   UNL     1      -2.998   6.751   9.123  1.00  0.00    -0.006 C 
ATOM      4  C   UNL     1      -4.483   6.517   9.370  1.00  0.00     0.047 C 
ATOM      5  C   UNL     1      -4.824   5.026   9.613  1.00  0.00     0.025 C 
ATOM      6  C   UNL     1      -6.308   4.726   9.826  1.00  0.00    -0.073 C 
ATOM      7  C   UNL     1      -7.278   5.659   9.801  1.00  0.00     0.008 C 
ATOM      8  C   UNL     1      -6.661   3.288  10.125  1.00  0.00     0.031 C 
ATOM      9  C   UNL     1      -6.075   2.362   9.054  1.00  0.00     0.005 C 
ATOM     10  C   UNL     1      -4.572   2.612   8.849  1.00  0.00     0.008 C 
ATOM     11  C   UNL     1      -4.240   4.096   8.504  1.00  0.00    -0.018 C 
ATOM     12  C   UNL     1      -2.700   4.253   8.486  1.00  0.00     0.088 C 
ATOM     13  C   UNL     1      -2.279   5.688   8.362  1.00  0.00     0.159 C 
ATOM     14  O   UNL     1      -1.320   5.970   7.594  1.00  0.00    -0.295 OA
ATOM     15  C   UNL     1      -4.808   4.442   7.099  1.00  0.00     0.012 C 
ATOM     16  C   UNL     1      -3.184   9.044  10.125  1.00  0.00     0.039 C 
ENDROOT
TORSDOF 0
ENDMDL
MODEL 2
REMARK VINA RESULT:    14.216      1.745      3.159
REMARK INTER + INTRA:          14.216
REMARK INTER:                  14.216
REMARK INTRA:                   0.000
REMARK UNBOUND:                 0.000
REMARK SMILES C=C1CCC[C@]2(C)CC(=O)C(=C(C)C)C[C@@H]12
REMARK SMILES IDX 13 1 12 2 11 3 15 4 16 5 2 6 1 7 3 8 4 9 5 10 6 11 8 12 9 13
REMARK SMILES IDX 10 14 7 15 14 16
REMARK H PARENT
REMARK Flexibility Score: inf
ROOT
ATOM      1  C   UNL     1      -2.292   8.579   9.714  1.00  0.00     0.039 C 
ATOM      2  C   UNL     1      -1.939   7.115   9.582  1.00  0.00    -0.070 C 
ATOM      3  C   UNL     1      -2.892   6.162   9.359  1.00  0.00    -0.006 C 
ATOM      4  C   UNL     1      -2.513   4.699   9.167  1.00  0.00     0.047 C 
ATOM      5  C   UNL     1      -3.496   3.942   8.240  1.00  0.00     0.025 C 
ATOM      6  C   UNL     1      -3.189   2.457   8.043  1.00  0.00    -0.073 C 
ATOM      7  C   UNL     1      -2.157   1.816   8.625  1.00  0.00     0.008 C 
ATOM      8  C   UNL     1      -4.097   1.708   7.096  1.00  0.00     0.031 C 
ATOM      9  C   UNL     1      -5.562   1.904   7.495  1.00  0.00     0.005 C 
ATOM     10  C   UNL     1      -5.912   3.393   7.657  1.00  0.00     0.008 C 
ATOM     11  C   UNL     1      -4.984   4.132   8.670  1.00  0.00    -0.018 C 
ATOM     12  C   UNL     1      -5.325   5.641   8.621  1.00  0.00     0.088 C 
ATOM     13  C   UNL     1      -4.351   6.467   9.412  1.00  0.00     0.159 C 
ATOM     14  O   UNL     1      -4.798   7.406  10.124  1.00  0.00    -0.295 OA
ATOM     15  C   UNL     1      -5.246   3.592  10.103  1.00  0.00     0.012 C 
ATOM     16  C   UNL     1      -0.474   6.755   9.670  1.00  0.00     0.039 C 
ENDROOT
TORSDOF 0
ENDMDL
MODEL 3
REMARK VINA RESULT:    14.975     10.051     11.614
REMARK INTER + INTRA:          14.975
REMARK INTER:                  14.975
REMARK INTRA:                   0.000
REMARK UNBOUND:                 0.000
REMARK SMILES C=C1CCC[C@]2(C)CC(=O)C(=C(C)C)C[C@@H]12
REMARK SMILES IDX 13 1 12 2 11 3 15 4 16 5 2 6 1 7 3 8 4 9 5 10 6 11 8 12 9 13
REMARK SMILES IDX 10 14 7 15 14 16
REMARK H PARENT
REMARK Flexibility Score: inf
ROOT
ATOM      1  C   UNL     1       1.856   7.541  -2.139  1.00  0.00     0.039 C 
ATOM      2  C   UNL     1       0.446   7.530  -2.685  1.00  0.00    -0.070 C 
ATOM      3  C   UNL     1      -0.626   7.889  -1.918  1.00  0.00    -0.006 C 
ATOM      4  C   UNL     1      -2.032   7.931  -2.500  1.00  0.00     0.047 C 
ATOM      5  C   UNL     1      -2.931   8.995  -1.821  1.00  0.00     0.025 C 
ATOM      6  C   UNL     1      -4.368   9.055  -2.337  1.00  0.00    -0.073 C 
ATOM      7  C   UNL     1      -4.859   8.253  -3.301  1.00  0.00     0.008 C 
ATOM      8  C   UNL     1      -5.249  10.125  -1.735  1.00  0.00     0.031 C 
ATOM      9  C   UNL     1      -5.232  10.030  -0.206  1.00  0.00     0.005 C 
ATOM     10  C   UNL     1      -3.797  10.012   0.345  1.00  0.00     0.008 C 
ATOM     11  C   UNL     1      -2.922   8.874  -0.265  1.00  0.00    -0.018 C 
ATOM     12  C   UNL     1      -1.469   9.062   0.237  1.00  0.00     0.088 C 
ATOM     13  C   UNL     1      -0.508   8.137  -0.451  1.00  0.00     0.159 C 
ATOM     14  O   UNL     1       0.383   7.572   0.238  1.00  0.00    -0.295 OA
ATOM     15  C   UNL     1      -3.456   7.495   0.212  1.00  0.00     0.012 C 
ATOM     16  C   UNL     1       0.278   7.139  -4.135  1.00  0.00     0.039 C 
ENDROOT
TORSDOF 0
ENDMDL
MODEL 4
REMARK VINA RESULT:    15.697      2.214      4.644
REMARK INTER + INTRA:          15.697
REMARK INTER:                  15.697
REMARK INTRA:                   0.000
REMARK UNBOUND:                 0.000
REMARK SMILES C=C1CCC[C@]2(C)CC(=O)C(=C(C)C)C[C@@H]12
REMARK SMILES IDX 13 1 12 2 11 3 15 4 16 5 2 6 1 7 3 8 4 9 5 10 6 11 8 12 9 13
REMARK SMILES IDX 10 14 7 15 14 16
REMARK H PARENT
REMARK Flexibility Score: inf
ROOT
ATOM      1  C   UNL     1      -3.148   2.625   3.549  1.00  0.00     0.039 C 
ATOM      2  C   UNL     1      -3.606   2.341   4.962  1.00  0.00    -0.070 C 
ATOM      3  C   UNL     1      -3.586   3.301   5.932  1.00  0.00    -0.006 C 
ATOM      4  C   UNL     1      -4.108   3.016   7.334  1.00  0.00     0.047 C 
ATOM      5  C   UNL     1      -4.696   4.272   8.024  1.00  0.00     0.025 C 
ATOM      6  C   UNL     1      -5.198   4.055   9.451  1.00  0.00    -0.073 C 
ATOM      7  C   UNL     1      -5.142   2.876  10.100  1.00  0.00     0.008 C 
ATOM      8  C   UNL     1      -5.831   5.250  10.125  1.00  0.00     0.031 C 
ATOM      9  C   UNL     1      -4.888   6.455  10.066  1.00  0.00     0.005 C 
ATOM     10  C   UNL     1      -4.400   6.726   8.633  1.00  0.00     0.008 C 
ATOM     11  C   UNL     1      -3.717   5.487   7.977  1.00  0.00    -0.018 C 
ATOM     12  C   UNL     1      -3.423   5.829   6.495  1.00  0.00     0.088 C 
ATOM     13  C   UNL     1      -2.948   4.633   5.722  1.00  0.00     0.159 C 
ATOM     14  O   UNL     1      -1.996   4.781   4.909  1.00  0.00    -0.295 OA
ATOM     15  C   UNL     1      -2.380   5.183   8.709  1.00  0.00     0.012 C 
ATOM     16  C   UNL     1      -4.125   0.949   5.245  1.00  0.00     0.039 C 
ENDROOT
TORSDOF 0
ENDMDL
