MODEL 1
REMARK VINA RESULT:    -5.425      0.000      0.000
REMARK INTER + INTRA:         -12.313
REMARK INTER:                  -9.865
REMARK INTRA:                  -2.447
REMARK UNBOUND:                -2.447
REMARK SMILES CCCCCCCCCCCCCC[C@H](C)C(=O)[O-]
REMARK SMILES IDX 9 1 10 2 11 3 12 4 13 5 14 6 15 7 16 8 17 9 18 10 19 11 8 12
REMARK SMILES IDX 7 13 6 14 5 15 4 16 3 17 2 18 1 19
REMARK H PARENT
REMARK Flexibility Score: inf
ROOT
ATOM      1  C   UNL     1      14.943  -3.861  15.724  1.00  0.00     0.000 C 
ENDROOT
BRANCH   1   2
ATOM      2  C   UNL     1      14.869  -5.398  15.741  1.00  0.00     0.000 C 
BRANCH   2   3
ATOM      3  C   UNL     1      16.089  -6.061  15.081  1.00  0.00     0.000 C 
BRANCH   3   4
ATOM      4  C   UNL     1      15.743  -6.765  13.759  1.00  0.00     0.000 C 
BRANCH   4   5
ATOM      5  C   UNL     1      14.235  -6.732  13.454  1.00  0.00     0.001 C 
BRANCH   5   6
ATOM      6  C   UNL     1      13.879  -5.807  12.274  1.00  0.00     0.009 C 
BRANCH   6   7
ATOM      7  C   UNL     1      15.076  -5.060  11.640  1.00  0.00     0.032 C 
ATOM      8  C   UNL     1      14.971  -3.538  11.804  1.00  0.00     0.014 C 
BRANCH   7   9
ATOM      9  C   UNL     1      15.161  -5.406  10.177  1.00  0.00     0.044 C 
ATOM     10  O   UNL     1      16.283  -5.554   9.626  1.00  0.00    -0.550 OA
ATOM     11  O   UNL     1      14.003  -5.581   9.429  1.00  0.00    -0.550 OA
ENDBRANCH   7   9
ENDBRANCH   6   7
ENDBRANCH   5   6
ENDBRANCH   4   5
ENDBRANCH   3   4
ENDBRANCH   2   3
ENDBRANCH   1   2
BRANCH   1  12
ATOM     12  C   UNL     1      15.012  -3.233  17.131  1.00  0.00     0.000 C 
BRANCH  12  13
ATOM     13  C   UNL     1      16.355  -2.527  17.388  1.00  0.00    -0.000 C 
BRANCH  13  14
ATOM     14  C   UNL     1      17.519  -3.515  17.558  1.00  0.00    -0.000 C 
BRANCH  14  15
ATOM     15  C   UNL     1      18.782  -3.075  16.799  1.00  0.00    -0.000 C 
BRANCH  15  16
ATOM     16  C   UNL     1      18.906  -3.736  15.416  1.00  0.00    -0.000 C 
BRANCH  16  17
ATOM     17  C   UNL     1      18.223  -2.938  14.286  1.00  0.00    -0.000 C 
BRANCH  17  18
ATOM     18  C   UNL     1      18.834  -3.238  12.909  1.00  0.00    -0.003 C 
ATOM     19  C   UNL     1      18.631  -4.700  12.524  1.00  0.00     0.004 C 
ENDBRANCH  17  18
ENDBRANCH  16  17
ENDBRANCH  15  16
ENDBRANCH  14  15
ENDBRANCH  13  14
ENDBRANCH  12  13
ENDBRANCH   1  12
TORSDOF 14
ENDMDL
MODEL 2
REMARK VINA RESULT:    -5.406      3.240      6.052
REMARK INTER + INTRA:         -12.279
REMARK INTER:                 -10.231
REMARK INTRA:                  -2.047
REMARK UNBOUND:                -2.447
REMARK SMILES CCCCCCCCCCCCCC[C@H](C)C(=O)[O-]
REMARK SMILES IDX 9 1 10 2 11 3 12 4 13 5 14 6 15 7 16 8 17 9 18 10 19 11 8 12
REMARK SMILES IDX 7 13 6 14 5 15 4 16 3 17 2 18 1 19
REMARK H PARENT
REMARK Flexibility Score: inf
ROOT
ATOM      1  C   UNL     1      13.057  -4.422  12.980  1.00  0.00     0.000 C 
ENDROOT
BRANCH   1   2
ATOM      2  C   UNL     1      13.674  -3.258  13.774  1.00  0.00     0.000 C 
BRANCH   2   3
ATOM      3  C   UNL     1      13.000  -3.044  15.139  1.00  0.00     0.000 C 
BRANCH   3   4
ATOM      4  C   UNL     1      13.908  -3.431  16.318  1.00  0.00     0.000 C 
BRANCH   4   5
ATOM      5  C   UNL     1      14.617  -4.778  16.097  1.00  0.00     0.001 C 
BRANCH   5   6
ATOM      6  C   UNL     1      16.147  -4.686  16.256  1.00  0.00     0.009 C 
BRANCH   6   7
ATOM      7  C   UNL     1      16.737  -3.262  16.133  1.00  0.00     0.032 C 
ATOM      8  C   UNL     1      17.347  -2.997  14.750  1.00  0.00     0.014 C 
BRANCH   7   9
ATOM      9  C   UNL     1      17.786  -3.063  17.194  1.00  0.00     0.044 C 
ATOM     10  O   UNL     1      19.006  -3.053  16.884  1.00  0.00    -0.550 OA
ATOM     11  O   UNL     1      17.415  -2.872  18.520  1.00  0.00    -0.550 OA
ENDBRANCH   7   9
ENDBRANCH   6   7
ENDBRANCH   5   6
ENDBRANCH   4   5
ENDBRANCH   3   4
ENDBRANCH   2   3
ENDBRANCH   1   2
BRANCH   1  12
ATOM     12  C   UNL     1      12.138  -3.963  11.828  1.00  0.00     0.000 C 
BRANCH  12  13
ATOM     13  C   UNL     1      12.656  -4.421  10.453  1.00  0.00    -0.000 C 
BRANCH  13  14
ATOM     14  C   UNL     1      13.678  -5.564  10.557  1.00  0.00    -0.000 C 
BRANCH  14  15
ATOM     15  C   UNL     1      14.696  -5.553   9.405  1.00  0.00    -0.000 C 
BRANCH  15  16
ATOM     16  C   UNL     1      16.153  -5.553   9.896  1.00  0.00    -0.000 C 
BRANCH  16  17
ATOM     17  C   UNL     1      16.300  -5.212  11.394  1.00  0.00    -0.000 C 
BRANCH  17  18
ATOM     18  C   UNL     1      16.996  -6.333  12.180  1.00  0.00    -0.003 C 
ATOM     19  C   UNL     1      16.113  -6.838  13.317  1.00  0.00     0.004 C 
ENDBRANCH  17  18
ENDBRANCH  16  17
ENDBRANCH  15  16
ENDBRANCH  14  15
ENDBRANCH  13  14
ENDBRANCH  12  13
ENDBRANCH   1  12
TORSDOF 14
ENDMDL
MODEL 3
REMARK VINA RESULT:    -5.382      2.785      5.986
REMARK INTER + INTRA:         -12.234
REMARK INTER:                  -9.989
REMARK INTRA:                  -2.245
REMARK UNBOUND:                -2.447
REMARK SMILES CCCCCCCCCCCCCC[C@H](C)C(=O)[O-]
REMARK SMILES IDX 9 1 10 2 11 3 12 4 13 5 14 6 15 7 16 8 17 9 18 10 19 11 8 12
REMARK SMILES IDX 7 13 6 14 5 15 4 16 3 17 2 18 1 19
REMARK H PARENT
REMARK Flexibility Score: inf
ROOT
ATOM      1  C   UNL     1      13.178  -3.416  11.520  1.00  0.00     0.000 C 
ENDROOT
BRANCH   1   2
ATOM      2  C   UNL     1      12.689  -3.531  12.974  1.00  0.00     0.000 C 
BRANCH   2   3
ATOM      3  C   UNL     1      13.754  -3.102  13.997  1.00  0.00     0.000 C 
BRANCH   3   4
ATOM      4  C   UNL     1      13.330  -3.378  15.448  1.00  0.00     0.000 C 
BRANCH   4   5
ATOM      5  C   UNL     1      14.489  -3.916  16.307  1.00  0.00     0.001 C 
BRANCH   5   6
ATOM      6  C   UNL     1      15.866  -3.394  15.854  1.00  0.00     0.009 C 
BRANCH   6   7
ATOM      7  C   UNL     1      17.014  -3.599  16.870  1.00  0.00     0.032 C 
ATOM      8  C   UNL     1      16.850  -2.729  18.124  1.00  0.00     0.014 C 
BRANCH   7   9
ATOM      9  C   UNL     1      18.328  -3.287  16.208  1.00  0.00     0.044 C 
ATOM     10  O   UNL     1      18.457  -3.419  14.962  1.00  0.00    -0.550 OA
ATOM     11  O   UNL     1      19.406  -2.836  16.962  1.00  0.00    -0.550 OA
ENDBRANCH   7   9
ENDBRANCH   6   7
ENDBRANCH   5   6
ENDBRANCH   4   5
ENDBRANCH   3   4
ENDBRANCH   2   3
ENDBRANCH   1   2
BRANCH   1  12
ATOM     12  C   UNL     1      12.701  -4.573  10.617  1.00  0.00     0.000 C 
BRANCH  12  13
ATOM     13  C   UNL     1      13.864  -5.468  10.156  1.00  0.00    -0.000 C 
BRANCH  13  14
ATOM     14  C   UNL     1      15.226  -4.762  10.244  1.00  0.00    -0.000 C 
BRANCH  14  15
ATOM     15  C   UNL     1      16.406  -5.744  10.177  1.00  0.00    -0.000 C 
BRANCH  15  16
ATOM     16  C   UNL     1      17.281  -5.711  11.442  1.00  0.00    -0.000 C 
BRANCH  16  17
ATOM     17  C   UNL     1      16.489  -5.422  12.734  1.00  0.00    -0.000 C 
BRANCH  17  18
ATOM     18  C   UNL     1      16.005  -6.708  13.421  1.00  0.00    -0.003 C 
ATOM     19  C   UNL     1      14.489  -6.699  13.598  1.00  0.00     0.004 C 
ENDBRANCH  17  18
ENDBRANCH  16  17
ENDBRANCH  15  16
ENDBRANCH  14  15
ENDBRANCH  13  14
ENDBRANCH  12  13
ENDBRANCH   1  12
TORSDOF 14
ENDMDL
MODEL 4
REMARK VINA RESULT:    -5.373      1.627      2.180
REMARK INTER + INTRA:         -12.217
REMARK INTER:                  -9.721
REMARK INTRA:                  -2.497
REMARK UNBOUND:                -2.447
REMARK SMILES CCCCCCCCCCCCCC[C@H](C)C(=O)[O-]
REMARK SMILES IDX 9 1 10 2 11 3 12 4 13 5 14 6 15 7 16 8 17 9 18 10 19 11 8 12
REMARK SMILES IDX 7 13 6 14 5 15 4 16 3 17 2 18 1 19
REMARK H PARENT
REMARK Flexibility Score: inf
ROOT
ATOM      1  C   UNL     1      14.635  -5.085  15.910  1.00  0.00     0.000 C 
ENDROOT
BRANCH   1   2
ATOM      2  C   UNL     1      15.809  -6.026  15.586  1.00  0.00     0.000 C 
BRANCH   2   3
ATOM      3  C   UNL     1      15.370  -7.287  14.825  1.00  0.00     0.000 C 
BRANCH   3   4
ATOM      4  C   UNL     1      15.842  -7.295  13.362  1.00  0.00     0.000 C 
BRANCH   4   5
ATOM      5  C   UNL     1      16.654  -6.040  13.000  1.00  0.00     0.001 C 
BRANCH   5   6
ATOM      6  C   UNL     1      15.950  -5.146  11.961  1.00  0.00     0.009 C 
BRANCH   6   7
ATOM      7  C   UNL     1      14.440  -5.423  11.770  1.00  0.00     0.032 C 
ATOM      8  C   UNL     1      14.058  -5.602  10.295  1.00  0.00     0.014 C 
BRANCH   7   9
ATOM      9  C   UNL     1      13.646  -4.291  12.364  1.00  0.00     0.044 C 
ATOM     10  O   UNL     1      14.130  -3.130  12.403  1.00  0.00    -0.550 OA
ATOM     11  O   UNL     1      12.367  -4.516  12.860  1.00  0.00    -0.550 OA
ENDBRANCH   7   9
ENDBRANCH   6   7
ENDBRANCH   5   6
ENDBRANCH   4   5
ENDBRANCH   3   4
ENDBRANCH   2   3
ENDBRANCH   1   2
BRANCH   1  12
ATOM     12  C   UNL     1      15.026  -3.592  15.914  1.00  0.00     0.000 C 
BRANCH  12  13
ATOM     13  C   UNL     1      15.017  -2.993  17.331  1.00  0.00    -0.000 C 
BRANCH  13  14
ATOM     14  C   UNL     1      16.381  -2.413  17.737  1.00  0.00    -0.000 C 
BRANCH  14  15
ATOM     15  C   UNL     1      17.499  -3.468  17.724  1.00  0.00    -0.000 C 
BRANCH  15  16
ATOM     16  C   UNL     1      18.655  -3.101  16.778  1.00  0.00    -0.000 C 
BRANCH  16  17
ATOM     17  C   UNL     1      18.787  -4.049  15.568  1.00  0.00    -0.000 C 
BRANCH  17  18
ATOM     18  C   UNL     1      19.047  -3.290  14.258  1.00  0.00    -0.003 C 
ATOM     19  C   UNL     1      17.814  -2.502  13.825  1.00  0.00     0.004 C 
ENDBRANCH  17  18
ENDBRANCH  16  17
ENDBRANCH  15  16
ENDBRANCH  14  15
ENDBRANCH  13  14
ENDBRANCH  12  13
ENDBRANCH   1  12
TORSDOF 14
ENDMDL
MODEL 5
REMARK VINA RESULT:    -5.369      3.070      5.305
REMARK INTER + INTRA:         -12.211
REMARK INTER:                  -9.667
REMARK INTRA:                  -2.544
REMARK UNBOUND:                -2.447
REMARK SMILES CCCCCCCCCCCCCC[C@H](C)C(=O)[O-]
REMARK SMILES IDX 9 1 10 2 11 3 12 4 13 5 14 6 15 7 16 8 17 9 18 10 19 11 8 12
REMARK SMILES IDX 7 13 6 14 5 15 4 16 3 17 2 18 1 19
REMARK H PARENT
REMARK Flexibility Score: inf
ROOT
ATOM      1  C   UNL     1      15.950  -2.309  12.650  1.00  0.00     0.000 C 
ENDROOT
BRANCH   1   2
ATOM      2  C   UNL     1      14.928  -1.169  12.495  1.00  0.00     0.000 C 
BRANCH   2   3
ATOM      3  C   UNL     1      13.488  -1.678  12.319  1.00  0.00     0.000 C 
BRANCH   3   4
ATOM      4  C   UNL     1      12.753  -1.856  13.657  1.00  0.00     0.000 C 
BRANCH   4   5
ATOM      5  C   UNL     1      12.910  -3.274  14.231  1.00  0.00     0.001 C 
BRANCH   5   6
ATOM      6  C   UNL     1      13.588  -3.292  15.614  1.00  0.00     0.009 C 
BRANCH   6   7
ATOM      7  C   UNL     1      14.968  -3.990  15.663  1.00  0.00     0.032 C 
ATOM      8  C   UNL     1      14.855  -5.494  15.944  1.00  0.00     0.014 C 
BRANCH   7   9
ATOM      9  C   UNL     1      15.819  -3.341  16.721  1.00  0.00     0.044 C 
ATOM     10  O   UNL     1      17.072  -3.451  16.680  1.00  0.00    -0.550 OA
ATOM     11  O   UNL     1      15.230  -2.601  17.740  1.00  0.00    -0.550 OA
ENDBRANCH   7   9
ENDBRANCH   6   7
ENDBRANCH   5   6
ENDBRANCH   4   5
ENDBRANCH   3   4
ENDBRANCH   2   3
ENDBRANCH   1   2
BRANCH   1  12
ATOM     12  C   UNL     1      17.187  -1.917  13.486  1.00  0.00     0.000 C 
BRANCH  12  13
ATOM     13  C   UNL     1      18.326  -2.943  13.354  1.00  0.00    -0.000 C 
BRANCH  13  14
ATOM     14  C   UNL     1      17.819  -4.393  13.359  1.00  0.00    -0.000 C 
BRANCH  14  15
ATOM     15  C   UNL     1      18.218  -5.162  12.089  1.00  0.00    -0.000 C 
BRANCH  15  16
ATOM     16  C   UNL     1      17.029  -5.879  11.427  1.00  0.00    -0.000 C 
BRANCH  16  17
ATOM     17  C   UNL     1      15.781  -5.968  12.331  1.00  0.00    -0.000 C 
BRANCH  17  18
ATOM     18  C   UNL     1      14.499  -5.548  11.597  1.00  0.00    -0.003 C 
ATOM     19  C   UNL     1      14.795  -5.159  10.152  1.00  0.00     0.004 C 
ENDBRANCH  17  18
ENDBRANCH  16  17
ENDBRANCH  15  16
ENDBRANCH  14  15
ENDBRANCH  13  14
ENDBRANCH  12  13
ENDBRANCH   1  12
TORSDOF 14
ENDMDL
MODEL 6
REMARK VINA RESULT:    -5.332      3.109      5.883
REMARK INTER + INTRA:         -12.144
REMARK INTER:                 -10.087
REMARK INTRA:                  -2.058
REMARK UNBOUND:                -2.447
REMARK SMILES CCCCCCCCCCCCCC[C@H](C)C(=O)[O-]
REMARK SMILES IDX 9 1 10 2 11 3 12 4 13 5 14 6 15 7 16 8 17 9 18 10 19 11 8 12
REMARK SMILES IDX 7 13 6 14 5 15 4 16 3 17 2 18 1 19
REMARK H PARENT
REMARK Flexibility Score: inf
ROOT
ATOM      1  C   UNL     1      16.127  -5.625  10.214  1.00  0.00     0.000 C 
ENDROOT
BRANCH   1   2
ATOM      2  C   UNL     1      17.192  -5.931  11.282  1.00  0.00     0.000 C 
BRANCH   2   3
ATOM      3  C   UNL     1      16.737  -5.557  12.702  1.00  0.00     0.000 C 
BRANCH   3   4
ATOM      4  C   UNL     1      15.872  -6.646  13.357  1.00  0.00     0.000 C 
BRANCH   4   5
ATOM      5  C   UNL     1      15.989  -6.648  14.891  1.00  0.00     0.001 C 
BRANCH   5   6
ATOM      6  C   UNL     1      14.984  -5.700  15.572  1.00  0.00     0.009 C 
BRANCH   6   7
ATOM      7  C   UNL     1      15.482  -4.251  15.781  1.00  0.00     0.032 C 
ATOM      8  C   UNL     1      16.923  -4.196  16.305  1.00  0.00     0.014 C 
BRANCH   7   9
ATOM      9  C   UNL     1      14.567  -3.543  16.744  1.00  0.00     0.044 C 
ATOM     10  O   UNL     1      13.320  -3.696  16.662  1.00  0.00    -0.550 OA
ATOM     11  O   UNL     1      15.092  -2.729  17.742  1.00  0.00    -0.550 OA
ENDBRANCH   7   9
ENDBRANCH   6   7
ENDBRANCH   5   6
ENDBRANCH   4   5
ENDBRANCH   3   4
ENDBRANCH   2   3
ENDBRANCH   1   2
BRANCH   1  12
ATOM     12  C   UNL     1      15.057  -4.617  10.683  1.00  0.00     0.000 C 
BRANCH  12  13
ATOM     13  C   UNL     1      13.634  -5.193  10.585  1.00  0.00    -0.000 C 
BRANCH  13  14
ATOM     14  C   UNL     1      12.561  -4.202  11.064  1.00  0.00    -0.000 C 
BRANCH  14  15
ATOM     15  C   UNL     1      12.419  -4.181  12.595  1.00  0.00    -0.000 C 
BRANCH  15  16
ATOM     16  C   UNL     1      13.136  -2.985  13.243  1.00  0.00    -0.000 C 
BRANCH  16  17
ATOM     17  C   UNL     1      13.072  -1.694  12.400  1.00  0.00    -0.000 C 
BRANCH  17  18
ATOM     18  C   UNL     1      14.457  -1.066  12.190  1.00  0.00    -0.003 C 
ATOM     19  C   UNL     1      15.525  -1.810  12.986  1.00  0.00     0.004 C 
ENDBRANCH  17  18
ENDBRANCH  16  17
ENDBRANCH  15  16
ENDBRANCH  14  15
ENDBRANCH  13  14
ENDBRANCH  12  13
ENDBRANCH   1  12
TORSDOF 14
ENDMDL
MODEL 7
REMARK VINA RESULT:    -5.322      3.297      6.296
REMARK INTER + INTRA:         -12.125
REMARK INTER:                  -9.594
REMARK INTRA:                  -2.531
REMARK UNBOUND:                -2.447
REMARK SMILES CCCCCCCCCCCCCC[C@H](C)C(=O)[O-]
REMARK SMILES IDX 9 1 10 2 11 3 12 4 13 5 14 6 15 7 16 8 17 9 18 10 19 11 8 12
REMARK SMILES IDX 7 13 6 14 5 15 4 16 3 17 2 18 1 19
REMARK H PARENT
REMARK Flexibility Score: inf
ROOT
ATOM      1  C   UNL     1      17.810  -5.286  11.786  1.00  0.00     0.000 C 
ENDROOT
BRANCH   1   2
ATOM      2  C   UNL     1      19.057  -4.927  12.613  1.00  0.00     0.000 C 
BRANCH   2   3
ATOM      3  C   UNL     1      19.376  -3.423  12.587  1.00  0.00     0.000 C 
BRANCH   3   4
ATOM      4  C   UNL     1      19.075  -2.727  13.923  1.00  0.00     0.000 C 
BRANCH   4   5
ATOM      5  C   UNL     1      17.615  -2.252  14.022  1.00  0.00     0.001 C 
BRANCH   5   6
ATOM      6  C   UNL     1      16.803  -3.018  15.084  1.00  0.00     0.009 C 
BRANCH   6   7
ATOM      7  C   UNL     1      17.644  -3.759  16.149  1.00  0.00     0.032 C 
ATOM      8  C   UNL     1      17.287  -5.248  16.249  1.00  0.00     0.014 C 
BRANCH   7   9
ATOM      9  C   UNL     1      17.447  -3.100  17.488  1.00  0.00     0.044 C 
ATOM     10  O   UNL     1      18.330  -3.200  18.379  1.00  0.00    -0.550 OA
ATOM     11  O   UNL     1      16.296  -2.363  17.744  1.00  0.00    -0.550 OA
ENDBRANCH   7   9
ENDBRANCH   6   7
ENDBRANCH   5   6
ENDBRANCH   4   5
ENDBRANCH   3   4
ENDBRANCH   2   3
ENDBRANCH   1   2
BRANCH   1  12
ATOM     12  C   UNL     1      16.823  -6.209  12.531  1.00  0.00     0.000 C 
BRANCH  12  13
ATOM     13  C   UNL     1      15.435  -5.565  12.693  1.00  0.00    -0.000 C 
BRANCH  13  14
ATOM     14  C   UNL     1      15.183  -4.438  11.680  1.00  0.00    -0.000 C 
BRANCH  14  15
ATOM     15  C   UNL     1      13.883  -3.669  11.962  1.00  0.00    -0.000 C 
BRANCH  15  16
ATOM     16  C   UNL     1      14.132  -2.286  12.589  1.00  0.00    -0.000 C 
BRANCH  16  17
ATOM     17  C   UNL     1      12.964  -1.784  13.463  1.00  0.00    -0.000 C 
BRANCH  17  18
ATOM     18  C   UNL     1      12.353  -2.905  14.318  1.00  0.00    -0.003 C 
ATOM     19  C   UNL     1      13.253  -3.248  15.501  1.00  0.00     0.004 C 
ENDBRANCH  17  18
ENDBRANCH  16  17
ENDBRANCH  15  16
ENDBRANCH  14  15
ENDBRANCH  13  14
ENDBRANCH  12  13
ENDBRANCH   1  12
TORSDOF 14
ENDMDL
MODEL 8
REMARK VINA RESULT:    -5.316      1.439      4.080
REMARK INTER + INTRA:         -12.115
REMARK INTER:                  -9.759
REMARK INTRA:                  -2.356
REMARK UNBOUND:                -2.447
REMARK SMILES CCCCCCCCCCCCCC[C@H](C)C(=O)[O-]
REMARK SMILES IDX 9 1 10 2 11 3 12 4 13 5 14 6 15 7 16 8 17 9 18 10 19 11 8 12
REMARK SMILES IDX 7 13 6 14 5 15 4 16 3 17 2 18 1 19
REMARK H PARENT
REMARK Flexibility Score: inf
ROOT
ATOM      1  C   UNL     1      16.318  -1.351  13.306  1.00  0.00     0.000 C 
ENDROOT
BRANCH   1   2
ATOM      2  C   UNL     1      17.608  -2.123  12.980  1.00  0.00     0.000 C 
BRANCH   2   3
ATOM      3  C   UNL     1      18.036  -3.074  14.110  1.00  0.00     0.000 C 
BRANCH   3   4
ATOM      4  C   UNL     1      17.706  -4.544  13.808  1.00  0.00     0.000 C 
BRANCH   4   5
ATOM      5  C   UNL     1      18.096  -4.953  12.377  1.00  0.00     0.001 C 
BRANCH   5   6
ATOM      6  C   UNL     1      17.057  -5.875  11.710  1.00  0.00     0.009 C 
BRANCH   6   7
ATOM      7  C   UNL     1      15.589  -5.402  11.820  1.00  0.00     0.032 C 
ATOM      8  C   UNL     1      14.717  -6.373  12.626  1.00  0.00     0.014 C 
BRANCH   7   9
ATOM      9  C   UNL     1      15.014  -5.234  10.439  1.00  0.00     0.044 C 
ATOM     10  O   UNL     1      15.737  -5.421   9.425  1.00  0.00    -0.550 OA
ATOM     11  O   UNL     1      13.678  -4.888  10.272  1.00  0.00    -0.550 OA
ENDBRANCH   7   9
ENDBRANCH   6   7
ENDBRANCH   5   6
ENDBRANCH   4   5
ENDBRANCH   3   4
ENDBRANCH   2   3
ENDBRANCH   1   2
BRANCH   1  12
ATOM     12  C   UNL     1      15.177  -1.604  12.297  1.00  0.00     0.000 C 
BRANCH  12  13
ATOM     13  C   UNL     1      13.922  -2.182  12.974  1.00  0.00    -0.000 C 
BRANCH  13  14
ATOM     14  C   UNL     1      14.258  -3.175  14.097  1.00  0.00    -0.000 C 
BRANCH  14  15
ATOM     15  C   UNL     1      13.277  -3.086  15.277  1.00  0.00    -0.000 C 
BRANCH  15  16
ATOM     16  C   UNL     1      13.850  -3.683  16.574  1.00  0.00    -0.000 C 
BRANCH  16  17
ATOM     17  C   UNL     1      15.392  -3.694  16.621  1.00  0.00    -0.000 C 
BRANCH  17  18
ATOM     18  C   UNL     1      15.955  -2.592  17.531  1.00  0.00    -0.003 C 
ATOM     19  C   UNL     1      17.330  -2.973  18.071  1.00  0.00     0.004 C 
ENDBRANCH  17  18
ENDBRANCH  16  17
ENDBRANCH  15  16
ENDBRANCH  14  15
ENDBRANCH  13  14
ENDBRANCH  12  13
ENDBRANCH   1  12
TORSDOF 14
ENDMDL
MODEL 9
REMARK VINA RESULT:    -5.285      1.552      3.960
REMARK INTER + INTRA:         -12.059
REMARK INTER:                  -9.609
REMARK INTRA:                  -2.449
REMARK UNBOUND:                -2.447
REMARK SMILES CCCCCCCCCCCCCC[C@H](C)C(=O)[O-]
REMARK SMILES IDX 9 1 10 2 11 3 12 4 13 5 14 6 15 7 16 8 17 9 18 10 19 11 8 12
REMARK SMILES IDX 7 13 6 14 5 15 4 16 3 17 2 18 1 19
REMARK H PARENT
REMARK Flexibility Score: inf
ROOT
ATOM      1  C   UNL     1      17.257  -4.108  16.226  1.00  0.00     0.000 C 
ENDROOT
BRANCH   1   2
ATOM      2  C   UNL     1      18.504  -4.043  15.327  1.00  0.00     0.000 C 
BRANCH   2   3
ATOM      3  C   UNL     1      18.420  -2.930  14.270  1.00  0.00     0.000 C 
BRANCH   3   4
ATOM      4  C   UNL     1      18.933  -3.377  12.892  1.00  0.00     0.000 C 
BRANCH   4   5
ATOM      5  C   UNL     1      18.978  -4.908  12.749  1.00  0.00     0.001 C 
BRANCH   5   6
ATOM      6  C   UNL     1      17.922  -5.452  11.768  1.00  0.00     0.009 C 
BRANCH   6   7
ATOM      7  C   UNL     1      16.461  -5.393  12.274  1.00  0.00     0.032 C 
ATOM      8  C   UNL     1      16.155  -6.481  13.312  1.00  0.00     0.014 C 
BRANCH   7   9
ATOM      9  C   UNL     1      15.522  -5.531  11.106  1.00  0.00     0.044 C 
ATOM     10  O   UNL     1      14.278  -5.566  11.294  1.00  0.00    -0.550 OA
ATOM     11  O   UNL     1      16.021  -5.604   9.810  1.00  0.00    -0.550 OA
ENDBRANCH   7   9
ENDBRANCH   6   7
ENDBRANCH   5   6
ENDBRANCH   4   5
ENDBRANCH   3   4
ENDBRANCH   2   3
ENDBRANCH   1   2
BRANCH   1  12
ATOM     12  C   UNL     1      16.070  -3.280  15.693  1.00  0.00     0.000 C 
BRANCH  12  13
ATOM     13  C   UNL     1      14.932  -3.165  16.723  1.00  0.00    -0.000 C 
BRANCH  13  14
ATOM     14  C   UNL     1      13.601  -3.724  16.198  1.00  0.00    -0.000 C 
BRANCH  14  15
ATOM     15  C   UNL     1      13.446  -3.554  14.678  1.00  0.00    -0.000 C 
BRANCH  15  16
ATOM     16  C   UNL     1      12.747  -2.238  14.294  1.00  0.00    -0.000 C 
BRANCH  16  17
ATOM     17  C   UNL     1      13.156  -1.704  12.905  1.00  0.00    -0.000 C 
BRANCH  17  18
ATOM     18  C   UNL     1      14.550  -2.192  12.480  1.00  0.00    -0.003 C 
ATOM     19  C   UNL     1      15.590  -1.087  12.637  1.00  0.00     0.004 C 
ENDBRANCH  17  18
ENDBRANCH  16  17
ENDBRANCH  15  16
ENDBRANCH  14  15
ENDBRANCH  13  14
ENDBRANCH  12  13
ENDBRANCH   1  12
TORSDOF 14
ENDMDL
