MODEL 1
REMARK VINA RESULT:    -2.352      0.000      0.000
REMARK INTER + INTRA:          -3.367
REMARK INTER:                  -3.040
REMARK INTRA:                  -0.327
REMARK UNBOUND:                -0.327
REMARK SMILES CCCCCCC=O
REMARK SMILES IDX 4 1 3 2 2 3 1 4 5 5 6 6 7 7 8 8
REMARK H PARENT
REMARK Flexibility Score: inf
ROOT
ATOM      1  C   UNL     1     115.010 114.860 120.797  1.00  0.00     0.000 C 
ENDROOT
BRANCH   1   2
ATOM      2  C   UNL     1     113.865 115.458 119.971  1.00  0.00    -0.000 C 
BRANCH   2   3
ATOM      3  C   UNL     1     114.242 116.842 119.431  1.00  0.00    -0.003 C 
ATOM      4  C   UNL     1     114.710 117.763 120.553  1.00  0.00     0.004 C 
ENDBRANCH   2   3
ENDBRANCH   1   2
BRANCH   1   5
ATOM      5  C   UNL     1     116.142 114.357 119.888  1.00  0.00     0.008 C 
BRANCH   5   6
ATOM      6  C   UNL     1     117.523 114.809 120.379  1.00  0.00     0.072 C 
BRANCH   6   7
ATOM      7  C   UNL     1     117.451 115.504 121.708  1.00  0.00     0.224 C 
ATOM      8  O   UNL     1     118.029 115.045 122.679  1.00  0.00    -0.303 OA
ENDBRANCH   6   7
ENDBRANCH   5   6
ENDBRANCH   1   5
TORSDOF 5
ENDMDL
MODEL 2
REMARK VINA RESULT:    -2.336      2.261      3.341
REMARK INTER + INTRA:          -3.347
REMARK INTER:                  -3.133
REMARK INTRA:                  -0.214
REMARK UNBOUND:                -0.327
REMARK SMILES CCCCCCC=O
REMARK SMILES IDX 4 1 3 2 2 3 1 4 5 5 6 6 7 7 8 8
REMARK H PARENT
REMARK Flexibility Score: inf
ROOT
ATOM      1  C   UNL     1     114.591 117.519 120.068  1.00  0.00     0.000 C 
ENDROOT
BRANCH   1   2
ATOM      2  C   UNL     1     114.751 118.424 118.840  1.00  0.00    -0.000 C 
BRANCH   2   3
ATOM      3  C   UNL     1     115.163 119.842 119.252  1.00  0.00    -0.003 C 
ATOM      4  C   UNL     1     114.453 120.891 118.401  1.00  0.00     0.004 C 
ENDBRANCH   2   3
ENDBRANCH   1   2
BRANCH   1   5
ATOM      5  C   UNL     1     114.852 118.299 121.365  1.00  0.00     0.008 C 
BRANCH   5   6
ATOM      6  C   UNL     1     115.630 117.468 122.393  1.00  0.00     0.072 C 
BRANCH   6   7
ATOM      7  C   UNL     1     115.553 115.997 122.105  1.00  0.00     0.224 C 
ATOM      8  O   UNL     1     115.184 115.215 122.967  1.00  0.00    -0.303 OA
ENDBRANCH   6   7
ENDBRANCH   5   6
ENDBRANCH   1   5
TORSDOF 5
ENDMDL
MODEL 3
REMARK VINA RESULT:    -2.286      2.032      3.101
REMARK INTER + INTRA:          -3.281
REMARK INTER:                  -2.901
REMARK INTRA:                  -0.380
REMARK UNBOUND:                -0.327
REMARK SMILES CCCCCCC=O
REMARK SMILES IDX 4 1 3 2 2 3 1 4 5 5 6 6 7 7 8 8
REMARK H PARENT
REMARK Flexibility Score: inf
ROOT
ATOM      1  C   UNL     1     116.881 118.928 119.280  1.00  0.00     0.000 C 
ENDROOT
BRANCH   1   2
ATOM      2  C   UNL     1     115.496 119.331 119.799  1.00  0.00    -0.000 C 
BRANCH   2   3
ATOM      3  C   UNL     1     114.892 118.224 120.672  1.00  0.00    -0.003 C 
ATOM      4  C   UNL     1     114.375 117.070 119.818  1.00  0.00     0.004 C 
ENDBRANCH   2   3
ENDBRANCH   1   2
BRANCH   1   5
ATOM      5  C   UNL     1     117.795 118.487 120.433  1.00  0.00     0.008 C 
BRANCH   5   6
ATOM      6  C   UNL     1     118.651 117.270 120.060  1.00  0.00     0.072 C 
BRANCH   6   7
ATOM      7  C   UNL     1     118.000 115.977 120.457  1.00  0.00     0.224 C 
ATOM      8  O   UNL     1     117.462 115.864 121.547  1.00  0.00    -0.303 OA
ENDBRANCH   6   7
ENDBRANCH   5   6
ENDBRANCH   1   5
TORSDOF 5
ENDMDL
MODEL 4
REMARK VINA RESULT:    -2.283      2.414      3.339
REMARK INTER + INTRA:          -3.278
REMARK INTER:                  -2.935
REMARK INTRA:                  -0.342
REMARK UNBOUND:                -0.327
REMARK SMILES CCCCCCC=O
REMARK SMILES IDX 4 1 3 2 2 3 1 4 5 5 6 6 7 7 8 8
REMARK H PARENT
REMARK Flexibility Score: inf
ROOT
ATOM      1  C   UNL     1     118.732 115.992 119.353  1.00  0.00     0.000 C 
ENDROOT
BRANCH   1   2
ATOM      2  C   UNL     1     119.182 117.381 119.823  1.00  0.00    -0.000 C 
BRANCH   2   3
ATOM      3  C   UNL     1     118.401 118.485 119.102  1.00  0.00    -0.003 C 
ATOM      4  C   UNL     1     117.112 118.822 119.844  1.00  0.00     0.004 C 
ENDBRANCH   2   3
ENDBRANCH   1   2
BRANCH   1   5
ATOM      5  C   UNL     1     118.465 115.066 120.549  1.00  0.00     0.008 C 
BRANCH   5   6
ATOM      6  C   UNL     1     117.165 115.425 121.280  1.00  0.00     0.072 C 
BRANCH   6   7
ATOM      7  C   UNL     1     117.403 115.754 122.725  1.00  0.00     0.224 C 
ATOM      8  O   UNL     1     117.654 116.898 123.067  1.00  0.00    -0.303 OA
ENDBRANCH   6   7
ENDBRANCH   5   6
ENDBRANCH   1   5
TORSDOF 5
ENDMDL
MODEL 5
REMARK VINA RESULT:    -2.283      1.603      2.934
REMARK INTER + INTRA:          -3.277
REMARK INTER:                  -2.911
REMARK INTRA:                  -0.367
REMARK UNBOUND:                -0.327
REMARK SMILES CCCCCCC=O
REMARK SMILES IDX 4 1 3 2 2 3 1 4 5 5 6 6 7 7 8 8
REMARK H PARENT
REMARK Flexibility Score: inf
ROOT
ATOM      1  C   UNL     1     114.609 117.228 119.543  1.00  0.00     0.000 C 
ENDROOT
BRANCH   1   2
ATOM      2  C   UNL     1     113.950 115.868 119.803  1.00  0.00    -0.000 C 
BRANCH   2   3
ATOM      3  C   UNL     1     114.722 114.741 119.108  1.00  0.00    -0.003 C 
ATOM      4  C   UNL     1     116.000 114.398 119.867  1.00  0.00     0.004 C 
ENDBRANCH   2   3
ENDBRANCH   1   2
BRANCH   1   5
ATOM      5  C   UNL     1     114.770 118.021 120.849  1.00  0.00     0.008 C 
BRANCH   5   6
ATOM      6  C   UNL     1     116.108 117.733 121.541  1.00  0.00     0.072 C 
BRANCH   6   7
ATOM      7  C   UNL     1     115.922 117.178 122.923  1.00  0.00     0.224 C 
ATOM      8  O   UNL     1     115.372 116.101 123.089  1.00  0.00    -0.303 OA
ENDBRANCH   6   7
ENDBRANCH   5   6
ENDBRANCH   1   5
TORSDOF 5
ENDMDL
MODEL 6
REMARK VINA RESULT:    -2.280      1.805      3.072
REMARK INTER + INTRA:          -3.274
REMARK INTER:                  -2.909
REMARK INTRA:                  -0.365
REMARK UNBOUND:                -0.327
REMARK SMILES CCCCCCC=O
REMARK SMILES IDX 4 1 3 2 2 3 1 4 5 5 6 6 7 7 8 8
REMARK H PARENT
REMARK Flexibility Score: inf
ROOT
ATOM      1  C   UNL     1     114.749 118.135 120.625  1.00  0.00     0.000 C 
ENDROOT
BRANCH   1   2
ATOM      2  C   UNL     1     115.447 119.260 119.852  1.00  0.00    -0.000 C 
BRANCH   2   3
ATOM      3  C   UNL     1     116.807 118.798 119.317  1.00  0.00    -0.003 C 
ATOM      4  C   UNL     1     117.773 118.492 120.458  1.00  0.00     0.004 C 
ENDBRANCH   2   3
ENDBRANCH   1   2
BRANCH   1   5
ATOM      5  C   UNL     1     114.312 117.005 119.680  1.00  0.00     0.008 C 
BRANCH   5   6
ATOM      6  C   UNL     1     114.574 115.617 120.278  1.00  0.00     0.072 C 
BRANCH   6   7
ATOM      7  C   UNL     1     115.492 115.676 121.464  1.00  0.00     0.224 C 
ATOM      8  O   UNL     1     116.640 115.271 121.381  1.00  0.00    -0.303 OA
ENDBRANCH   6   7
ENDBRANCH   5   6
ENDBRANCH   1   5
TORSDOF 5
ENDMDL
MODEL 7
REMARK VINA RESULT:    -2.279      2.232      3.500
REMARK INTER + INTRA:          -3.273
REMARK INTER:                  -3.000
REMARK INTRA:                  -0.273
REMARK UNBOUND:                -0.327
REMARK SMILES CCCCCCC=O
REMARK SMILES IDX 4 1 3 2 2 3 1 4 5 5 6 6 7 7 8 8
REMARK H PARENT
REMARK Flexibility Score: inf
ROOT
ATOM      1  C   UNL     1     118.478 115.422 120.477  1.00  0.00     0.000 C 
ENDROOT
BRANCH   1   2
ATOM      2  C   UNL     1     118.924 116.337 119.330  1.00  0.00    -0.000 C 
BRANCH   2   3
ATOM      3  C   UNL     1     119.069 117.787 119.808  1.00  0.00    -0.003 C 
ATOM      4  C   UNL     1     118.169 118.063 121.009  1.00  0.00     0.004 C 
ENDBRANCH   2   3
ENDBRANCH   1   2
BRANCH   1   5
ATOM      5  C   UNL     1     117.731 114.191 119.942  1.00  0.00     0.008 C 
BRANCH   5   6
ATOM      6  C   UNL     1     116.258 114.494 119.642  1.00  0.00     0.072 C 
BRANCH   6   7
ATOM      7  C   UNL     1     115.594 115.238 120.764  1.00  0.00     0.224 C 
ATOM      8  O   UNL     1     114.680 114.727 121.391  1.00  0.00    -0.303 OA
ENDBRANCH   6   7
ENDBRANCH   5   6
ENDBRANCH   1   5
TORSDOF 5
ENDMDL
MODEL 8
REMARK VINA RESULT:    -2.271      2.061      3.160
REMARK INTER + INTRA:          -3.263
REMARK INTER:                  -2.964
REMARK INTRA:                  -0.298
REMARK UNBOUND:                -0.327
REMARK SMILES CCCCCCC=O
REMARK SMILES IDX 4 1 3 2 2 3 1 4 5 5 6 6 7 7 8 8
REMARK H PARENT
REMARK Flexibility Score: inf
ROOT
ATOM      1  C   UNL     1     118.173 115.165 120.457  1.00  0.00     0.000 C 
ENDROOT
BRANCH   1   2
ATOM      2  C   UNL     1     117.405 114.013 119.799  1.00  0.00    -0.000 C 
BRANCH   2   3
ATOM      3  C   UNL     1     115.936 114.388 119.574  1.00  0.00    -0.003 C 
ATOM      4  C   UNL     1     115.339 115.046 120.814  1.00  0.00     0.004 C 
ENDBRANCH   2   3
ENDBRANCH   1   2
BRANCH   1   5
ATOM      5  C   UNL     1     118.816 116.074 119.399  1.00  0.00     0.008 C 
BRANCH   5   6
ATOM      6  C   UNL     1     118.697 117.560 119.763  1.00  0.00     0.072 C 
BRANCH   6   7
ATOM      7  C   UNL     1     118.038 117.764 121.097  1.00  0.00     0.224 C 
ATOM      8  O   UNL     1     118.540 118.504 121.928  1.00  0.00    -0.303 OA
ENDBRANCH   6   7
ENDBRANCH   5   6
ENDBRANCH   1   5
TORSDOF 5
ENDMDL
MODEL 9
REMARK VINA RESULT:    -2.265      1.384      3.153
REMARK INTER + INTRA:          -3.254
REMARK INTER:                  -2.829
REMARK INTRA:                  -0.425
REMARK UNBOUND:                -0.327
REMARK SMILES CCCCCCC=O
REMARK SMILES IDX 4 1 3 2 2 3 1 4 5 5 6 6 7 7 8 8
REMARK H PARENT
REMARK Flexibility Score: inf
ROOT
ATOM      1  C   UNL     1     115.268 114.796 120.659  1.00  0.00     0.000 C 
ENDROOT
BRANCH   1   2
ATOM      2  C   UNL     1     116.407 114.368 119.726  1.00  0.00    -0.000 C 
BRANCH   2   3
ATOM      3  C   UNL     1     117.772 114.589 120.387  1.00  0.00    -0.003 C 
ATOM      4  C   UNL     1     118.556 115.688 119.677  1.00  0.00     0.004 C 
ENDBRANCH   2   3
ENDBRANCH   1   2
BRANCH   1   5
ATOM      5  C   UNL     1     114.488 115.981 120.070  1.00  0.00     0.008 C 
BRANCH   5   6
ATOM      6  C   UNL     1     115.160 117.326 120.375  1.00  0.00     0.072 C 
BRANCH   6   7
ATOM      7  C   UNL     1     115.621 117.415 121.801  1.00  0.00     0.224 C 
ATOM      8  O   UNL     1     116.776 117.716 122.061  1.00  0.00    -0.303 OA
ENDBRANCH   6   7
ENDBRANCH   5   6
ENDBRANCH   1   5
TORSDOF 5
ENDMDL
