MODEL 1
REMARK VINA RESULT:    -4.697      0.000      0.000
REMARK INTER + INTRA:          -5.325
REMARK INTER:                  -5.109
REMARK INTRA:                  -0.216
REMARK UNBOUND:                -0.216
REMARK SMILES CC(C)(C)[C@@H]1C=C[C@@H](O)CC1
REMARK SMILES IDX 5 1 11 2 10 3 8 4 7 5 6 6 2 7 1 8 3 9 4 10 9 11
REMARK H PARENT 9 12
REMARK Flexibility Score: inf
ROOT
ATOM      1  C   UNL     1      43.525  10.496 121.008  1.00  0.00     0.017 C 
ATOM      2  C   UNL     1      42.771  10.227 119.677  1.00  0.00     0.011 C 
ATOM      3  C   UNL     1      43.019   8.802 119.182  1.00  0.00     0.037 C 
ATOM      4  C   UNL     1      44.508   8.598 118.893  1.00  0.00     0.137 C 
ATOM      5  C   UNL     1      45.357   9.032 120.063  1.00  0.00     0.000 C 
ATOM      6  C   UNL     1      44.946   9.940 120.965  1.00  0.00    -0.025 C 
ENDROOT
BRANCH   1   7
ATOM      7  C   UNL     1      43.478  12.006 121.462  1.00  0.00    -0.032 C 
ATOM      8  C   UNL     1      44.791  12.723 121.059  1.00  0.00     0.011 C 
ATOM      9  C   UNL     1      43.356  12.112 123.001  1.00  0.00     0.011 C 
ATOM     10  C   UNL     1      42.291  12.762 120.822  1.00  0.00     0.011 C 
ENDBRANCH   1   7
BRANCH   4  11
ATOM     11  O   UNL     1      44.740   7.243 118.614  1.00  0.00    -0.389 OA
ATOM     12  H   UNL     1      44.876   7.170 117.632  1.00  0.00     0.211 HD
ENDBRANCH   4  11
TORSDOF 2
ENDMDL
MODEL 2
REMARK VINA RESULT:    -4.566     11.383     12.573
REMARK INTER + INTRA:          -5.182
REMARK INTER:                  -4.960
REMARK INTRA:                  -0.223
REMARK UNBOUND:                -0.216
REMARK SMILES CC(C)(C)[C@@H]1C=C[C@@H](O)CC1
REMARK SMILES IDX 5 1 11 2 10 3 8 4 7 5 6 6 2 7 1 8 3 9 4 10 9 11
REMARK H PARENT 9 12
REMARK Flexibility Score: inf
ROOT
ATOM      1  C   UNL     1      41.102   0.743 113.497  1.00  0.00     0.017 C 
ATOM      2  C   UNL     1      42.455   1.454 113.770  1.00  0.00     0.011 C 
ATOM      3  C   UNL     1      43.418   1.274 112.597  1.00  0.00     0.037 C 
ATOM      4  C   UNL     1      43.734  -0.210 112.399  1.00  0.00     0.137 C 
ATOM      5  C   UNL     1      42.471  -1.034 112.329  1.00  0.00     0.000 C 
ATOM      6  C   UNL     1      41.314  -0.641 112.889  1.00  0.00    -0.025 C 
ENDROOT
BRANCH   1   7
ATOM      7  C   UNL     1      40.142   0.714 114.749  1.00  0.00    -0.032 C 
ATOM      8  C   UNL     1      39.240   1.973 114.756  1.00  0.00     0.011 C 
ATOM      9  C   UNL     1      40.959   0.732 116.064  1.00  0.00     0.011 C 
ATOM     10  C   UNL     1      39.236  -0.539 114.750  1.00  0.00     0.011 C 
ENDBRANCH   1   7
BRANCH   4  11
ATOM     11  O   UNL     1      44.472  -0.369 111.217  1.00  0.00    -0.389 OA
ATOM     12  H   UNL     1      43.957  -0.990 110.637  1.00  0.00     0.211 HD
ENDBRANCH   4  11
TORSDOF 2
ENDMDL
MODEL 3
REMARK VINA RESULT:    -4.477      0.961      2.304
REMARK INTER + INTRA:          -5.086
REMARK INTER:                  -4.869
REMARK INTRA:                  -0.217
REMARK UNBOUND:                -0.216
REMARK SMILES CC(C)(C)[C@@H]1C=C[C@@H](O)CC1
REMARK SMILES IDX 5 1 11 2 10 3 8 4 7 5 6 6 2 7 1 8 3 9 4 10 9 11
REMARK H PARENT 9 12
REMARK Flexibility Score: inf
ROOT
ATOM      1  C   UNL     1      43.676  10.839 120.020  1.00  0.00     0.017 C 
ATOM      2  C   UNL     1      44.711   9.919 120.722  1.00  0.00     0.011 C 
ATOM      3  C   UNL     1      45.506   9.105 119.700  1.00  0.00     0.037 C 
ATOM      4  C   UNL     1      44.565   8.189 118.912  1.00  0.00     0.137 C 
ATOM      5  C   UNL     1      43.393   8.958 118.354  1.00  0.00     0.000 C 
ATOM      6  C   UNL     1      42.947  10.104 118.899  1.00  0.00    -0.025 C 
ENDROOT
BRANCH   1   7
ATOM      7  C   UNL     1      42.685  11.549 121.023  1.00  0.00    -0.032 C 
ATOM      8  C   UNL     1      41.444  10.654 121.267  1.00  0.00     0.011 C 
ATOM      9  C   UNL     1      42.174  12.886 120.434  1.00  0.00     0.011 C 
ATOM     10  C   UNL     1      43.357  11.837 122.386  1.00  0.00     0.011 C 
ENDBRANCH   1   7
BRANCH   4  11
ATOM     11  O   UNL     1      45.281   7.587 117.867  1.00  0.00    -0.389 OA
ATOM     12  H   UNL     1      46.107   7.206 118.265  1.00  0.00     0.211 HD
ENDBRANCH   4  11
TORSDOF 2
ENDMDL
MODEL 4
REMARK VINA RESULT:    -4.440      7.923     10.578
REMARK INTER + INTRA:          -5.045
REMARK INTER:                  -4.826
REMARK INTRA:                  -0.219
REMARK UNBOUND:                -0.216
REMARK SMILES CC(C)(C)[C@@H]1C=C[C@@H](O)CC1
REMARK SMILES IDX 5 1 11 2 10 3 8 4 7 5 6 6 2 7 1 8 3 9 4 10 9 11
REMARK H PARENT 9 12
REMARK Flexibility Score: inf
ROOT
ATOM      1  C   UNL     1      49.376   6.427 112.636  1.00  0.00     0.017 C 
ATOM      2  C   UNL     1      47.874   6.282 112.271  1.00  0.00     0.011 C 
ATOM      3  C   UNL     1      47.071   7.490 112.756  1.00  0.00     0.037 C 
ATOM      4  C   UNL     1      47.144   7.591 114.281  1.00  0.00     0.137 C 
ATOM      5  C   UNL     1      48.572   7.529 114.766  1.00  0.00     0.000 C 
ATOM      6  C   UNL     1      49.555   6.938 114.063  1.00  0.00    -0.025 C 
ENDROOT
BRANCH   1   7
ATOM      7  C   UNL     1      50.221   5.125 112.349  1.00  0.00    -0.032 C 
ATOM      8  C   UNL     1      49.480   4.225 111.329  1.00  0.00     0.011 C 
ATOM      9  C   UNL     1      50.402   4.294 113.642  1.00  0.00     0.011 C 
ATOM     10  C   UNL     1      51.619   5.461 111.781  1.00  0.00     0.011 C 
ENDBRANCH   1   7
BRANCH   4  11
ATOM     11  O   UNL     1      46.555   8.797 114.690  1.00  0.00    -0.389 OA
ATOM     12  H   UNL     1      47.186   9.225 115.326  1.00  0.00     0.211 HD
ENDBRANCH   4  11
TORSDOF 2
ENDMDL
MODEL 5
REMARK VINA RESULT:    -4.427      4.085      5.744
REMARK INTER + INTRA:          -5.032
REMARK INTER:                  -4.811
REMARK INTRA:                  -0.221
REMARK UNBOUND:                -0.216
REMARK SMILES CC(C)(C)[C@@H]1C=C[C@@H](O)CC1
REMARK SMILES IDX 5 1 11 2 10 3 8 4 7 5 6 6 2 7 1 8 3 9 4 10 9 11
REMARK H PARENT 9 12
REMARK Flexibility Score: inf
ROOT
ATOM      1  C   UNL     1      44.907   9.515 116.013  1.00  0.00     0.017 C 
ATOM      2  C   UNL     1      45.050   8.259 115.111  1.00  0.00     0.011 C 
ATOM      3  C   UNL     1      44.827   8.610 113.640  1.00  0.00     0.037 C 
ATOM      4  C   UNL     1      43.404   9.137 113.437  1.00  0.00     0.137 C 
ATOM      5  C   UNL     1      43.083  10.238 114.418  1.00  0.00     0.000 C 
ATOM      6  C   UNL     1      43.702  10.359 115.605  1.00  0.00    -0.025 C 
ENDROOT
BRANCH   1   7
ATOM      7  C   UNL     1      44.921   9.185 117.556  1.00  0.00    -0.032 C 
ATOM      8  C   UNL     1      44.815   7.655 117.774  1.00  0.00     0.011 C 
ATOM      9  C   UNL     1      43.707   9.832 118.265  1.00  0.00     0.011 C 
ATOM     10  C   UNL     1      46.214   9.688 118.239  1.00  0.00     0.011 C 
ENDBRANCH   1   7
BRANCH   4  11
ATOM     11  O   UNL     1      43.276   9.618 112.125  1.00  0.00    -0.389 OA
ATOM     12  H   UNL     1      43.268   8.825 111.527  1.00  0.00     0.211 HD
ENDBRANCH   4  11
TORSDOF 2
ENDMDL
MODEL 6
REMARK VINA RESULT:    -4.391      9.304     11.430
REMARK INTER + INTRA:          -4.992
REMARK INTER:                  -4.775
REMARK INTRA:                  -0.217
REMARK UNBOUND:                -0.216
REMARK SMILES CC(C)(C)[C@@H]1C=C[C@@H](O)CC1
REMARK SMILES IDX 5 1 11 2 10 3 8 4 7 5 6 6 2 7 1 8 3 9 4 10 9 11
REMARK H PARENT 9 12
REMARK Flexibility Score: inf
ROOT
ATOM      1  C   UNL     1      50.562   6.511 112.324  1.00  0.00     0.017 C 
ATOM      2  C   UNL     1      49.647   6.022 111.168  1.00  0.00     0.011 C 
ATOM      3  C   UNL     1      48.594   7.073 110.817  1.00  0.00     0.037 C 
ATOM      4  C   UNL     1      47.683   7.326 112.021  1.00  0.00     0.137 C 
ATOM      5  C   UNL     1      48.488   7.609 113.266  1.00  0.00     0.000 C 
ATOM      6  C   UNL     1      49.750   7.176 113.432  1.00  0.00    -0.025 C 
ENDROOT
BRANCH   1   7
ATOM      7  C   UNL     1      51.533   5.394 112.871  1.00  0.00    -0.032 C 
ATOM      8  C   UNL     1      52.676   6.040 113.693  1.00  0.00     0.011 C 
ATOM      9  C   UNL     1      52.192   4.621 111.704  1.00  0.00     0.011 C 
ATOM     10  C   UNL     1      50.792   4.381 113.775  1.00  0.00     0.011 C 
ENDBRANCH   1   7
BRANCH   4  11
ATOM     11  O   UNL     1      46.843   8.414 111.740  1.00  0.00    -0.389 OA
ATOM     12  H   UNL     1      46.671   8.400 110.762  1.00  0.00     0.211 HD
ENDBRANCH   4  11
TORSDOF 2
ENDMDL
MODEL 7
REMARK VINA RESULT:    -4.293     11.308     12.673
REMARK INTER + INTRA:          -4.886
REMARK INTER:                  -4.659
REMARK INTRA:                  -0.227
REMARK UNBOUND:                -0.216
REMARK SMILES CC(C)(C)[C@@H]1C=C[C@@H](O)CC1
REMARK SMILES IDX 5 1 11 2 10 3 8 4 7 5 6 6 2 7 1 8 3 9 4 10 9 11
REMARK H PARENT 9 12
REMARK Flexibility Score: inf
ROOT
ATOM      1  C   UNL     1      40.994   0.145 114.018  1.00  0.00     0.017 C 
ATOM      2  C   UNL     1      41.223  -0.716 112.746  1.00  0.00     0.011 C 
ATOM      3  C   UNL     1      42.716  -0.917 112.480  1.00  0.00     0.037 C 
ATOM      4  C   UNL     1      43.390   0.434 112.224  1.00  0.00     0.137 C 
ATOM      5  C   UNL     1      43.056   1.426 113.311  1.00  0.00     0.000 C 
ATOM      6  C   UNL     1      41.943   1.340 114.061  1.00  0.00    -0.025 C 
ENDROOT
BRANCH   1   7
ATOM      7  C   UNL     1      39.487   0.561 114.231  1.00  0.00    -0.032 C 
ATOM      8  C   UNL     1      38.787   0.745 112.861  1.00  0.00     0.011 C 
ATOM      9  C   UNL     1      39.392   1.915 114.976  1.00  0.00     0.011 C 
ATOM     10  C   UNL     1      38.707  -0.500 115.041  1.00  0.00     0.011 C 
ENDBRANCH   1   7
BRANCH   4  11
ATOM     11  O   UNL     1      44.779   0.248 112.160  1.00  0.00    -0.389 OA
ATOM     12  H   UNL     1      45.190   0.947 112.733  1.00  0.00     0.211 HD
ENDBRANCH   4  11
TORSDOF 2
ENDMDL
MODEL 8
REMARK VINA RESULT:    -4.288      9.143     10.451
REMARK INTER + INTRA:          -4.880
REMARK INTER:                  -4.661
REMARK INTRA:                  -0.219
REMARK UNBOUND:                -0.216
REMARK SMILES CC(C)(C)[C@@H]1C=C[C@@H](O)CC1
REMARK SMILES IDX 5 1 11 2 10 3 8 4 7 5 6 6 2 7 1 8 3 9 4 10 9 11
REMARK H PARENT 9 12
REMARK Flexibility Score: inf
ROOT
ATOM      1  C   UNL     1      41.351  14.874 112.288  1.00  0.00     0.017 C 
ATOM      2  C   UNL     1      42.288  14.616 113.500  1.00  0.00     0.011 C 
ATOM      3  C   UNL     1      41.578  14.921 114.819  1.00  0.00     0.037 C 
ATOM      4  C   UNL     1      41.184  16.399 114.875  1.00  0.00     0.137 C 
ATOM      5  C   UNL     1      40.438  16.813 113.630  1.00  0.00     0.000 C 
ATOM      6  C   UNL     1      40.575  16.177 112.453  1.00  0.00    -0.025 C 
ENDROOT
BRANCH   1   7
ATOM      7  C   UNL     1      42.086  14.778 110.895  1.00  0.00    -0.032 C 
ATOM      8  C   UNL     1      41.750  13.431 110.208  1.00  0.00     0.011 C 
ATOM      9  C   UNL     1      43.622  14.823 111.082  1.00  0.00     0.011 C 
ATOM     10  C   UNL     1      41.672  15.927 109.947  1.00  0.00     0.011 C 
ENDBRANCH   1   7
BRANCH   4  11
ATOM     11  O   UNL     1      40.383  16.618 116.005  1.00  0.00    -0.389 OA
ATOM     12  H   UNL     1      40.115  17.574 115.987  1.00  0.00     0.211 HD
ENDBRANCH   4  11
TORSDOF 2
ENDMDL
MODEL 9
REMARK VINA RESULT:    -4.281      7.789      8.700
REMARK INTER + INTRA:          -4.872
REMARK INTER:                  -4.647
REMARK INTRA:                  -0.226
REMARK UNBOUND:                -0.216
REMARK SMILES CC(C)(C)[C@@H]1C=C[C@@H](O)CC1
REMARK SMILES IDX 5 1 11 2 10 3 8 4 7 5 6 6 2 7 1 8 3 9 4 10 9 11
REMARK H PARENT 9 12
REMARK Flexibility Score: inf
ROOT
ATOM      1  C   UNL     1      41.960  13.689 113.126  1.00  0.00     0.017 C 
ATOM      2  C   UNL     1      41.464  12.389 113.816  1.00  0.00     0.011 C 
ATOM      3  C   UNL     1      42.384  11.210 113.497  1.00  0.00     0.037 C 
ATOM      4  C   UNL     1      42.382  10.936 111.991  1.00  0.00     0.137 C 
ATOM      5  C   UNL     1      42.651  12.196 111.205  1.00  0.00     0.000 C 
ATOM      6  C   UNL     1      42.388  13.424 111.685  1.00  0.00    -0.025 C 
ENDROOT
BRANCH   1   7
ATOM      7  C   UNL     1      40.944  14.890 113.245  1.00  0.00    -0.032 C 
ATOM      8  C   UNL     1      39.499  14.352 113.392  1.00  0.00     0.011 C 
ATOM      9  C   UNL     1      40.978  15.764 111.968  1.00  0.00     0.011 C 
ATOM     10  C   UNL     1      41.259  15.789 114.464  1.00  0.00     0.011 C 
ENDBRANCH   1   7
BRANCH   4  11
ATOM     11  O   UNL     1      43.361   9.975 111.699  1.00  0.00    -0.389 OA
ATOM     12  H   UNL     1      44.045  10.033 112.416  1.00  0.00     0.211 HD
ENDBRANCH   4  11
TORSDOF 2
ENDMDL
