MODEL 1
REMARK VINA RESULT:    -6.104      0.000      0.000
REMARK INTER + INTRA:          -8.823
REMARK INTER:                  -8.245
REMARK INTRA:                  -0.578
REMARK UNBOUND:                -0.578
REMARK SMILES COc1ccc(-c2cc(=O)c3c(OC)c(OC)c(OC)c(OC)c3o2)cc1
REMARK SMILES IDX 7 1 8 2 9 3 10 4 11 5 24 6 25 7 21 8 18 9 15 10 12 11 6 12
REMARK SMILES IDX 3 13 4 14 27 15 5 16 26 17 2 18 1 19 22 20 23 21 13 22 14 23
REMARK SMILES IDX 19 24 20 25 16 26 17 27
REMARK H PARENT
REMARK Flexibility Score: inf
ROOT
ATOM      1  C   UNL     1       8.727  13.867 -18.674  1.00  0.00     0.138 A 
ATOM      2  C   UNL     1       9.210  14.348 -17.447  1.00  0.00     0.100 A 
ATOM      3  C   UNL     1       9.156  13.528 -16.320  1.00  0.00     0.197 A 
ATOM      4  O   UNL     1       9.600  13.969 -15.225  1.00  0.00    -0.289 OA
ATOM      5  C   UNL     1       8.610  12.231 -16.426  1.00  0.00     0.115 A 
ATOM      6  C   UNL     1       8.130  11.825 -17.691  1.00  0.00     0.188 A 
ATOM      7  O   UNL     1       8.210  12.643 -18.737  1.00  0.00    -0.452 OA
ATOM      8  C   UNL     1       7.569  10.555 -17.864  1.00  0.00     0.209 A 
ATOM      9  C   UNL     1       7.451   9.681 -16.765  1.00  0.00     0.211 A 
ATOM     10  C   UNL     1       7.981  10.047 -15.520  1.00  0.00     0.208 A 
ATOM     11  C   UNL     1       8.514  11.342 -15.330  1.00  0.00     0.179 A 
ENDROOT
BRANCH   1  12
ATOM     12  C   UNL     1       8.757  14.692 -19.909  1.00  0.00     0.018 A 
ATOM     13  C   UNL     1       8.839  16.207 -22.293  1.00  0.00     0.118 A 
ATOM     14  C   UNL     1       8.862  14.809 -22.340  1.00  0.00     0.047 A 
ATOM     15  C   UNL     1       8.786  16.850 -21.043  1.00  0.00     0.047 A 
ATOM     16  C   UNL     1       8.824  14.058 -21.162  1.00  0.00     0.016 A 
ATOM     17  C   UNL     1       8.750  16.100 -19.863  1.00  0.00     0.016 A 
BRANCH  13  18
ATOM     18  O   UNL     1       8.873  16.915 -23.503  1.00  0.00    -0.497 OA
ATOM     19  C   UNL     1       9.181  16.335 -24.767  1.00  0.00     0.278 C 
ENDBRANCH  13  18
ENDBRANCH   1  12
BRANCH   8  20
ATOM     20  O   UNL     1       7.165  10.171 -19.144  1.00  0.00    -0.490 OA
ATOM     21  C   UNL     1       5.875  10.498 -19.648  1.00  0.00     0.278 C 
ENDBRANCH   8  20
BRANCH  11  22
ATOM     22  O   UNL     1       8.907  11.758 -14.056  1.00  0.00    -0.492 OA
ATOM     23  C   UNL     1       7.956  11.942 -13.012  1.00  0.00     0.278 C 
ENDBRANCH  11  22
BRANCH   9  24
ATOM     24  O   UNL     1       6.827   8.431 -16.874  1.00  0.00    -0.490 OA
ATOM     25  C   UNL     1       7.441   7.304 -17.493  1.00  0.00     0.279 C 
ENDBRANCH   9  24
BRANCH  10  26
ATOM     26  O   UNL     1       7.935   9.101 -14.487  1.00  0.00    -0.490 OA
ATOM     27  C   UNL     1       8.998   8.196 -14.196  1.00  0.00     0.278 C 
ENDBRANCH  10  26
TORSDOF 6
ENDMDL
MODEL 2
REMARK VINA RESULT:    -6.017      2.161      8.466
REMARK INTER + INTRA:          -8.705
REMARK INTER:                  -8.286
REMARK INTRA:                  -0.419
REMARK UNBOUND:                -0.578
REMARK SMILES COc1ccc(-c2cc(=O)c3c(OC)c(OC)c(OC)c(OC)c3o2)cc1
REMARK SMILES IDX 7 1 8 2 9 3 10 4 11 5 24 6 25 7 21 8 18 9 15 10 12 11 6 12
REMARK SMILES IDX 3 13 4 14 27 15 5 16 26 17 2 18 1 19 22 20 23 21 13 22 14 23
REMARK SMILES IDX 19 24 20 25 16 26 17 27
REMARK H PARENT
REMARK Flexibility Score: inf
ROOT
ATOM      1  C   UNL     1       7.262   9.931 -16.012  1.00  0.00     0.138 A 
ATOM      2  C   UNL     1       6.499   9.522 -17.116  1.00  0.00     0.100 A 
ATOM      3  C   UNL     1       6.673  10.159 -18.344  1.00  0.00     0.197 A 
ATOM      4  O   UNL     1       5.986   9.776 -19.331  1.00  0.00    -0.289 OA
ATOM      5  C   UNL     1       7.606  11.210 -18.459  1.00  0.00     0.115 A 
ATOM      6  C   UNL     1       8.325  11.576 -17.298  1.00  0.00     0.188 A 
ATOM      7  O   UNL     1       8.127  10.932 -16.152  1.00  0.00    -0.452 OA
ATOM      8  C   UNL     1       9.260  12.616 -17.340  1.00  0.00     0.209 A 
ATOM      9  C   UNL     1       9.468  13.329 -18.538  1.00  0.00     0.211 A 
ATOM     10  C   UNL     1       8.809  12.935 -19.711  1.00  0.00     0.208 A 
ATOM     11  C   UNL     1       7.837  11.910 -19.667  1.00  0.00     0.179 A 
ENDROOT
BRANCH   1  12
ATOM     12  C   UNL     1       7.123   9.292 -14.678  1.00  0.00     0.018 A 
ATOM     13  C   UNL     1       6.893   8.127 -12.113  1.00  0.00     0.118 A 
ATOM     14  C   UNL     1       7.234   9.477 -12.251  1.00  0.00     0.047 A 
ATOM     15  C   UNL     1       6.677   7.353 -13.269  1.00  0.00     0.047 A 
ATOM     16  C   UNL     1       7.350  10.054 -13.518  1.00  0.00     0.016 A 
ATOM     17  C   UNL     1       6.795   7.929 -14.538  1.00  0.00     0.016 A 
BRANCH  13  18
ATOM     18  O   UNL     1       6.783   7.595 -10.820  1.00  0.00    -0.497 OA
ATOM     19  C   UNL     1       7.390   8.162  -9.663  1.00  0.00     0.278 C 
ENDBRANCH  13  18
ENDBRANCH   1  12
BRANCH   8  20
ATOM     20  O   UNL     1       9.993  12.903 -16.187  1.00  0.00    -0.490 OA
ATOM     21  C   UNL     1       9.529  13.841 -15.222  1.00  0.00     0.278 C 
ENDBRANCH   8  20
BRANCH  11  22
ATOM     22  O   UNL     1       7.076  11.618 -20.800  1.00  0.00    -0.492 OA
ATOM     23  C   UNL     1       5.928  12.390 -21.140  1.00  0.00     0.278 C 
ENDBRANCH  11  22
BRANCH   9  24
ATOM     24  O   UNL     1      10.337  14.426 -18.607  1.00  0.00    -0.490 OA
ATOM     25  C   UNL     1       9.950  15.752 -18.256  1.00  0.00     0.279 C 
ENDBRANCH   9  24
BRANCH  10  26
ATOM     26  O   UNL     1       9.132  13.606 -20.898  1.00  0.00    -0.490 OA
ATOM     27  C   UNL     1       8.464  14.783 -21.349  1.00  0.00     0.278 C 
ENDBRANCH  10  26
TORSDOF 6
ENDMDL
MODEL 3
REMARK VINA RESULT:    -5.958      1.881      2.915
REMARK INTER + INTRA:          -8.625
REMARK INTER:                  -8.016
REMARK INTRA:                  -0.609
REMARK UNBOUND:                -0.578
REMARK SMILES COc1ccc(-c2cc(=O)c3c(OC)c(OC)c(OC)c(OC)c3o2)cc1
REMARK SMILES IDX 7 1 8 2 9 3 10 4 11 5 24 6 25 7 21 8 18 9 15 10 12 11 6 12
REMARK SMILES IDX 3 13 4 14 27 15 5 16 26 17 2 18 1 19 22 20 23 21 13 22 14 23
REMARK SMILES IDX 19 24 20 25 16 26 17 27
REMARK H PARENT
REMARK Flexibility Score: inf
ROOT
ATOM      1  C   UNL     1       8.944  12.379 -18.906  1.00  0.00     0.138 A 
ATOM      2  C   UNL     1       9.931  11.387 -19.016  1.00  0.00     0.100 A 
ATOM      3  C   UNL     1       9.903  10.292 -18.152  1.00  0.00     0.197 A 
ATOM      4  O   UNL     1      10.791   9.404 -18.266  1.00  0.00    -0.289 OA
ATOM      5  C   UNL     1       8.890  10.200 -17.175  1.00  0.00     0.115 A 
ATOM      6  C   UNL     1       7.941  11.246 -17.116  1.00  0.00     0.188 A 
ATOM      7  O   UNL     1       8.008  12.266 -17.968  1.00  0.00    -0.452 OA
ATOM      8  C   UNL     1       6.915  11.221 -16.166  1.00  0.00     0.209 A 
ATOM      9  C   UNL     1       6.838  10.164 -15.238  1.00  0.00     0.211 A 
ATOM     10  C   UNL     1       7.734   9.089 -15.326  1.00  0.00     0.208 A 
ATOM     11  C   UNL     1       8.795   9.126 -16.259  1.00  0.00     0.179 A 
ENDROOT
BRANCH   1  12
ATOM     12  C   UNL     1       8.920  13.567 -19.797  1.00  0.00     0.018 A 
ATOM     13  C   UNL     1       8.877  15.786 -21.547  1.00  0.00     0.118 A 
ATOM     14  C   UNL     1       8.545  14.509 -22.012  1.00  0.00     0.047 A 
ATOM     15  C   UNL     1       9.243  15.950 -20.197  1.00  0.00     0.047 A 
ATOM     16  C   UNL     1       8.568  13.410 -21.149  1.00  0.00     0.016 A 
ATOM     17  C   UNL     1       9.269  14.851 -19.333  1.00  0.00     0.016 A 
BRANCH  13  18
ATOM     18  O   UNL     1       8.833  16.857 -22.450  1.00  0.00    -0.497 OA
ATOM     19  C   UNL     1       8.881  16.718 -23.866  1.00  0.00     0.278 C 
ENDBRANCH  13  18
ENDBRANCH   1  12
BRANCH   8  20
ATOM     20  O   UNL     1       5.962  12.242 -16.183  1.00  0.00    -0.490 OA
ATOM     21  C   UNL     1       6.179  13.475 -15.506  1.00  0.00     0.278 C 
ENDBRANCH   8  20
BRANCH  11  22
ATOM     22  O   UNL     1       9.772   8.128 -16.249  1.00  0.00    -0.492 OA
ATOM     23  C   UNL     1      10.745   8.056 -15.211  1.00  0.00     0.278 C 
ENDBRANCH  11  22
BRANCH   9  24
ATOM     24  O   UNL     1       5.875  10.137 -14.221  1.00  0.00    -0.490 OA
ATOM     25  C   UNL     1       6.031  10.817 -12.979  1.00  0.00     0.279 C 
ENDBRANCH   9  24
BRANCH  10  26
ATOM     26  O   UNL     1       7.550   8.011 -14.449  1.00  0.00    -0.490 OA
ATOM     27  C   UNL     1       6.871   6.809 -14.806  1.00  0.00     0.278 C 
ENDBRANCH  10  26
TORSDOF 6
ENDMDL
MODEL 4
REMARK VINA RESULT:    -5.899      2.588      3.925
REMARK INTER + INTRA:          -8.546
REMARK INTER:                  -8.125
REMARK INTRA:                  -0.421
REMARK UNBOUND:                -0.578
REMARK SMILES COc1ccc(-c2cc(=O)c3c(OC)c(OC)c(OC)c(OC)c3o2)cc1
REMARK SMILES IDX 7 1 8 2 9 3 10 4 11 5 24 6 25 7 21 8 18 9 15 10 12 11 6 12
REMARK SMILES IDX 3 13 4 14 27 15 5 16 26 17 2 18 1 19 22 20 23 21 13 22 14 23
REMARK SMILES IDX 19 24 20 25 16 26 17 27
REMARK H PARENT
REMARK Flexibility Score: inf
ROOT
ATOM      1  C   UNL     1       8.658  14.233 -17.986  1.00  0.00     0.138 A 
ATOM      2  C   UNL     1       9.241  13.448 -18.993  1.00  0.00     0.100 A 
ATOM      3  C   UNL     1       9.405  12.078 -18.786  1.00  0.00     0.197 A 
ATOM      4  O   UNL     1       9.923  11.383 -19.702  1.00  0.00    -0.289 OA
ATOM      5  C   UNL     1       8.993  11.503 -17.566  1.00  0.00     0.115 A 
ATOM      6  C   UNL     1       8.430  12.361 -16.595  1.00  0.00     0.188 A 
ATOM      7  O   UNL     1       8.289  13.660 -16.844  1.00  0.00    -0.452 OA
ATOM      8  C   UNL     1       8.007  11.857 -15.360  1.00  0.00     0.209 A 
ATOM      9  C   UNL     1       8.169  10.489 -15.065  1.00  0.00     0.211 A 
ATOM     10  C   UNL     1       8.667   9.616 -16.042  1.00  0.00     0.208 A 
ATOM     11  C   UNL     1       9.130  10.124 -17.277  1.00  0.00     0.179 A 
ENDROOT
BRANCH   1  12
ATOM     12  C   UNL     1       8.456  15.696 -18.147  1.00  0.00     0.018 A 
ATOM     13  C   UNL     1       8.141  18.487 -18.460  1.00  0.00     0.118 A 
ATOM     14  C   UNL     1       9.328  17.859 -18.851  1.00  0.00     0.047 A 
ATOM     15  C   UNL     1       7.108  17.712 -17.899  1.00  0.00     0.047 A 
ATOM     16  C   UNL     1       9.487  16.480 -18.695  1.00  0.00     0.016 A 
ATOM     17  C   UNL     1       7.267  16.332 -17.740  1.00  0.00     0.016 A 
BRANCH  13  18
ATOM     18  O   UNL     1       8.027  19.873 -18.643  1.00  0.00    -0.497 OA
ATOM     19  C   UNL     1       8.622  20.848 -17.793  1.00  0.00     0.278 C 
ENDBRANCH  13  18
ENDBRANCH   1  12
BRANCH   8  20
ATOM     20  O   UNL     1       7.399  12.728 -14.454  1.00  0.00    -0.490 OA
ATOM     21  C   UNL     1       5.991  12.937 -14.451  1.00  0.00     0.278 C 
ENDBRANCH   8  20
BRANCH  11  22
ATOM     22  O   UNL     1       9.760   9.278 -18.191  1.00  0.00    -0.492 OA
ATOM     23  C   UNL     1      11.149   8.982 -18.090  1.00  0.00     0.278 C 
ENDBRANCH  11  22
BRANCH   9  24
ATOM     24  O   UNL     1       7.832   9.954 -13.814  1.00  0.00    -0.490 OA
ATOM     25  C   UNL     1       6.535   9.452 -13.503  1.00  0.00     0.279 C 
ENDBRANCH   9  24
BRANCH  10  26
ATOM     26  O   UNL     1       8.708   8.248 -15.737  1.00  0.00    -0.490 OA
ATOM     27  C   UNL     1       9.776   7.628 -15.024  1.00  0.00     0.278 C 
ENDBRANCH  10  26
TORSDOF 6
ENDMDL
MODEL 5
REMARK VINA RESULT:    -5.796      1.962      7.563
REMARK INTER + INTRA:          -8.407
REMARK INTER:                  -7.842
REMARK INTRA:                  -0.565
REMARK UNBOUND:                -0.578
REMARK SMILES COc1ccc(-c2cc(=O)c3c(OC)c(OC)c(OC)c(OC)c3o2)cc1
REMARK SMILES IDX 7 1 8 2 9 3 10 4 11 5 24 6 25 7 21 8 18 9 15 10 12 11 6 12
REMARK SMILES IDX 3 13 4 14 27 15 5 16 26 17 2 18 1 19 22 20 23 21 13 22 14 23
REMARK SMILES IDX 19 24 20 25 16 26 17 27
REMARK H PARENT
REMARK Flexibility Score: inf
ROOT
ATOM      1  C   UNL     1       8.069   9.650 -15.887  1.00  0.00     0.138 A 
ATOM      2  C   UNL     1       8.336  10.404 -14.733  1.00  0.00     0.100 A 
ATOM      3  C   UNL     1       8.698  11.745 -14.859  1.00  0.00     0.197 A 
ATOM      4  O   UNL     1       8.927  12.414 -13.815  1.00  0.00    -0.289 OA
ATOM      5  C   UNL     1       8.800  12.323 -16.143  1.00  0.00     0.115 A 
ATOM      6  C   UNL     1       8.532  11.495 -17.256  1.00  0.00     0.188 A 
ATOM      7  O   UNL     1       8.184  10.223 -17.082  1.00  0.00    -0.452 OA
ATOM      8  C   UNL     1       8.623  12.002 -18.556  1.00  0.00     0.209 A 
ATOM      9  C   UNL     1       9.014  13.339 -18.766  1.00  0.00     0.211 A 
ATOM     10  C   UNL     1       9.221  14.188 -17.670  1.00  0.00     0.208 A 
ATOM     11  C   UNL     1       9.167  13.673 -16.355  1.00  0.00     0.179 A 
ENDROOT
BRANCH   1  12
ATOM     12  C   UNL     1       7.679   8.218 -15.817  1.00  0.00     0.018 A 
ATOM     13  C   UNL     1       7.002   5.478 -15.679  1.00  0.00     0.118 A 
ATOM     14  C   UNL     1       8.253   5.923 -15.238  1.00  0.00     0.047 A 
ATOM     15  C   UNL     1       6.088   6.411 -16.203  1.00  0.00     0.047 A 
ATOM     16  C   UNL     1       8.590   7.277 -15.307  1.00  0.00     0.016 A 
ATOM     17  C   UNL     1       6.425   7.766 -16.276  1.00  0.00     0.016 A 
BRANCH  13  18
ATOM     18  O   UNL     1       6.709   4.110 -15.583  1.00  0.00    -0.497 OA
ATOM     19  C   UNL     1       7.329   3.097 -16.368  1.00  0.00     0.278 C 
ENDBRANCH  13  18
ENDBRANCH   1  12
BRANCH   8  20
ATOM     20  O   UNL     1       8.288  11.167 -19.625  1.00  0.00    -0.490 OA
ATOM     21  C   UNL     1       6.956  11.086 -20.118  1.00  0.00     0.278 C 
ENDBRANCH   8  20
BRANCH  11  22
ATOM     22  O   UNL     1       9.516  14.481 -15.271  1.00  0.00    -0.492 OA
ATOM     23  C   UNL     1      10.878  14.780 -14.980  1.00  0.00     0.278 C 
ENDBRANCH  11  22
BRANCH   9  24
ATOM     24  O   UNL     1       9.192  13.867 -20.051  1.00  0.00    -0.490 OA
ATOM     25  C   UNL     1       8.124  14.390 -20.837  1.00  0.00     0.279 C 
ENDBRANCH   9  24
BRANCH  10  26
ATOM     26  O   UNL     1       9.502  15.536 -17.931  1.00  0.00    -0.490 OA
ATOM     27  C   UNL     1       8.510  16.560 -17.960  1.00  0.00     0.278 C 
ENDBRANCH  10  26
TORSDOF 6
ENDMDL
MODEL 6
REMARK VINA RESULT:    -5.487      2.515      8.344
REMARK INTER + INTRA:          -7.989
REMARK INTER:                  -7.510
REMARK INTRA:                  -0.479
REMARK UNBOUND:                -0.578
REMARK SMILES COc1ccc(-c2cc(=O)c3c(OC)c(OC)c(OC)c(OC)c3o2)cc1
REMARK SMILES IDX 7 1 8 2 9 3 10 4 11 5 24 6 25 7 21 8 18 9 15 10 12 11 6 12
REMARK SMILES IDX 3 13 4 14 27 15 5 16 26 17 2 18 1 19 22 20 23 21 13 22 14 23
REMARK SMILES IDX 19 24 20 25 16 26 17 27
REMARK H PARENT
REMARK Flexibility Score: inf
ROOT
ATOM      1  C   UNL     1       7.810  10.356 -15.572  1.00  0.00     0.138 A 
ATOM      2  C   UNL     1       8.791   9.898 -16.466  1.00  0.00     0.100 A 
ATOM      3  C   UNL     1       9.128  10.678 -17.572  1.00  0.00     0.197 A 
ATOM      4  O   UNL     1      10.016  10.259 -18.363  1.00  0.00    -0.289 OA
ATOM      5  C   UNL     1       8.475  11.911 -17.781  1.00  0.00     0.115 A 
ATOM      6  C   UNL     1       7.488  12.296 -16.846  1.00  0.00     0.188 A 
ATOM      7  O   UNL     1       7.208  11.518 -15.804  1.00  0.00    -0.452 OA
ATOM      8  C   UNL     1       6.797  13.502 -16.999  1.00  0.00     0.209 A 
ATOM      9  C   UNL     1       7.060  14.330 -18.109  1.00  0.00     0.211 A 
ATOM     10  C   UNL     1       8.080  13.991 -19.009  1.00  0.00     0.208 A 
ATOM     11  C   UNL     1       8.756  12.756 -18.880  1.00  0.00     0.179 A 
ENDROOT
BRANCH   1  12
ATOM     12  C   UNL     1       7.408   9.571 -14.376  1.00  0.00     0.018 A 
ATOM     13  C   UNL     1       6.623   8.026 -12.144  1.00  0.00     0.118 A 
ATOM     14  C   UNL     1       6.834   7.420 -13.387  1.00  0.00     0.047 A 
ATOM     15  C   UNL     1       6.796   9.418 -12.021  1.00  0.00     0.047 A 
ATOM     16  C   UNL     1       7.220   8.182 -14.492  1.00  0.00     0.016 A 
ATOM     17  C   UNL     1       7.180  10.182 -13.127  1.00  0.00     0.016 A 
BRANCH  13  18
ATOM     18  O   UNL     1       6.243   7.217 -11.063  1.00  0.00    -0.497 OA
ATOM     19  C   UNL     1       6.560   7.492  -9.702  1.00  0.00     0.278 C 
ENDBRANCH  13  18
ENDBRANCH   1  12
BRANCH   8  20
ATOM     20  O   UNL     1       5.875  13.874 -16.018  1.00  0.00    -0.490 OA
ATOM     21  C   UNL     1       6.185  14.861 -15.041  1.00  0.00     0.278 C 
ENDBRANCH   8  20
BRANCH  11  22
ATOM     22  O   UNL     1       9.668  12.352 -19.858  1.00  0.00    -0.492 OA
ATOM     23  C   UNL     1       9.237  11.992 -21.167  1.00  0.00     0.278 C 
ENDBRANCH  11  22
BRANCH   9  24
ATOM     24  O   UNL     1       6.339  15.508 -18.344  1.00  0.00    -0.490 OA
ATOM     25  C   UNL     1       6.762  16.787 -17.882  1.00  0.00     0.279 C 
ENDBRANCH   9  24
BRANCH  10  26
ATOM     26  O   UNL     1       8.376  14.900 -20.034  1.00  0.00    -0.490 OA
ATOM     27  C   UNL     1       9.523  15.746 -20.033  1.00  0.00     0.278 C 
ENDBRANCH  10  26
TORSDOF 6
ENDMDL
MODEL 7
REMARK VINA RESULT:    -5.470      1.603      1.853
REMARK INTER + INTRA:          -7.966
REMARK INTER:                  -7.681
REMARK INTRA:                  -0.286
REMARK UNBOUND:                -0.578
REMARK SMILES COc1ccc(-c2cc(=O)c3c(OC)c(OC)c(OC)c(OC)c3o2)cc1
REMARK SMILES IDX 7 1 8 2 9 3 10 4 11 5 24 6 25 7 21 8 18 9 15 10 12 11 6 12
REMARK SMILES IDX 3 13 4 14 27 15 5 16 26 17 2 18 1 19 22 20 23 21 13 22 14 23
REMARK SMILES IDX 19 24 20 25 16 26 17 27
REMARK H PARENT
REMARK Flexibility Score: inf
ROOT
ATOM      1  C   UNL     1       8.005  13.583 -18.376  1.00  0.00     0.138 A 
ATOM      2  C   UNL     1       7.287  14.154 -17.314  1.00  0.00     0.100 A 
ATOM      3  C   UNL     1       7.036  13.395 -16.171  1.00  0.00     0.197 A 
ATOM      4  O   UNL     1       6.396  13.922 -15.220  1.00  0.00    -0.289 OA
ATOM      5  C   UNL     1       7.499  12.065 -16.100  1.00  0.00     0.115 A 
ATOM      6  C   UNL     1       8.200  11.556 -17.216  1.00  0.00     0.188 A 
ATOM      7  O   UNL     1       8.420  12.322 -18.281  1.00  0.00    -0.452 OA
ATOM      8  C   UNL     1       8.679  10.242 -17.216  1.00  0.00     0.209 A 
ATOM      9  C   UNL     1       8.438   9.404 -16.109  1.00  0.00     0.211 A 
ATOM     10  C   UNL     1       7.799   9.915 -14.971  1.00  0.00     0.208 A 
ATOM     11  C   UNL     1       7.280  11.229 -14.979  1.00  0.00     0.179 A 
ENDROOT
BRANCH   1  12
ATOM     12  C   UNL     1       8.305  14.339 -19.619  1.00  0.00     0.018 A 
ATOM     13  C   UNL     1       8.900  15.720 -22.012  1.00  0.00     0.118 A 
ATOM     14  C   UNL     1       8.835  14.323 -21.997  1.00  0.00     0.047 A 
ATOM     15  C   UNL     1       8.675  16.430 -20.817  1.00  0.00     0.047 A 
ATOM     16  C   UNL     1       8.544  13.638 -20.815  1.00  0.00     0.016 A 
ATOM     17  C   UNL     1       8.386  15.746 -19.633  1.00  0.00     0.016 A 
BRANCH  13  18
ATOM     18  O   UNL     1       9.191  16.362 -23.225  1.00  0.00    -0.497 OA
ATOM     19  C   UNL     1      10.012  15.812 -24.249  1.00  0.00     0.278 C 
ENDBRANCH  13  18
ENDBRANCH   1  12
BRANCH   8  20
ATOM     20  O   UNL     1       9.422   9.800 -18.313  1.00  0.00    -0.490 OA
ATOM     21  C   UNL     1      10.824   9.572 -18.221  1.00  0.00     0.278 C 
ENDBRANCH   8  20
BRANCH  11  22
ATOM     22  O   UNL     1       6.517  11.688 -13.904  1.00  0.00    -0.492 OA
ATOM     23  C   UNL     1       7.114  11.980 -12.644  1.00  0.00     0.278 C 
ENDBRANCH  11  22
BRANCH   9  24
ATOM     24  O   UNL     1       8.831   8.059 -16.096  1.00  0.00    -0.490 OA
ATOM     25  C   UNL     1       9.941   7.577 -15.343  1.00  0.00     0.279 C 
ENDBRANCH   9  24
BRANCH  10  26
ATOM     26  O   UNL     1       7.679   9.073 -13.856  1.00  0.00    -0.490 OA
ATOM     27  C   UNL     1       6.544   8.246 -13.608  1.00  0.00     0.278 C 
ENDBRANCH  10  26
TORSDOF 6
ENDMDL
MODEL 8
REMARK VINA RESULT:    -5.462      2.278      4.535
REMARK INTER + INTRA:          -7.955
REMARK INTER:                  -7.542
REMARK INTRA:                  -0.413
REMARK UNBOUND:                -0.578
REMARK SMILES COc1ccc(-c2cc(=O)c3c(OC)c(OC)c(OC)c(OC)c3o2)cc1
REMARK SMILES IDX 7 1 8 2 9 3 10 4 11 5 24 6 25 7 21 8 18 9 15 10 12 11 6 12
REMARK SMILES IDX 3 13 4 14 27 15 5 16 26 17 2 18 1 19 22 20 23 21 13 22 14 23
REMARK SMILES IDX 19 24 20 25 16 26 17 27
REMARK H PARENT
REMARK Flexibility Score: inf
ROOT
ATOM      1  C   UNL     1       7.831  11.855 -17.797  1.00  0.00     0.138 A 
ATOM      2  C   UNL     1       7.139  11.121 -18.773  1.00  0.00     0.100 A 
ATOM      3  C   UNL     1       6.700   9.831 -18.478  1.00  0.00     0.197 A 
ATOM      4  O   UNL     1       6.073   9.185 -19.361  1.00  0.00    -0.289 OA
ATOM      5  C   UNL     1       6.965   9.277 -17.208  1.00  0.00     0.115 A 
ATOM      6  C   UNL     1       7.681  10.071 -16.284  1.00  0.00     0.188 A 
ATOM      7  O   UNL     1       8.072  11.300 -16.612  1.00  0.00    -0.452 OA
ATOM      8  C   UNL     1       7.985   9.580 -15.010  1.00  0.00     0.209 A 
ATOM      9  C   UNL     1       7.603   8.273 -14.649  1.00  0.00     0.211 A 
ATOM     10  C   UNL     1       6.837   7.498 -15.532  1.00  0.00     0.208 A 
ATOM     11  C   UNL     1       6.560   7.974 -16.833  1.00  0.00     0.179 A 
ENDROOT
BRANCH   1  12
ATOM     12  C   UNL     1       8.322  13.234 -18.050  1.00  0.00     0.018 A 
ATOM     13  C   UNL     1       9.204  15.882 -18.495  1.00  0.00     0.118 A 
ATOM     14  C   UNL     1       8.324  15.594 -17.447  1.00  0.00     0.047 A 
ATOM     15  C   UNL     1       9.637  14.837 -19.333  1.00  0.00     0.047 A 
ATOM     16  C   UNL     1       7.885  14.286 -17.226  1.00  0.00     0.016 A 
ATOM     17  C   UNL     1       9.196  13.528 -19.115  1.00  0.00     0.016 A 
BRANCH  13  18
ATOM     18  O   UNL     1       9.621  17.209 -18.672  1.00  0.00    -0.497 OA
ATOM     19  C   UNL     1       8.745  18.332 -18.686  1.00  0.00     0.278 C 
ENDBRANCH  13  18
ENDBRANCH   1  12
BRANCH   8  20
ATOM     20  O   UNL     1       8.638  10.421 -14.107  1.00  0.00    -0.490 OA
ATOM     21  C   UNL     1       7.916  11.264 -13.217  1.00  0.00     0.278 C 
ENDBRANCH   8  20
BRANCH  11  22
ATOM     22  O   UNL     1       5.925   7.146 -17.762  1.00  0.00    -0.492 OA
ATOM     23  C   UNL     1       6.653   6.171 -18.502  1.00  0.00     0.278 C 
ENDBRANCH  11  22
BRANCH   9  24
ATOM     24  O   UNL     1       7.952   7.712 -13.413  1.00  0.00    -0.490 OA
ATOM     25  C   UNL     1       7.153   7.847 -12.241  1.00  0.00     0.279 C 
ENDBRANCH   9  24
BRANCH  10  26
ATOM     26  O   UNL     1       6.391   6.247 -15.084  1.00  0.00    -0.490 OA
ATOM     27  C   UNL     1       7.127   5.038 -15.253  1.00  0.00     0.278 C 
ENDBRANCH  10  26
TORSDOF 6
ENDMDL
