MODEL 1
REMARK VINA RESULT:    -3.854      0.000      0.000
REMARK INTER + INTRA:          -6.030
REMARK INTER:                  -5.657
REMARK INTRA:                  -0.373
REMARK UNBOUND:                -0.373
REMARK SMILES O=C([O-])CCCCCCCC(=O)[O-]
REMARK SMILES IDX 7 1 6 2 5 3 4 4 2 5 1 6 3 7 8 8 9 9 10 10 11 11 12 12 13 13
REMARK H PARENT
REMARK Flexibility Score: inf
ROOT
ATOM      1  C   UNL     1    -101.422  31.523 -36.402  1.00  0.00     0.000 C 
ENDROOT
BRANCH   1   2
ATOM      2  C   UNL     1    -101.742  30.729 -37.680  1.00  0.00     0.000 C 
BRANCH   2   3
ATOM      3  C   UNL     1    -103.049  31.187 -38.348  1.00  0.00     0.006 C 
BRANCH   3   4
ATOM      4  C   UNL     1    -103.996  31.896 -37.371  1.00  0.00     0.053 C 
BRANCH   4   5
ATOM      5  C   UNL     1    -105.122  32.544 -38.114  1.00  0.00     0.041 C 
ATOM      6  O   UNL     1    -105.363  33.769 -37.955  1.00  0.00    -0.550 OA
ATOM      7  O   UNL     1    -105.873  31.807 -39.021  1.00  0.00    -0.550 OA
ENDBRANCH   4   5
ENDBRANCH   3   4
ENDBRANCH   2   3
ENDBRANCH   1   2
BRANCH   1   8
ATOM      8  C   UNL     1     -99.940  31.924 -36.312  1.00  0.00     0.000 C 
BRANCH   8   9
ATOM      9  C   UNL     1     -99.234  31.898 -37.678  1.00  0.00     0.006 C 
BRANCH   9  10
ATOM     10  C   UNL     1     -98.584  33.246 -38.018  1.00  0.00     0.053 C 
BRANCH  10  11
ATOM     11  C   UNL     1     -97.805  33.179 -39.296  1.00  0.00     0.041 C 
ATOM     12  O   UNL     1     -96.649  32.679 -39.309  1.00  0.00    -0.550 OA
ATOM     13  O   UNL     1     -98.370  33.639 -40.479  1.00  0.00    -0.550 OA
ENDBRANCH  10  11
ENDBRANCH   9  10
ENDBRANCH   8   9
ENDBRANCH   1   8
TORSDOF 8
ENDMDL
MODEL 2
REMARK VINA RESULT:    -3.733      2.749      5.946
REMARK INTER + INTRA:          -5.852
REMARK INTER:                  -5.301
REMARK INTRA:                  -0.551
REMARK UNBOUND:                -0.373
REMARK SMILES O=C([O-])CCCCCCCC(=O)[O-]
REMARK SMILES IDX 7 1 6 2 5 3 4 4 2 5 1 6 3 7 8 8 9 9 10 10 11 11 12 12 13 13
REMARK H PARENT
REMARK Flexibility Score: inf
ROOT
ATOM      1  C   UNL     1     -99.139  31.118 -35.208  1.00  0.00     0.000 C 
ENDROOT
BRANCH   1   2
ATOM      2  C   UNL     1     -99.971  30.586 -36.387  1.00  0.00     0.000 C 
BRANCH   2   3
ATOM      3  C   UNL     1    -100.193  31.646 -37.479  1.00  0.00     0.006 C 
BRANCH   3   4
ATOM      4  C   UNL     1     -99.153  31.563 -38.604  1.00  0.00     0.053 C 
BRANCH   4   5
ATOM      5  C   UNL     1     -98.265  32.767 -38.583  1.00  0.00     0.041 C 
ATOM      6  O   UNL     1     -98.608  33.796 -37.943  1.00  0.00    -0.550 OA
ATOM      7  O   UNL     1     -97.035  32.736 -39.227  1.00  0.00    -0.550 OA
ENDBRANCH   4   5
ENDBRANCH   3   4
ENDBRANCH   2   3
ENDBRANCH   1   2
BRANCH   1   8
ATOM      8  C   UNL     1     -99.508  30.448 -33.875  1.00  0.00     0.000 C 
BRANCH   8   9
ATOM      9  C   UNL     1    -101.025  30.258 -33.706  1.00  0.00     0.006 C 
BRANCH   9  10
ATOM     10  C   UNL     1    -101.728  31.555 -33.285  1.00  0.00     0.053 C 
BRANCH  10  11
ATOM     11  C   UNL     1    -102.775  31.965 -34.276  1.00  0.00     0.041 C 
ATOM     12  O   UNL     1    -103.944  31.504 -34.191  1.00  0.00    -0.550 OA
ATOM     13  O   UNL     1    -102.468  32.883 -35.272  1.00  0.00    -0.550 OA
ENDBRANCH  10  11
ENDBRANCH   9  10
ENDBRANCH   8   9
ENDBRANCH   1   8
TORSDOF 8
ENDMDL
MODEL 3
REMARK VINA RESULT:    -3.695      2.266      3.081
REMARK INTER + INTRA:          -5.796
REMARK INTER:                  -5.289
REMARK INTRA:                  -0.507
REMARK UNBOUND:                -0.373
REMARK SMILES O=C([O-])CCCCCCCC(=O)[O-]
REMARK SMILES IDX 7 1 6 2 5 3 4 4 2 5 1 6 3 7 8 8 9 9 10 10 11 11 12 12 13 13
REMARK H PARENT
REMARK Flexibility Score: inf
ROOT
ATOM      1  C   UNL     1     -99.622  31.111 -34.642  1.00  0.00     0.000 C 
ENDROOT
BRANCH   1   2
ATOM      2  C   UNL     1    -100.781  30.555 -33.795  1.00  0.00     0.000 C 
BRANCH   2   3
ATOM      3  C   UNL     1    -101.774  31.646 -33.365  1.00  0.00     0.006 C 
BRANCH   3   4
ATOM      4  C   UNL     1    -103.199  31.382 -33.869  1.00  0.00     0.053 C 
BRANCH   4   5
ATOM      5  C   UNL     1    -103.360  31.890 -35.268  1.00  0.00     0.041 C 
ATOM      6  O   UNL     1    -103.370  31.085 -36.236  1.00  0.00    -0.550 OA
ATOM      7  O   UNL     1    -103.549  33.246 -35.498  1.00  0.00    -0.550 OA
ENDBRANCH   4   5
ENDBRANCH   3   4
ENDBRANCH   2   3
ENDBRANCH   1   2
BRANCH   1   8
ATOM      8  C   UNL     1     -99.753  30.749 -36.130  1.00  0.00     0.000 C 
BRANCH   8   9
ATOM      9  C   UNL     1     -99.776  31.987 -37.043  1.00  0.00     0.006 C 
BRANCH   9  10
ATOM     10  C   UNL     1     -99.107  31.720 -38.398  1.00  0.00     0.053 C 
BRANCH  10  11
ATOM     11  C   UNL     1     -98.168  32.822 -38.780  1.00  0.00     0.041 C 
ATOM     12  O   UNL     1     -98.435  34.016 -38.480  1.00  0.00    -0.550 OA
ATOM     13  O   UNL     1     -96.980  32.527 -39.438  1.00  0.00    -0.550 OA
ENDBRANCH  10  11
ENDBRANCH   9  10
ENDBRANCH   8   9
ENDBRANCH   1   8
TORSDOF 8
ENDMDL
MODEL 4
REMARK VINA RESULT:    -3.466      1.461      6.495
REMARK INTER + INTRA:          -5.460
REMARK INTER:                  -5.124
REMARK INTRA:                  -0.336
REMARK UNBOUND:                -0.373
REMARK SMILES O=C([O-])CCCCCCCC(=O)[O-]
REMARK SMILES IDX 7 1 6 2 5 3 4 4 2 5 1 6 3 7 8 8 9 9 10 10 11 11 12 12 13 13
REMARK H PARENT
REMARK Flexibility Score: inf
ROOT
ATOM      1  C   UNL     1    -102.832  31.408 -37.338  1.00  0.00     0.000 C 
ENDROOT
BRANCH   1   2
ATOM      2  C   UNL     1    -101.469  30.774 -37.666  1.00  0.00     0.000 C 
BRANCH   2   3
ATOM      3  C   UNL     1    -100.298  31.745 -37.447  1.00  0.00     0.006 C 
BRANCH   3   4
ATOM      4  C   UNL     1     -99.121  31.477 -38.394  1.00  0.00     0.053 C 
BRANCH   4   5
ATOM      5  C   UNL     1     -98.295  32.713 -38.561  1.00  0.00     0.041 C 
ATOM      6  O   UNL     1     -98.600  33.767 -37.944  1.00  0.00    -0.550 OA
ATOM      7  O   UNL     1     -97.158  32.687 -39.359  1.00  0.00    -0.550 OA
ENDBRANCH   4   5
ENDBRANCH   3   4
ENDBRANCH   2   3
ENDBRANCH   1   2
BRANCH   1   8
ATOM      8  C   UNL     1    -102.870  32.032 -35.934  1.00  0.00     0.000 C 
BRANCH   8   9
ATOM      9  C   UNL     1    -104.214  32.712 -35.622  1.00  0.00     0.006 C 
BRANCH   9  10
ATOM     10  C   UNL     1    -105.388  32.031 -36.339  1.00  0.00     0.053 C 
BRANCH  10  11
ATOM     11  C   UNL     1    -106.176  33.005 -37.161  1.00  0.00     0.041 C 
ATOM     12  O   UNL     1    -107.423  33.100 -37.008  1.00  0.00    -0.550 OA
ATOM     13  O   UNL     1    -105.528  33.831 -38.070  1.00  0.00    -0.550 OA
ENDBRANCH  10  11
ENDBRANCH   9  10
ENDBRANCH   8   9
ENDBRANCH   1   8
TORSDOF 8
ENDMDL
MODEL 5
REMARK VINA RESULT:    -3.436      2.918      6.354
REMARK INTER + INTRA:          -5.417
REMARK INTER:                  -4.998
REMARK INTRA:                  -0.419
REMARK UNBOUND:                -0.373
REMARK SMILES O=C([O-])CCCCCCCC(=O)[O-]
REMARK SMILES IDX 7 1 6 2 5 3 4 4 2 5 1 6 3 7 8 8 9 9 10 10 11 11 12 12 13 13
REMARK H PARENT
REMARK Flexibility Score: inf
ROOT
ATOM      1  C   UNL     1    -101.892  31.337 -37.557  1.00  0.00     0.000 C 
ENDROOT
BRANCH   1   2
ATOM      2  C   UNL     1    -100.783  30.992 -36.548  1.00  0.00     0.000 C 
BRANCH   2   3
ATOM      3  C   UNL     1     -99.471  31.741 -36.834  1.00  0.00     0.006 C 
BRANCH   3   4
ATOM      4  C   UNL     1     -99.033  31.630 -38.300  1.00  0.00     0.053 C 
BRANCH   4   5
ATOM      5  C   UNL     1     -98.209  32.816 -38.689  1.00  0.00     0.041 C 
ATOM      6  O   UNL     1     -98.497  33.960 -38.248  1.00  0.00    -0.550 OA
ATOM      7  O   UNL     1     -97.091  32.652 -39.498  1.00  0.00    -0.550 OA
ENDBRANCH   4   5
ENDBRANCH   3   4
ENDBRANCH   2   3
ENDBRANCH   1   2
BRANCH   1   8
ATOM      8  C   UNL     1    -103.294  31.303 -36.927  1.00  0.00     0.000 C 
BRANCH   8   9
ATOM      9  C   UNL     1    -103.426  32.246 -35.720  1.00  0.00     0.006 C 
BRANCH   9  10
ATOM     10  C   UNL     1    -103.813  31.495 -34.438  1.00  0.00     0.053 C 
BRANCH  10  11
ATOM     11  C   UNL     1    -103.030  31.979 -33.255  1.00  0.00     0.041 C 
ATOM     12  O   UNL     1    -103.627  32.414 -32.235  1.00  0.00    -0.550 OA
ATOM     13  O   UNL     1    -101.643  31.915 -33.267  1.00  0.00    -0.550 OA
ENDBRANCH  10  11
ENDBRANCH   9  10
ENDBRANCH   8   9
ENDBRANCH   1   8
TORSDOF 8
ENDMDL
MODEL 6
REMARK VINA RESULT:    -3.434      2.537      3.183
REMARK INTER + INTRA:          -5.414
REMARK INTER:                  -4.561
REMARK INTRA:                  -0.853
REMARK UNBOUND:                -0.373
REMARK SMILES O=C([O-])CCCCCCCC(=O)[O-]
REMARK SMILES IDX 7 1 6 2 5 3 4 4 2 5 1 6 3 7 8 8 9 9 10 10 11 11 12 12 13 13
REMARK H PARENT
REMARK Flexibility Score: inf
ROOT
ATOM      1  C   UNL     1    -100.941  30.460 -33.562  1.00  0.00     0.000 C 
ENDROOT
BRANCH   1   2
ATOM      2  C   UNL     1    -101.691  31.796 -33.414  1.00  0.00     0.000 C 
BRANCH   2   3
ATOM      3  C   UNL     1    -103.079  31.770 -34.072  1.00  0.00     0.006 C 
BRANCH   3   4
ATOM      4  C   UNL     1    -103.100  32.467 -35.439  1.00  0.00     0.053 C 
BRANCH   4   5
ATOM      5  C   UNL     1    -103.260  31.462 -36.535  1.00  0.00     0.041 C 
ATOM      6  O   UNL     1    -103.195  30.230 -36.279  1.00  0.00    -0.550 OA
ATOM      7  O   UNL     1    -103.531  31.882 -37.831  1.00  0.00    -0.550 OA
ENDBRANCH   4   5
ENDBRANCH   3   4
ENDBRANCH   2   3
ENDBRANCH   1   2
BRANCH   1   8
ATOM      8  C   UNL     1     -99.574  30.623 -34.244  1.00  0.00     0.000 C 
BRANCH   8   9
ATOM      9  C   UNL     1     -99.656  30.502 -35.775  1.00  0.00     0.006 C 
BRANCH   9  10
ATOM     10  C   UNL     1     -99.534  31.865 -36.471  1.00  0.00     0.053 C 
BRANCH  10  11
ATOM     11  C   UNL     1     -99.463  31.722 -37.961  1.00  0.00     0.041 C 
ATOM     12  O   UNL     1    -100.334  31.052 -38.576  1.00  0.00    -0.550 OA
ATOM     13  O   UNL     1     -98.454  32.359 -38.672  1.00  0.00    -0.550 OA
ENDBRANCH  10  11
ENDBRANCH   9  10
ENDBRANCH   8   9
ENDBRANCH   1   8
TORSDOF 8
ENDMDL
MODEL 7
REMARK VINA RESULT:    -3.431      3.264      6.930
REMARK INTER + INTRA:          -5.409
REMARK INTER:                  -5.092
REMARK INTRA:                  -0.317
REMARK UNBOUND:                -0.373
REMARK SMILES O=C([O-])CCCCCCCC(=O)[O-]
REMARK SMILES IDX 7 1 6 2 5 3 4 4 2 5 1 6 3 7 8 8 9 9 10 10 11 11 12 12 13 13
REMARK H PARENT
REMARK Flexibility Score: inf
ROOT
ATOM      1  C   UNL     1    -101.992  31.665 -35.747  1.00  0.00     0.000 C 
ENDROOT
BRANCH   1   2
ATOM      2  C   UNL     1    -101.267  31.371 -37.072  1.00  0.00     0.000 C 
BRANCH   2   3
ATOM      3  C   UNL     1     -99.802  31.837 -37.059  1.00  0.00     0.006 C 
BRANCH   3   4
ATOM      4  C   UNL     1     -99.097  31.613 -38.403  1.00  0.00     0.053 C 
BRANCH   4   5
ATOM      5  C   UNL     1     -98.180  32.755 -38.708  1.00  0.00     0.041 C 
ATOM      6  O   UNL     1     -97.173  32.580 -39.444  1.00  0.00    -0.550 OA
ATOM      7  O   UNL     1     -98.463  34.025 -38.222  1.00  0.00    -0.550 OA
ENDBRANCH   4   5
ENDBRANCH   3   4
ENDBRANCH   2   3
ENDBRANCH   1   2
BRANCH   1   8
ATOM      8  C   UNL     1    -101.088  31.457 -34.522  1.00  0.00     0.000 C 
BRANCH   8   9
ATOM      9  C   UNL     1    -101.768  31.868 -33.205  1.00  0.00     0.006 C 
BRANCH   9  10
ATOM     10  C   UNL     1    -102.890  30.900 -32.807  1.00  0.00     0.053 C 
BRANCH  10  11
ATOM     11  C   UNL     1    -104.133  31.631 -32.396  1.00  0.00     0.041 C 
ATOM     12  O   UNL     1    -104.370  32.782 -32.848  1.00  0.00    -0.550 OA
ATOM     13  O   UNL     1    -105.044  31.025 -31.541  1.00  0.00    -0.550 OA
ENDBRANCH  10  11
ENDBRANCH   9  10
ENDBRANCH   8   9
ENDBRANCH   1   8
TORSDOF 8
ENDMDL
MODEL 8
REMARK VINA RESULT:    -3.335     14.996     16.446
REMARK INTER + INTRA:          -5.268
REMARK INTER:                  -4.688
REMARK INTRA:                  -0.580
REMARK UNBOUND:                -0.373
REMARK SMILES O=C([O-])CCCCCCCC(=O)[O-]
REMARK SMILES IDX 7 1 6 2 5 3 4 4 2 5 1 6 3 7 8 8 9 9 10 10 11 11 12 12 13 13
REMARK H PARENT
REMARK Flexibility Score: inf
ROOT
ATOM      1  C   UNL     1     -96.153  46.089 -39.628  1.00  0.00     0.000 C 
ENDROOT
BRANCH   1   2
ATOM      2  C   UNL     1     -96.201  45.640 -38.157  1.00  0.00     0.000 C 
BRANCH   2   3
ATOM      3  C   UNL     1     -95.492  46.626 -37.215  1.00  0.00     0.006 C 
BRANCH   3   4
ATOM      4  C   UNL     1     -96.383  47.078 -36.052  1.00  0.00     0.053 C 
BRANCH   4   5
ATOM      5  C   UNL     1     -97.609  47.764 -36.569  1.00  0.00     0.041 C 
ATOM      6  O   UNL     1     -98.751  47.314 -36.290  1.00  0.00    -0.550 OA
ATOM      7  O   UNL     1     -97.492  48.928 -37.318  1.00  0.00    -0.550 OA
ENDBRANCH   4   5
ENDBRANCH   3   4
ENDBRANCH   2   3
ENDBRANCH   1   2
BRANCH   1   8
ATOM      8  C   UNL     1     -95.436  47.437 -39.810  1.00  0.00     0.000 C 
BRANCH   8   9
ATOM      9  C   UNL     1     -96.097  48.322 -40.881  1.00  0.00     0.006 C 
BRANCH   9  10
ATOM     10  C   UNL     1     -96.859  47.495 -41.925  1.00  0.00     0.053 C 
BRANCH  10  11
ATOM     11  C   UNL     1     -97.654  48.366 -42.850  1.00  0.00     0.041 C 
ATOM     12  O   UNL     1     -97.072  49.050 -43.733  1.00  0.00    -0.550 OA
ATOM     13  O   UNL     1     -99.039  48.395 -42.758  1.00  0.00    -0.550 OA
ENDBRANCH  10  11
ENDBRANCH   9  10
ENDBRANCH   8   9
ENDBRANCH   1   8
TORSDOF 8
ENDMDL
MODEL 9
REMARK VINA RESULT:    -3.323     14.969     16.550
REMARK INTER + INTRA:          -5.251
REMARK INTER:                  -4.887
REMARK INTRA:                  -0.364
REMARK UNBOUND:                -0.373
REMARK SMILES O=C([O-])CCCCCCCC(=O)[O-]
REMARK SMILES IDX 7 1 6 2 5 3 4 4 2 5 1 6 3 7 8 8 9 9 10 10 11 11 12 12 13 13
REMARK H PARENT
REMARK Flexibility Score: inf
ROOT
ATOM      1  C   UNL     1     -96.136  46.359 -39.910  1.00  0.00     0.000 C 
ENDROOT
BRANCH   1   2
ATOM      2  C   UNL     1     -95.501  47.752 -40.065  1.00  0.00     0.000 C 
BRANCH   2   3
ATOM      3  C   UNL     1     -95.732  48.354 -41.461  1.00  0.00     0.006 C 
BRANCH   3   4
ATOM      4  C   UNL     1     -96.926  47.723 -42.188  1.00  0.00     0.053 C 
BRANCH   4   5
ATOM      5  C   UNL     1     -97.963  48.760 -42.485  1.00  0.00     0.041 C 
ATOM      6  O   UNL     1     -98.262  49.623 -41.618  1.00  0.00    -0.550 OA
ATOM      7  O   UNL     1     -98.563  48.806 -43.737  1.00  0.00    -0.550 OA
ENDBRANCH   4   5
ENDBRANCH   3   4
ENDBRANCH   2   3
ENDBRANCH   1   2
BRANCH   1   8
ATOM      8  C   UNL     1     -95.779  45.694 -38.572  1.00  0.00     0.000 C 
BRANCH   8   9
ATOM      9  C   UNL     1     -96.918  45.782 -37.542  1.00  0.00     0.006 C 
BRANCH   9  10
ATOM     10  C   UNL     1     -96.586  46.742 -36.392  1.00  0.00     0.053 C 
BRANCH  10  11
ATOM     11  C   UNL     1     -97.824  47.255 -35.722  1.00  0.00     0.041 C 
ATOM     12  O   UNL     1     -98.853  47.509 -36.402  1.00  0.00    -0.550 OA
ATOM     13  O   UNL     1     -97.851  47.420 -34.343  1.00  0.00    -0.550 OA
ENDBRANCH  10  11
ENDBRANCH   9  10
ENDBRANCH   8   9
ENDBRANCH   1   8
TORSDOF 8
ENDMDL
