MODEL 1
REMARK VINA RESULT:    -5.789      0.000      0.000
REMARK INTER + INTRA:          -8.645
REMARK INTER:                  -7.820
REMARK INTRA:                  -0.824
REMARK UNBOUND:                -0.824
REMARK SMILES CC(=O)CCC=C(C)CCC=C(C)C
REMARK SMILES IDX 7 1 6 2 8 3 9 4 10 5 11 6 13 7 12 8 14 9 5 10 4 11 2 12 3 13
REMARK SMILES IDX 1 14
REMARK H PARENT
REMARK Flexibility Score: inf
ROOT
ATOM      1  C   UNL     1      -8.137  32.282  21.417  1.00  0.00    -0.077 C 
ATOM      2  C   UNL     1      -8.220  33.110  22.484  1.00  0.00    -0.028 C 
ATOM      3  C   UNL     1      -7.575  32.741  20.092  1.00  0.00     0.039 C 
ENDROOT
BRANCH   1   4
ATOM      4  C   UNL     1      -8.602  30.849  21.565  1.00  0.00     0.034 C 
BRANCH   4   5
ATOM      5  C   UNL     1      -7.532  29.997  22.259  1.00  0.00     0.032 C 
BRANCH   5   6
ATOM      6  C   UNL     1      -8.152  29.035  23.243  1.00  0.00    -0.028 C 
ATOM      7  C   UNL     1      -7.606  30.519  25.175  1.00  0.00     0.039 C 
ATOM      8  C   UNL     1      -8.190  29.263  24.572  1.00  0.00    -0.080 C 
ATOM      9  C   UNL     1      -8.834  28.235  25.467  1.00  0.00     0.039 C 
ENDBRANCH   5   6
ENDBRANCH   4   5
ENDBRANCH   1   4
BRANCH   2  10
ATOM     10  C   UNL     1      -7.838  34.569  22.461  1.00  0.00     0.035 C 
BRANCH  10  11
ATOM     11  C   UNL     1      -7.055  34.943  23.724  1.00  0.00     0.079 C 
BRANCH  11  12
ATOM     12  C   UNL     1      -7.994  35.259  24.858  1.00  0.00     0.130 C 
ATOM     13  O   UNL     1      -8.890  36.073  24.687  1.00  0.00    -0.300 OA
ATOM     14  C   UNL     1      -7.862  34.587  26.193  1.00  0.00     0.087 C 
ENDBRANCH  11  12
ENDBRANCH  10  11
ENDBRANCH   2  10
TORSDOF 6
ENDMDL
MODEL 2
REMARK VINA RESULT:    -5.747      1.837      4.570
REMARK INTER + INTRA:          -8.587
REMARK INTER:                  -7.895
REMARK INTRA:                  -0.692
REMARK UNBOUND:                -0.824
REMARK SMILES CC(=O)CCC=C(C)CCC=C(C)C
REMARK SMILES IDX 7 1 6 2 8 3 9 4 10 5 11 6 13 7 12 8 14 9 5 10 4 11 2 12 3 13
REMARK SMILES IDX 1 14
REMARK H PARENT
REMARK Flexibility Score: inf
ROOT
ATOM      1  C   UNL     1      -8.529  32.428  21.380  1.00  0.00    -0.077 C 
ATOM      2  C   UNL     1      -7.761  31.337  21.603  1.00  0.00    -0.028 C 
ATOM      3  C   UNL     1     -10.032  32.391  21.533  1.00  0.00     0.039 C 
ENDROOT
BRANCH   1   4
ATOM      4  C   UNL     1      -7.860  33.727  20.987  1.00  0.00     0.034 C 
BRANCH   4   5
ATOM      5  C   UNL     1      -7.838  34.708  22.165  1.00  0.00     0.032 C 
BRANCH   5   6
ATOM      6  C   UNL     1      -7.611  33.987  23.473  1.00  0.00    -0.028 C 
ATOM      7  C   UNL     1      -8.721  35.808  24.771  1.00  0.00     0.039 C 
ATOM      8  C   UNL     1      -8.009  34.480  24.664  1.00  0.00    -0.080 C 
ATOM      9  C   UNL     1      -7.732  33.679  25.910  1.00  0.00     0.039 C 
ENDBRANCH   5   6
ENDBRANCH   4   5
ENDBRANCH   1   4
BRANCH   2  10
ATOM     10  C   UNL     1      -8.301  29.972  21.952  1.00  0.00     0.035 C 
BRANCH  10  11
ATOM     11  C   UNL     1      -7.545  29.381  23.147  1.00  0.00     0.079 C 
BRANCH  11  12
ATOM     12  C   UNL     1      -8.065  29.950  24.440  1.00  0.00     0.130 C 
ATOM     13  O   UNL     1      -9.209  30.379  24.491  1.00  0.00    -0.300 OA
ATOM     14  C   UNL     1      -7.214  29.993  25.675  1.00  0.00     0.087 C 
ENDBRANCH  11  12
ENDBRANCH  10  11
ENDBRANCH   2  10
TORSDOF 6
ENDMDL
MODEL 3
REMARK VINA RESULT:    -5.733      1.152      3.906
REMARK INTER + INTRA:          -8.569
REMARK INTER:                  -7.730
REMARK INTRA:                  -0.839
REMARK UNBOUND:                -0.824
REMARK SMILES CC(=O)CCC=C(C)CCC=C(C)C
REMARK SMILES IDX 7 1 6 2 8 3 9 4 10 5 11 6 13 7 12 8 14 9 5 10 4 11 2 12 3 13
REMARK SMILES IDX 1 14
REMARK H PARENT
REMARK Flexibility Score: inf
ROOT
ATOM      1  C   UNL     1      -7.577  30.698  24.871  1.00  0.00    -0.077 C 
ATOM      2  C   UNL     1      -8.187  31.900  24.760  1.00  0.00    -0.028 C 
ATOM      3  C   UNL     1      -7.258  30.087  26.215  1.00  0.00     0.039 C 
ENDROOT
BRANCH   1   4
ATOM      4  C   UNL     1      -7.225  29.936  23.612  1.00  0.00     0.034 C 
BRANCH   4   5
ATOM      5  C   UNL     1      -8.199  30.277  22.478  1.00  0.00     0.032 C 
BRANCH   5   6
ATOM      6  C   UNL     1      -7.560  31.193  21.462  1.00  0.00    -0.028 C 
ATOM      7  C   UNL     1      -9.619  32.596  21.300  1.00  0.00     0.039 C 
ATOM      8  C   UNL     1      -8.199  32.251  20.920  1.00  0.00    -0.080 C 
ATOM      9  C   UNL     1      -7.467  33.102  19.914  1.00  0.00     0.039 C 
ENDBRANCH   5   6
ENDBRANCH   4   5
ENDBRANCH   1   4
BRANCH   2  10
ATOM     10  C   UNL     1      -8.549  32.784  25.929  1.00  0.00     0.035 C 
BRANCH  10  11
ATOM     11  C   UNL     1      -7.659  34.030  25.960  1.00  0.00     0.079 C 
BRANCH  11  12
ATOM     12  C   UNL     1      -7.962  34.930  24.791  1.00  0.00     0.130 C 
ATOM     13  O   UNL     1      -8.894  35.717  24.864  1.00  0.00    -0.300 OA
ATOM     14  C   UNL     1      -7.136  34.890  23.539  1.00  0.00     0.087 C 
ENDBRANCH  11  12
ENDBRANCH  10  11
ENDBRANCH   2  10
TORSDOF 6
ENDMDL
MODEL 4
REMARK VINA RESULT:    -5.699      1.679      3.715
REMARK INTER + INTRA:          -8.523
REMARK INTER:                  -7.348
REMARK INTRA:                  -1.175
REMARK UNBOUND:                -0.824
REMARK SMILES CC(=O)CCC=C(C)CCC=C(C)C
REMARK SMILES IDX 7 1 6 2 8 3 9 4 10 5 11 6 13 7 12 8 14 9 5 10 4 11 2 12 3 13
REMARK SMILES IDX 1 14
REMARK H PARENT
REMARK Flexibility Score: inf
ROOT
ATOM      1  C   UNL     1      -8.839  31.959  24.992  1.00  0.00    -0.077 C 
ATOM      2  C   UNL     1      -9.860  31.848  24.111  1.00  0.00    -0.028 C 
ATOM      3  C   UNL     1      -7.889  33.133  24.968  1.00  0.00     0.039 C 
ENDROOT
BRANCH   1   4
ATOM      4  C   UNL     1      -8.659  30.885  26.044  1.00  0.00     0.034 C 
BRANCH   4   5
ATOM      5  C   UNL     1      -7.670  29.815  25.567  1.00  0.00     0.032 C 
BRANCH   5   6
ATOM      6  C   UNL     1      -8.310  28.886  24.563  1.00  0.00    -0.028 C 
ATOM      7  C   UNL     1      -6.854  29.732  22.719  1.00  0.00     0.039 C 
ATOM      8  C   UNL     1      -7.945  28.841  23.265  1.00  0.00    -0.080 C 
ATOM      9  C   UNL     1      -8.650  27.875  22.347  1.00  0.00     0.039 C 
ENDBRANCH   5   6
ENDBRANCH   4   5
ENDBRANCH   1   4
BRANCH   2  10
ATOM     10  C   UNL     1     -10.124  32.819  22.986  1.00  0.00     0.035 C 
BRANCH  10  11
ATOM     11  C   UNL     1      -9.534  32.297  21.673  1.00  0.00     0.079 C 
BRANCH  11  12
ATOM     12  C   UNL     1      -8.418  33.189  21.199  1.00  0.00     0.130 C 
ATOM     13  O   UNL     1      -8.233  34.265  21.750  1.00  0.00    -0.300 OA
ATOM     14  C   UNL     1      -7.517  32.783  20.070  1.00  0.00     0.087 C 
ENDBRANCH  11  12
ENDBRANCH  10  11
ENDBRANCH   2  10
TORSDOF 6
ENDMDL
MODEL 5
REMARK VINA RESULT:    -5.583      1.963      4.227
REMARK INTER + INTRA:          -8.366
REMARK INTER:                  -7.139
REMARK INTRA:                  -1.227
REMARK UNBOUND:                -0.824
REMARK SMILES CC(=O)CCC=C(C)CCC=C(C)C
REMARK SMILES IDX 7 1 6 2 8 3 9 4 10 5 11 6 13 7 12 8 14 9 5 10 4 11 2 12 3 13
REMARK SMILES IDX 1 14
REMARK H PARENT
REMARK Flexibility Score: inf
ROOT
ATOM      1  C   UNL     1      -7.839  34.857  24.838  1.00  0.00    -0.077 C 
ATOM      2  C   UNL     1      -7.271  34.310  23.739  1.00  0.00    -0.028 C 
ATOM      3  C   UNL     1      -8.848  35.977  24.741  1.00  0.00     0.039 C 
ENDROOT
BRANCH   1   4
ATOM      4  C   UNL     1      -7.467  34.315  26.201  1.00  0.00     0.034 C 
BRANCH   4   5
ATOM      5  C   UNL     1      -8.413  33.181  26.614  1.00  0.00     0.032 C 
BRANCH   5   6
ATOM      6  C   UNL     1      -7.896  31.840  26.151  1.00  0.00    -0.028 C 
ATOM      7  C   UNL     1      -9.752  31.596  24.498  1.00  0.00     0.039 C 
ATOM      8  C   UNL     1      -8.499  31.112  25.188  1.00  0.00    -0.080 C 
ATOM      9  C   UNL     1      -7.898  29.784  24.800  1.00  0.00     0.039 C 
ENDBRANCH   5   6
ENDBRANCH   4   5
ENDBRANCH   1   4
BRANCH   2  10
ATOM     10  C   UNL     1      -7.515  34.785  22.327  1.00  0.00     0.035 C 
BRANCH  10  11
ATOM     11  C   UNL     1      -8.539  33.887  21.625  1.00  0.00     0.079 C 
BRANCH  11  12
ATOM     12  C   UNL     1      -7.848  32.799  20.847  1.00  0.00     0.130 C 
ATOM     13  O   UNL     1      -7.331  33.065  19.772  1.00  0.00    -0.300 OA
ATOM     14  C   UNL     1      -7.768  31.394  21.369  1.00  0.00     0.087 C 
ENDBRANCH  11  12
ENDBRANCH  10  11
ENDBRANCH   2  10
TORSDOF 6
ENDMDL
MODEL 6
REMARK VINA RESULT:    -5.563      2.420      5.354
REMARK INTER + INTRA:          -8.338
REMARK INTER:                  -7.385
REMARK INTRA:                  -0.953
REMARK UNBOUND:                -0.824
REMARK SMILES CC(=O)CCC=C(C)CCC=C(C)C
REMARK SMILES IDX 7 1 6 2 8 3 9 4 10 5 11 6 13 7 12 8 14 9 5 10 4 11 2 12 3 13
REMARK SMILES IDX 1 14
REMARK H PARENT
REMARK Flexibility Score: inf
ROOT
ATOM      1  C   UNL     1      -7.712  30.156  22.445  1.00  0.00    -0.077 C 
ATOM      2  C   UNL     1      -8.572  29.121  22.302  1.00  0.00    -0.028 C 
ATOM      3  C   UNL     1      -6.585  30.122  23.451  1.00  0.00     0.039 C 
ENDROOT
BRANCH   1   4
ATOM      4  C   UNL     1      -7.872  31.370  21.557  1.00  0.00     0.034 C 
BRANCH   4   5
ATOM      5  C   UNL     1      -9.009  32.268  22.059  1.00  0.00     0.032 C 
BRANCH   5   6
ATOM      6  C   UNL     1      -8.617  32.992  23.324  1.00  0.00    -0.028 C 
ATOM      7  C   UNL     1      -7.600  34.875  22.038  1.00  0.00     0.039 C 
ATOM      8  C   UNL     1      -7.975  34.179  23.325  1.00  0.00    -0.080 C 
ATOM      9  C   UNL     1      -7.631  34.817  24.647  1.00  0.00     0.039 C 
ENDBRANCH   5   6
ENDBRANCH   4   5
ENDBRANCH   1   4
BRANCH   2  10
ATOM     10  C   UNL     1      -8.556  27.875  23.152  1.00  0.00     0.035 C 
BRANCH  10  11
ATOM     11  C   UNL     1      -9.732  27.875  24.134  1.00  0.00     0.079 C 
BRANCH  11  12
ATOM     12  C   UNL     1      -9.419  28.722  25.339  1.00  0.00     0.130 C 
ATOM     13  O   UNL     1      -8.625  28.310  26.173  1.00  0.00    -0.300 OA
ATOM     14  C   UNL     1     -10.052  30.068  25.535  1.00  0.00     0.087 C 
ENDBRANCH  11  12
ENDBRANCH  10  11
ENDBRANCH   2  10
TORSDOF 6
ENDMDL
MODEL 7
REMARK VINA RESULT:    -5.557      1.546      2.765
REMARK INTER + INTRA:          -8.331
REMARK INTER:                  -7.050
REMARK INTRA:                  -1.281
REMARK UNBOUND:                -0.824
REMARK SMILES CC(=O)CCC=C(C)CCC=C(C)C
REMARK SMILES IDX 7 1 6 2 8 3 9 4 10 5 11 6 13 7 12 8 14 9 5 10 4 11 2 12 3 13
REMARK SMILES IDX 1 14
REMARK H PARENT
REMARK Flexibility Score: inf
ROOT
ATOM      1  C   UNL     1      -7.619  29.532  22.673  1.00  0.00    -0.077 C 
ATOM      2  C   UNL     1      -8.365  30.358  21.904  1.00  0.00    -0.028 C 
ATOM      3  C   UNL     1      -6.432  30.033  23.461  1.00  0.00     0.039 C 
ENDROOT
BRANCH   1   4
ATOM      4  C   UNL     1      -8.000  28.070  22.761  1.00  0.00     0.034 C 
BRANCH   4   5
ATOM      5  C   UNL     1      -9.248  27.883  23.632  1.00  0.00     0.032 C 
BRANCH   5   6
ATOM      6  C   UNL     1      -8.895  27.877  25.100  1.00  0.00    -0.028 C 
ATOM      7  C   UNL     1      -9.957  30.108  25.456  1.00  0.00     0.039 C 
ATOM      8  C   UNL     1      -9.214  28.885  25.938  1.00  0.00    -0.080 C 
ATOM      9  C   UNL     1      -8.814  28.777  27.387  1.00  0.00     0.039 C 
ENDBRANCH   5   6
ENDBRANCH   4   5
ENDBRANCH   1   4
BRANCH   2  10
ATOM     10  C   UNL     1      -8.070  31.822  21.690  1.00  0.00     0.035 C 
BRANCH  10  11
ATOM     11  C   UNL     1      -9.022  32.692  22.517  1.00  0.00     0.079 C 
BRANCH  11  12
ATOM     12  C   UNL     1      -8.251  33.573  23.464  1.00  0.00     0.130 C 
ATOM     13  O   UNL     1      -7.929  34.698  23.111  1.00  0.00    -0.300 OA
ATOM     14  C   UNL     1      -7.877  33.104  24.840  1.00  0.00     0.087 C 
ENDBRANCH  11  12
ENDBRANCH  10  11
ENDBRANCH   2  10
TORSDOF 6
ENDMDL
MODEL 8
REMARK VINA RESULT:    -5.543      2.235      3.997
REMARK INTER + INTRA:          -8.312
REMARK INTER:                  -7.072
REMARK INTRA:                  -1.239
REMARK UNBOUND:                -0.824
REMARK SMILES CC(=O)CCC=C(C)CCC=C(C)C
REMARK SMILES IDX 7 1 6 2 8 3 9 4 10 5 11 6 13 7 12 8 14 9 5 10 4 11 2 12 3 13
REMARK SMILES IDX 1 14
REMARK H PARENT
REMARK Flexibility Score: inf
ROOT
ATOM      1  C   UNL     1      -8.606  32.970  23.693  1.00  0.00    -0.077 C 
ATOM      2  C   UNL     1      -9.226  32.225  24.638  1.00  0.00    -0.028 C 
ATOM      3  C   UNL     1      -7.483  33.920  24.037  1.00  0.00     0.039 C 
ENDROOT
BRANCH   1   4
ATOM      4  C   UNL     1      -9.038  32.829  22.249  1.00  0.00     0.034 C 
BRANCH   4   5
ATOM      5  C   UNL     1      -8.123  31.855  21.499  1.00  0.00     0.032 C 
BRANCH   5   6
ATOM      6  C   UNL     1      -8.627  30.436  21.607  1.00  0.00    -0.028 C 
ATOM      7  C   UNL     1      -6.734  29.782  23.099  1.00  0.00     0.039 C 
ATOM      8  C   UNL     1      -8.002  29.485  22.333  1.00  0.00    -0.080 C 
ATOM      9  C   UNL     1      -8.592  28.099  22.374  1.00  0.00     0.039 C 
ENDBRANCH   5   6
ENDBRANCH   4   5
ENDBRANCH   1   4
BRANCH   2  10
ATOM     10  C   UNL     1      -8.928  32.302  26.115  1.00  0.00     0.035 C 
BRANCH  10  11
ATOM     11  C   UNL     1      -9.303  30.990  26.811  1.00  0.00     0.079 C 
BRANCH  11  12
ATOM     12  C   UNL     1      -8.293  29.917  26.502  1.00  0.00     0.130 C 
ATOM     13  O   UNL     1      -7.100  30.175  26.574  1.00  0.00    -0.300 OA
ATOM     14  C   UNL     1      -8.718  28.530  26.118  1.00  0.00     0.087 C 
ENDBRANCH  11  12
ENDBRANCH  10  11
ENDBRANCH   2  10
TORSDOF 6
ENDMDL
MODEL 9
REMARK VINA RESULT:    -5.526      1.851      4.428
REMARK INTER + INTRA:          -8.289
REMARK INTER:                  -7.202
REMARK INTRA:                  -1.086
REMARK UNBOUND:                -0.824
REMARK SMILES CC(=O)CCC=C(C)CCC=C(C)C
REMARK SMILES IDX 7 1 6 2 8 3 9 4 10 5 11 6 13 7 12 8 14 9 5 10 4 11 2 12 3 13
REMARK SMILES IDX 1 14
REMARK H PARENT
REMARK Flexibility Score: inf
ROOT
ATOM      1  C   UNL     1      -7.954  30.221  23.316  1.00  0.00    -0.077 C 
ATOM      2  C   UNL     1      -9.007  30.128  24.160  1.00  0.00    -0.028 C 
ATOM      3  C   UNL     1      -6.532  30.297  23.820  1.00  0.00     0.039 C 
ENDROOT
BRANCH   1   4
ATOM      4  C   UNL     1      -8.210  30.226  21.824  1.00  0.00     0.034 C 
BRANCH   4   5
ATOM      5  C   UNL     1      -9.214  31.322  21.447  1.00  0.00     0.032 C 
BRANCH   5   6
ATOM      6  C   UNL     1      -8.776  32.669  21.968  1.00  0.00    -0.028 C 
ATOM      7  C   UNL     1      -7.506  33.166  19.877  1.00  0.00     0.039 C 
ATOM      8  C   UNL     1      -7.999  33.516  21.261  1.00  0.00    -0.080 C 
ATOM      9  C   UNL     1      -7.621  34.838  21.877  1.00  0.00     0.039 C 
ENDBRANCH   5   6
ENDBRANCH   4   5
ENDBRANCH   1   4
BRANCH   2  10
ATOM     10  C   UNL     1      -8.899  30.160  25.665  1.00  0.00     0.035 C 
BRANCH  10  11
ATOM     11  C   UNL     1      -9.323  31.528  26.208  1.00  0.00     0.079 C 
BRANCH  11  12
ATOM     12  C   UNL     1      -8.125  32.420  26.399  1.00  0.00     0.130 C 
ATOM     13  O   UNL     1      -7.367  32.216  27.336  1.00  0.00    -0.300 OA
ATOM     14  C   UNL     1      -7.832  33.549  25.455  1.00  0.00     0.087 C 
ENDBRANCH  11  12
ENDBRANCH  10  11
ENDBRANCH   2  10
TORSDOF 6
ENDMDL
