MODEL 1
REMARK VINA RESULT:    -3.859      0.000      0.000
REMARK INTER + INTRA:          -6.670
REMARK INTER:                  -6.115
REMARK INTRA:                  -0.555
REMARK UNBOUND:                -0.555
REMARK SMILES CCCCCCCCCCCC(=O)[O-]
REMARK SMILES IDX 7 1 8 2 9 3 10 4 11 5 12 6 13 7 14 8 6 9 5 10 4 11 3 12 2 13
REMARK SMILES IDX 1 14
REMARK H PARENT
REMARK Flexibility Score: inf
ROOT
ATOM      1  C   UNL     1      -7.408  -3.977   9.078  1.00  0.00     0.000 C 
ENDROOT
BRANCH   1   2
ATOM      2  C   UNL     1      -8.735  -3.717   8.348  1.00  0.00     0.000 C 
BRANCH   2   3
ATOM      3  C   UNL     1      -9.302  -2.315   8.633  1.00  0.00     0.000 C 
BRANCH   3   4
ATOM      4  C   UNL     1      -8.720  -1.692   9.911  1.00  0.00     0.006 C 
BRANCH   4   5
ATOM      5  C   UNL     1      -8.422  -0.195   9.756  1.00  0.00     0.053 C 
BRANCH   5   6
ATOM      6  C   UNL     1      -7.231   0.011   8.875  1.00  0.00     0.041 C 
ATOM      7  O   UNL     1      -6.191  -0.678   9.045  1.00  0.00    -0.550 OA
ATOM      8  O   UNL     1      -7.286   0.931   7.837  1.00  0.00    -0.550 OA
ENDBRANCH   5   6
ENDBRANCH   4   5
ENDBRANCH   3   4
ENDBRANCH   2   3
ENDBRANCH   1   2
BRANCH   1   9
ATOM      9  C   UNL     1      -7.260  -5.436   9.535  1.00  0.00     0.000 C 
BRANCH   9  10
ATOM     10  C   UNL     1      -5.778  -5.825   9.655  1.00  0.00    -0.000 C 
BRANCH  10  11
ATOM     11  C   UNL     1      -5.286  -6.658   8.461  1.00  0.00    -0.000 C 
BRANCH  11  12
ATOM     12  C   UNL     1      -4.245  -7.713   8.864  1.00  0.00    -0.000 C 
BRANCH  12  13
ATOM     13  C   UNL     1      -3.670  -8.417   7.629  1.00  0.00    -0.003 C 
ATOM     14  C   UNL     1      -4.395  -7.981   6.359  1.00  0.00     0.004 C 
ENDBRANCH  12  13
ENDBRANCH  11  12
ENDBRANCH  10  11
ENDBRANCH   9  10
ENDBRANCH   1   9
TORSDOF 10
ENDMDL
MODEL 2
REMARK VINA RESULT:    -3.843     13.311     14.268
REMARK INTER + INTRA:          -6.645
REMARK INTER:                  -5.917
REMARK INTRA:                  -0.728
REMARK UNBOUND:                -0.555
REMARK SMILES CCCCCCCCCCCC(=O)[O-]
REMARK SMILES IDX 7 1 8 2 9 3 10 4 11 5 12 6 13 7 14 8 6 9 5 10 4 11 3 12 2 13
REMARK SMILES IDX 1 14
REMARK H PARENT
REMARK Flexibility Score: inf
ROOT
ATOM      1  C   UNL     1      -8.212  -5.549  -4.134  1.00  0.00     0.000 C 
ENDROOT
BRANCH   1   2
ATOM      2  C   UNL     1      -7.952  -4.058  -3.870  1.00  0.00     0.000 C 
BRANCH   2   3
ATOM      3  C   UNL     1      -9.252  -3.247  -3.727  1.00  0.00     0.000 C 
BRANCH   3   4
ATOM      4  C   UNL     1      -9.396  -2.167  -4.810  1.00  0.00     0.006 C 
BRANCH   4   5
ATOM      5  C   UNL     1      -8.169  -2.085  -5.728  1.00  0.00     0.053 C 
BRANCH   5   6
ATOM      6  C   UNL     1      -8.508  -2.578  -7.099  1.00  0.00     0.041 C 
ATOM      7  O   UNL     1      -8.689  -3.808  -7.303  1.00  0.00    -0.550 OA
ATOM      8  O   UNL     1      -8.673  -1.676  -8.141  1.00  0.00    -0.550 OA
ENDBRANCH   5   6
ENDBRANCH   4   5
ENDBRANCH   3   4
ENDBRANCH   2   3
ENDBRANCH   1   2
BRANCH   1   9
ATOM      9  C   UNL     1      -9.642  -5.823  -4.624  1.00  0.00     0.000 C 
BRANCH   9  10
ATOM     10  C   UNL     1     -10.096  -7.236  -4.229  1.00  0.00    -0.000 C 
BRANCH  10  11
ATOM     11  C   UNL     1      -8.929  -8.235  -4.160  1.00  0.00    -0.000 C 
BRANCH  11  12
ATOM     12  C   UNL     1      -9.241  -9.561  -4.870  1.00  0.00    -0.000 C 
BRANCH  12  13
ATOM     13  C   UNL     1      -9.893 -10.559  -3.905  1.00  0.00    -0.003 C 
ATOM     14  C   UNL     1      -9.185 -10.563  -2.553  1.00  0.00     0.004 C 
ENDBRANCH  12  13
ENDBRANCH  11  12
ENDBRANCH  10  11
ENDBRANCH   9  10
ENDBRANCH   1   9
TORSDOF 10
ENDMDL
MODEL 3
REMARK VINA RESULT:    -3.814     19.195     22.095
REMARK INTER + INTRA:          -6.599
REMARK INTER:                  -5.675
REMARK INTRA:                  -0.924
REMARK UNBOUND:                -0.555
REMARK SMILES CCCCCCCCCCCC(=O)[O-]
REMARK SMILES IDX 7 1 8 2 9 3 10 4 11 5 12 6 13 7 14 8 6 9 5 10 4 11 3 12 2 13
REMARK SMILES IDX 1 14
REMARK H PARENT
REMARK Flexibility Score: inf
ROOT
ATOM      1  C   UNL     1       4.090  -8.645  -7.999  1.00  0.00     0.000 C 
ENDROOT
BRANCH   1   2
ATOM      2  C   UNL     1       5.165  -8.945  -9.055  1.00  0.00     0.000 C 
BRANCH   2   3
ATOM      3  C   UNL     1       6.499  -8.235  -8.759  1.00  0.00     0.000 C 
BRANCH   3   4
ATOM      4  C   UNL     1       6.412  -6.714  -8.953  1.00  0.00     0.006 C 
BRANCH   4   5
ATOM      5  C   UNL     1       7.334  -6.207 -10.070  1.00  0.00     0.053 C 
BRANCH   5   6
ATOM      6  C   UNL     1       8.356  -5.266  -9.516  1.00  0.00     0.041 C 
ATOM      7  O   UNL     1       9.278  -5.697  -8.774  1.00  0.00    -0.550 OA
ATOM      8  O   UNL     1       8.320  -3.921  -9.859  1.00  0.00    -0.550 OA
ENDBRANCH   5   6
ENDBRANCH   4   5
ENDBRANCH   3   4
ENDBRANCH   2   3
ENDBRANCH   1   2
BRANCH   1   9
ATOM      9  C   UNL     1       2.812  -8.048  -8.608  1.00  0.00     0.000 C 
BRANCH   9  10
ATOM     10  C   UNL     1       3.098  -7.433  -9.986  1.00  0.00    -0.000 C 
BRANCH  10  11
ATOM     11  C   UNL     1       2.927  -5.906 -10.001  1.00  0.00    -0.000 C 
BRANCH  11  12
ATOM     12  C   UNL     1       1.601  -5.452  -9.374  1.00  0.00    -0.000 C 
BRANCH  12  13
ATOM     13  C   UNL     1       1.812  -4.236  -8.463  1.00  0.00    -0.003 C 
ATOM     14  C   UNL     1       1.814  -4.642  -6.993  1.00  0.00     0.004 C 
ENDBRANCH  12  13
ENDBRANCH  11  12
ENDBRANCH  10  11
ENDBRANCH   9  10
ENDBRANCH   1   9
TORSDOF 10
ENDMDL
MODEL 4
REMARK VINA RESULT:    -3.777     13.992     15.192
REMARK INTER + INTRA:          -6.540
REMARK INTER:                  -5.836
REMARK INTRA:                  -0.704
REMARK UNBOUND:                -0.555
REMARK SMILES CCCCCCCCCCCC(=O)[O-]
REMARK SMILES IDX 7 1 8 2 9 3 10 4 11 5 12 6 13 7 14 8 6 9 5 10 4 11 3 12 2 13
REMARK SMILES IDX 1 14
REMARK H PARENT
REMARK Flexibility Score: inf
ROOT
ATOM      1  C   UNL     1      -8.054  -3.726  -3.894  1.00  0.00     0.000 C 
ENDROOT
BRANCH   1   2
ATOM      2  C   UNL     1      -7.665  -2.601  -4.866  1.00  0.00     0.000 C 
BRANCH   2   3
ATOM      3  C   UNL     1      -8.887  -1.957  -5.546  1.00  0.00     0.000 C 
BRANCH   3   4
ATOM      4  C   UNL     1      -8.976  -2.297  -7.042  1.00  0.00     0.006 C 
BRANCH   4   5
ATOM      5  C   UNL     1      -8.025  -3.430  -7.447  1.00  0.00     0.053 C 
BRANCH   5   6
ATOM      6  C   UNL     1      -7.236  -3.042  -8.657  1.00  0.00     0.041 C 
ATOM      7  O   UNL     1      -6.233  -3.720  -9.004  1.00  0.00    -0.550 OA
ATOM      8  O   UNL     1      -7.636  -1.960  -9.430  1.00  0.00    -0.550 OA
ENDBRANCH   5   6
ENDBRANCH   4   5
ENDBRANCH   3   4
ENDBRANCH   2   3
ENDBRANCH   1   2
BRANCH   1   9
ATOM      9  C   UNL     1      -9.559  -4.034  -3.919  1.00  0.00     0.000 C 
BRANCH   9  10
ATOM     10  C   UNL     1      -9.846  -5.298  -4.743  1.00  0.00    -0.000 C 
BRANCH  10  11
ATOM     11  C   UNL     1      -8.968  -6.489  -4.328  1.00  0.00    -0.000 C 
BRANCH  11  12
ATOM     12  C   UNL     1      -9.784  -7.764  -4.067  1.00  0.00    -0.000 C 
BRANCH  12  13
ATOM     13  C   UNL     1      -8.955  -9.017  -4.374  1.00  0.00    -0.003 C 
ATOM     14  C   UNL     1      -9.531  -9.782  -5.562  1.00  0.00     0.004 C 
ENDBRANCH  12  13
ENDBRANCH  11  12
ENDBRANCH  10  11
ENDBRANCH   9  10
ENDBRANCH   1   9
TORSDOF 10
ENDMDL
MODEL 5
REMARK VINA RESULT:    -3.775     14.517     16.578
REMARK INTER + INTRA:          -6.536
REMARK INTER:                  -6.031
REMARK INTRA:                  -0.505
REMARK UNBOUND:                -0.555
REMARK SMILES CCCCCCCCCCCC(=O)[O-]
REMARK SMILES IDX 7 1 8 2 9 3 10 4 11 5 12 6 13 7 14 8 6 9 5 10 4 11 3 12 2 13
REMARK SMILES IDX 1 14
REMARK H PARENT
REMARK Flexibility Score: inf
ROOT
ATOM      1  C   UNL     1      -4.717   6.612  -3.207  1.00  0.00     0.000 C 
ENDROOT
BRANCH   1   2
ATOM      2  C   UNL     1      -4.202   5.621  -2.152  1.00  0.00     0.000 C 
BRANCH   2   3
ATOM      3  C   UNL     1      -3.986   6.280  -0.778  1.00  0.00     0.000 C 
BRANCH   3   4
ATOM      4  C   UNL     1      -2.728   5.758  -0.066  1.00  0.00     0.006 C 
BRANCH   4   5
ATOM      5  C   UNL     1      -1.647   5.287  -1.047  1.00  0.00     0.053 C 
BRANCH   5   6
ATOM      6  C   UNL     1      -0.686   6.395  -1.337  1.00  0.00     0.041 C 
ATOM      7  O   UNL     1       0.254   6.644  -0.537  1.00  0.00    -0.550 OA
ATOM      8  O   UNL     1      -0.798   7.122  -2.515  1.00  0.00    -0.550 OA
ENDBRANCH   5   6
ENDBRANCH   4   5
ENDBRANCH   3   4
ENDBRANCH   2   3
ENDBRANCH   1   2
BRANCH   1   9
ATOM      9  C   UNL     1      -5.826   6.016  -4.088  1.00  0.00     0.000 C 
BRANCH   9  10
ATOM     10  C   UNL     1      -5.335   5.823  -5.531  1.00  0.00    -0.000 C 
BRANCH  10  11
ATOM     11  C   UNL     1      -5.641   4.420  -6.079  1.00  0.00    -0.000 C 
BRANCH  11  12
ATOM     12  C   UNL     1      -4.834   4.089  -7.343  1.00  0.00    -0.000 C 
BRANCH  12  13
ATOM     13  C   UNL     1      -5.654   4.375  -8.607  1.00  0.00    -0.003 C 
ATOM     14  C   UNL     1      -7.126   4.031  -8.399  1.00  0.00     0.004 C 
ENDBRANCH  12  13
ENDBRANCH  11  12
ENDBRANCH  10  11
ENDBRANCH   9  10
ENDBRANCH   1   9
TORSDOF 10
ENDMDL
MODEL 6
REMARK VINA RESULT:    -3.689     12.882     14.817
REMARK INTER + INTRA:          -6.401
REMARK INTER:                  -5.754
REMARK INTRA:                  -0.647
REMARK UNBOUND:                -0.555
REMARK SMILES CCCCCCCCCCCC(=O)[O-]
REMARK SMILES IDX 7 1 8 2 9 3 10 4 11 5 12 6 13 7 14 8 6 9 5 10 4 11 3 12 2 13
REMARK SMILES IDX 1 14
REMARK H PARENT
REMARK Flexibility Score: inf
ROOT
ATOM      1  C   UNL     1      -9.521  -5.956  -4.515  1.00  0.00     0.000 C 
ENDROOT
BRANCH   1   2
ATOM      2  C   UNL     1      -9.985  -7.355  -4.081  1.00  0.00     0.000 C 
BRANCH   2   3
ATOM      3  C   UNL     1      -8.996  -8.460  -4.494  1.00  0.00     0.000 C 
BRANCH   3   4
ATOM      4  C   UNL     1      -9.408  -9.845  -3.970  1.00  0.00     0.006 C 
BRANCH   4   5
ATOM      5  C   UNL     1      -9.374  -9.930  -2.439  1.00  0.00     0.053 C 
BRANCH   5   6
ATOM      6  C   UNL     1      -8.781 -11.232  -2.002  1.00  0.00     0.041 C 
ATOM      7  O   UNL     1      -8.155 -11.308  -0.912  1.00  0.00    -0.550 OA
ATOM      8  O   UNL     1      -8.962 -12.372  -2.774  1.00  0.00    -0.550 OA
ENDBRANCH   5   6
ENDBRANCH   4   5
ENDBRANCH   3   4
ENDBRANCH   2   3
ENDBRANCH   1   2
BRANCH   1   9
ATOM      9  C   UNL     1      -8.066  -5.665  -4.116  1.00  0.00     0.000 C 
BRANCH   9  10
ATOM     10  C   UNL     1      -7.877  -4.179  -3.776  1.00  0.00    -0.000 C 
BRANCH  10  11
ATOM     11  C   UNL     1      -9.209  -3.416  -3.694  1.00  0.00    -0.000 C 
BRANCH  11  12
ATOM     12  C   UNL     1      -9.307  -2.284  -4.727  1.00  0.00    -0.000 C 
BRANCH  12  13
ATOM     13  C   UNL     1      -8.014  -2.175  -5.545  1.00  0.00    -0.003 C 
ATOM     14  C   UNL     1      -8.243  -2.590  -6.996  1.00  0.00     0.004 C 
ENDBRANCH  12  13
ENDBRANCH  11  12
ENDBRANCH  10  11
ENDBRANCH   9  10
ENDBRANCH   1   9
TORSDOF 10
ENDMDL
MODEL 7
REMARK VINA RESULT:    -3.571      6.331      8.418
REMARK INTER + INTRA:          -6.214
REMARK INTER:                  -5.186
REMARK INTRA:                  -1.028
REMARK UNBOUND:                -0.555
REMARK SMILES CCCCCCCCCCCC(=O)[O-]
REMARK SMILES IDX 7 1 8 2 9 3 10 4 11 5 12 6 13 7 14 8 6 9 5 10 4 11 3 12 2 13
REMARK SMILES IDX 1 14
REMARK H PARENT
REMARK Flexibility Score: inf
ROOT
ATOM      1  C   UNL     1      -4.521  -7.514   7.463  1.00  0.00     0.000 C 
ENDROOT
BRANCH   1   2
ATOM      2  C   UNL     1      -3.377  -8.541   7.459  1.00  0.00     0.000 C 
BRANCH   2   3
ATOM      3  C   UNL     1      -2.714  -8.691   8.840  1.00  0.00     0.000 C 
BRANCH   3   4
ATOM      4  C   UNL     1      -1.526  -9.666   8.820  1.00  0.00     0.006 C 
BRANCH   4   5
ATOM      5  C   UNL     1      -0.171  -8.946   8.827  1.00  0.00     0.053 C 
BRANCH   5   6
ATOM      6  C   UNL     1       0.862  -9.771   8.127  1.00  0.00     0.041 C 
ATOM      7  O   UNL     1       1.743  -9.216   7.419  1.00  0.00    -0.550 OA
ATOM      8  O   UNL     1       0.881 -11.149   8.296  1.00  0.00    -0.550 OA
ENDBRANCH   5   6
ENDBRANCH   4   5
ENDBRANCH   3   4
ENDBRANCH   2   3
ENDBRANCH   1   2
BRANCH   1   9
ATOM      9  C   UNL     1      -4.929  -7.089   8.881  1.00  0.00     0.000 C 
BRANCH   9  10
ATOM     10  C   UNL     1      -6.354  -7.561   9.206  1.00  0.00    -0.000 C 
BRANCH  10  11
ATOM     11  C   UNL     1      -6.433  -9.074   9.463  1.00  0.00    -0.000 C 
BRANCH  11  12
ATOM     12  C   UNL     1      -7.215  -9.821   8.372  1.00  0.00    -0.000 C 
BRANCH  12  13
ATOM     13  C   UNL     1      -6.310 -10.812   7.630  1.00  0.00    -0.003 C 
ATOM     14  C   UNL     1      -6.278 -10.515   6.134  1.00  0.00     0.004 C 
ENDBRANCH  12  13
ENDBRANCH  11  12
ENDBRANCH  10  11
ENDBRANCH   9  10
ENDBRANCH   1   9
TORSDOF 10
ENDMDL
MODEL 8
REMARK VINA RESULT:    -3.566      6.287      8.025
REMARK INTER + INTRA:          -6.206
REMARK INTER:                  -5.086
REMARK INTRA:                  -1.120
REMARK UNBOUND:                -0.555
REMARK SMILES CCCCCCCCCCCC(=O)[O-]
REMARK SMILES IDX 7 1 8 2 9 3 10 4 11 5 12 6 13 7 14 8 6 9 5 10 4 11 3 12 2 13
REMARK SMILES IDX 1 14
REMARK H PARENT
REMARK Flexibility Score: inf
ROOT
ATOM      1  C   UNL     1      -4.497  -7.554   7.263  1.00  0.00     0.000 C 
ENDROOT
BRANCH   1   2
ATOM      2  C   UNL     1      -5.051  -8.813   6.578  1.00  0.00     0.000 C 
BRANCH   2   3
ATOM      3  C   UNL     1      -6.099  -9.541   7.438  1.00  0.00     0.000 C 
BRANCH   3   4
ATOM      4  C   UNL     1      -6.797 -10.679   6.677  1.00  0.00     0.006 C 
BRANCH   4   5
ATOM      5  C   UNL     1      -6.246 -10.866   5.258  1.00  0.00     0.053 C 
BRANCH   5   6
ATOM      6  C   UNL     1      -7.268 -11.519   4.383  1.00  0.00     0.041 C 
ATOM      7  O   UNL     1      -8.487 -11.227   4.506  1.00  0.00    -0.550 OA
ATOM      8  O   UNL     1      -6.871 -12.415   3.399  1.00  0.00    -0.550 OA
ENDBRANCH   5   6
ENDBRANCH   4   5
ENDBRANCH   3   4
ENDBRANCH   2   3
ENDBRANCH   1   2
BRANCH   1   9
ATOM      9  C   UNL     1      -5.257  -7.198   8.551  1.00  0.00     0.000 C 
BRANCH   9  10
ATOM     10  C   UNL     1      -4.300  -7.127   9.750  1.00  0.00    -0.000 C 
BRANCH  10  11
ATOM     11  C   UNL     1      -3.579  -8.458  10.013  1.00  0.00    -0.000 C 
BRANCH  11  12
ATOM     12  C   UNL     1      -2.055  -8.347   9.861  1.00  0.00    -0.000 C 
BRANCH  12  13
ATOM     13  C   UNL     1      -1.539  -9.317   8.791  1.00  0.00    -0.003 C 
ATOM     14  C   UNL     1      -2.496 -10.490   8.603  1.00  0.00     0.004 C 
ENDBRANCH  12  13
ENDBRANCH  11  12
ENDBRANCH  10  11
ENDBRANCH   9  10
ENDBRANCH   1   9
TORSDOF 10
ENDMDL
MODEL 9
REMARK VINA RESULT:    -3.542      6.617      9.300
REMARK INTER + INTRA:          -6.168
REMARK INTER:                  -5.187
REMARK INTRA:                  -0.980
REMARK UNBOUND:                -0.555
REMARK SMILES CCCCCCCCCCCC(=O)[O-]
REMARK SMILES IDX 7 1 8 2 9 3 10 4 11 5 12 6 13 7 14 8 6 9 5 10 4 11 3 12 2 13
REMARK SMILES IDX 1 14
REMARK H PARENT
REMARK Flexibility Score: inf
ROOT
ATOM      1  C   UNL     1      -2.407 -10.470   8.640  1.00  0.00     0.000 C 
ENDROOT
BRANCH   1   2
ATOM      2  C   UNL     1      -1.841  -9.042   8.669  1.00  0.00     0.000 C 
BRANCH   2   3
ATOM      3  C   UNL     1      -0.985  -8.770   9.919  1.00  0.00     0.000 C 
BRANCH   3   4
ATOM      4  C   UNL     1       0.478  -8.451   9.573  1.00  0.00     0.006 C 
BRANCH   4   5
ATOM      5  C   UNL     1       1.346  -9.710   9.456  1.00  0.00     0.053 C 
BRANCH   5   6
ATOM      6  C   UNL     1       1.502 -10.105   8.021  1.00  0.00     0.041 C 
ATOM      7  O   UNL     1       1.937  -9.275   7.180  1.00  0.00    -0.550 OA
ATOM      8  O   UNL     1       1.213 -11.403   7.622  1.00  0.00    -0.550 OA
ENDBRANCH   5   6
ENDBRANCH   4   5
ENDBRANCH   3   4
ENDBRANCH   2   3
ENDBRANCH   1   2
BRANCH   1   9
ATOM      9  C   UNL     1      -3.809 -10.564   9.262  1.00  0.00     0.000 C 
BRANCH   9  10
ATOM     10  C   UNL     1      -4.857 -10.919   8.197  1.00  0.00    -0.000 C 
BRANCH  10  11
ATOM     11  C   UNL     1      -5.699  -9.707   7.767  1.00  0.00    -0.000 C 
BRANCH  11  12
ATOM     12  C   UNL     1      -5.241  -9.112   6.428  1.00  0.00    -0.000 C 
BRANCH  12  13
ATOM     13  C   UNL     1      -4.429  -7.830   6.646  1.00  0.00    -0.003 C 
ATOM     14  C   UNL     1      -4.838  -7.132   7.939  1.00  0.00     0.004 C 
ENDBRANCH  12  13
ENDBRANCH  11  12
ENDBRANCH  10  11
ENDBRANCH   9  10
ENDBRANCH   1   9
TORSDOF 10
ENDMDL
