MODEL 1
REMARK VINA RESULT:    -4.354      0.000      0.000
REMARK INTER + INTRA:         -12.546
REMARK INTER:                  -9.444
REMARK INTRA:                  -3.101
REMARK UNBOUND:                -3.101
REMARK SMILES CCCCCCCCCCCCCCCCCCCCCC(=O)[O-]
REMARK SMILES IDX 12 1 11 2 10 3 9 4 8 5 7 6 6 7 5 8 4 9 3 10 2 11 1 12 13 13
REMARK SMILES IDX 14 14 15 15 16 16 17 17 18 18 19 19 20 20 21 21 22 22 23 23
REMARK SMILES IDX 24 24
REMARK H PARENT
REMARK Flexibility Score: inf
ROOT
ATOM      1  C   UNL     1      -5.604   0.444  -6.202  1.00  0.00     0.000 C 
ENDROOT
BRANCH   1   2
ATOM      2  C   UNL     1      -5.553  -1.086  -6.388  1.00  0.00     0.000 C 
BRANCH   2   3
ATOM      3  C   UNL     1      -4.125  -1.662  -6.458  1.00  0.00     0.000 C 
BRANCH   3   4
ATOM      4  C   UNL     1      -4.002  -3.013  -5.736  1.00  0.00    -0.000 C 
BRANCH   4   5
ATOM      5  C   UNL     1      -5.201  -3.251  -4.806  1.00  0.00    -0.000 C 
BRANCH   5   6
ATOM      6  C   UNL     1      -4.850  -4.108  -3.576  1.00  0.00    -0.000 C 
BRANCH   6   7
ATOM      7  C   UNL     1      -5.724  -3.853  -2.336  1.00  0.00    -0.000 C 
BRANCH   7   8
ATOM      8  C   UNL     1      -5.069  -4.337  -1.032  1.00  0.00    -0.000 C 
BRANCH   8   9
ATOM      9  C   UNL     1      -5.827  -3.812   0.194  1.00  0.00    -0.000 C 
BRANCH   9  10
ATOM     10  C   UNL     1      -7.110  -3.080  -0.227  1.00  0.00    -0.000 C 
BRANCH  10  11
ATOM     11  C   UNL     1      -8.379  -3.750   0.321  1.00  0.00    -0.003 C 
ATOM     12  C   UNL     1      -8.321  -5.276   0.252  1.00  0.00     0.004 C 
ENDBRANCH  10  11
ENDBRANCH   9  10
ENDBRANCH   8   9
ENDBRANCH   7   8
ENDBRANCH   6   7
ENDBRANCH   5   6
ENDBRANCH   4   5
ENDBRANCH   3   4
ENDBRANCH   2   3
ENDBRANCH   1   2
BRANCH   1  13
ATOM     13  C   UNL     1      -4.507   1.003  -5.274  1.00  0.00     0.000 C 
BRANCH  13  14
ATOM     14  C   UNL     1      -3.993   2.380  -5.736  1.00  0.00     0.000 C 
BRANCH  14  15
ATOM     15  C   UNL     1      -2.990   2.275  -6.896  1.00  0.00     0.000 C 
BRANCH  15  16
ATOM     16  C   UNL     1      -1.583   1.872  -6.421  1.00  0.00     0.000 C 
BRANCH  16  17
ATOM     17  C   UNL     1      -1.184   0.450  -6.857  1.00  0.00     0.000 C 
BRANCH  17  18
ATOM     18  C   UNL     1      -0.724  -0.477  -5.718  1.00  0.00     0.000 C 
BRANCH  18  19
ATOM     19  C   UNL     1      -1.242  -0.037  -4.337  1.00  0.00     0.000 C 
BRANCH  19  20
ATOM     20  C   UNL     1      -1.708  -1.227  -3.481  1.00  0.00     0.006 C 
BRANCH  20  21
ATOM     21  C   UNL     1      -3.032  -0.946  -2.757  1.00  0.00     0.053 C 
BRANCH  21  22
ATOM     22  C   UNL     1      -2.780  -0.598  -1.323  1.00  0.00     0.041 C 
ATOM     23  O   UNL     1      -1.981   0.332  -1.026  1.00  0.00    -0.550 OA
ATOM     24  O   UNL     1      -3.460  -1.273  -0.313  1.00  0.00    -0.550 OA
ENDBRANCH  21  22
ENDBRANCH  20  21
ENDBRANCH  19  20
ENDBRANCH  18  19
ENDBRANCH  17  18
ENDBRANCH  16  17
ENDBRANCH  15  16
ENDBRANCH  14  15
ENDBRANCH  13  14
ENDBRANCH   1  13
TORSDOF 20
ENDMDL
MODEL 2
REMARK VINA RESULT:    -4.327      2.221      7.062
REMARK INTER + INTRA:         -12.488
REMARK INTER:                  -9.683
REMARK INTRA:                  -2.805
REMARK UNBOUND:                -3.101
REMARK SMILES CCCCCCCCCCCCCCCCCCCCCC(=O)[O-]
REMARK SMILES IDX 12 1 11 2 10 3 9 4 8 5 7 6 6 7 5 8 4 9 3 10 2 11 1 12 13 13
REMARK SMILES IDX 14 14 15 15 16 16 17 17 18 18 19 19 20 20 21 21 22 22 23 23
REMARK SMILES IDX 24 24
REMARK H PARENT
REMARK Flexibility Score: inf
ROOT
ATOM      1  C   UNL     1      -4.194  -2.387  -6.402  1.00  0.00     0.000 C 
ENDROOT
BRANCH   1   2
ATOM      2  C   UNL     1      -4.750  -1.134  -5.699  1.00  0.00     0.000 C 
BRANCH   2   3
ATOM      3  C   UNL     1      -5.807  -0.371  -6.521  1.00  0.00     0.000 C 
BRANCH   3   4
ATOM      4  C   UNL     1      -5.854   1.125  -6.171  1.00  0.00    -0.000 C 
BRANCH   4   5
ATOM      5  C   UNL     1      -4.607   1.544  -5.378  1.00  0.00    -0.000 C 
BRANCH   5   6
ATOM      6  C   UNL     1      -3.634   2.409  -6.200  1.00  0.00    -0.000 C 
BRANCH   6   7
ATOM      7  C   UNL     1      -2.155   1.993  -6.104  1.00  0.00    -0.000 C 
BRANCH   7   8
ATOM      8  C   UNL     1      -1.891   0.588  -6.669  1.00  0.00    -0.000 C 
BRANCH   8   9
ATOM      9  C   UNL     1      -1.043  -0.246  -5.701  1.00  0.00    -0.000 C 
BRANCH   9  10
ATOM     10  C   UNL     1      -1.032   0.384  -4.300  1.00  0.00    -0.000 C 
BRANCH  10  11
ATOM     11  C   UNL     1      -1.441  -0.610  -3.202  1.00  0.00    -0.003 C 
ATOM     12  C   UNL     1      -2.907  -0.472  -2.793  1.00  0.00     0.004 C 
ENDBRANCH  10  11
ENDBRANCH   9  10
ENDBRANCH   8   9
ENDBRANCH   7   8
ENDBRANCH   6   7
ENDBRANCH   5   6
ENDBRANCH   4   5
ENDBRANCH   3   4
ENDBRANCH   2   3
ENDBRANCH   1   2
BRANCH   1  13
ATOM     13  C   UNL     1      -4.375  -3.693  -5.601  1.00  0.00     0.000 C 
BRANCH  13  14
ATOM     14  C   UNL     1      -5.199  -3.484  -4.316  1.00  0.00     0.000 C 
BRANCH  14  15
ATOM     15  C   UNL     1      -4.406  -3.828  -3.045  1.00  0.00     0.000 C 
BRANCH  15  16
ATOM     16  C   UNL     1      -5.319  -4.058  -1.828  1.00  0.00     0.000 C 
BRANCH  16  17
ATOM     17  C   UNL     1      -5.188  -2.955  -0.761  1.00  0.00     0.000 C 
BRANCH  17  18
ATOM     18  C   UNL     1      -6.383  -2.835   0.203  1.00  0.00     0.000 C 
BRANCH  18  19
ATOM     19  C   UNL     1      -7.721  -3.235  -0.444  1.00  0.00     0.000 C 
BRANCH  19  20
ATOM     20  C   UNL     1      -8.510  -4.237   0.417  1.00  0.00     0.006 C 
BRANCH  20  21
ATOM     21  C   UNL     1      -7.596  -5.103   1.295  1.00  0.00     0.053 C 
BRANCH  21  22
ATOM     22  C   UNL     1      -7.093  -6.283   0.522  1.00  0.00     0.041 C 
ATOM     23  O   UNL     1      -7.818  -6.818  -0.361  1.00  0.00    -0.550 OA
ATOM     24  O   UNL     1      -5.807  -6.765   0.746  1.00  0.00    -0.550 OA
ENDBRANCH  21  22
ENDBRANCH  20  21
ENDBRANCH  19  20
ENDBRANCH  18  19
ENDBRANCH  17  18
ENDBRANCH  16  17
ENDBRANCH  15  16
ENDBRANCH  14  15
ENDBRANCH  13  14
ENDBRANCH   1  13
TORSDOF 20
ENDMDL
MODEL 3
REMARK VINA RESULT:    -4.275      2.188      4.924
REMARK INTER + INTRA:         -12.374
REMARK INTER:                  -9.317
REMARK INTRA:                  -3.057
REMARK UNBOUND:                -3.101
REMARK SMILES CCCCCCCCCCCCCCCCCCCCCC(=O)[O-]
REMARK SMILES IDX 12 1 11 2 10 3 9 4 8 5 7 6 6 7 5 8 4 9 3 10 2 11 1 12 13 13
REMARK SMILES IDX 14 14 15 15 16 16 17 17 18 18 19 19 20 20 21 21 22 22 23 23
REMARK SMILES IDX 24 24
REMARK H PARENT
REMARK Flexibility Score: inf
ROOT
ATOM      1  C   UNL     1      -3.074  -1.250  -2.759  1.00  0.00     0.000 C 
ENDROOT
BRANCH   1   2
ATOM      2  C   UNL     1      -2.689  -0.491  -1.473  1.00  0.00     0.000 C 
BRANCH   2   3
ATOM      3  C   UNL     1      -1.775  -1.291  -0.523  1.00  0.00     0.000 C 
BRANCH   3   4
ATOM      4  C   UNL     1      -2.563  -1.987   0.598  1.00  0.00    -0.000 C 
BRANCH   4   5
ATOM      5  C   UNL     1      -2.845  -3.455   0.243  1.00  0.00    -0.000 C 
BRANCH   5   6
ATOM      6  C   UNL     1      -4.341  -3.815   0.311  1.00  0.00    -0.000 C 
BRANCH   6   7
ATOM      7  C   UNL     1      -5.297  -2.707  -0.165  1.00  0.00    -0.000 C 
BRANCH   7   8
ATOM      8  C   UNL     1      -6.655  -2.739   0.553  1.00  0.00    -0.000 C 
BRANCH   8   9
ATOM      9  C   UNL     1      -7.777  -3.160  -0.405  1.00  0.00    -0.000 C 
BRANCH   9  10
ATOM     10  C   UNL     1      -8.594  -4.320   0.183  1.00  0.00    -0.000 C 
BRANCH  10  11
ATOM     11  C   UNL     1      -7.709  -5.413   0.802  1.00  0.00    -0.003 C 
ATOM     12  C   UNL     1      -7.369  -6.530  -0.185  1.00  0.00     0.004 C 
ENDBRANCH  10  11
ENDBRANCH   9  10
ENDBRANCH   8   9
ENDBRANCH   7   8
ENDBRANCH   6   7
ENDBRANCH   5   6
ENDBRANCH   4   5
ENDBRANCH   3   4
ENDBRANCH   2   3
ENDBRANCH   1   2
BRANCH   1  13
ATOM     13  C   UNL     1      -2.079  -2.359  -3.159  1.00  0.00     0.000 C 
BRANCH  13  14
ATOM     14  C   UNL     1      -2.780  -3.576  -3.792  1.00  0.00     0.000 C 
BRANCH  14  15
ATOM     15  C   UNL     1      -4.283  -3.625  -3.469  1.00  0.00     0.000 C 
BRANCH  15  16
ATOM     16  C   UNL     1      -5.158  -3.427  -4.720  1.00  0.00     0.000 C 
BRANCH  16  17
ATOM     17  C   UNL     1      -4.338  -3.332  -6.019  1.00  0.00     0.000 C 
BRANCH  17  18
ATOM     18  C   UNL     1      -4.109  -1.903  -6.543  1.00  0.00     0.000 C 
BRANCH  18  19
ATOM     19  C   UNL     1      -5.051  -0.869  -5.903  1.00  0.00     0.000 C 
BRANCH  19  20
ATOM     20  C   UNL     1      -4.586   0.577  -6.151  1.00  0.00     0.006 C 
BRANCH  20  21
ATOM     21  C   UNL     1      -3.128   0.805  -5.731  1.00  0.00     0.053 C 
BRANCH  21  22
ATOM     22  C   UNL     1      -2.611   2.086  -6.309  1.00  0.00     0.041 C 
ATOM     23  O   UNL     1      -3.234   2.656  -7.247  1.00  0.00    -0.550 OA
ATOM     24  O   UNL     1      -1.465   2.675  -5.782  1.00  0.00    -0.550 OA
ENDBRANCH  21  22
ENDBRANCH  20  21
ENDBRANCH  19  20
ENDBRANCH  18  19
ENDBRANCH  17  18
ENDBRANCH  16  17
ENDBRANCH  15  16
ENDBRANCH  14  15
ENDBRANCH  13  14
ENDBRANCH   1  13
TORSDOF 20
ENDMDL
MODEL 4
REMARK VINA RESULT:    -4.249      2.223      6.438
REMARK INTER + INTRA:         -12.318
REMARK INTER:                  -9.314
REMARK INTRA:                  -3.004
REMARK UNBOUND:                -3.101
REMARK SMILES CCCCCCCCCCCCCCCCCCCCCC(=O)[O-]
REMARK SMILES IDX 12 1 11 2 10 3 9 4 8 5 7 6 6 7 5 8 4 9 3 10 2 11 1 12 13 13
REMARK SMILES IDX 14 14 15 15 16 16 17 17 18 18 19 19 20 20 21 21 22 22 23 23
REMARK SMILES IDX 24 24
REMARK H PARENT
REMARK Flexibility Score: inf
ROOT
ATOM      1  C   UNL     1      -4.553  -0.284  -5.473  1.00  0.00     0.000 C 
ENDROOT
BRANCH   1   2
ATOM      2  C   UNL     1      -5.063   1.138  -5.780  1.00  0.00     0.000 C 
BRANCH   2   3
ATOM      3  C   UNL     1      -4.073   2.255  -5.398  1.00  0.00     0.000 C 
BRANCH   3   4
ATOM      4  C   UNL     1      -3.310   2.803  -6.615  1.00  0.00    -0.000 C 
BRANCH   4   5
ATOM      5  C   UNL     1      -1.874   2.258  -6.654  1.00  0.00    -0.000 C 
BRANCH   5   6
ATOM      6  C   UNL     1      -1.693   1.111  -7.666  1.00  0.00    -0.000 C 
BRANCH   6   7
ATOM      7  C   UNL     1      -1.205  -0.218  -7.061  1.00  0.00    -0.000 C 
BRANCH   7   8
ATOM      8  C   UNL     1      -0.410  -0.026  -5.760  1.00  0.00    -0.000 C 
BRANCH   8   9
ATOM      9  C   UNL     1      -1.115  -0.702  -4.577  1.00  0.00    -0.000 C 
BRANCH   9  10
ATOM     10  C   UNL     1      -1.388   0.308  -3.452  1.00  0.00    -0.000 C 
BRANCH  10  11
ATOM     11  C   UNL     1      -2.604  -0.076  -2.596  1.00  0.00    -0.003 C 
ATOM     12  C   UNL     1      -2.314  -0.024  -1.096  1.00  0.00     0.004 C 
ENDBRANCH  10  11
ENDBRANCH   9  10
ENDBRANCH   8   9
ENDBRANCH   7   8
ENDBRANCH   6   7
ENDBRANCH   5   6
ENDBRANCH   4   5
ENDBRANCH   3   4
ENDBRANCH   2   3
ENDBRANCH   1   2
BRANCH   1  13
ATOM     13  C   UNL     1      -4.862  -1.317  -6.576  1.00  0.00     0.000 C 
BRANCH  13  14
ATOM     14  C   UNL     1      -4.067  -2.624  -6.396  1.00  0.00     0.000 C 
BRANCH  14  15
ATOM     15  C   UNL     1      -4.803  -3.645  -5.512  1.00  0.00     0.000 C 
BRANCH  15  16
ATOM     16  C   UNL     1      -4.090  -3.879  -4.168  1.00  0.00     0.000 C 
BRANCH  16  17
ATOM     17  C   UNL     1      -5.031  -3.744  -2.957  1.00  0.00     0.000 C 
BRANCH  17  18
ATOM     18  C   UNL     1      -4.405  -3.082  -1.716  1.00  0.00     0.000 C 
BRANCH  18  19
ATOM     19  C   UNL     1      -5.374  -3.001  -0.523  1.00  0.00     0.000 C 
BRANCH  19  20
ATOM     20  C   UNL     1      -6.741  -3.634  -0.838  1.00  0.00     0.006 C 
BRANCH  20  21
ATOM     21  C   UNL     1      -7.809  -3.272   0.204  1.00  0.00     0.053 C 
BRANCH  21  22
ATOM     22  C   UNL     1      -8.238  -4.491   0.959  1.00  0.00     0.041 C 
ATOM     23  O   UNL     1      -9.465  -4.728   1.137  1.00  0.00    -0.550 OA
ATOM     24  O   UNL     1      -7.285  -5.389   1.430  1.00  0.00    -0.550 OA
ENDBRANCH  21  22
ENDBRANCH  20  21
ENDBRANCH  19  20
ENDBRANCH  18  19
ENDBRANCH  17  18
ENDBRANCH  16  17
ENDBRANCH  15  16
ENDBRANCH  14  15
ENDBRANCH  13  14
ENDBRANCH   1  13
TORSDOF 20
ENDMDL
MODEL 5
REMARK VINA RESULT:    -4.235      5.082      7.404
REMARK INTER + INTRA:         -12.289
REMARK INTER:                  -9.314
REMARK INTRA:                  -2.974
REMARK UNBOUND:                -3.101
REMARK SMILES CCCCCCCCCCCCCCCCCCCCCC(=O)[O-]
REMARK SMILES IDX 12 1 11 2 10 3 9 4 8 5 7 6 6 7 5 8 4 9 3 10 2 11 1 12 13 13
REMARK SMILES IDX 14 14 15 15 16 16 17 17 18 18 19 19 20 20 21 21 22 22 23 23
REMARK SMILES IDX 24 24
REMARK H PARENT
REMARK Flexibility Score: inf
ROOT
ATOM      1  C   UNL     1      -3.026   4.123  -6.254  1.00  0.00     0.000 C 
ENDROOT
BRANCH   1   2
ATOM      2  C   UNL     1      -3.828   3.295  -7.277  1.00  0.00     0.000 C 
BRANCH   2   3
ATOM      3  C   UNL     1      -4.703   2.195  -6.645  1.00  0.00     0.000 C 
BRANCH   3   4
ATOM      4  C   UNL     1      -4.357   1.948  -5.168  1.00  0.00    -0.000 C 
BRANCH   4   5
ATOM      5  C   UNL     1      -3.809   0.528  -4.960  1.00  0.00    -0.000 C 
BRANCH   5   6
ATOM      6  C   UNL     1      -3.312  -0.122  -6.265  1.00  0.00    -0.000 C 
BRANCH   6   7
ATOM      7  C   UNL     1      -4.027  -1.429  -6.652  1.00  0.00    -0.000 C 
BRANCH   7   8
ATOM      8  C   UNL     1      -5.426  -1.553  -6.027  1.00  0.00    -0.000 C 
BRANCH   8   9
ATOM      9  C   UNL     1      -5.516  -2.785  -5.117  1.00  0.00    -0.000 C 
BRANCH   9  10
ATOM     10  C   UNL     1      -4.403  -3.791  -5.446  1.00  0.00    -0.000 C 
BRANCH  10  11
ATOM     11  C   UNL     1      -3.629  -4.245  -4.199  1.00  0.00    -0.003 C 
ATOM     12  C   UNL     1      -2.536  -3.258  -3.787  1.00  0.00     0.004 C 
ENDBRANCH  10  11
ENDBRANCH   9  10
ENDBRANCH   8   9
ENDBRANCH   7   8
ENDBRANCH   6   7
ENDBRANCH   5   6
ENDBRANCH   4   5
ENDBRANCH   3   4
ENDBRANCH   2   3
ENDBRANCH   1   2
BRANCH   1  13
ATOM     13  C   UNL     1      -1.499   4.089  -6.472  1.00  0.00     0.000 C 
BRANCH  13  14
ATOM     14  C   UNL     1      -0.936   2.655  -6.457  1.00  0.00     0.000 C 
BRANCH  14  15
ATOM     15  C   UNL     1      -0.077   2.346  -7.694  1.00  0.00     0.000 C 
BRANCH  15  16
ATOM     16  C   UNL     1      -0.777   1.383  -8.669  1.00  0.00     0.000 C 
BRANCH  16  17
ATOM     17  C   UNL     1      -1.140   2.043 -10.011  1.00  0.00     0.000 C 
BRANCH  17  18
ATOM     18  C   UNL     1      -1.142   3.583 -10.001  1.00  0.00     0.000 C 
BRANCH  18  19
ATOM     19  C   UNL     1      -2.301   4.189 -10.813  1.00  0.00     0.000 C 
BRANCH  19  20
ATOM     20  C   UNL     1      -2.865   3.203 -11.851  1.00  0.00     0.006 C 
BRANCH  20  21
ATOM     21  C   UNL     1      -3.816   3.881 -12.847  1.00  0.00     0.053 C 
BRANCH  21  22
ATOM     22  C   UNL     1      -3.174   5.097 -13.438  1.00  0.00     0.041 C 
ATOM     23  O   UNL     1      -2.165   4.981 -14.188  1.00  0.00    -0.550 OA
ATOM     24  O   UNL     1      -3.715   6.356 -13.198  1.00  0.00    -0.550 OA
ENDBRANCH  21  22
ENDBRANCH  20  21
ENDBRANCH  19  20
ENDBRANCH  18  19
ENDBRANCH  17  18
ENDBRANCH  16  17
ENDBRANCH  15  16
ENDBRANCH  14  15
ENDBRANCH  13  14
ENDBRANCH   1  13
TORSDOF 20
ENDMDL
MODEL 6
REMARK VINA RESULT:    -4.223      2.054      6.908
REMARK INTER + INTRA:         -12.261
REMARK INTER:                  -8.639
REMARK INTRA:                  -3.623
REMARK UNBOUND:                -3.101
REMARK SMILES CCCCCCCCCCCCCCCCCCCCCC(=O)[O-]
REMARK SMILES IDX 12 1 11 2 10 3 9 4 8 5 7 6 6 7 5 8 4 9 3 10 2 11 1 12 13 13
REMARK SMILES IDX 14 14 15 15 16 16 17 17 18 18 19 19 20 20 21 21 22 22 23 23
REMARK SMILES IDX 24 24
REMARK H PARENT
REMARK Flexibility Score: inf
ROOT
ATOM      1  C   UNL     1      -5.062  -1.160  -6.481  1.00  0.00     0.000 C 
ENDROOT
BRANCH   1   2
ATOM      2  C   UNL     1      -4.487   0.220  -6.105  1.00  0.00     0.000 C 
BRANCH   2   3
ATOM      3  C   UNL     1      -3.966   0.309  -4.656  1.00  0.00     0.000 C 
BRANCH   3   4
ATOM      4  C   UNL     1      -2.564   0.931  -4.575  1.00  0.00    -0.000 C 
BRANCH   4   5
ATOM      5  C   UNL     1      -1.490  -0.153  -4.402  1.00  0.00    -0.000 C 
BRANCH   5   6
ATOM      6  C   UNL     1      -0.827  -0.564  -5.730  1.00  0.00    -0.000 C 
BRANCH   6   7
ATOM      7  C   UNL     1      -0.443   0.607  -6.653  1.00  0.00    -0.000 C 
BRANCH   7   8
ATOM      8  C   UNL     1      -1.113   0.526  -8.033  1.00  0.00    -0.000 C 
BRANCH   8   9
ATOM      9  C   UNL     1      -1.246   1.918  -8.664  1.00  0.00    -0.000 C 
BRANCH   9  10
ATOM     10  C   UNL     1      -1.669   2.957  -7.615  1.00  0.00    -0.000 C 
BRANCH  10  11
ATOM     11  C   UNL     1      -3.129   3.406  -7.783  1.00  0.00    -0.003 C 
ATOM     12  C   UNL     1      -3.796   3.762  -6.455  1.00  0.00     0.004 C 
ENDBRANCH  10  11
ENDBRANCH   9  10
ENDBRANCH   8   9
ENDBRANCH   7   8
ENDBRANCH   6   7
ENDBRANCH   5   6
ENDBRANCH   4   5
ENDBRANCH   3   4
ENDBRANCH   2   3
ENDBRANCH   1   2
BRANCH   1  13
ATOM     13  C   UNL     1      -4.016  -2.293  -6.504  1.00  0.00     0.000 C 
BRANCH  13  14
ATOM     14  C   UNL     1      -4.463  -3.521  -5.687  1.00  0.00     0.000 C 
BRANCH  14  15
ATOM     15  C   UNL     1      -4.362  -3.288  -4.170  1.00  0.00     0.000 C 
BRANCH  15  16
ATOM     16  C   UNL     1      -2.968  -3.630  -3.616  1.00  0.00     0.000 C 
BRANCH  16  17
ATOM     17  C   UNL     1      -2.775  -3.184  -2.155  1.00  0.00     0.000 C 
BRANCH  17  18
ATOM     18  C   UNL     1      -3.506  -1.885  -1.768  1.00  0.00     0.000 C 
BRANCH  18  19
ATOM     19  C   UNL     1      -4.057  -1.910  -0.331  1.00  0.00     0.000 C 
BRANCH  19  20
ATOM     20  C   UNL     1      -4.149  -3.338   0.235  1.00  0.00     0.006 C 
BRANCH  20  21
ATOM     21  C   UNL     1      -5.582  -3.723   0.626  1.00  0.00     0.053 C 
BRANCH  21  22
ATOM     22  C   UNL     1      -6.421  -3.928  -0.596  1.00  0.00     0.041 C 
ATOM     23  O   UNL     1      -7.456  -3.229  -0.781  1.00  0.00    -0.550 OA
ATOM     24  O   UNL     1      -6.038  -4.862  -1.554  1.00  0.00    -0.550 OA
ENDBRANCH  21  22
ENDBRANCH  20  21
ENDBRANCH  19  20
ENDBRANCH  18  19
ENDBRANCH  17  18
ENDBRANCH  16  17
ENDBRANCH  15  16
ENDBRANCH  14  15
ENDBRANCH  13  14
ENDBRANCH   1  13
TORSDOF 20
ENDMDL
MODEL 7
REMARK VINA RESULT:    -4.212      2.897      8.179
REMARK INTER + INTRA:         -12.237
REMARK INTER:                  -9.717
REMARK INTRA:                  -2.520
REMARK UNBOUND:                -3.101
REMARK SMILES CCCCCCCCCCCCCCCCCCCCCC(=O)[O-]
REMARK SMILES IDX 12 1 11 2 10 3 9 4 8 5 7 6 6 7 5 8 4 9 3 10 2 11 1 12 13 13
REMARK SMILES IDX 14 14 15 15 16 16 17 17 18 18 19 19 20 20 21 21 22 22 23 23
REMARK SMILES IDX 24 24
REMARK H PARENT
REMARK Flexibility Score: inf
ROOT
ATOM      1  C   UNL     1      -4.715   1.866  -6.037  1.00  0.00     0.000 C 
ENDROOT
BRANCH   1   2
ATOM      2  C   UNL     1      -4.072   3.232  -6.344  1.00  0.00     0.000 C 
BRANCH   2   3
ATOM      3  C   UNL     1      -3.126   3.220  -7.561  1.00  0.00     0.000 C 
BRANCH   3   4
ATOM      4  C   UNL     1      -1.650   3.366  -7.157  1.00  0.00    -0.000 C 
BRANCH   4   5
ATOM      5  C   UNL     1      -0.892   2.045  -7.357  1.00  0.00    -0.000 C 
BRANCH   5   6
ATOM      6  C   UNL     1      -0.948   1.532  -8.809  1.00  0.00    -0.000 C 
BRANCH   6   7
ATOM      7  C   UNL     1       0.085   2.163  -9.760  1.00  0.00    -0.000 C 
BRANCH   7   8
ATOM      8  C   UNL     1      -0.534   3.197 -10.714  1.00  0.00    -0.000 C 
BRANCH   8   9
ATOM      9  C   UNL     1      -1.722   2.600 -11.479  1.00  0.00    -0.000 C 
BRANCH   9  10
ATOM     10  C   UNL     1      -2.853   3.630 -11.622  1.00  0.00    -0.000 C 
BRANCH  10  11
ATOM     11  C   UNL     1      -3.790   3.318 -12.800  1.00  0.00    -0.003 C 
ATOM     12  C   UNL     1      -4.087   4.545 -13.662  1.00  0.00     0.004 C 
ENDBRANCH  10  11
ENDBRANCH   9  10
ENDBRANCH   8   9
ENDBRANCH   7   8
ENDBRANCH   6   7
ENDBRANCH   5   6
ENDBRANCH   4   5
ENDBRANCH   3   4
ENDBRANCH   2   3
ENDBRANCH   1   2
BRANCH   1  13
ATOM     13  C   UNL     1      -3.809   0.907  -5.238  1.00  0.00     0.000 C 
BRANCH  13  14
ATOM     14  C   UNL     1      -3.343  -0.297  -6.077  1.00  0.00     0.000 C 
BRANCH  14  15
ATOM     15  C   UNL     1      -4.514  -1.180  -6.542  1.00  0.00     0.000 C 
BRANCH  15  16
ATOM     16  C   UNL     1      -4.303  -2.664  -6.195  1.00  0.00     0.000 C 
BRANCH  16  17
ATOM     17  C   UNL     1      -5.232  -3.158  -5.071  1.00  0.00     0.000 C 
BRANCH  17  18
ATOM     18  C   UNL     1      -4.532  -3.923  -3.934  1.00  0.00     0.000 C 
BRANCH  18  19
ATOM     19  C   UNL     1      -3.027  -3.616  -3.839  1.00  0.00     0.000 C 
BRANCH  19  20
ATOM     20  C   UNL     1      -2.655  -2.922  -2.516  1.00  0.00     0.006 C 
BRANCH  20  21
ATOM     21  C   UNL     1      -3.262  -1.518  -2.400  1.00  0.00     0.053 C 
BRANCH  21  22
ATOM     22  C   UNL     1      -2.183  -0.494  -2.227  1.00  0.00     0.041 C 
ATOM     23  O   UNL     1      -1.290  -0.359  -3.108  1.00  0.00    -0.550 OA
ATOM     24  O   UNL     1      -2.188   0.341  -1.114  1.00  0.00    -0.550 OA
ENDBRANCH  21  22
ENDBRANCH  20  21
ENDBRANCH  19  20
ENDBRANCH  18  19
ENDBRANCH  17  18
ENDBRANCH  16  17
ENDBRANCH  15  16
ENDBRANCH  14  15
ENDBRANCH  13  14
ENDBRANCH   1  13
TORSDOF 20
ENDMDL
MODEL 8
REMARK VINA RESULT:    -4.163      7.537     12.411
REMARK INTER + INTRA:         -12.132
REMARK INTER:                  -8.996
REMARK INTRA:                  -3.136
REMARK UNBOUND:                -3.101
REMARK SMILES CCCCCCCCCCCCCCCCCCCCCC(=O)[O-]
REMARK SMILES IDX 12 1 11 2 10 3 9 4 8 5 7 6 6 7 5 8 4 9 3 10 2 11 1 12 13 13
REMARK SMILES IDX 14 14 15 15 16 16 17 17 18 18 19 19 20 20 21 21 22 22 23 23
REMARK SMILES IDX 24 24
REMARK H PARENT
REMARK Flexibility Score: inf
ROOT
ATOM      1  C   UNL     1      -3.662   6.165 -12.248  1.00  0.00     0.000 C 
ENDROOT
BRANCH   1   2
ATOM      2  C   UNL     1      -3.269   7.635 -12.494  1.00  0.00     0.000 C 
BRANCH   2   3
ATOM      3  C   UNL     1      -1.749   7.891 -12.463  1.00  0.00     0.000 C 
BRANCH   3   4
ATOM      4  C   UNL     1      -0.935   6.598 -12.633  1.00  0.00    -0.000 C 
BRANCH   4   5
ATOM      5  C   UNL     1      -0.377   6.483 -14.060  1.00  0.00    -0.000 C 
BRANCH   5   6
ATOM      6  C   UNL     1      -0.965   5.295 -14.843  1.00  0.00    -0.000 C 
BRANCH   6   7
ATOM      7  C   UNL     1      -1.651   5.668 -16.170  1.00  0.00    -0.000 C 
BRANCH   7   8
ATOM      8  C   UNL     1      -2.462   6.970 -16.078  1.00  0.00    -0.000 C 
BRANCH   8   9
ATOM      9  C   UNL     1      -3.437   7.096 -17.257  1.00  0.00    -0.000 C 
BRANCH   9  10
ATOM     10  C   UNL     1      -3.921   5.713 -17.718  1.00  0.00    -0.000 C 
BRANCH  10  11
ATOM     11  C   UNL     1      -5.240   5.296 -17.050  1.00  0.00    -0.003 C 
ATOM     12  C   UNL     1      -5.964   4.184 -17.809  1.00  0.00     0.004 C 
ENDBRANCH  10  11
ENDBRANCH   9  10
ENDBRANCH   8   9
ENDBRANCH   7   8
ENDBRANCH   6   7
ENDBRANCH   5   6
ENDBRANCH   4   5
ENDBRANCH   3   4
ENDBRANCH   2   3
ENDBRANCH   1   2
BRANCH   1  13
ATOM     13  C   UNL     1      -4.323   5.477 -13.461  1.00  0.00     0.000 C 
BRANCH  13  14
ATOM     14  C   UNL     1      -4.058   3.960 -13.492  1.00  0.00     0.000 C 
BRANCH  14  15
ATOM     15  C   UNL     1      -3.591   3.415 -12.132  1.00  0.00     0.000 C 
BRANCH  15  16
ATOM     16  C   UNL     1      -2.233   2.697 -12.223  1.00  0.00     0.000 C 
BRANCH  16  17
ATOM     17  C   UNL     1      -1.441   2.739 -10.903  1.00  0.00     0.000 C 
BRANCH  17  18
ATOM     18  C   UNL     1      -1.865   3.847  -9.923  1.00  0.00     0.000 C 
BRANCH  18  19
ATOM     19  C   UNL     1      -2.036   3.341  -8.480  1.00  0.00     0.000 C 
BRANCH  19  20
ATOM     20  C   UNL     1      -3.469   3.542  -7.956  1.00  0.00     0.006 C 
BRANCH  20  21
ATOM     21  C   UNL     1      -3.610   3.169  -6.474  1.00  0.00     0.053 C 
BRANCH  21  22
ATOM     22  C   UNL     1      -4.066   1.750  -6.333  1.00  0.00     0.041 C 
ATOM     23  O   UNL     1      -5.267   1.496  -6.037  1.00  0.00    -0.550 OA
ATOM     24  O   UNL     1      -3.177   0.706  -6.571  1.00  0.00    -0.550 OA
ENDBRANCH  21  22
ENDBRANCH  20  21
ENDBRANCH  19  20
ENDBRANCH  18  19
ENDBRANCH  17  18
ENDBRANCH  16  17
ENDBRANCH  15  16
ENDBRANCH  14  15
ENDBRANCH  13  14
ENDBRANCH   1  13
TORSDOF 20
ENDMDL
MODEL 9
REMARK VINA RESULT:    -4.137      2.531      7.111
REMARK INTER + INTRA:         -12.075
REMARK INTER:                  -8.958
REMARK INTRA:                  -3.118
REMARK UNBOUND:                -3.101
REMARK SMILES CCCCCCCCCCCCCCCCCCCCCC(=O)[O-]
REMARK SMILES IDX 12 1 11 2 10 3 9 4 8 5 7 6 6 7 5 8 4 9 3 10 2 11 1 12 13 13
REMARK SMILES IDX 14 14 15 15 16 16 17 17 18 18 19 19 20 20 21 21 22 22 23 23
REMARK SMILES IDX 24 24
REMARK H PARENT
REMARK Flexibility Score: inf
ROOT
ATOM      1  C   UNL     1      -2.182  -2.093  -3.326  1.00  0.00     0.000 C 
ENDROOT
BRANCH   1   2
ATOM      2  C   UNL     1      -2.844  -3.405  -3.794  1.00  0.00     0.000 C 
BRANCH   2   3
ATOM      3  C   UNL     1      -4.374  -3.434  -3.612  1.00  0.00     0.000 C 
BRANCH   3   4
ATOM      4  C   UNL     1      -5.121  -3.562  -4.950  1.00  0.00    -0.000 C 
BRANCH   4   5
ATOM      5  C   UNL     1      -4.356  -2.851  -6.076  1.00  0.00    -0.000 C 
BRANCH   5   6
ATOM      6  C   UNL     1      -5.004  -1.519  -6.496  1.00  0.00    -0.000 C 
BRANCH   6   7
ATOM      7  C   UNL     1      -4.087  -0.287  -6.383  1.00  0.00    -0.000 C 
BRANCH   7   8
ATOM      8  C   UNL     1      -4.732   0.868  -5.601  1.00  0.00    -0.000 C 
BRANCH   8   9
ATOM      9  C   UNL     1      -3.795   2.081  -5.536  1.00  0.00    -0.000 C 
BRANCH   9  10
ATOM     10  C   UNL     1      -2.325   1.636  -5.506  1.00  0.00    -0.000 C 
BRANCH  10  11
ATOM     11  C   UNL     1      -1.379   2.680  -6.119  1.00  0.00    -0.003 C 
ATOM     12  C   UNL     1      -1.499   2.769  -7.640  1.00  0.00     0.004 C 
ENDBRANCH  10  11
ENDBRANCH   9  10
ENDBRANCH   8   9
ENDBRANCH   7   8
ENDBRANCH   6   7
ENDBRANCH   5   6
ENDBRANCH   4   5
ENDBRANCH   3   4
ENDBRANCH   2   3
ENDBRANCH   1   2
BRANCH   1  13
ATOM     13  C   UNL     1      -3.180  -1.020  -2.845  1.00  0.00     0.000 C 
BRANCH  13  14
ATOM     14  C   UNL     1      -2.868  -0.524  -1.420  1.00  0.00     0.000 C 
BRANCH  14  15
ATOM     15  C   UNL     1      -1.951  -1.488  -0.649  1.00  0.00     0.000 C 
BRANCH  15  16
ATOM     16  C   UNL     1      -2.709  -2.279   0.432  1.00  0.00     0.000 C 
BRANCH  16  17
ATOM     17  C   UNL     1      -3.169  -3.667  -0.050  1.00  0.00     0.000 C 
BRANCH  17  18
ATOM     18  C   UNL     1      -4.672  -3.952   0.123  1.00  0.00     0.000 C 
BRANCH  18  19
ATOM     19  C   UNL     1      -5.554  -2.723  -0.157  1.00  0.00     0.000 C 
BRANCH  19  20
ATOM     20  C   UNL     1      -7.035  -2.979   0.174  1.00  0.00     0.006 C 
BRANCH  20  21
ATOM     21  C   UNL     1      -7.217  -4.057   1.252  1.00  0.00     0.053 C 
BRANCH  21  22
ATOM     22  C   UNL     1      -8.258  -5.047   0.831  1.00  0.00     0.041 C 
ATOM     23  O   UNL     1      -9.419  -4.995   1.323  1.00  0.00    -0.550 OA
ATOM     24  O   UNL     1      -7.960  -6.001  -0.138  1.00  0.00    -0.550 OA
ENDBRANCH  21  22
ENDBRANCH  20  21
ENDBRANCH  19  20
ENDBRANCH  18  19
ENDBRANCH  17  18
ENDBRANCH  16  17
ENDBRANCH  15  16
ENDBRANCH  14  15
ENDBRANCH  13  14
ENDBRANCH   1  13
TORSDOF 20
ENDMDL
