MODEL 1
REMARK VINA RESULT:    -4.460      0.000      0.000
REMARK INTER + INTRA:          -6.988
REMARK INTER:                  -6.285
REMARK INTRA:                  -0.703
REMARK UNBOUND:                -0.703
REMARK SMILES CCCCCCCCC(=O)[O-]
REMARK SMILES IDX 6 1 7 2 8 3 9 4 10 5 11 6 5 7 4 8 3 9 2 10 1 11
REMARK H PARENT
REMARK Flexibility Score: inf
ROOT
ATOM      1  C   UNL     1      12.202 -24.004  20.661  1.00  0.00     0.000 C 
ENDROOT
BRANCH   1   2
ATOM      2  C   UNL     1      13.176 -22.848  20.384  1.00  0.00     0.006 C 
BRANCH   2   3
ATOM      3  C   UNL     1      14.564 -23.346  19.965  1.00  0.00     0.053 C 
BRANCH   3   4
ATOM      4  C   UNL     1      15.000 -24.527  20.778  1.00  0.00     0.041 C 
ATOM      5  O   UNL     1      15.111 -25.660  20.240  1.00  0.00    -0.550 OA
ATOM      6  O   UNL     1      15.317 -24.369  22.121  1.00  0.00    -0.550 OA
ENDBRANCH   3   4
ENDBRANCH   2   3
ENDBRANCH   1   2
BRANCH   1   7
ATOM      7  C   UNL     1      11.610 -23.897  22.071  1.00  0.00     0.000 C 
BRANCH   7   8
ATOM      8  C   UNL     1      12.102 -22.630  22.781  1.00  0.00    -0.000 C 
BRANCH   8   9
ATOM      9  C   UNL     1      12.354 -22.895  24.270  1.00  0.00    -0.000 C 
BRANCH   9  10
ATOM     10  C   UNL     1      13.796 -22.540  24.655  1.00  0.00    -0.003 C 
ATOM     11  C   UNL     1      14.322 -21.383  23.813  1.00  0.00     0.004 C 
ENDBRANCH   9  10
ENDBRANCH   8   9
ENDBRANCH   7   8
ENDBRANCH   1   7
TORSDOF 7
ENDMDL
MODEL 2
REMARK VINA RESULT:    -4.444      1.789      3.322
REMARK INTER + INTRA:          -6.965
REMARK INTER:                  -6.471
REMARK INTRA:                  -0.494
REMARK UNBOUND:                -0.703
REMARK SMILES CCCCCCCCC(=O)[O-]
REMARK SMILES IDX 6 1 7 2 8 3 9 4 10 5 11 6 5 7 4 8 3 9 2 10 1 11
REMARK H PARENT
REMARK Flexibility Score: inf
ROOT
ATOM      1  C   UNL     1      12.469 -22.651  21.906  1.00  0.00     0.000 C 
ENDROOT
BRANCH   1   2
ATOM      2  C   UNL     1      12.741 -23.026  20.441  1.00  0.00     0.006 C 
BRANCH   2   3
ATOM      3  C   UNL     1      14.240 -23.076  20.123  1.00  0.00     0.053 C 
BRANCH   3   4
ATOM      4  C   UNL     1      14.984 -23.951  21.084  1.00  0.00     0.041 C 
ATOM      5  O   UNL     1      15.777 -23.443  21.921  1.00  0.00    -0.550 OA
ATOM      6  O   UNL     1      14.778 -25.324  21.079  1.00  0.00    -0.550 OA
ENDBRANCH   3   4
ENDBRANCH   2   3
ENDBRANCH   1   2
BRANCH   1   7
ATOM      7  C   UNL     1      11.570 -23.692  22.582  1.00  0.00     0.000 C 
BRANCH   7   8
ATOM      8  C   UNL     1      10.981 -24.664  21.552  1.00  0.00    -0.000 C 
BRANCH   8   9
ATOM      9  C   UNL     1       9.736 -25.366  22.106  1.00  0.00    -0.000 C 
BRANCH   9  10
ATOM     10  C   UNL     1       9.026 -24.489  23.145  1.00  0.00    -0.003 C 
ATOM     11  C   UNL     1       7.654 -24.047  22.647  1.00  0.00     0.004 C 
ENDBRANCH   9  10
ENDBRANCH   8   9
ENDBRANCH   7   8
ENDBRANCH   1   7
TORSDOF 7
ENDMDL
MODEL 3
REMARK VINA RESULT:    -4.413      3.137      4.237
REMARK INTER + INTRA:          -6.922
REMARK INTER:                  -6.309
REMARK INTRA:                  -0.613
REMARK UNBOUND:                -0.703
REMARK SMILES CCCCCCCCC(=O)[O-]
REMARK SMILES IDX 6 1 7 2 8 3 9 4 10 5 11 6 5 7 4 8 3 9 2 10 1 11
REMARK H PARENT
REMARK Flexibility Score: inf
ROOT
ATOM      1  C   UNL     1      12.356 -24.729  20.699  1.00  0.00     0.000 C 
ENDROOT
BRANCH   1   2
ATOM      2  C   UNL     1      10.963 -24.914  21.321  1.00  0.00     0.006 C 
BRANCH   2   3
ATOM      3  C   UNL     1      10.790 -24.101  22.610  1.00  0.00     0.053 C 
BRANCH   3   4
ATOM      4  C   UNL     1       9.451 -24.334  23.240  1.00  0.00     0.041 C 
ATOM      5  O   UNL     1       8.412 -24.368  22.528  1.00  0.00    -0.550 OA
ATOM      6  O   UNL     1       9.354 -24.549  24.609  1.00  0.00    -0.550 OA
ENDBRANCH   3   4
ENDBRANCH   2   3
ENDBRANCH   1   2
BRANCH   1   7
ATOM      7  C   UNL     1      12.621 -23.254  20.374  1.00  0.00     0.000 C 
BRANCH   7   8
ATOM      8  C   UNL     1      14.124 -22.979  20.251  1.00  0.00    -0.000 C 
BRANCH   8   9
ATOM      9  C   UNL     1      14.811 -23.046  21.620  1.00  0.00    -0.000 C 
BRANCH   9  10
ATOM     10  C   UNL     1      14.081 -22.172  22.646  1.00  0.00    -0.003 C 
ATOM     11  C   UNL     1      13.986 -22.871  23.998  1.00  0.00     0.004 C 
ENDBRANCH   9  10
ENDBRANCH   8   9
ENDBRANCH   7   8
ENDBRANCH   1   7
TORSDOF 7
ENDMDL
MODEL 4
REMARK VINA RESULT:    -4.395      3.717      5.485
REMARK INTER + INTRA:          -6.897
REMARK INTER:                  -6.586
REMARK INTRA:                  -0.311
REMARK UNBOUND:                -0.703
REMARK SMILES CCCCCCCCC(=O)[O-]
REMARK SMILES IDX 6 1 7 2 8 3 9 4 10 5 11 6 5 7 4 8 3 9 2 10 1 11
REMARK H PARENT
REMARK Flexibility Score: inf
ROOT
ATOM      1  C   UNL     1      11.135 -24.863  21.096  1.00  0.00     0.000 C 
ENDROOT
BRANCH   1   2
ATOM      2  C   UNL     1      10.192 -25.216  22.256  1.00  0.00     0.006 C 
BRANCH   2   3
ATOM      3  C   UNL     1       8.724 -24.926  21.919  1.00  0.00     0.053 C 
BRANCH   3   4
ATOM      4  C   UNL     1       8.101 -23.987  22.905  1.00  0.00     0.041 C 
ATOM      5  O   UNL     1       8.733 -23.643  23.939  1.00  0.00    -0.550 OA
ATOM      6  O   UNL     1       6.837 -23.463  22.665  1.00  0.00    -0.550 OA
ENDBRANCH   3   4
ENDBRANCH   2   3
ENDBRANCH   1   2
BRANCH   1   7
ATOM      7  C   UNL     1      12.071 -23.711  21.480  1.00  0.00     0.000 C 
BRANCH   7   8
ATOM      8  C   UNL     1      12.742 -23.109  20.239  1.00  0.00    -0.000 C 
BRANCH   8   9
ATOM      9  C   UNL     1      14.244 -22.904  20.470  1.00  0.00    -0.000 C 
BRANCH   9  10
ATOM     10  C   UNL     1      15.071 -23.768  19.510  1.00  0.00    -0.003 C 
ATOM     11  C   UNL     1      14.907 -25.251  19.824  1.00  0.00     0.004 C 
ENDBRANCH   9  10
ENDBRANCH   8   9
ENDBRANCH   7   8
ENDBRANCH   1   7
TORSDOF 7
ENDMDL
MODEL 5
REMARK VINA RESULT:    -4.356      2.168      4.419
REMARK INTER + INTRA:          -6.842
REMARK INTER:                  -6.423
REMARK INTRA:                  -0.419
REMARK UNBOUND:                -0.703
REMARK SMILES CCCCCCCCC(=O)[O-]
REMARK SMILES IDX 6 1 7 2 8 3 9 4 10 5 11 6 5 7 4 8 3 9 2 10 1 11
REMARK H PARENT
REMARK Flexibility Score: inf
ROOT
ATOM      1  C   UNL     1      11.918 -23.715  22.218  1.00  0.00     0.000 C 
ENDROOT
BRANCH   1   2
ATOM      2  C   UNL     1      12.347 -22.296  22.622  1.00  0.00     0.006 C 
BRANCH   2   3
ATOM      3  C   UNL     1      12.039 -21.994  24.094  1.00  0.00     0.053 C 
BRANCH   3   4
ATOM      4  C   UNL     1      12.949 -22.743  25.018  1.00  0.00     0.041 C 
ATOM      5  O   UNL     1      14.199 -22.624  24.911  1.00  0.00    -0.550 OA
ATOM      6  O   UNL     1      12.418 -23.546  26.019  1.00  0.00    -0.550 OA
ENDBRANCH   3   4
ENDBRANCH   2   3
ENDBRANCH   1   2
BRANCH   1   7
ATOM      7  C   UNL     1      12.297 -24.010  20.762  1.00  0.00     0.000 C 
BRANCH   7   8
ATOM      8  C   UNL     1      13.158 -22.884  20.177  1.00  0.00    -0.000 C 
BRANCH   8   9
ATOM      9  C   UNL     1      14.603 -23.348  19.965  1.00  0.00    -0.000 C 
BRANCH   9  10
ATOM     10  C   UNL     1      14.766 -24.827  20.337  1.00  0.00    -0.003 C 
ATOM     11  C   UNL     1      15.323 -25.631  19.166  1.00  0.00     0.004 C 
ENDBRANCH   9  10
ENDBRANCH   8   9
ENDBRANCH   7   8
ENDBRANCH   1   7
TORSDOF 7
ENDMDL
MODEL 6
REMARK VINA RESULT:    -4.337      2.006      3.992
REMARK INTER + INTRA:          -6.815
REMARK INTER:                  -6.119
REMARK INTRA:                  -0.695
REMARK UNBOUND:                -0.703
REMARK SMILES CCCCCCCCC(=O)[O-]
REMARK SMILES IDX 6 1 7 2 8 3 9 4 10 5 11 6 5 7 4 8 3 9 2 10 1 11
REMARK H PARENT
REMARK Flexibility Score: inf
ROOT
ATOM      1  C   UNL     1      12.302 -23.932  20.636  1.00  0.00     0.000 C 
ENDROOT
BRANCH   1   2
ATOM      2  C   UNL     1      12.075 -23.712  22.140  1.00  0.00     0.006 C 
BRANCH   2   3
ATOM      3  C   UNL     1      12.414 -22.281  22.575  1.00  0.00     0.053 C 
BRANCH   3   4
ATOM      4  C   UNL     1      13.371 -22.262  23.727  1.00  0.00     0.041 C 
ATOM      5  O   UNL     1      14.087 -21.247  23.939  1.00  0.00    -0.550 OA
ATOM      6  O   UNL     1      13.448 -23.350  24.586  1.00  0.00    -0.550 OA
ENDBRANCH   3   4
ENDBRANCH   2   3
ENDBRANCH   1   2
BRANCH   1   7
ATOM      7  C   UNL     1      13.361 -22.966  20.093  1.00  0.00     0.000 C 
BRANCH   7   8
ATOM      8  C   UNL     1      14.739 -23.636  20.034  1.00  0.00    -0.000 C 
BRANCH   8   9
ATOM      9  C   UNL     1      14.608 -25.156  19.890  1.00  0.00    -0.000 C 
BRANCH   9  10
ATOM     10  C   UNL     1      15.334 -25.881  21.029  1.00  0.00    -0.003 C 
ATOM     11  C   UNL     1      15.653 -24.926  22.175  1.00  0.00     0.004 C 
ENDBRANCH   9  10
ENDBRANCH   8   9
ENDBRANCH   7   8
ENDBRANCH   1   7
TORSDOF 7
ENDMDL
MODEL 7
REMARK VINA RESULT:    -4.312      3.697      5.263
REMARK INTER + INTRA:          -6.779
REMARK INTER:                  -6.516
REMARK INTRA:                  -0.264
REMARK UNBOUND:                -0.703
REMARK SMILES CCCCCCCCC(=O)[O-]
REMARK SMILES IDX 6 1 7 2 8 3 9 4 10 5 11 6 5 7 4 8 3 9 2 10 1 11
REMARK H PARENT
REMARK Flexibility Score: inf
ROOT
ATOM      1  C   UNL     1      10.353 -24.928  21.844  1.00  0.00     0.000 C 
ENDROOT
BRANCH   1   2
ATOM      2  C   UNL     1      10.436 -24.112  23.144  1.00  0.00     0.006 C 
BRANCH   2   3
ATOM      3  C   UNL     1       9.326 -24.485  24.135  1.00  0.00     0.053 C 
BRANCH   3   4
ATOM      4  C   UNL     1       9.722 -24.194  25.550  1.00  0.00     0.041 C 
ATOM      5  O   UNL     1      10.017 -23.019  25.897  1.00  0.00    -0.550 OA
ATOM      6  O   UNL     1       9.732 -25.213  26.493  1.00  0.00    -0.550 OA
ENDBRANCH   3   4
ENDBRANCH   2   3
ENDBRANCH   1   2
BRANCH   1   7
ATOM      7  C   UNL     1      11.605 -24.720  20.985  1.00  0.00     0.000 C 
BRANCH   7   8
ATOM      8  C   UNL     1      12.295 -23.394  21.327  1.00  0.00    -0.000 C 
BRANCH   8   9
ATOM      9  C   UNL     1      13.073 -22.851  20.123  1.00  0.00    -0.000 C 
BRANCH   9  10
ATOM     10  C   UNL     1      14.578 -23.100  20.283  1.00  0.00    -0.003 C 
ATOM     11  C   UNL     1      14.990 -24.418  19.635  1.00  0.00     0.004 C 
ENDBRANCH   9  10
ENDBRANCH   8   9
ENDBRANCH   7   8
ENDBRANCH   1   7
TORSDOF 7
ENDMDL
MODEL 8
REMARK VINA RESULT:    -4.201      2.717      4.876
REMARK INTER + INTRA:          -6.623
REMARK INTER:                  -5.936
REMARK INTRA:                  -0.688
REMARK UNBOUND:                -0.703
REMARK SMILES CCCCCCCCC(=O)[O-]
REMARK SMILES IDX 6 1 7 2 8 3 9 4 10 5 11 6 5 7 4 8 3 9 2 10 1 11
REMARK H PARENT
REMARK Flexibility Score: inf
ROOT
ATOM      1  C   UNL     1      14.018 -22.272  24.342  1.00  0.00     0.000 C 
ENDROOT
BRANCH   1   2
ATOM      2  C   UNL     1      12.870 -23.292  24.407  1.00  0.00     0.006 C 
BRANCH   2   3
ATOM      3  C   UNL     1      11.517 -22.665  24.048  1.00  0.00     0.053 C 
BRANCH   3   4
ATOM      4  C   UNL     1      10.400 -23.659  24.145  1.00  0.00     0.041 C 
ATOM      5  O   UNL     1       9.991 -24.046  25.272  1.00  0.00    -0.550 OA
ATOM      6  O   UNL     1       9.788 -24.133  22.991  1.00  0.00    -0.550 OA
ENDBRANCH   3   4
ENDBRANCH   2   3
ENDBRANCH   1   2
BRANCH   1   7
ATOM      7  C   UNL     1      14.342 -21.900  22.891  1.00  0.00     0.000 C 
BRANCH   7   8
ATOM      8  C   UNL     1      14.801 -23.128  22.096  1.00  0.00    -0.000 C 
BRANCH   8   9
ATOM      9  C   UNL     1      14.543 -22.943  20.597  1.00  0.00    -0.000 C 
BRANCH   9  10
ATOM     10  C   UNL     1      13.039 -22.915  20.297  1.00  0.00    -0.003 C 
ATOM     11  C   UNL     1      12.381 -24.243  20.658  1.00  0.00     0.004 C 
ENDBRANCH   9  10
ENDBRANCH   8   9
ENDBRANCH   7   8
ENDBRANCH   1   7
TORSDOF 7
ENDMDL
MODEL 9
REMARK VINA RESULT:    -4.176      2.198      3.056
REMARK INTER + INTRA:          -6.588
REMARK INTER:                  -6.240
REMARK INTRA:                  -0.348
REMARK UNBOUND:                -0.703
REMARK SMILES CCCCCCCCC(=O)[O-]
REMARK SMILES IDX 6 1 7 2 8 3 9 4 10 5 11 6 5 7 4 8 3 9 2 10 1 11
REMARK H PARENT
REMARK Flexibility Score: inf
ROOT
ATOM      1  C   UNL     1      11.392 -23.903  22.331  1.00  0.00     0.000 C 
ENDROOT
BRANCH   1   2
ATOM      2  C   UNL     1      12.076 -24.245  20.998  1.00  0.00     0.006 C 
BRANCH   2   3
ATOM      3  C   UNL     1      12.739 -23.021  20.355  1.00  0.00     0.053 C 
BRANCH   3   4
ATOM      4  C   UNL     1      14.221 -23.014  20.570  1.00  0.00     0.041 C 
ATOM      5  O   UNL     1      14.998 -23.369  19.644  1.00  0.00    -0.550 OA
ATOM      6  O   UNL     1      14.747 -22.583  21.782  1.00  0.00    -0.550 OA
ENDBRANCH   3   4
ENDBRANCH   2   3
ENDBRANCH   1   2
BRANCH   1   7
ATOM      7  C   UNL     1      10.041 -24.617  22.455  1.00  0.00     0.000 C 
BRANCH   7   8
ATOM      8  C   UNL     1       9.409 -24.366  23.829  1.00  0.00    -0.000 C 
BRANCH   8   9
ATOM      9  C   UNL     1      10.299 -23.462  24.689  1.00  0.00    -0.000 C 
BRANCH   9  10
ATOM     10  C   UNL     1      10.070 -23.723  26.182  1.00  0.00    -0.003 C 
ATOM     11  C   UNL     1       9.632 -25.163  26.429  1.00  0.00     0.004 C 
ENDBRANCH   9  10
ENDBRANCH   8   9
ENDBRANCH   7   8
ENDBRANCH   1   7
TORSDOF 7
ENDMDL
