MODEL 1
REMARK VINA RESULT:    53.434      0.000      0.000
REMARK INTER + INTRA:          71.494
REMARK INTER:                  72.176
REMARK INTRA:                  -0.682
REMARK UNBOUND:                -0.682
REMARK SMILES CC[C@H](CC[C@@H](C)[C@@H]1CC[C@H]2[C@@H]3CC(=O)C4=CC(=O)CC[C@]4(C)[C@@H]3CC[C@]21C)C(C)C
REMARK SMILES IDX 4 1 3 2 2 3 1 4 29 5 30 6 31 7 5 8 6 9 7 10 8 11 9 12 27 13
REMARK SMILES IDX 10 14 11 15 26 16 28 17 12 18 25 19 24 20 13 21 22 22 14 23
REMARK SMILES IDX 16 24 21 25 23 26 15 27 17 28 20 29 18 30 19 31
REMARK H PARENT
REMARK Flexibility Score: inf
ROOT
ATOM      1  C   UNL     1      34.971  14.388  42.062  1.00  0.00     0.004 C 
ENDROOT
BRANCH   1   2
ATOM      2  C   UNL     1      35.166  14.772  43.570  1.00  0.00    -0.009 C 
BRANCH   2   3
ATOM      3  C   UNL     1      36.602  14.401  44.058  1.00  0.00     0.000 C 
ATOM      4  C   UNL     1      36.722  14.082  45.548  1.00  0.00     0.004 C 
ENDBRANCH   2   3
BRANCH   2   5
ATOM      5  C   UNL     1      34.880  16.304  43.803  1.00  0.00    -0.014 C 
ATOM      6  C   UNL     1      36.127  17.174  43.553  1.00  0.00     0.007 C 
ATOM      7  C   UNL     1      33.740  16.852  42.918  1.00  0.00     0.007 C 
ENDBRANCH   2   5
ENDBRANCH   1   2
BRANCH   1   8
ATOM      8  C   UNL     1      35.641  13.052  41.645  1.00  0.00     0.004 C 
BRANCH   8   9
ATOM      9  C   UNL     1      34.777  11.754  41.659  1.00  0.00    -0.011 C 
ATOM     10  C   UNL     1      34.198  11.445  43.049  1.00  0.00     0.008 C 
BRANCH   9  11
ATOM     11  C   UNL     1      33.770  11.632  40.439  1.00  0.00    -0.002 C 
ATOM     12  C   UNL     1      32.553  12.570  40.536  1.00  0.00     0.005 C 
ATOM     13  C   UNL     1      33.130  10.218  40.159  1.00  0.00    -0.026 C 
ATOM     14  C   UNL     1      31.362  11.734  40.987  1.00  0.00     0.005 C 
ATOM     15  C   UNL     1      31.793  10.258  40.954  1.00  0.00    -0.001 C 
ATOM     16  C   UNL     1      32.862  10.091  38.627  1.00  0.00     0.007 C 
ATOM     17  C   UNL     1      34.046   9.040  40.586  1.00  0.00     0.012 C 
ATOM     18  C   UNL     1      30.641   9.323  40.471  1.00  0.00     0.004 C 
ATOM     19  C   UNL     1      31.822   9.028  38.248  1.00  0.00     0.005 C 
ATOM     20  C   UNL     1      30.462   9.319  38.923  1.00  0.00     0.003 C 
ATOM     21  C   UNL     1      30.792   7.902  41.048  1.00  0.00     0.085 C 
ATOM     22  C   UNL     1      29.251   8.407  38.452  1.00  0.00    -0.000 C 
ATOM     23  C   UNL     1      29.707   6.992  40.582  1.00  0.00     0.159 C 
ATOM     24  C   UNL     1      29.217   7.066  39.189  1.00  0.00     0.005 C 
ATOM     25  C   UNL     1      29.307   8.139  36.913  1.00  0.00     0.020 C 
ATOM     26  C   UNL     1      27.926   9.154  38.773  1.00  0.00     0.017 C 
ATOM     27  O   UNL     1      29.272   6.107  41.367  1.00  0.00    -0.295 OA
ATOM     28  C   UNL     1      28.608   5.995  38.645  1.00  0.00     0.055 C 
ATOM     29  C   UNL     1      28.172   7.234  36.415  1.00  0.00     0.081 C 
ATOM     30  C   UNL     1      28.050   6.016  37.282  1.00  0.00     0.156 C 
ATOM     31  O   UNL     1      27.435   5.007  36.848  1.00  0.00    -0.295 OA
ENDBRANCH   9  11
ENDBRANCH   8   9
ENDBRANCH   1   8
TORSDOF 6
ENDMDL
MODEL 2
REMARK VINA RESULT:    53.696      3.448      9.578
REMARK INTER + INTRA:          71.849
REMARK INTER:                  71.395
REMARK INTRA:                   0.454
REMARK UNBOUND:                -0.682
REMARK SMILES CC[C@H](CC[C@@H](C)[C@@H]1CC[C@H]2[C@@H]3CC(=O)C4=CC(=O)CC[C@]4(C)[C@@H]3CC[C@]21C)C(C)C
REMARK SMILES IDX 4 1 3 2 2 3 1 4 29 5 30 6 31 7 5 8 6 9 7 10 8 11 9 12 27 13
REMARK SMILES IDX 10 14 11 15 26 16 28 17 12 18 25 19 24 20 13 21 22 22 14 23
REMARK SMILES IDX 16 24 21 25 23 26 15 27 17 28 20 29 18 30 19 31
REMARK H PARENT
REMARK Flexibility Score: inf
ROOT
ATOM      1  C   UNL     1      31.135   7.629  41.072  1.00  0.00     0.004 C 
ENDROOT
BRANCH   1   2
ATOM      2  C   UNL     1      29.644   7.358  41.476  1.00  0.00    -0.009 C 
BRANCH   2   3
ATOM      3  C   UNL     1      28.733   7.260  40.212  1.00  0.00     0.000 C 
ATOM      4  C   UNL     1      29.345   7.810  38.924  1.00  0.00     0.004 C 
ENDBRANCH   2   3
BRANCH   2   5
ATOM      5  C   UNL     1      29.526   6.051  42.348  1.00  0.00    -0.014 C 
ATOM      6  C   UNL     1      28.157   5.362  42.182  1.00  0.00     0.007 C 
ATOM      7  C   UNL     1      30.618   5.007  42.032  1.00  0.00     0.007 C 
ENDBRANCH   2   5
ENDBRANCH   1   2
BRANCH   1   8
ATOM      8  C   UNL     1      31.439   9.099  40.677  1.00  0.00     0.004 C 
BRANCH   8   9
ATOM      9  C   UNL     1      32.441   9.361  39.511  1.00  0.00    -0.011 C 
ATOM     10  C   UNL     1      31.744   9.860  38.234  1.00  0.00     0.008 C 
BRANCH   9  11
ATOM     11  C   UNL     1      33.751  10.143  39.945  1.00  0.00    -0.002 C 
ATOM     12  C   UNL     1      34.556   9.447  41.057  1.00  0.00     0.005 C 
ATOM     13  C   UNL     1      33.579  11.618  40.476  1.00  0.00    -0.026 C 
ATOM     14  C   UNL     1      34.261  10.176  42.363  1.00  0.00     0.005 C 
ATOM     15  C   UNL     1      33.458  11.440  42.017  1.00  0.00    -0.001 C 
ATOM     16  C   UNL     1      34.861  12.429  40.108  1.00  0.00     0.007 C 
ATOM     17  C   UNL     1      32.355  12.348  39.859  1.00  0.00     0.012 C 
ATOM     18  C   UNL     1      33.860  12.653  42.914  1.00  0.00     0.004 C 
ATOM     19  C   UNL     1      35.078  13.693  40.951  1.00  0.00     0.005 C 
ATOM     20  C   UNL     1      35.177  13.347  42.454  1.00  0.00     0.003 C 
ATOM     21  C   UNL     1      32.694  13.648  43.067  1.00  0.00     0.085 C 
ATOM     22  C   UNL     1      35.601  14.541  43.409  1.00  0.00    -0.000 C 
ATOM     23  C   UNL     1      33.068  14.820  43.909  1.00  0.00     0.159 C 
ATOM     24  C   UNL     1      34.411  15.425  43.792  1.00  0.00     0.005 C 
ATOM     25  C   UNL     1      36.703  15.432  42.749  1.00  0.00     0.020 C 
ATOM     26  C   UNL     1      36.178  13.935  44.719  1.00  0.00     0.017 C 
ATOM     27  O   UNL     1      32.196  15.337  44.660  1.00  0.00    -0.295 OA
ATOM     28  C   UNL     1      34.595  16.703  44.174  1.00  0.00     0.055 C 
ATOM     29  C   UNL     1      37.123  16.621  43.624  1.00  0.00     0.081 C 
ATOM     30  C   UNL     1      35.918  17.353  44.135  1.00  0.00     0.156 C 
ATOM     31  O   UNL     1      36.043  18.529  44.564  1.00  0.00    -0.295 OA
ENDBRANCH   9  11
ENDBRANCH   8   9
ENDBRANCH   1   8
TORSDOF 6
ENDMDL
MODEL 3
REMARK VINA RESULT:    55.886      4.317      9.677
REMARK INTER + INTRA:          74.807
REMARK INTER:                  75.285
REMARK INTRA:                  -0.477
REMARK UNBOUND:                -0.682
REMARK SMILES CC[C@H](CC[C@@H](C)[C@@H]1CC[C@H]2[C@@H]3CC(=O)C4=CC(=O)CC[C@]4(C)[C@@H]3CC[C@]21C)C(C)C
REMARK SMILES IDX 4 1 3 2 2 3 1 4 29 5 30 6 31 7 5 8 6 9 7 10 8 11 9 12 27 13
REMARK SMILES IDX 10 14 11 15 26 16 28 17 12 18 25 19 24 20 13 21 22 22 14 23
REMARK SMILES IDX 16 24 21 25 23 26 15 27 17 28 20 29 18 30 19 31
REMARK H PARENT
REMARK Flexibility Score: inf
ROOT
ATOM      1  C   UNL     1      34.021   7.037  39.985  1.00  0.00     0.004 C 
ENDROOT
BRANCH   1   2
ATOM      2  C   UNL     1      33.911   6.258  41.343  1.00  0.00    -0.009 C 
BRANCH   2   3
ATOM      3  C   UNL     1      33.015   4.989  41.186  1.00  0.00     0.000 C 
ATOM      4  C   UNL     1      31.530   5.201  41.475  1.00  0.00     0.004 C 
ENDBRANCH   2   3
BRANCH   2   5
ATOM      5  C   UNL     1      35.338   5.867  41.884  1.00  0.00    -0.014 C 
ATOM      6  C   UNL     1      36.195   5.166  40.812  1.00  0.00     0.007 C 
ATOM      7  C   UNL     1      36.142   7.073  42.412  1.00  0.00     0.007 C 
ENDBRANCH   2   5
ENDBRANCH   1   2
BRANCH   1   8
ATOM      8  C   UNL     1      34.823   8.363  40.066  1.00  0.00     0.004 C 
BRANCH   8   9
ATOM      9  C   UNL     1      34.038   9.708  40.009  1.00  0.00    -0.011 C 
ATOM     10  C   UNL     1      32.613   9.538  39.457  1.00  0.00     0.008 C 
BRANCH   9  11
ATOM     11  C   UNL     1      34.181  10.599  41.314  1.00  0.00    -0.002 C 
ATOM     12  C   UNL     1      32.862  10.798  42.083  1.00  0.00     0.005 C 
ATOM     13  C   UNL     1      34.736  12.065  41.141  1.00  0.00    -0.026 C 
ATOM     14  C   UNL     1      32.347  12.196  41.761  1.00  0.00     0.005 C 
ATOM     15  C   UNL     1      33.451  12.926  40.978  1.00  0.00    -0.001 C 
ATOM     16  C   UNL     1      35.508  12.458  42.440  1.00  0.00     0.007 C 
ATOM     17  C   UNL     1      35.711  12.209  39.941  1.00  0.00     0.012 C 
ATOM     18  C   UNL     1      33.543  14.436  41.367  1.00  0.00     0.004 C 
ATOM     19  C   UNL     1      35.680  13.969  42.646  1.00  0.00     0.005 C 
ATOM     20  C   UNL     1      34.309  14.680  42.702  1.00  0.00     0.003 C 
ATOM     21  C   UNL     1      34.102  15.281  40.206  1.00  0.00     0.085 C 
ATOM     22  C   UNL     1      34.345  16.213  43.111  1.00  0.00    -0.000 C 
ATOM     23  C   UNL     1      34.211  16.723  40.568  1.00  0.00     0.159 C 
ATOM     24  C   UNL     1      34.656  17.122  41.920  1.00  0.00     0.005 C 
ATOM     25  C   UNL     1      35.396  16.476  44.238  1.00  0.00     0.020 C 
ATOM     26  C   UNL     1      32.940  16.606  43.648  1.00  0.00     0.017 C 
ATOM     27  O   UNL     1      33.996  17.594  39.681  1.00  0.00    -0.295 OA
ATOM     28  C   UNL     1      35.189  18.345  42.105  1.00  0.00     0.055 C 
ATOM     29  C   UNL     1      35.489  17.952  44.646  1.00  0.00     0.081 C 
ATOM     30  C   UNL     1      35.606  18.827  43.434  1.00  0.00     0.156 C 
ATOM     31  O   UNL     1      36.038  20.003  43.558  1.00  0.00    -0.295 OA
ENDBRANCH   9  11
ENDBRANCH   8   9
ENDBRANCH   1   8
TORSDOF 6
ENDMDL
