MODEL 1
REMARK VINA RESULT:    -4.633      0.000      0.000
REMARK INTER + INTRA:         -10.463
REMARK INTER:                  -8.967
REMARK INTRA:                  -1.496
REMARK UNBOUND:                -1.496
REMARK SMILES CCCCCC=CCC=CCCCCCCCCOC(C)=O
REMARK SMILES IDX 12 1 11 2 10 3 9 4 8 5 7 6 6 7 5 8 4 9 3 10 2 11 1 12 13 13
REMARK SMILES IDX 14 14 15 15 16 16 17 17 18 18 19 19 20 20 22 21 21 22
REMARK H PARENT
REMARK Flexibility Score: inf
ROOT
ATOM      1  C   UNL     1      -2.150  -3.033 -35.253  1.00  0.00     0.004 C 
ENDROOT
BRANCH   1   2
ATOM      2  C   UNL     1      -2.907  -2.156 -34.240  1.00  0.00     0.027 C 
BRANCH   2   3
ATOM      3  C   UNL     1      -3.834  -2.951 -33.362  1.00  0.00    -0.031 C 
ATOM      4  C   UNL     1      -3.814  -2.830 -32.027  1.00  0.00    -0.027 C 
BRANCH   4   5
ATOM      5  C   UNL     1      -4.757  -3.631 -31.170  1.00  0.00     0.054 C 
BRANCH   5   6
ATOM      6  C   UNL     1      -4.061  -4.165 -29.950  1.00  0.00    -0.027 C 
ATOM      7  C   UNL     1      -2.770  -4.529 -29.986  1.00  0.00    -0.031 C 
BRANCH   7   8
ATOM      8  C   UNL     1      -2.067  -5.066 -28.769  1.00  0.00     0.027 C 
BRANCH   8   9
ATOM      9  C   UNL     1      -3.039  -5.674 -27.744  1.00  0.00     0.004 C 
BRANCH   9  10
ATOM     10  C   UNL     1      -2.530  -5.647 -26.288  1.00  0.00     0.000 C 
BRANCH  10  11
ATOM     11  C   UNL     1      -3.549  -5.134 -25.256  1.00  0.00    -0.003 C 
ATOM     12  C   UNL     1      -4.705  -4.363 -25.891  1.00  0.00     0.004 C 
ENDBRANCH  10  11
ENDBRANCH   9  10
ENDBRANCH   8   9
ENDBRANCH   7   8
ENDBRANCH   5   6
ENDBRANCH   4   5
ENDBRANCH   2   3
ENDBRANCH   1   2
BRANCH   1  13
ATOM     13  C   UNL     1      -1.525  -2.249 -36.422  1.00  0.00     0.000 C 
BRANCH  13  14
ATOM     14  C   UNL     1      -1.485  -0.733 -36.166  1.00  0.00     0.000 C 
BRANCH  14  15
ATOM     15  C   UNL     1      -1.365   0.085 -37.461  1.00  0.00     0.000 C 
BRANCH  15  16
ATOM     16  C   UNL     1       0.074   0.120 -38.005  1.00  0.00     0.003 C 
BRANCH  16  17
ATOM     17  C   UNL     1       1.011   0.972 -37.135  1.00  0.00     0.042 C 
BRANCH  17  18
ATOM     18  C   UNL     1       2.311   0.242 -36.773  1.00  0.00     0.233 C 
BRANCH  18  19
ATOM     19  O   UNL     1       2.388   0.034 -35.363  1.00  0.00    -0.466 OA
BRANCH  19  20
ATOM     20  C   UNL     1       1.828  -1.073 -34.717  1.00  0.00     0.302 C 
ATOM     21  O   UNL     1       1.093  -0.927 -33.703  1.00  0.00    -0.253 OA
ATOM     22  C   UNL     1       2.055  -2.439 -35.271  1.00  0.00     0.139 C 
ENDBRANCH  19  20
ENDBRANCH  18  19
ENDBRANCH  17  18
ENDBRANCH  16  17
ENDBRANCH  15  16
ENDBRANCH  14  15
ENDBRANCH  13  14
ENDBRANCH   1  13
TORSDOF 16
ENDMDL
MODEL 2
REMARK VINA RESULT:    -4.459      3.578      9.856
REMARK INTER + INTRA:         -10.126
REMARK INTER:                  -9.059
REMARK INTRA:                  -1.067
REMARK UNBOUND:                -1.496
REMARK SMILES CCCCCC=CCC=CCCCCCCCCOC(C)=O
REMARK SMILES IDX 12 1 11 2 10 3 9 4 8 5 7 6 6 7 5 8 4 9 3 10 2 11 1 12 13 13
REMARK SMILES IDX 14 14 15 15 16 16 17 17 18 18 19 19 20 20 22 21 21 22
REMARK H PARENT
REMARK Flexibility Score: inf
ROOT
ATOM      1  C   UNL     1      -3.536  -2.636 -31.664  1.00  0.00     0.004 C 
ENDROOT
BRANCH   1   2
ATOM      2  C   UNL     1      -4.474  -2.979 -32.835  1.00  0.00     0.027 C 
BRANCH   2   3
ATOM      3  C   UNL     1      -3.729  -3.421 -34.066  1.00  0.00    -0.031 C 
ATOM      4  C   UNL     1      -2.769  -2.666 -34.616  1.00  0.00    -0.027 C 
BRANCH   4   5
ATOM      5  C   UNL     1      -2.034  -3.132 -35.843  1.00  0.00     0.054 C 
BRANCH   5   6
ATOM      6  C   UNL     1      -1.263  -2.009 -36.475  1.00  0.00    -0.027 C 
ATOM      7  C   UNL     1      -1.395  -0.744 -36.046  1.00  0.00    -0.031 C 
BRANCH   7   8
ATOM      8  C   UNL     1      -0.627   0.388 -36.675  1.00  0.00     0.027 C 
BRANCH   8   9
ATOM      9  C   UNL     1       0.699  -0.075 -37.303  1.00  0.00     0.004 C 
BRANCH   9  10
ATOM     10  C   UNL     1       1.908  -0.032 -36.345  1.00  0.00     0.000 C 
BRANCH  10  11
ATOM     11  C   UNL     1       1.577   0.396 -34.905  1.00  0.00    -0.003 C 
ATOM     12  C   UNL     1       1.581  -0.771 -33.919  1.00  0.00     0.004 C 
ENDBRANCH  10  11
ENDBRANCH   9  10
ENDBRANCH   8   9
ENDBRANCH   7   8
ENDBRANCH   5   6
ENDBRANCH   4   5
ENDBRANCH   2   3
ENDBRANCH   1   2
BRANCH   1  13
ATOM     13  C   UNL     1      -3.743  -3.510 -30.414  1.00  0.00     0.000 C 
BRANCH  13  14
ATOM     14  C   UNL     1      -2.891  -4.790 -30.438  1.00  0.00     0.000 C 
BRANCH  14  15
ATOM     15  C   UNL     1      -2.995  -5.596 -29.133  1.00  0.00     0.000 C 
BRANCH  15  16
ATOM     16  C   UNL     1      -2.095  -5.033 -28.019  1.00  0.00     0.003 C 
BRANCH  16  17
ATOM     17  C   UNL     1      -2.357  -5.698 -26.659  1.00  0.00     0.042 C 
BRANCH  17  18
ATOM     18  C   UNL     1      -3.797  -5.500 -26.169  1.00  0.00     0.233 C 
BRANCH  18  19
ATOM     19  O   UNL     1      -3.904  -4.295 -25.414  1.00  0.00    -0.466 OA
BRANCH  19  20
ATOM     20  C   UNL     1      -3.982  -4.266 -24.017  1.00  0.00     0.302 C 
ATOM     21  O   UNL     1      -4.439  -3.257 -23.415  1.00  0.00    -0.253 OA
ATOM     22  C   UNL     1      -3.574  -5.469 -23.235  1.00  0.00     0.139 C 
ENDBRANCH  19  20
ENDBRANCH  18  19
ENDBRANCH  17  18
ENDBRANCH  16  17
ENDBRANCH  15  16
ENDBRANCH  14  15
ENDBRANCH  13  14
ENDBRANCH   1  13
TORSDOF 16
ENDMDL
MODEL 3
REMARK VINA RESULT:    -4.408      3.779      9.692
REMARK INTER + INTRA:         -10.027
REMARK INTER:                  -8.945
REMARK INTRA:                  -1.083
REMARK UNBOUND:                -1.496
REMARK SMILES CCCCCC=CCC=CCCCCCCCCOC(C)=O
REMARK SMILES IDX 12 1 11 2 10 3 9 4 8 5 7 6 6 7 5 8 4 9 3 10 2 11 1 12 13 13
REMARK SMILES IDX 14 14 15 15 16 16 17 17 18 18 19 19 20 20 22 21 21 22
REMARK H PARENT
REMARK Flexibility Score: inf
ROOT
ATOM      1  C   UNL     1      -3.614  -2.937 -31.385  1.00  0.00     0.004 C 
ENDROOT
BRANCH   1   2
ATOM      2  C   UNL     1      -4.251  -2.421 -32.687  1.00  0.00     0.027 C 
BRANCH   2   3
ATOM      3  C   UNL     1      -3.604  -2.996 -33.919  1.00  0.00    -0.031 C 
ATOM      4  C   UNL     1      -2.697  -2.307 -34.623  1.00  0.00    -0.027 C 
BRANCH   4   5
ATOM      5  C   UNL     1      -2.058  -2.906 -35.847  1.00  0.00     0.054 C 
BRANCH   5   6
ATOM      6  C   UNL     1      -1.226  -1.891 -36.578  1.00  0.00    -0.027 C 
ATOM      7  C   UNL     1      -1.198  -0.605 -36.195  1.00  0.00    -0.031 C 
BRANCH   7   8
ATOM      8  C   UNL     1      -0.368   0.418 -36.923  1.00  0.00     0.027 C 
BRANCH   8   9
ATOM      9  C   UNL     1       1.050   0.552 -36.341  1.00  0.00     0.004 C 
BRANCH   9  10
ATOM     10  C   UNL     1       1.107   0.590 -34.800  1.00  0.00     0.000 C 
BRANCH  10  11
ATOM     11  C   UNL     1       1.720  -0.659 -34.144  1.00  0.00    -0.003 C 
ATOM     12  C   UNL     1       2.077  -1.749 -35.153  1.00  0.00     0.004 C 
ENDBRANCH  10  11
ENDBRANCH   9  10
ENDBRANCH   8   9
ENDBRANCH   7   8
ENDBRANCH   5   6
ENDBRANCH   4   5
ENDBRANCH   2   3
ENDBRANCH   1   2
BRANCH   1  13
ATOM     13  C   UNL     1      -4.209  -4.262 -30.875  1.00  0.00     0.000 C 
BRANCH  13  14
ATOM     14  C   UNL     1      -3.835  -4.557 -29.413  1.00  0.00     0.000 C 
BRANCH  14  15
ATOM     15  C   UNL     1      -2.532  -5.360 -29.284  1.00  0.00     0.000 C 
BRANCH  15  16
ATOM     16  C   UNL     1      -1.711  -4.959 -28.046  1.00  0.00     0.003 C 
BRANCH  16  17
ATOM     17  C   UNL     1      -2.360  -5.427 -26.733  1.00  0.00     0.042 C 
BRANCH  17  18
ATOM     18  C   UNL     1      -1.683  -6.674 -26.150  1.00  0.00     0.233 C 
BRANCH  18  19
ATOM     19  O   UNL     1      -1.519  -6.536 -24.739  1.00  0.00    -0.466 OA
BRANCH  19  20
ATOM     20  C   UNL     1      -0.270  -6.483 -24.112  1.00  0.00     0.302 C 
ATOM     21  O   UNL     1       0.527  -7.458 -24.173  1.00  0.00    -0.253 OA
ATOM     22  C   UNL     1       0.147  -5.235 -23.410  1.00  0.00     0.139 C 
ENDBRANCH  19  20
ENDBRANCH  18  19
ENDBRANCH  17  18
ENDBRANCH  16  17
ENDBRANCH  15  16
ENDBRANCH  14  15
ENDBRANCH  13  14
ENDBRANCH   1  13
TORSDOF 16
ENDMDL
MODEL 4
REMARK VINA RESULT:    -4.347      1.747      2.952
REMARK INTER + INTRA:          -9.909
REMARK INTER:                  -8.804
REMARK INTRA:                  -1.105
REMARK UNBOUND:                -1.496
REMARK SMILES CCCCCC=CCC=CCCCCCCCCOC(C)=O
REMARK SMILES IDX 12 1 11 2 10 3 9 4 8 5 7 6 6 7 5 8 4 9 3 10 2 11 1 12 13 13
REMARK SMILES IDX 14 14 15 15 16 16 17 17 18 18 19 19 20 20 22 21 21 22
REMARK H PARENT
REMARK Flexibility Score: inf
ROOT
ATOM      1  C   UNL     1      -4.165  -2.369 -33.495  1.00  0.00     0.004 C 
ENDROOT
BRANCH   1   2
ATOM      2  C   UNL     1      -4.597  -3.084 -32.203  1.00  0.00     0.027 C 
BRANCH   2   3
ATOM      3  C   UNL     1      -3.439  -3.377 -31.286  1.00  0.00    -0.031 C 
ATOM      4  C   UNL     1      -3.478  -4.386 -30.406  1.00  0.00    -0.027 C 
BRANCH   4   5
ATOM      5  C   UNL     1      -2.305  -4.663 -29.505  1.00  0.00     0.054 C 
BRANCH   5   6
ATOM      6  C   UNL     1      -2.755  -5.192 -28.173  1.00  0.00    -0.027 C 
ATOM      7  C   UNL     1      -1.871  -5.537 -27.224  1.00  0.00    -0.031 C 
BRANCH   7   8
ATOM      8  C   UNL     1      -2.314  -6.068 -25.887  1.00  0.00     0.027 C 
BRANCH   8   9
ATOM      9  C   UNL     1      -1.321  -7.084 -25.296  1.00  0.00     0.004 C 
BRANCH   9  10
ATOM     10  C   UNL     1      -0.895  -6.789 -23.843  1.00  0.00     0.000 C 
BRANCH  10  11
ATOM     11  C   UNL     1      -0.204  -5.430 -23.635  1.00  0.00    -0.003 C 
ATOM     12  C   UNL     1       1.274  -5.562 -23.272  1.00  0.00     0.004 C 
ENDBRANCH  10  11
ENDBRANCH   9  10
ENDBRANCH   8   9
ENDBRANCH   7   8
ENDBRANCH   5   6
ENDBRANCH   4   5
ENDBRANCH   2   3
ENDBRANCH   1   2
BRANCH   1  13
ATOM     13  C   UNL     1      -2.876  -2.929 -34.124  1.00  0.00     0.000 C 
BRANCH  13  14
ATOM     14  C   UNL     1      -2.195  -1.927 -35.072  1.00  0.00     0.000 C 
BRANCH  14  15
ATOM     15  C   UNL     1      -1.559  -2.606 -36.295  1.00  0.00     0.000 C 
BRANCH  15  16
ATOM     16  C   UNL     1      -1.162  -1.599 -37.389  1.00  0.00     0.003 C 
BRANCH  16  17
ATOM     17  C   UNL     1      -1.371  -0.141 -36.950  1.00  0.00     0.042 C 
BRANCH  17  18
ATOM     18  C   UNL     1      -0.058   0.647 -36.868  1.00  0.00     0.233 C 
BRANCH  18  19
ATOM     19  O   UNL     1       0.446   0.636 -35.533  1.00  0.00    -0.466 OA
BRANCH  19  20
ATOM     20  C   UNL     1       1.579  -0.086 -35.144  1.00  0.00     0.302 C 
ATOM     21  O   UNL     1       2.719   0.206 -35.596  1.00  0.00    -0.253 OA
ATOM     22  C   UNL     1       1.443  -1.178 -34.137  1.00  0.00     0.139 C 
ENDBRANCH  19  20
ENDBRANCH  18  19
ENDBRANCH  17  18
ENDBRANCH  16  17
ENDBRANCH  15  16
ENDBRANCH  14  15
ENDBRANCH  13  14
ENDBRANCH   1  13
TORSDOF 16
ENDMDL
MODEL 5
REMARK VINA RESULT:    -4.250      4.225     10.402
REMARK INTER + INTRA:          -9.722
REMARK INTER:                  -8.563
REMARK INTRA:                  -1.159
REMARK UNBOUND:                -1.496
REMARK SMILES CCCCCC=CCC=CCCCCCCCCOC(C)=O
REMARK SMILES IDX 12 1 11 2 10 3 9 4 8 5 7 6 6 7 5 8 4 9 3 10 2 11 1 12 13 13
REMARK SMILES IDX 14 14 15 15 16 16 17 17 18 18 19 19 20 20 22 21 21 22
REMARK H PARENT
REMARK Flexibility Score: inf
ROOT
ATOM      1  C   UNL     1      -2.861  -5.017 -30.200  1.00  0.00     0.004 C 
ENDROOT
BRANCH   1   2
ATOM      2  C   UNL     1      -3.608  -3.680 -30.047  1.00  0.00     0.027 C 
BRANCH   2   3
ATOM      3  C   UNL     1      -3.496  -2.808 -31.269  1.00  0.00    -0.031 C 
ATOM      4  C   UNL     1      -4.058  -3.155 -32.434  1.00  0.00    -0.027 C 
BRANCH   4   5
ATOM      5  C   UNL     1      -3.939  -2.263 -33.640  1.00  0.00     0.054 C 
BRANCH   5   6
ATOM      6  C   UNL     1      -2.896  -2.774 -34.593  1.00  0.00    -0.027 C 
ATOM      7  C   UNL     1      -2.023  -1.943 -35.183  1.00  0.00    -0.031 C 
BRANCH   7   8
ATOM      8  C   UNL     1      -0.976  -2.446 -36.140  1.00  0.00     0.027 C 
BRANCH   8   9
ATOM      9  C   UNL     1      -0.171  -1.307 -36.788  1.00  0.00     0.004 C 
BRANCH   9  10
ATOM     10  C   UNL     1       1.356  -1.415 -36.596  1.00  0.00     0.000 C 
BRANCH  10  11
ATOM     11  C   UNL     1       1.797  -1.983 -35.235  1.00  0.00    -0.003 C 
ATOM     12  C   UNL     1       1.595  -1.000 -34.084  1.00  0.00     0.004 C 
ENDBRANCH  10  11
ENDBRANCH   9  10
ENDBRANCH   8   9
ENDBRANCH   7   8
ENDBRANCH   5   6
ENDBRANCH   4   5
ENDBRANCH   2   3
ENDBRANCH   1   2
BRANCH   1  13
ATOM     13  C   UNL     1      -2.895  -5.905 -28.944  1.00  0.00     0.000 C 
BRANCH  13  14
ATOM     14  C   UNL     1      -2.009  -5.363 -27.809  1.00  0.00     0.000 C 
BRANCH  14  15
ATOM     15  C   UNL     1      -2.710  -5.395 -26.442  1.00  0.00     0.000 C 
BRANCH  15  16
ATOM     16  C   UNL     1      -4.127  -4.798 -26.492  1.00  0.00     0.003 C 
BRANCH  16  17
ATOM     17  C   UNL     1      -4.521  -4.105 -25.178  1.00  0.00     0.042 C 
BRANCH  17  18
ATOM     18  C   UNL     1      -4.398  -5.030 -23.960  1.00  0.00     0.233 C 
BRANCH  18  19
ATOM     19  O   UNL     1      -3.652  -4.392 -22.925  1.00  0.00    -0.466 OA
BRANCH  19  20
ATOM     20  C   UNL     1      -2.572  -4.994 -22.271  1.00  0.00     0.302 C 
ATOM     21  O   UNL     1      -2.385  -4.822 -21.037  1.00  0.00    -0.253 OA
ATOM     22  C   UNL     1      -1.664  -5.898 -23.035  1.00  0.00     0.139 C 
ENDBRANCH  19  20
ENDBRANCH  18  19
ENDBRANCH  17  18
ENDBRANCH  16  17
ENDBRANCH  15  16
ENDBRANCH  14  15
ENDBRANCH  13  14
ENDBRANCH   1  13
TORSDOF 16
ENDMDL
MODEL 6
REMARK VINA RESULT:    -4.248      4.575     10.344
REMARK INTER + INTRA:          -9.717
REMARK INTER:                  -8.861
REMARK INTRA:                  -0.856
REMARK UNBOUND:                -1.496
REMARK SMILES CCCCCC=CCC=CCCCCCCCCOC(C)=O
REMARK SMILES IDX 12 1 11 2 10 3 9 4 8 5 7 6 6 7 5 8 4 9 3 10 2 11 1 12 13 13
REMARK SMILES IDX 14 14 15 15 16 16 17 17 18 18 19 19 20 20 22 21 21 22
REMARK H PARENT
REMARK Flexibility Score: inf
ROOT
ATOM      1  C   UNL     1      -2.581  -4.909 -29.625  1.00  0.00     0.004 C 
ENDROOT
BRANCH   1   2
ATOM      2  C   UNL     1      -3.956  -4.232 -29.490  1.00  0.00     0.027 C 
BRANCH   2   3
ATOM      3  C   UNL     1      -4.465  -3.685 -30.797  1.00  0.00    -0.031 C 
ATOM      4  C   UNL     1      -3.668  -3.009 -31.635  1.00  0.00    -0.027 C 
BRANCH   4   5
ATOM      5  C   UNL     1      -4.199  -2.479 -32.939  1.00  0.00     0.054 C 
BRANCH   5   6
ATOM      6  C   UNL     1      -3.342  -2.916 -34.093  1.00  0.00    -0.027 C 
ATOM      7  C   UNL     1      -2.519  -2.057 -34.716  1.00  0.00    -0.031 C 
BRANCH   7   8
ATOM      8  C   UNL     1      -1.659  -2.487 -35.873  1.00  0.00     0.027 C 
BRANCH   8   9
ATOM      9  C   UNL     1      -0.555  -1.466 -36.200  1.00  0.00     0.004 C 
BRANCH   9  10
ATOM     10  C   UNL     1       0.870  -1.927 -35.830  1.00  0.00     0.000 C 
BRANCH  10  11
ATOM     11  C   UNL     1       1.476  -1.228 -34.600  1.00  0.00    -0.003 C 
ATOM     12  C   UNL     1       0.605  -0.091 -34.070  1.00  0.00     0.004 C 
ENDBRANCH  10  11
ENDBRANCH   9  10
ENDBRANCH   8   9
ENDBRANCH   7   8
ENDBRANCH   5   6
ENDBRANCH   4   5
ENDBRANCH   2   3
ENDBRANCH   1   2
BRANCH   1  13
ATOM     13  C   UNL     1      -1.769  -4.952 -28.317  1.00  0.00     0.000 C 
BRANCH  13  14
ATOM     14  C   UNL     1      -2.590  -5.477 -27.127  1.00  0.00     0.000 C 
BRANCH  14  15
ATOM     15  C   UNL     1      -1.787  -6.426 -26.224  1.00  0.00     0.000 C 
BRANCH  15  16
ATOM     16  C   UNL     1      -1.741  -5.951 -24.761  1.00  0.00     0.003 C 
BRANCH  16  17
ATOM     17  C   UNL     1      -0.491  -6.450 -24.020  1.00  0.00     0.042 C 
BRANCH  17  18
ATOM     18  C   UNL     1       0.421  -5.305 -23.559  1.00  0.00     0.233 C 
BRANCH  18  19
ATOM     19  O   UNL     1       1.118  -5.674 -22.370  1.00  0.00    -0.466 OA
BRANCH  19  20
ATOM     20  C   UNL     1       2.468  -6.041 -22.352  1.00  0.00     0.302 C 
ATOM     21  O   UNL     1       3.040  -6.348 -21.271  1.00  0.00    -0.253 OA
ATOM     22  C   UNL     1       3.222  -6.128 -23.636  1.00  0.00     0.139 C 
ENDBRANCH  19  20
ENDBRANCH  18  19
ENDBRANCH  17  18
ENDBRANCH  16  17
ENDBRANCH  15  16
ENDBRANCH  14  15
ENDBRANCH  13  14
ENDBRANCH   1  13
TORSDOF 16
ENDMDL
MODEL 7
REMARK VINA RESULT:    -4.226      2.814      8.849
REMARK INTER + INTRA:          -9.675
REMARK INTER:                  -7.796
REMARK INTRA:                  -1.878
REMARK UNBOUND:                -1.496
REMARK SMILES CCCCCC=CCC=CCCCCCCCCOC(C)=O
REMARK SMILES IDX 12 1 11 2 10 3 9 4 8 5 7 6 6 7 5 8 4 9 3 10 2 11 1 12 13 13
REMARK SMILES IDX 14 14 15 15 16 16 17 17 18 18 19 19 20 20 22 21 21 22
REMARK H PARENT
REMARK Flexibility Score: inf
ROOT
ATOM      1  C   UNL     1      -3.245  -2.718 -31.806  1.00  0.00     0.004 C 
ENDROOT
BRANCH   1   2
ATOM      2  C   UNL     1      -3.898  -2.363 -33.153  1.00  0.00     0.027 C 
BRANCH   2   3
ATOM      3  C   UNL     1      -2.908  -2.326 -34.287  1.00  0.00    -0.031 C 
ATOM      4  C   UNL     1      -2.693  -3.393 -35.067  1.00  0.00    -0.027 C 
BRANCH   4   5
ATOM      5  C   UNL     1      -1.703  -3.330 -36.198  1.00  0.00     0.054 C 
BRANCH   5   6
ATOM      6  C   UNL     1      -1.373  -1.907 -36.552  1.00  0.00    -0.027 C 
ATOM      7  C   UNL     1      -0.169  -1.572 -37.044  1.00  0.00    -0.031 C 
BRANCH   7   8
ATOM      8  C   UNL     1       0.170  -0.150 -37.399  1.00  0.00     0.027 C 
BRANCH   8   9
ATOM      9  C   UNL     1       1.588   0.249 -36.953  1.00  0.00     0.004 C 
BRANCH   9  10
ATOM     10  C   UNL     1       2.045  -0.397 -35.629  1.00  0.00     0.000 C 
BRANCH  10  11
ATOM     11  C   UNL     1       1.506   0.281 -34.358  1.00  0.00    -0.003 C 
ATOM     12  C   UNL     1       0.421  -0.537 -33.659  1.00  0.00     0.004 C 
ENDBRANCH  10  11
ENDBRANCH   9  10
ENDBRANCH   8   9
ENDBRANCH   7   8
ENDBRANCH   5   6
ENDBRANCH   4   5
ENDBRANCH   2   3
ENDBRANCH   1   2
BRANCH   1  13
ATOM     13  C   UNL     1      -4.049  -3.723 -30.962  1.00  0.00     0.000 C 
BRANCH  13  14
ATOM     14  C   UNL     1      -4.549  -4.923 -31.784  1.00  0.00     0.000 C 
BRANCH  14  15
ATOM     15  C   UNL     1      -3.403  -5.821 -32.279  1.00  0.00     0.000 C 
BRANCH  15  16
ATOM     16  C   UNL     1      -2.993  -6.879 -31.240  1.00  0.00     0.003 C 
BRANCH  16  17
ATOM     17  C   UNL     1      -4.193  -7.420 -30.446  1.00  0.00     0.042 C 
BRANCH  17  18
ATOM     18  C   UNL     1      -4.044  -7.216 -28.933  1.00  0.00     0.233 C 
BRANCH  18  19
ATOM     19  O   UNL     1      -2.738  -6.734 -28.623  1.00  0.00    -0.466 OA
BRANCH  19  20
ATOM     20  C   UNL     1      -2.502  -5.560 -27.900  1.00  0.00     0.302 C 
ATOM     21  O   UNL     1      -1.501  -4.836 -28.151  1.00  0.00    -0.253 OA
ATOM     22  C   UNL     1      -3.480  -5.130 -26.860  1.00  0.00     0.139 C 
ENDBRANCH  19  20
ENDBRANCH  18  19
ENDBRANCH  17  18
ENDBRANCH  16  17
ENDBRANCH  15  16
ENDBRANCH  14  15
ENDBRANCH  13  14
ENDBRANCH   1  13
TORSDOF 16
ENDMDL
MODEL 8
REMARK VINA RESULT:    -4.206      2.086      3.626
REMARK INTER + INTRA:          -9.637
REMARK INTER:                  -8.000
REMARK INTRA:                  -1.637
REMARK UNBOUND:                -1.496
REMARK SMILES CCCCCC=CCC=CCCCCCCCCOC(C)=O
REMARK SMILES IDX 12 1 11 2 10 3 9 4 8 5 7 6 6 7 5 8 4 9 3 10 2 11 1 12 13 13
REMARK SMILES IDX 14 14 15 15 16 16 17 17 18 18 19 19 20 20 22 21 21 22
REMARK H PARENT
REMARK Flexibility Score: inf
ROOT
ATOM      1  C   UNL     1      -2.152  -4.333 -35.851  1.00  0.00     0.004 C 
ENDROOT
BRANCH   1   2
ATOM      2  C   UNL     1      -2.366  -5.823 -36.168  1.00  0.00     0.027 C 
BRANCH   2   3
ATOM      3  C   UNL     1      -2.251  -6.699 -34.949  1.00  0.00    -0.031 C 
ATOM      4  C   UNL     1      -3.216  -6.742 -34.021  1.00  0.00    -0.027 C 
BRANCH   4   5
ATOM      5  C   UNL     1      -3.081  -7.631 -32.814  1.00  0.00     0.054 C 
BRANCH   5   6
ATOM      6  C   UNL     1      -3.168  -6.838 -31.542  1.00  0.00    -0.027 C 
ATOM      7  C   UNL     1      -3.145  -5.496 -31.553  1.00  0.00    -0.031 C 
BRANCH   7   8
ATOM      8  C   UNL     1      -3.231  -4.694 -30.282  1.00  0.00     0.027 C 
BRANCH   8   9
ATOM      9  C   UNL     1      -3.819  -3.290 -30.507  1.00  0.00     0.004 C 
BRANCH   9  10
ATOM     10  C   UNL     1      -3.006  -2.407 -31.476  1.00  0.00     0.000 C 
BRANCH  10  11
ATOM     11  C   UNL     1      -3.536  -2.374 -32.920  1.00  0.00    -0.003 C 
ATOM     12  C   UNL     1      -4.985  -2.844 -33.036  1.00  0.00     0.004 C 
ENDBRANCH  10  11
ENDBRANCH   9  10
ENDBRANCH   8   9
ENDBRANCH   7   8
ENDBRANCH   5   6
ENDBRANCH   4   5
ENDBRANCH   2   3
ENDBRANCH   1   2
BRANCH   1  13
ATOM     13  C   UNL     1      -1.470  -3.540 -36.981  1.00  0.00     0.000 C 
BRANCH  13  14
ATOM     14  C   UNL     1      -0.935  -2.177 -36.510  1.00  0.00     0.000 C 
BRANCH  14  15
ATOM     15  C   UNL     1      -1.469  -1.007 -37.352  1.00  0.00     0.000 C 
BRANCH  15  16
ATOM     16  C   UNL     1      -0.432   0.116 -37.526  1.00  0.00     0.003 C 
BRANCH  16  17
ATOM     17  C   UNL     1       0.996  -0.346 -37.197  1.00  0.00     0.042 C 
BRANCH  17  18
ATOM     18  C   UNL     1       1.765   0.667 -36.339  1.00  0.00     0.233 C 
BRANCH  18  19
ATOM     19  O   UNL     1       2.324   0.026 -35.193  1.00  0.00    -0.466 OA
BRANCH  19  20
ATOM     20  C   UNL     1       1.645  -0.941 -34.445  1.00  0.00     0.302 C 
ATOM     21  O   UNL     1       2.059  -2.130 -34.395  1.00  0.00    -0.253 OA
ATOM     22  C   UNL     1       0.447  -0.544 -33.648  1.00  0.00     0.139 C 
ENDBRANCH  19  20
ENDBRANCH  18  19
ENDBRANCH  17  18
ENDBRANCH  16  17
ENDBRANCH  15  16
ENDBRANCH  14  15
ENDBRANCH  13  14
ENDBRANCH   1  13
TORSDOF 16
ENDMDL
MODEL 9
REMARK VINA RESULT:    -4.158      2.532      5.088
REMARK INTER + INTRA:          -9.544
REMARK INTER:                  -8.588
REMARK INTRA:                  -0.956
REMARK UNBOUND:                -1.496
REMARK SMILES CCCCCC=CCC=CCCCCCCCCOC(C)=O
REMARK SMILES IDX 12 1 11 2 10 3 9 4 8 5 7 6 6 7 5 8 4 9 3 10 2 11 1 12 13 13
REMARK SMILES IDX 14 14 15 15 16 16 17 17 18 18 19 19 20 20 22 21 21 22
REMARK H PARENT
REMARK Flexibility Score: inf
ROOT
ATOM      1  C   UNL     1      -3.139  -3.810 -30.423  1.00  0.00     0.004 C 
ENDROOT
BRANCH   1   2
ATOM      2  C   UNL     1      -4.263  -4.350 -29.520  1.00  0.00     0.027 C 
BRANCH   2   3
ATOM      3  C   UNL     1      -3.786  -5.421 -28.576  1.00  0.00    -0.031 C 
ATOM      4  C   UNL     1      -2.592  -5.346 -27.973  1.00  0.00    -0.027 C 
BRANCH   4   5
ATOM      5  C   UNL     1      -2.141  -6.426 -27.028  1.00  0.00     0.054 C 
BRANCH   5   6
ATOM      6  C   UNL     1      -1.638  -5.845 -25.737  1.00  0.00    -0.027 C 
ATOM      7  C   UNL     1      -1.319  -6.629 -24.696  1.00  0.00    -0.031 C 
BRANCH   7   8
ATOM      8  C   UNL     1      -0.816  -6.055 -23.399  1.00  0.00     0.027 C 
BRANCH   8   9
ATOM      9  C   UNL     1       0.361  -5.085 -23.599  1.00  0.00     0.004 C 
BRANCH   9  10
ATOM     10  C   UNL     1       1.752  -5.716 -23.385  1.00  0.00     0.000 C 
BRANCH  10  11
ATOM     11  C   UNL     1       1.735  -7.214 -23.033  1.00  0.00    -0.003 C 
ATOM     12  C   UNL     1       2.235  -8.101 -24.172  1.00  0.00     0.004 C 
ENDBRANCH  10  11
ENDBRANCH   9  10
ENDBRANCH   8   9
ENDBRANCH   7   8
ENDBRANCH   5   6
ENDBRANCH   4   5
ENDBRANCH   2   3
ENDBRANCH   1   2
BRANCH   1  13
ATOM     13  C   UNL     1      -3.598  -2.734 -31.423  1.00  0.00     0.000 C 
BRANCH  13  14
ATOM     14  C   UNL     1      -4.586  -3.278 -32.469  1.00  0.00     0.000 C 
BRANCH  14  15
ATOM     15  C   UNL     1      -3.984  -3.334 -33.882  1.00  0.00     0.000 C 
BRANCH  15  16
ATOM     16  C   UNL     1      -2.896  -2.269 -34.101  1.00  0.00     0.003 C 
BRANCH  16  17
ATOM     17  C   UNL     1      -2.108  -2.492 -35.402  1.00  0.00     0.042 C 
BRANCH  17  18
ATOM     18  C   UNL     1      -1.275  -1.269 -35.808  1.00  0.00     0.233 C 
BRANCH  18  19
ATOM     19  O   UNL     1       0.038  -1.356 -35.258  1.00  0.00    -0.466 OA
BRANCH  19  20
ATOM     20  C   UNL     1       0.602  -0.362 -34.451  1.00  0.00     0.302 C 
ATOM     21  O   UNL     1       0.005   0.049 -33.420  1.00  0.00    -0.253 OA
ATOM     22  C   UNL     1       1.952   0.175 -34.785  1.00  0.00     0.139 C 
ENDBRANCH  19  20
ENDBRANCH  18  19
ENDBRANCH  17  18
ENDBRANCH  16  17
ENDBRANCH  15  16
ENDBRANCH  14  15
ENDBRANCH  13  14
ENDBRANCH   1  13
TORSDOF 16
ENDMDL
