MODEL 1
REMARK VINA RESULT:    -3.751      0.000      0.000
REMARK INTER + INTRA:          -4.737
REMARK INTER:                  -4.629
REMARK INTRA:                  -0.108
REMARK UNBOUND:                -0.108
REMARK SMILES CCCCCC(=O)[O-]
REMARK SMILES IDX 4 1 5 2 6 3 7 4 8 5 3 6 2 7 1 8
REMARK H PARENT
REMARK Flexibility Score: inf
ROOT
ATOM      1  C   UNL     1       7.736   5.494  19.722  1.00  0.00     0.006 C 
ENDROOT
BRANCH   1   2
ATOM      2  C   UNL     1       7.257   6.208  20.993  1.00  0.00     0.053 C 
BRANCH   2   3
ATOM      3  C   UNL     1       7.440   5.356  22.212  1.00  0.00     0.041 C 
ATOM      4  O   UNL     1       8.455   4.620  22.323  1.00  0.00    -0.550 OA
ATOM      5  O   UNL     1       6.506   5.401  23.239  1.00  0.00    -0.550 OA
ENDBRANCH   2   3
ENDBRANCH   1   2
BRANCH   1   6
ATOM      6  C   UNL     1       6.621   5.359  18.674  1.00  0.00     0.000 C 
BRANCH   6   7
ATOM      7  C   UNL     1       6.375   6.692  17.958  1.00  0.00    -0.003 C 
ATOM      8  C   UNL     1       7.624   7.158  17.216  1.00  0.00     0.004 C 
ENDBRANCH   6   7
ENDBRANCH   1   6
TORSDOF 4
ENDMDL
MODEL 2
REMARK VINA RESULT:    -3.723     13.375     14.227
REMARK INTER + INTRA:          -4.702
REMARK INTER:                  -4.618
REMARK INTRA:                  -0.084
REMARK UNBOUND:                -0.108
REMARK SMILES CCCCCC(=O)[O-]
REMARK SMILES IDX 4 1 5 2 6 3 7 4 8 5 3 6 2 7 1 8
REMARK H PARENT
REMARK Flexibility Score: inf
ROOT
ATOM      1  C   UNL     1       9.406  -3.336   9.600  1.00  0.00     0.006 C 
ENDROOT
BRANCH   1   2
ATOM      2  C   UNL     1       8.567  -2.848  10.789  1.00  0.00     0.053 C 
BRANCH   2   3
ATOM      3  C   UNL     1       7.100  -3.025  10.544  1.00  0.00     0.041 C 
ATOM      4  O   UNL     1       6.636  -4.165  10.277  1.00  0.00    -0.550 OA
ATOM      5  O   UNL     1       6.242  -1.938  10.641  1.00  0.00    -0.550 OA
ENDBRANCH   2   3
ENDBRANCH   1   2
BRANCH   1   6
ATOM      6  C   UNL     1       9.743  -2.202   8.621  1.00  0.00     0.000 C 
BRANCH   6   7
ATOM      7  C   UNL     1      11.135  -2.398   8.010  1.00  0.00    -0.003 C 
ATOM      8  C   UNL     1      11.138  -3.540   6.998  1.00  0.00     0.004 C 
ENDBRANCH   6   7
ENDBRANCH   1   6
TORSDOF 4
ENDMDL
MODEL 3
REMARK VINA RESULT:    -3.703      2.880      4.433
REMARK INTER + INTRA:          -4.677
REMARK INTER:                  -4.511
REMARK INTRA:                  -0.166
REMARK UNBOUND:                -0.108
REMARK SMILES CCCCCC(=O)[O-]
REMARK SMILES IDX 4 1 5 2 6 3 7 4 8 5 3 6 2 7 1 8
REMARK H PARENT
REMARK Flexibility Score: inf
ROOT
ATOM      1  C   UNL     1       7.180   4.595  19.512  1.00  0.00     0.006 C 
ENDROOT
BRANCH   1   2
ATOM      2  C   UNL     1       7.448   5.045  18.070  1.00  0.00     0.053 C 
BRANCH   2   3
ATOM      3  C   UNL     1       6.969   6.443  17.825  1.00  0.00     0.041 C 
ATOM      4  O   UNL     1       5.807   6.783  18.171  1.00  0.00    -0.550 OA
ATOM      5  O   UNL     1       7.815   7.378  17.245  1.00  0.00    -0.550 OA
ENDBRANCH   2   3
ENDBRANCH   1   2
BRANCH   1   6
ATOM      6  C   UNL     1       8.062   5.336  20.527  1.00  0.00     0.000 C 
BRANCH   6   7
ATOM      7  C   UNL     1       7.208   6.069  21.567  1.00  0.00    -0.003 C 
ATOM      8  C   UNL     1       6.943   5.188  22.785  1.00  0.00     0.004 C 
ENDBRANCH   6   7
ENDBRANCH   1   6
TORSDOF 4
ENDMDL
MODEL 4
REMARK VINA RESULT:    -3.676     17.259     18.188
REMARK INTER + INTRA:          -4.644
REMARK INTER:                  -4.546
REMARK INTRA:                  -0.098
REMARK UNBOUND:                -0.108
REMARK SMILES CCCCCC(=O)[O-]
REMARK SMILES IDX 4 1 5 2 6 3 7 4 8 5 3 6 2 7 1 8
REMARK H PARENT
REMARK Flexibility Score: inf
ROOT
ATOM      1  C   UNL     1      15.252  -3.354   8.115  1.00  0.00     0.006 C 
ENDROOT
BRANCH   1   2
ATOM      2  C   UNL     1      14.475  -3.815   6.875  1.00  0.00     0.053 C 
BRANCH   2   3
ATOM      3  C   UNL     1      13.204  -3.044   6.697  1.00  0.00     0.041 C 
ATOM      4  O   UNL     1      13.226  -1.897   6.178  1.00  0.00    -0.550 OA
ATOM      5  O   UNL     1      11.990  -3.604   7.074  1.00  0.00    -0.550 OA
ENDBRANCH   2   3
ENDBRANCH   1   2
BRANCH   1   6
ATOM      6  C   UNL     1      16.382  -4.324   8.489  1.00  0.00     0.000 C 
BRANCH   6   7
ATOM      7  C   UNL     1      17.749  -3.756   8.091  1.00  0.00    -0.003 C 
ATOM      8  C   UNL     1      18.220  -4.334   6.760  1.00  0.00     0.004 C 
ENDBRANCH   6   7
ENDBRANCH   1   6
TORSDOF 4
ENDMDL
MODEL 5
REMARK VINA RESULT:    -3.646     17.192     17.961
REMARK INTER + INTRA:          -4.606
REMARK INTER:                  -4.547
REMARK INTRA:                  -0.060
REMARK UNBOUND:                -0.108
REMARK SMILES CCCCCC(=O)[O-]
REMARK SMILES IDX 4 1 5 2 6 3 7 4 8 5 3 6 2 7 1 8
REMARK H PARENT
REMARK Flexibility Score: inf
ROOT
ATOM      1  C   UNL     1      14.503  -3.733   7.060  1.00  0.00     0.006 C 
ENDROOT
BRANCH   1   2
ATOM      2  C   UNL     1      15.578  -3.511   8.133  1.00  0.00     0.053 C 
BRANCH   2   3
ATOM      3  C   UNL     1      16.687  -4.512   8.024  1.00  0.00     0.041 C 
ATOM      4  O   UNL     1      16.760  -5.468   8.840  1.00  0.00    -0.550 OA
ATOM      5  O   UNL     1      17.621  -4.407   7.002  1.00  0.00    -0.550 OA
ENDBRANCH   2   3
ENDBRANCH   1   2
BRANCH   1   6
ATOM      6  C   UNL     1      13.458  -2.607   7.041  1.00  0.00     0.000 C 
BRANCH   6   7
ATOM      7  C   UNL     1      12.232  -3.009   6.214  1.00  0.00    -0.003 C 
ATOM      8  C   UNL     1      11.111  -3.533   7.107  1.00  0.00     0.004 C 
ENDBRANCH   6   7
ENDBRANCH   1   6
TORSDOF 4
ENDMDL
MODEL 6
REMARK VINA RESULT:    -3.621     17.404     18.441
REMARK INTER + INTRA:          -4.576
REMARK INTER:                  -4.403
REMARK INTRA:                  -0.173
REMARK UNBOUND:                -0.108
REMARK SMILES CCCCCC(=O)[O-]
REMARK SMILES IDX 4 1 5 2 6 3 7 4 8 5 3 6 2 7 1 8
REMARK H PARENT
REMARK Flexibility Score: inf
ROOT
ATOM      1  C   UNL     1      15.856  -3.674   8.507  1.00  0.00     0.006 C 
ENDROOT
BRANCH   1   2
ATOM      2  C   UNL     1      17.347  -3.827   8.177  1.00  0.00     0.053 C 
BRANCH   2   3
ATOM      3  C   UNL     1      17.562  -4.234   6.751  1.00  0.00     0.041 C 
ATOM      4  O   UNL     1      18.730  -4.378   6.303  1.00  0.00    -0.550 OA
ATOM      5  O   UNL     1      16.473  -4.484   5.926  1.00  0.00    -0.550 OA
ENDBRANCH   2   3
ENDBRANCH   1   2
BRANCH   1   6
ATOM      6  C   UNL     1      15.440  -2.203   8.653  1.00  0.00     0.000 C 
BRANCH   6   7
ATOM      7  C   UNL     1      13.998  -1.990   8.180  1.00  0.00    -0.003 C 
ATOM      8  C   UNL     1      13.558  -3.102   7.232  1.00  0.00     0.004 C 
ENDBRANCH   6   7
ENDBRANCH   1   6
TORSDOF 4
ENDMDL
MODEL 7
REMARK VINA RESULT:    -3.599      1.562      2.091
REMARK INTER + INTRA:          -4.549
REMARK INTER:                  -4.287
REMARK INTRA:                  -0.262
REMARK UNBOUND:                -0.108
REMARK SMILES CCCCCC(=O)[O-]
REMARK SMILES IDX 4 1 5 2 6 3 7 4 8 5 3 6 2 7 1 8
REMARK H PARENT
REMARK Flexibility Score: inf
ROOT
ATOM      1  C   UNL     1       8.122   3.371  20.785  1.00  0.00     0.006 C 
ENDROOT
BRANCH   1   2
ATOM      2  C   UNL     1       8.550   4.773  21.238  1.00  0.00     0.053 C 
BRANCH   2   3
ATOM      3  C   UNL     1       7.517   5.413  22.114  1.00  0.00     0.041 C 
ATOM      4  O   UNL     1       6.859   6.403  21.697  1.00  0.00    -0.550 OA
ATOM      5  O   UNL     1       7.258   4.898  23.377  1.00  0.00    -0.550 OA
ENDBRANCH   2   3
ENDBRANCH   1   2
BRANCH   1   6
ATOM      6  C   UNL     1       6.986   3.414  19.752  1.00  0.00     0.000 C 
BRANCH   6   7
ATOM      7  C   UNL     1       7.358   4.305  18.562  1.00  0.00    -0.003 C 
ATOM      8  C   UNL     1       6.261   5.325  18.272  1.00  0.00     0.004 C 
ENDBRANCH   6   7
ENDBRANCH   1   6
TORSDOF 4
ENDMDL
MODEL 8
REMARK VINA RESULT:    -3.492     16.064     17.058
REMARK INTER + INTRA:          -4.417
REMARK INTER:                  -4.311
REMARK INTRA:                  -0.106
REMARK UNBOUND:                -0.108
REMARK SMILES CCCCCC(=O)[O-]
REMARK SMILES IDX 4 1 5 2 6 3 7 4 8 5 3 6 2 7 1 8
REMARK H PARENT
REMARK Flexibility Score: inf
ROOT
ATOM      1  C   UNL     1      13.886  -2.607   6.913  1.00  0.00     0.006 C 
ENDROOT
BRANCH   1   2
ATOM      2  C   UNL     1      12.515  -2.868   6.275  1.00  0.00     0.053 C 
BRANCH   2   3
ATOM      3  C   UNL     1      11.440  -3.018   7.307  1.00  0.00     0.041 C 
ATOM      4  O   UNL     1      10.802  -4.099   7.405  1.00  0.00    -0.550 OA
ATOM      5  O   UNL     1      11.165  -1.975   8.182  1.00  0.00    -0.550 OA
ENDBRANCH   2   3
ENDBRANCH   1   2
BRANCH   1   6
ATOM      6  C   UNL     1      14.753  -3.873   6.968  1.00  0.00     0.000 C 
BRANCH   6   7
ATOM      7  C   UNL     1      15.705  -3.834   8.169  1.00  0.00    -0.003 C 
ATOM      8  C   UNL     1      16.019  -2.399   8.579  1.00  0.00     0.004 C 
ENDBRANCH   6   7
ENDBRANCH   1   6
TORSDOF 4
ENDMDL
MODEL 9
REMARK VINA RESULT:    -3.462      3.418      4.651
REMARK INTER + INTRA:          -4.380
REMARK INTER:                  -4.230
REMARK INTRA:                  -0.150
REMARK UNBOUND:                -0.108
REMARK SMILES CCCCCC(=O)[O-]
REMARK SMILES IDX 4 1 5 2 6 3 7 4 8 5 3 6 2 7 1 8
REMARK H PARENT
REMARK Flexibility Score: inf
ROOT
ATOM      1  C   UNL     1       6.778   5.578  18.935  1.00  0.00     0.006 C 
ENDROOT
BRANCH   1   2
ATOM      2  C   UNL     1       6.738   6.746  17.941  1.00  0.00     0.053 C 
BRANCH   2   3
ATOM      3  C   UNL     1       7.765   6.592  16.861  1.00  0.00     0.041 C 
ATOM      4  O   UNL     1       8.490   7.568  16.533  1.00  0.00    -0.550 OA
ATOM      5  O   UNL     1       7.944   5.363  16.240  1.00  0.00    -0.550 OA
ENDBRANCH   2   3
ENDBRANCH   1   2
BRANCH   1   6
ATOM      6  C   UNL     1       7.382   5.984  20.287  1.00  0.00     0.000 C 
BRANCH   6   7
ATOM      7  C   UNL     1       8.216   4.844  20.882  1.00  0.00    -0.003 C 
ATOM      8  C   UNL     1       8.500   3.767  19.840  1.00  0.00     0.004 C 
ENDBRANCH   6   7
ENDBRANCH   1   6
TORSDOF 4
ENDMDL
