MODEL 1
REMARK VINA RESULT:    -3.924      0.000      0.000
REMARK INTER + INTRA:          -5.261
REMARK INTER:                  -5.186
REMARK INTRA:                  -0.075
REMARK UNBOUND:                -0.075
REMARK SMILES CCCCCCCO
REMARK SMILES IDX 5 1 4 2 3 3 2 4 1 5 6 6 7 7 8 8
REMARK H PARENT 8 9
REMARK Flexibility Score: inf
ROOT
ATOM      1  C   UNL     1      21.330  -4.222  19.391  1.00  0.00     0.002 C 
ENDROOT
BRANCH   1   2
ATOM      2  C   UNL     1      21.063  -3.056  20.365  1.00  0.00     0.000 C 
BRANCH   2   3
ATOM      3  C   UNL     1      20.173  -3.403  21.571  1.00  0.00    -0.000 C 
BRANCH   3   4
ATOM      4  C   UNL     1      20.944  -3.408  22.899  1.00  0.00    -0.003 C 
ATOM      5  C   UNL     1      21.177  -1.987  23.404  1.00  0.00     0.004 C 
ENDBRANCH   3   4
ENDBRANCH   2   3
ENDBRANCH   1   2
BRANCH   1   6
ATOM      6  C   UNL     1      21.188  -3.870  17.899  1.00  0.00     0.028 C 
BRANCH   6   7
ATOM      7  C   UNL     1      22.150  -4.655  17.005  1.00  0.00     0.156 C 
BRANCH   7   8
ATOM      8  O   UNL     1      23.080  -3.775  16.437  1.00  0.00    -0.396 OA
ATOM      9  H   UNL     1      23.748  -4.343  15.972  1.00  0.00     0.210 HD
ENDBRANCH   7   8
ENDBRANCH   6   7
ENDBRANCH   1   6
TORSDOF 6
ENDMDL
MODEL 2
REMARK VINA RESULT:    -3.878      5.484      5.913
REMARK INTER + INTRA:          -5.200
REMARK INTER:                  -4.976
REMARK INTRA:                  -0.224
REMARK UNBOUND:                -0.075
REMARK SMILES CCCCCCCO
REMARK SMILES IDX 5 1 4 2 3 3 2 4 1 5 6 6 7 7 8 8
REMARK H PARENT 8 9
REMARK Flexibility Score: inf
ROOT
ATOM      1  C   UNL     1      15.800  -3.032  18.005  1.00  0.00     0.002 C 
ENDROOT
BRANCH   1   2
ATOM      2  C   UNL     1      16.632  -2.151  18.959  1.00  0.00     0.000 C 
BRANCH   2   3
ATOM      3  C   UNL     1      16.723  -2.662  20.407  1.00  0.00    -0.000 C 
BRANCH   3   4
ATOM      4  C   UNL     1      18.170  -2.812  20.897  1.00  0.00    -0.003 C 
ATOM      5  C   UNL     1      18.558  -4.282  21.023  1.00  0.00     0.004 C 
ENDBRANCH   3   4
ENDBRANCH   2   3
ENDBRANCH   1   2
BRANCH   1   6
ATOM      6  C   UNL     1      15.865  -4.543  18.291  1.00  0.00     0.028 C 
BRANCH   6   7
ATOM      7  C   UNL     1      14.705  -5.320  17.664  1.00  0.00     0.156 C 
BRANCH   7   8
ATOM      8  O   UNL     1      13.824  -5.734  18.671  1.00  0.00    -0.396 OA
ATOM      9  H   UNL     1      13.187  -4.985  18.804  1.00  0.00     0.210 HD
ENDBRANCH   7   8
ENDBRANCH   6   7
ENDBRANCH   1   6
TORSDOF 6
ENDMDL
MODEL 3
REMARK VINA RESULT:    -3.823      5.827      6.611
REMARK INTER + INTRA:          -5.127
REMARK INTER:                  -4.993
REMARK INTRA:                  -0.135
REMARK UNBOUND:                -0.075
REMARK SMILES CCCCCCCO
REMARK SMILES IDX 5 1 4 2 3 3 2 4 1 5 6 6 7 7 8 8
REMARK H PARENT 8 9
REMARK Flexibility Score: inf
ROOT
ATOM      1  C   UNL     1      15.829  -3.648  17.389  1.00  0.00     0.002 C 
ENDROOT
BRANCH   1   2
ATOM      2  C   UNL     1      17.061  -3.120  18.151  1.00  0.00     0.000 C 
BRANCH   2   3
ATOM      3  C   UNL     1      18.215  -2.622  17.262  1.00  0.00    -0.000 C 
BRANCH   3   4
ATOM      4  C   UNL     1      18.348  -1.092  17.258  1.00  0.00    -0.003 C 
ATOM      5  C   UNL     1      17.596  -0.473  18.433  1.00  0.00     0.004 C 
ENDBRANCH   3   4
ENDBRANCH   2   3
ENDBRANCH   1   2
BRANCH   1   6
ATOM      6  C   UNL     1      15.739  -5.181  17.278  1.00  0.00     0.028 C 
BRANCH   6   7
ATOM      7  C   UNL     1      14.307  -5.706  17.397  1.00  0.00     0.156 C 
BRANCH   7   8
ATOM      8  O   UNL     1      13.935  -5.739  18.747  1.00  0.00    -0.396 OA
ATOM      9  H   UNL     1      14.721  -5.411  19.257  1.00  0.00     0.210 HD
ENDBRANCH   7   8
ENDBRANCH   6   7
ENDBRANCH   1   6
TORSDOF 6
ENDMDL
MODEL 4
REMARK VINA RESULT:    -3.780      3.363      4.305
REMARK INTER + INTRA:          -5.071
REMARK INTER:                  -4.737
REMARK INTRA:                  -0.333
REMARK UNBOUND:                -0.075
REMARK SMILES CCCCCCCO
REMARK SMILES IDX 5 1 4 2 3 3 2 4 1 5 6 6 7 7 8 8
REMARK H PARENT 8 9
REMARK Flexibility Score: inf
ROOT
ATOM      1  C   UNL     1      21.126  -2.991  22.941  1.00  0.00     0.002 C 
ENDROOT
BRANCH   1   2
ATOM      2  C   UNL     1      21.101  -1.653  23.707  1.00  0.00     0.000 C 
BRANCH   2   3
ATOM      3  C   UNL     1      19.938  -0.713  23.342  1.00  0.00    -0.000 C 
BRANCH   3   4
ATOM      4  C   UNL     1      20.411   0.592  22.685  1.00  0.00    -0.003 C 
ATOM      5  C   UNL     1      20.424   0.468  21.165  1.00  0.00     0.004 C 
ENDBRANCH   3   4
ENDBRANCH   2   3
ENDBRANCH   1   2
BRANCH   1   6
ATOM      6  C   UNL     1      22.147  -3.064  21.792  1.00  0.00     0.028 C 
BRANCH   6   7
ATOM      7  C   UNL     1      23.202  -1.957  21.858  1.00  0.00     0.156 C 
BRANCH   7   8
ATOM      8  O   UNL     1      24.475  -2.534  21.958  1.00  0.00    -0.396 OA
ATOM      9  H   UNL     1      24.327  -3.510  22.060  1.00  0.00     0.210 HD
ENDBRANCH   7   8
ENDBRANCH   6   7
ENDBRANCH   1   6
TORSDOF 6
ENDMDL
MODEL 5
REMARK VINA RESULT:    -3.759      2.270      2.561
REMARK INTER + INTRA:          -5.043
REMARK INTER:                  -4.856
REMARK INTRA:                  -0.187
REMARK UNBOUND:                -0.075
REMARK SMILES CCCCCCCO
REMARK SMILES IDX 5 1 4 2 3 3 2 4 1 5 6 6 7 7 8 8
REMARK H PARENT 8 9
REMARK Flexibility Score: inf
ROOT
ATOM      1  C   UNL     1      20.263  -3.597  18.039  1.00  0.00     0.002 C 
ENDROOT
BRANCH   1   2
ATOM      2  C   UNL     1      18.863  -4.128  18.407  1.00  0.00     0.000 C 
BRANCH   2   3
ATOM      3  C   UNL     1      18.819  -5.067  19.626  1.00  0.00    -0.000 C 
BRANCH   3   4
ATOM      4  C   UNL     1      18.553  -4.322  20.942  1.00  0.00    -0.003 C 
ATOM      5  C   UNL     1      17.816  -3.010  20.692  1.00  0.00     0.004 C 
ENDBRANCH   3   4
ENDBRANCH   2   3
ENDBRANCH   1   2
BRANCH   1   6
ATOM      6  C   UNL     1      21.416  -4.594  18.255  1.00  0.00     0.028 C 
BRANCH   6   7
ATOM      7  C   UNL     1      22.176  -4.916  16.966  1.00  0.00     0.156 C 
BRANCH   7   8
ATOM      8  O   UNL     1      22.901  -3.789  16.560  1.00  0.00    -0.396 OA
ATOM      9  H   UNL     1      23.849  -3.976  16.786  1.00  0.00     0.210 HD
ENDBRANCH   7   8
ENDBRANCH   6   7
ENDBRANCH   1   6
TORSDOF 6
ENDMDL
MODEL 6
REMARK VINA RESULT:    -3.682      1.791      2.195
REMARK INTER + INTRA:          -4.940
REMARK INTER:                  -4.507
REMARK INTRA:                  -0.433
REMARK UNBOUND:                -0.075
REMARK SMILES CCCCCCCO
REMARK SMILES IDX 5 1 4 2 3 3 2 4 1 5 6 6 7 7 8 8
REMARK H PARENT 8 9
REMARK Flexibility Score: inf
ROOT
ATOM      1  C   UNL     1      18.782  -4.814  19.553  1.00  0.00     0.002 C 
ENDROOT
BRANCH   1   2
ATOM      2  C   UNL     1      18.783  -4.267  20.994  1.00  0.00     0.000 C 
BRANCH   2   3
ATOM      3  C   UNL     1      18.810  -2.732  21.111  1.00  0.00    -0.000 C 
BRANCH   3   4
ATOM      4  C   UNL     1      20.021  -2.215  21.901  1.00  0.00    -0.003 C 
ATOM      5  C   UNL     1      20.761  -3.361  22.583  1.00  0.00     0.004 C 
ENDBRANCH   3   4
ENDBRANCH   2   3
ENDBRANCH   1   2
BRANCH   1   6
ATOM      6  C   UNL     1      19.847  -4.205  18.623  1.00  0.00     0.028 C 
BRANCH   6   7
ATOM      7  C   UNL     1      21.274  -4.596  19.013  1.00  0.00     0.156 C 
BRANCH   7   8
ATOM      8  O   UNL     1      22.038  -3.438  19.204  1.00  0.00    -0.396 OA
ATOM      9  H   UNL     1      22.640  -3.372  18.418  1.00  0.00     0.210 HD
ENDBRANCH   7   8
ENDBRANCH   6   7
ENDBRANCH   1   6
TORSDOF 6
ENDMDL
MODEL 7
REMARK VINA RESULT:    -3.669     13.664     14.681
REMARK INTER + INTRA:          -4.923
REMARK INTER:                  -4.724
REMARK INTRA:                  -0.199
REMARK UNBOUND:                -0.075
REMARK SMILES CCCCCCCO
REMARK SMILES IDX 5 1 4 2 3 3 2 4 1 5 6 6 7 7 8 8
REMARK H PARENT 8 9
REMARK Flexibility Score: inf
ROOT
ATOM      1  C   UNL     1       9.943 -10.938  14.680  1.00  0.00     0.002 C 
ENDROOT
BRANCH   1   2
ATOM      2  C   UNL     1      10.930 -12.050  14.274  1.00  0.00     0.000 C 
BRANCH   2   3
ATOM      3  C   UNL     1      12.419 -11.686  14.413  1.00  0.00    -0.000 C 
BRANCH   3   4
ATOM      4  C   UNL     1      13.228 -12.758  15.157  1.00  0.00    -0.003 C 
ATOM      5  C   UNL     1      12.700 -12.958  16.575  1.00  0.00     0.004 C 
ENDBRANCH   3   4
ENDBRANCH   2   3
ENDBRANCH   1   2
BRANCH   1   6
ATOM      6  C   UNL     1       9.139 -11.217  15.963  1.00  0.00     0.028 C 
BRANCH   6   7
ATOM      7  C   UNL     1       7.933 -10.289  16.126  1.00  0.00     0.156 C 
BRANCH   7   8
ATOM      8  O   UNL     1       8.378  -8.994  16.418  1.00  0.00    -0.396 OA
ATOM      9  H   UNL     1       7.654  -8.382  16.127  1.00  0.00     0.210 HD
ENDBRANCH   7   8
ENDBRANCH   6   7
ENDBRANCH   1   6
TORSDOF 6
ENDMDL
MODEL 8
REMARK VINA RESULT:    -3.654      3.269      4.194
REMARK INTER + INTRA:          -4.904
REMARK INTER:                  -4.770
REMARK INTRA:                  -0.134
REMARK UNBOUND:                -0.075
REMARK SMILES CCCCCCCO
REMARK SMILES IDX 5 1 4 2 3 3 2 4 1 5 6 6 7 7 8 8
REMARK H PARENT 8 9
REMARK Flexibility Score: inf
ROOT
ATOM      1  C   UNL     1      19.333  -3.683  17.800  1.00  0.00     0.002 C 
ENDROOT
BRANCH   1   2
ATOM      2  C   UNL     1      18.384  -2.726  17.050  1.00  0.00     0.000 C 
BRANCH   2   3
ATOM      3  C   UNL     1      18.685  -1.228  17.237  1.00  0.00    -0.000 C 
BRANCH   3   4
ATOM      4  C   UNL     1      17.986  -0.628  18.465  1.00  0.00    -0.003 C 
ATOM      5  C   UNL     1      16.699   0.090  18.068  1.00  0.00     0.004 C 
ENDBRANCH   3   4
ENDBRANCH   2   3
ENDBRANCH   1   2
BRANCH   1   6
ATOM      6  C   UNL     1      20.815  -3.270  17.791  1.00  0.00     0.028 C 
BRANCH   6   7
ATOM      7  C   UNL     1      21.739  -4.368  17.259  1.00  0.00     0.156 C 
BRANCH   7   8
ATOM      8  O   UNL     1      22.840  -3.782  16.622  1.00  0.00    -0.396 OA
ATOM      9  H   UNL     1      23.222  -3.136  17.272  1.00  0.00     0.210 HD
ENDBRANCH   7   8
ENDBRANCH   6   7
ENDBRANCH   1   6
TORSDOF 6
ENDMDL
MODEL 9
REMARK VINA RESULT:    -3.583      2.327      3.541
REMARK INTER + INTRA:          -4.809
REMARK INTER:                  -4.525
REMARK INTRA:                  -0.284
REMARK UNBOUND:                -0.075
REMARK SMILES CCCCCCCO
REMARK SMILES IDX 5 1 4 2 3 3 2 4 1 5 6 6 7 7 8 8
REMARK H PARENT 8 9
REMARK Flexibility Score: inf
ROOT
ATOM      1  C   UNL     1      21.028  -3.222  22.987  1.00  0.00     0.002 C 
ENDROOT
BRANCH   1   2
ATOM      2  C   UNL     1      21.026  -1.833  23.656  1.00  0.00     0.000 C 
BRANCH   2   3
ATOM      3  C   UNL     1      19.932  -0.870  23.161  1.00  0.00    -0.000 C 
BRANCH   3   4
ATOM      4  C   UNL     1      20.433   0.573  23.006  1.00  0.00    -0.003 C 
ATOM      5  C   UNL     1      21.833   0.606  22.400  1.00  0.00     0.004 C 
ENDBRANCH   3   4
ENDBRANCH   2   3
ENDBRANCH   1   2
BRANCH   1   6
ATOM      6  C   UNL     1      20.812  -3.211  21.463  1.00  0.00     0.028 C 
BRANCH   6   7
ATOM      7  C   UNL     1      22.047  -2.746  20.688  1.00  0.00     0.156 C 
BRANCH   7   8
ATOM      8  O   UNL     1      22.074  -3.374  19.436  1.00  0.00    -0.396 OA
ATOM      9  H   UNL     1      22.866  -3.972  19.446  1.00  0.00     0.210 HD
ENDBRANCH   7   8
ENDBRANCH   6   7
ENDBRANCH   1   6
TORSDOF 6
ENDMDL
