MODEL 1
REMARK VINA RESULT:    -4.516      0.000      0.000
REMARK INTER + INTRA:         -12.394
REMARK INTER:                  -9.796
REMARK INTRA:                  -2.598
REMARK UNBOUND:                -2.598
REMARK SMILES CCCCCCCCCCCCCCCCCCCCCC(=O)[O-]
REMARK SMILES IDX 12 1 11 2 10 3 9 4 8 5 7 6 6 7 5 8 4 9 3 10 2 11 1 12 13 13
REMARK SMILES IDX 14 14 15 15 16 16 17 17 18 18 19 19 20 20 21 21 22 22 23 23
REMARK SMILES IDX 24 24
REMARK H PARENT
REMARK Flexibility Score: inf
ROOT
ATOM      1  C   UNL     1       1.864  43.246   9.208  1.00  0.00     0.000 C 
ENDROOT
BRANCH   1   2
ATOM      2  C   UNL     1       1.251  44.555   8.680  1.00  0.00     0.000 C 
BRANCH   2   3
ATOM      3  C   UNL     1       0.815  45.529   9.797  1.00  0.00     0.000 C 
BRANCH   3   4
ATOM      4  C   UNL     1      -0.408  46.367   9.391  1.00  0.00    -0.000 C 
BRANCH   4   5
ATOM      5  C   UNL     1      -0.739  46.178   7.906  1.00  0.00    -0.000 C 
BRANCH   5   6
ATOM      6  C   UNL     1      -0.671  47.517   7.155  1.00  0.00    -0.000 C 
BRANCH   6   7
ATOM      7  C   UNL     1      -0.517  48.719   8.101  1.00  0.00    -0.000 C 
BRANCH   7   8
ATOM      8  C   UNL     1      -0.590  50.062   7.359  1.00  0.00    -0.000 C 
BRANCH   8   9
ATOM      9  C   UNL     1       0.633  50.935   7.682  1.00  0.00    -0.000 C 
BRANCH   9  10
ATOM     10  C   UNL     1       1.780  50.136   8.320  1.00  0.00    -0.000 C 
BRANCH  10  11
ATOM     11  C   UNL     1       2.959  49.922   7.360  1.00  0.00    -0.003 C 
ATOM     12  C   UNL     1       3.341  48.447   7.281  1.00  0.00     0.004 C 
ENDBRANCH  10  11
ENDBRANCH   9  10
ENDBRANCH   8   9
ENDBRANCH   7   8
ENDBRANCH   6   7
ENDBRANCH   5   6
ENDBRANCH   4   5
ENDBRANCH   3   4
ENDBRANCH   2   3
ENDBRANCH   1   2
BRANCH   1  13
ATOM     13  C   UNL     1       3.395  43.207   9.074  1.00  0.00     0.000 C 
BRANCH  13  14
ATOM     14  C   UNL     1       4.102  42.986  10.420  1.00  0.00     0.000 C 
BRANCH  14  15
ATOM     15  C   UNL     1       3.172  43.219  11.624  1.00  0.00     0.000 C 
BRANCH  15  16
ATOM     16  C   UNL     1       3.574  44.449  12.452  1.00  0.00     0.000 C 
BRANCH  16  17
ATOM     17  C   UNL     1       4.661  45.296  11.765  1.00  0.00     0.000 C 
BRANCH  17  18
ATOM     18  C   UNL     1       4.076  46.404  10.875  1.00  0.00     0.000 C 
BRANCH  18  19
ATOM     19  C   UNL     1       4.887  46.625   9.590  1.00  0.00     0.000 C 
BRANCH  19  20
ATOM     20  C   UNL     1       6.193  47.372   9.887  1.00  0.00     0.006 C 
BRANCH  20  21
ATOM     21  C   UNL     1       6.469  48.442   8.826  1.00  0.00     0.053 C 
BRANCH  21  22
ATOM     22  C   UNL     1       7.667  49.257   9.202  1.00  0.00     0.041 C 
ATOM     23  O   UNL     1       7.817  50.416   8.732  1.00  0.00    -0.550 OA
ATOM     24  O   UNL     1       8.638  48.722  10.038  1.00  0.00    -0.550 OA
ENDBRANCH  21  22
ENDBRANCH  20  21
ENDBRANCH  19  20
ENDBRANCH  18  19
ENDBRANCH  17  18
ENDBRANCH  16  17
ENDBRANCH  15  16
ENDBRANCH  14  15
ENDBRANCH  13  14
ENDBRANCH   1  13
TORSDOF 20
ENDMDL
MODEL 2
REMARK VINA RESULT:    -4.411      4.061      6.154
REMARK INTER + INTRA:         -12.166
REMARK INTER:                  -9.544
REMARK INTRA:                  -2.623
REMARK UNBOUND:                -2.598
REMARK SMILES CCCCCCCCCCCCCCCCCCCCCC(=O)[O-]
REMARK SMILES IDX 12 1 11 2 10 3 9 4 8 5 7 6 6 7 5 8 4 9 3 10 2 11 1 12 13 13
REMARK SMILES IDX 14 14 15 15 16 16 17 17 18 18 19 19 20 20 21 21 22 22 23 23
REMARK SMILES IDX 24 24
REMARK H PARENT
REMARK Flexibility Score: inf
ROOT
ATOM      1  C   UNL     1       0.749  45.269   8.660  1.00  0.00     0.000 C 
ENDROOT
BRANCH   1   2
ATOM      2  C   UNL     1       0.186  45.869   7.361  1.00  0.00     0.000 C 
BRANCH   2   3
ATOM      3  C   UNL     1      -0.977  46.860   7.588  1.00  0.00     0.000 C 
BRANCH   3   4
ATOM      4  C   UNL     1      -0.593  47.995   8.550  1.00  0.00    -0.000 C 
BRANCH   4   5
ATOM      5  C   UNL     1       0.387  48.972   7.888  1.00  0.00    -0.000 C 
BRANCH   5   6
ATOM      6  C   UNL     1       1.614  49.206   8.782  1.00  0.00    -0.000 C 
BRANCH   6   7
ATOM      7  C   UNL     1       2.910  49.380   7.974  1.00  0.00    -0.000 C 
BRANCH   7   8
ATOM      8  C   UNL     1       3.632  48.047   7.729  1.00  0.00    -0.000 C 
BRANCH   8   9
ATOM      9  C   UNL     1       3.665  47.197   9.009  1.00  0.00    -0.000 C 
BRANCH   9  10
ATOM     10  C   UNL     1       5.078  47.069   9.599  1.00  0.00    -0.000 C 
BRANCH  10  11
ATOM     11  C   UNL     1       6.102  47.961   8.883  1.00  0.00    -0.003 C 
ATOM     12  C   UNL     1       7.436  47.970   9.624  1.00  0.00     0.004 C 
ENDBRANCH  10  11
ENDBRANCH   9  10
ENDBRANCH   8   9
ENDBRANCH   7   8
ENDBRANCH   6   7
ENDBRANCH   5   6
ENDBRANCH   4   5
ENDBRANCH   3   4
ENDBRANCH   2   3
ENDBRANCH   1   2
BRANCH   1  13
ATOM     13  C   UNL     1       1.135  43.787   8.517  1.00  0.00     0.000 C 
BRANCH  13  14
ATOM     14  C   UNL     1       2.656  43.569   8.516  1.00  0.00     0.000 C 
BRANCH  14  15
ATOM     15  C   UNL     1       3.120  42.619   9.635  1.00  0.00     0.000 C 
BRANCH  15  16
ATOM     16  C   UNL     1       4.147  43.270  10.574  1.00  0.00     0.000 C 
BRANCH  16  17
ATOM     17  C   UNL     1       3.598  43.482  11.997  1.00  0.00     0.000 C 
BRANCH  17  18
ATOM     18  C   UNL     1       2.425  44.474  12.039  1.00  0.00     0.000 C 
BRANCH  18  19
ATOM     19  C   UNL     1       1.063  43.779  12.182  1.00  0.00     0.000 C 
BRANCH  19  20
ATOM     20  C   UNL     1       1.208  42.427  12.891  1.00  0.00     0.006 C 
BRANCH  20  21
ATOM     21  C   UNL     1      -0.070  42.065  13.655  1.00  0.00     0.053 C 
BRANCH  21  22
ATOM     22  C   UNL     1       0.159  40.869  14.524  1.00  0.00     0.041 C 
ATOM     23  O   UNL     1       0.145  40.985  15.778  1.00  0.00    -0.550 OA
ATOM     24  O   UNL     1       0.429  39.633  13.950  1.00  0.00    -0.550 OA
ENDBRANCH  21  22
ENDBRANCH  20  21
ENDBRANCH  19  20
ENDBRANCH  18  19
ENDBRANCH  17  18
ENDBRANCH  16  17
ENDBRANCH  15  16
ENDBRANCH  14  15
ENDBRANCH  13  14
ENDBRANCH   1  13
TORSDOF 20
ENDMDL
MODEL 3
REMARK VINA RESULT:    -4.409      2.042      6.588
REMARK INTER + INTRA:         -12.162
REMARK INTER:                  -9.729
REMARK INTRA:                  -2.433
REMARK UNBOUND:                -2.598
REMARK SMILES CCCCCCCCCCCCCCCCCCCCCC(=O)[O-]
REMARK SMILES IDX 12 1 11 2 10 3 9 4 8 5 7 6 6 7 5 8 4 9 3 10 2 11 1 12 13 13
REMARK SMILES IDX 14 14 15 15 16 16 17 17 18 18 19 19 20 20 21 21 22 22 23 23
REMARK SMILES IDX 24 24
REMARK H PARENT
REMARK Flexibility Score: inf
ROOT
ATOM      1  C   UNL     1       0.244  46.176   9.300  1.00  0.00     0.000 C 
ENDROOT
BRANCH   1   2
ATOM      2  C   UNL     1       1.129  45.004   9.757  1.00  0.00     0.000 C 
BRANCH   2   3
ATOM      3  C   UNL     1       1.516  44.038   8.615  1.00  0.00     0.000 C 
BRANCH   3   4
ATOM      4  C   UNL     1       2.540  42.985   9.067  1.00  0.00    -0.000 C 
BRANCH   4   5
ATOM      5  C   UNL     1       3.773  43.645   9.693  1.00  0.00    -0.000 C 
BRANCH   5   6
ATOM      6  C   UNL     1       4.114  42.999  11.044  1.00  0.00    -0.000 C 
BRANCH   6   7
ATOM      7  C   UNL     1       3.760  43.900  12.239  1.00  0.00    -0.000 C 
BRANCH   7   8
ATOM      8  C   UNL     1       2.259  43.874  12.568  1.00  0.00    -0.000 C 
BRANCH   8   9
ATOM      9  C   UNL     1       1.734  42.431  12.622  1.00  0.00    -0.000 C 
BRANCH   9  10
ATOM     10  C   UNL     1       0.389  42.318  13.358  1.00  0.00    -0.000 C 
BRANCH  10  11
ATOM     11  C   UNL     1       0.203  40.957  14.044  1.00  0.00    -0.003 C 
ATOM     12  C   UNL     1       0.022  41.122  15.551  1.00  0.00     0.004 C 
ENDBRANCH  10  11
ENDBRANCH   9  10
ENDBRANCH   8   9
ENDBRANCH   7   8
ENDBRANCH   6   7
ENDBRANCH   5   6
ENDBRANCH   4   5
ENDBRANCH   3   4
ENDBRANCH   2   3
ENDBRANCH   1   2
BRANCH   1  13
ATOM     13  C   UNL     1       0.001  46.186   7.781  1.00  0.00     0.000 C 
BRANCH  13  14
ATOM     14  C   UNL     1      -0.414  47.569   7.257  1.00  0.00     0.000 C 
BRANCH  14  15
ATOM     15  C   UNL     1      -0.234  48.680   8.306  1.00  0.00     0.000 C 
BRANCH  15  16
ATOM     16  C   UNL     1       0.434  49.937   7.727  1.00  0.00     0.000 C 
BRANCH  16  17
ATOM     17  C   UNL     1       1.734  50.310   8.464  1.00  0.00     0.000 C 
BRANCH  17  18
ATOM     18  C   UNL     1       2.938  50.429   7.517  1.00  0.00     0.000 C 
BRANCH  18  19
ATOM     19  C   UNL     1       3.704  49.107   7.358  1.00  0.00     0.000 C 
BRANCH  19  20
ATOM     20  C   UNL     1       3.452  48.180   8.553  1.00  0.00     0.006 C 
BRANCH  20  21
ATOM     21  C   UNL     1       4.462  47.027   8.579  1.00  0.00     0.053 C 
BRANCH  21  22
ATOM     22  C   UNL     1       5.343  47.129   9.784  1.00  0.00     0.041 C 
ATOM     23  O   UNL     1       4.902  46.810  10.921  1.00  0.00    -0.550 OA
ATOM     24  O   UNL     1       6.638  47.615   9.661  1.00  0.00    -0.550 OA
ENDBRANCH  21  22
ENDBRANCH  20  21
ENDBRANCH  19  20
ENDBRANCH  18  19
ENDBRANCH  17  18
ENDBRANCH  16  17
ENDBRANCH  15  16
ENDBRANCH  14  15
ENDBRANCH  13  14
ENDBRANCH   1  13
TORSDOF 20
ENDMDL
MODEL 4
REMARK VINA RESULT:    -4.301      0.854      5.444
REMARK INTER + INTRA:         -11.928
REMARK INTER:                  -8.977
REMARK INTRA:                  -2.951
REMARK UNBOUND:                -2.598
REMARK SMILES CCCCCCCCCCCCCCCCCCCCCC(=O)[O-]
REMARK SMILES IDX 12 1 11 2 10 3 9 4 8 5 7 6 6 7 5 8 4 9 3 10 2 11 1 12 13 13
REMARK SMILES IDX 14 14 15 15 16 16 17 17 18 18 19 19 20 20 21 21 22 22 23 23
REMARK SMILES IDX 24 24
REMARK H PARENT
REMARK Flexibility Score: inf
ROOT
ATOM      1  C   UNL     1      -0.468  49.328   7.421  1.00  0.00     0.000 C 
ENDROOT
BRANCH   1   2
ATOM      2  C   UNL     1      -1.016  48.365   8.487  1.00  0.00     0.000 C 
BRANCH   2   3
ATOM      3  C   UNL     1      -0.308  46.992   8.506  1.00  0.00     0.000 C 
BRANCH   3   4
ATOM      4  C   UNL     1      -0.696  46.123   7.300  1.00  0.00    -0.000 C 
BRANCH   4   5
ATOM      5  C   UNL     1       0.022  44.768   7.341  1.00  0.00    -0.000 C 
BRANCH   5   6
ATOM      6  C   UNL     1       1.093  44.750   8.442  1.00  0.00    -0.000 C 
BRANCH   6   7
ATOM      7  C   UNL     1       1.551  43.326   8.799  1.00  0.00    -0.000 C 
BRANCH   7   8
ATOM      8  C   UNL     1       3.061  43.246   9.068  1.00  0.00    -0.000 C 
BRANCH   8   9
ATOM      9  C   UNL     1       3.340  42.733  10.489  1.00  0.00    -0.000 C 
BRANCH   9  10
ATOM     10  C   UNL     1       2.371  43.314  11.530  1.00  0.00    -0.000 C 
BRANCH  10  11
ATOM     11  C   UNL     1       2.829  44.677  12.070  1.00  0.00    -0.003 C 
ATOM     12  C   UNL     1       4.294  44.633  12.496  1.00  0.00     0.004 C 
ENDBRANCH  10  11
ENDBRANCH   9  10
ENDBRANCH   8   9
ENDBRANCH   7   8
ENDBRANCH   6   7
ENDBRANCH   5   6
ENDBRANCH   4   5
ENDBRANCH   3   4
ENDBRANCH   2   3
ENDBRANCH   1   2
BRANCH   1  13
ATOM     13  C   UNL     1       0.343  50.488   8.022  1.00  0.00     0.000 C 
BRANCH  13  14
ATOM     14  C   UNL     1       1.594  50.828   7.197  1.00  0.00     0.000 C 
BRANCH  14  15
ATOM     15  C   UNL     1       2.901  50.546   7.959  1.00  0.00     0.000 C 
BRANCH  15  16
ATOM     16  C   UNL     1       3.716  49.404   7.333  1.00  0.00     0.000 C 
BRANCH  16  17
ATOM     17  C   UNL     1       3.135  48.015   7.657  1.00  0.00     0.000 C 
BRANCH  17  18
ATOM     18  C   UNL     1       3.326  47.621   9.130  1.00  0.00     0.000 C 
BRANCH  18  19
ATOM     19  C   UNL     1       4.519  46.676   9.343  1.00  0.00     0.000 C 
BRANCH  19  20
ATOM     20  C   UNL     1       5.727  47.435   9.903  1.00  0.00     0.006 C 
BRANCH  20  21
ATOM     21  C   UNL     1       6.694  47.837   8.785  1.00  0.00     0.053 C 
BRANCH  21  22
ATOM     22  C   UNL     1       7.582  48.954   9.235  1.00  0.00     0.041 C 
ATOM     23  O   UNL     1       7.495  50.090   8.697  1.00  0.00    -0.550 OA
ATOM     24  O   UNL     1       8.536  48.731  10.220  1.00  0.00    -0.550 OA
ENDBRANCH  21  22
ENDBRANCH  20  21
ENDBRANCH  19  20
ENDBRANCH  18  19
ENDBRANCH  17  18
ENDBRANCH  16  17
ENDBRANCH  15  16
ENDBRANCH  14  15
ENDBRANCH  13  14
ENDBRANCH   1  13
TORSDOF 20
ENDMDL
MODEL 5
REMARK VINA RESULT:    -4.270      2.688      6.846
REMARK INTER + INTRA:         -11.859
REMARK INTER:                  -9.644
REMARK INTRA:                  -2.215
REMARK UNBOUND:                -2.598
REMARK SMILES CCCCCCCCCCCCCCCCCCCCCC(=O)[O-]
REMARK SMILES IDX 12 1 11 2 10 3 9 4 8 5 7 6 6 7 5 8 4 9 3 10 2 11 1 12 13 13
REMARK SMILES IDX 14 14 15 15 16 16 17 17 18 18 19 19 20 20 21 21 22 22 23 23
REMARK SMILES IDX 24 24
REMARK H PARENT
REMARK Flexibility Score: inf
ROOT
ATOM      1  C   UNL     1       1.289  43.982   8.653  1.00  0.00     0.000 C 
ENDROOT
BRANCH   1   2
ATOM      2  C   UNL     1       2.595  43.188   8.828  1.00  0.00     0.000 C 
BRANCH   2   3
ATOM      3  C   UNL     1       3.653  43.917   9.684  1.00  0.00     0.000 C 
BRANCH   3   4
ATOM      4  C   UNL     1       4.040  43.115  10.937  1.00  0.00    -0.000 C 
BRANCH   4   5
ATOM      5  C   UNL     1       3.790  43.928  12.213  1.00  0.00    -0.000 C 
BRANCH   5   6
ATOM      6  C   UNL     1       2.285  44.069  12.487  1.00  0.00    -0.000 C 
BRANCH   6   7
ATOM      7  C   UNL     1       1.507  42.775  12.194  1.00  0.00    -0.000 C 
BRANCH   7   8
ATOM      8  C   UNL     1       0.415  42.499  13.239  1.00  0.00    -0.000 C 
BRANCH   8   9
ATOM      9  C   UNL     1       0.878  41.439  14.250  1.00  0.00    -0.000 C 
BRANCH   9  10
ATOM     10  C   UNL     1      -0.181  40.352  14.495  1.00  0.00    -0.000 C 
BRANCH  10  11
ATOM     11  C   UNL     1      -1.124  40.695  15.657  1.00  0.00    -0.003 C 
ATOM     12  C   UNL     1      -0.582  41.863  16.477  1.00  0.00     0.004 C 
ENDBRANCH  10  11
ENDBRANCH   9  10
ENDBRANCH   8   9
ENDBRANCH   7   8
ENDBRANCH   6   7
ENDBRANCH   5   6
ENDBRANCH   4   5
ENDBRANCH   3   4
ENDBRANCH   2   3
ENDBRANCH   1   2
BRANCH   1  13
ATOM     13  C   UNL     1       1.395  45.428   9.166  1.00  0.00     0.000 C 
BRANCH  13  14
ATOM     14  C   UNL     1       0.118  45.898   9.880  1.00  0.00     0.000 C 
BRANCH  14  15
ATOM     15  C   UNL     1      -0.708  46.883   9.032  1.00  0.00     0.000 C 
BRANCH  15  16
ATOM     16  C   UNL     1       0.075  47.423   7.825  1.00  0.00     0.000 C 
BRANCH  16  17
ATOM     17  C   UNL     1       0.359  48.932   7.932  1.00  0.00     0.000 C 
BRANCH  17  18
ATOM     18  C   UNL     1       1.762  49.235   8.480  1.00  0.00     0.000 C 
BRANCH  18  19
ATOM     19  C   UNL     1       2.823  49.340   7.374  1.00  0.00     0.000 C 
BRANCH  19  20
ATOM     20  C   UNL     1       4.195  48.885   7.883  1.00  0.00     0.006 C 
BRANCH  20  21
ATOM     21  C   UNL     1       4.089  47.562   8.649  1.00  0.00     0.053 C 
BRANCH  21  22
ATOM     22  C   UNL     1       5.320  47.327   9.466  1.00  0.00     0.041 C 
ATOM     23  O   UNL     1       5.245  46.709  10.561  1.00  0.00    -0.550 OA
ATOM     24  O   UNL     1       6.544  47.827   9.040  1.00  0.00    -0.550 OA
ENDBRANCH  21  22
ENDBRANCH  20  21
ENDBRANCH  19  20
ENDBRANCH  18  19
ENDBRANCH  17  18
ENDBRANCH  16  17
ENDBRANCH  15  16
ENDBRANCH  14  15
ENDBRANCH  13  14
ENDBRANCH   1  13
TORSDOF 20
ENDMDL
MODEL 6
REMARK VINA RESULT:    -4.251      1.074      5.583
REMARK INTER + INTRA:         -11.820
REMARK INTER:                  -9.367
REMARK INTRA:                  -2.453
REMARK UNBOUND:                -2.598
REMARK SMILES CCCCCCCCCCCCCCCCCCCCCC(=O)[O-]
REMARK SMILES IDX 12 1 11 2 10 3 9 4 8 5 7 6 6 7 5 8 4 9 3 10 2 11 1 12 13 13
REMARK SMILES IDX 14 14 15 15 16 16 17 17 18 18 19 19 20 20 21 21 22 22 23 23
REMARK SMILES IDX 24 24
REMARK H PARENT
REMARK Flexibility Score: inf
ROOT
ATOM      1  C   UNL     1      -0.184  47.904   7.435  1.00  0.00     0.000 C 
ENDROOT
BRANCH   1   2
ATOM      2  C   UNL     1      -1.111  46.786   6.930  1.00  0.00     0.000 C 
BRANCH   2   3
ATOM      3  C   UNL     1      -0.603  45.364   7.261  1.00  0.00     0.000 C 
BRANCH   3   4
ATOM      4  C   UNL     1       0.595  45.385   8.223  1.00  0.00    -0.000 C 
BRANCH   4   5
ATOM      5  C   UNL     1       0.156  45.757   9.644  1.00  0.00    -0.000 C 
BRANCH   5   6
ATOM      6  C   UNL     1       1.251  45.409  10.664  1.00  0.00    -0.000 C 
BRANCH   6   7
ATOM      7  C   UNL     1       0.868  44.221  11.562  1.00  0.00    -0.000 C 
BRANCH   7   8
ATOM      8  C   UNL     1       2.084  43.610  12.275  1.00  0.00    -0.000 C 
BRANCH   8   9
ATOM      9  C   UNL     1       3.344  44.455  12.035  1.00  0.00    -0.000 C 
BRANCH   9  10
ATOM     10  C   UNL     1       4.406  43.713  11.208  1.00  0.00    -0.000 C 
BRANCH  10  11
ATOM     11  C   UNL     1       3.793  42.710  10.220  1.00  0.00    -0.003 C 
ATOM     12  C   UNL     1       3.668  43.319   8.826  1.00  0.00     0.004 C 
ENDBRANCH  10  11
ENDBRANCH   9  10
ENDBRANCH   8   9
ENDBRANCH   7   8
ENDBRANCH   6   7
ENDBRANCH   5   6
ENDBRANCH   4   5
ENDBRANCH   3   4
ENDBRANCH   2   3
ENDBRANCH   1   2
BRANCH   1  13
ATOM     13  C   UNL     1      -0.909  49.250   7.608  1.00  0.00     0.000 C 
BRANCH  13  14
ATOM     14  C   UNL     1       0.042  50.452   7.515  1.00  0.00     0.000 C 
BRANCH  14  15
ATOM     15  C   UNL     1       1.390  50.197   8.214  1.00  0.00     0.000 C 
BRANCH  15  16
ATOM     16  C   UNL     1       2.590  50.645   7.364  1.00  0.00     0.000 C 
BRANCH  16  17
ATOM     17  C   UNL     1       3.803  49.709   7.513  1.00  0.00     0.000 C 
BRANCH  17  18
ATOM     18  C   UNL     1       3.418  48.223   7.447  1.00  0.00     0.000 C 
BRANCH  18  19
ATOM     19  C   UNL     1       3.444  47.540   8.822  1.00  0.00     0.000 C 
BRANCH  19  20
ATOM     20  C   UNL     1       4.751  46.765   9.026  1.00  0.00     0.006 C 
BRANCH  20  21
ATOM     21  C   UNL     1       5.641  47.451  10.068  1.00  0.00     0.053 C 
BRANCH  21  22
ATOM     22  C   UNL     1       6.874  48.002   9.423  1.00  0.00     0.041 C 
ATOM     23  O   UNL     1       8.004  47.519   9.701  1.00  0.00    -0.550 OA
ATOM     24  O   UNL     1       6.781  49.076   8.547  1.00  0.00    -0.550 OA
ENDBRANCH  21  22
ENDBRANCH  20  21
ENDBRANCH  19  20
ENDBRANCH  18  19
ENDBRANCH  17  18
ENDBRANCH  16  17
ENDBRANCH  15  16
ENDBRANCH  14  15
ENDBRANCH  13  14
ENDBRANCH   1  13
TORSDOF 20
ENDMDL
MODEL 7
REMARK VINA RESULT:    -4.152      0.884      2.123
REMARK INTER + INTRA:         -11.604
REMARK INTER:                  -9.490
REMARK INTRA:                  -2.114
REMARK UNBOUND:                -2.598
REMARK SMILES CCCCCCCCCCCCCCCCCCCCCC(=O)[O-]
REMARK SMILES IDX 12 1 11 2 10 3 9 4 8 5 7 6 6 7 5 8 4 9 3 10 2 11 1 12 13 13
REMARK SMILES IDX 14 14 15 15 16 16 17 17 18 18 19 19 20 20 21 21 22 22 23 23
REMARK SMILES IDX 24 24
REMARK H PARENT
REMARK Flexibility Score: inf
ROOT
ATOM      1  C   UNL     1       1.571  44.098   9.403  1.00  0.00     0.000 C 
ENDROOT
BRANCH   1   2
ATOM      2  C   UNL     1       0.758  44.034   8.099  1.00  0.00     0.000 C 
BRANCH   2   3
ATOM      3  C   UNL     1      -0.154  45.261   7.876  1.00  0.00     0.000 C 
BRANCH   3   4
ATOM      4  C   UNL     1       0.344  46.500   8.637  1.00  0.00    -0.000 C 
BRANCH   4   5
ATOM      5  C   UNL     1       1.120  47.443   7.709  1.00  0.00    -0.000 C 
BRANCH   5   6
ATOM      6  C   UNL     1       2.489  47.796   8.309  1.00  0.00    -0.000 C 
BRANCH   6   7
ATOM      7  C   UNL     1       3.348  48.650   7.361  1.00  0.00    -0.000 C 
BRANCH   7   8
ATOM      8  C   UNL     1       3.433  50.117   7.809  1.00  0.00    -0.000 C 
BRANCH   8   9
ATOM      9  C   UNL     1       2.379  50.972   7.089  1.00  0.00    -0.000 C 
BRANCH   9  10
ATOM     10  C   UNL     1       1.083  51.122   7.902  1.00  0.00    -0.000 C 
BRANCH  10  11
ATOM     11  C   UNL     1      -0.173  51.125   7.018  1.00  0.00    -0.003 C 
ATOM     12  C   UNL     1      -1.097  49.963   7.374  1.00  0.00     0.004 C 
ENDBRANCH  10  11
ENDBRANCH   9  10
ENDBRANCH   8   9
ENDBRANCH   7   8
ENDBRANCH   6   7
ENDBRANCH   5   6
ENDBRANCH   4   5
ENDBRANCH   3   4
ENDBRANCH   2   3
ENDBRANCH   1   2
BRANCH   1  13
ATOM     13  C   UNL     1       2.950  43.429   9.281  1.00  0.00     0.000 C 
BRANCH  13  14
ATOM     14  C   UNL     1       3.360  42.680  10.559  1.00  0.00     0.000 C 
BRANCH  14  15
ATOM     15  C   UNL     1       2.487  43.052  11.771  1.00  0.00     0.000 C 
BRANCH  15  16
ATOM     16  C   UNL     1       2.983  44.316  12.490  1.00  0.00     0.000 C 
BRANCH  16  17
ATOM     17  C   UNL     1       4.287  44.868  11.886  1.00  0.00     0.000 C 
BRANCH  17  18
ATOM     18  C   UNL     1       4.092  46.227  11.196  1.00  0.00     0.000 C 
BRANCH  18  19
ATOM     19  C   UNL     1       5.026  46.422   9.992  1.00  0.00     0.000 C 
BRANCH  19  20
ATOM     20  C   UNL     1       5.796  47.743  10.102  1.00  0.00     0.006 C 
BRANCH  20  21
ATOM     21  C   UNL     1       6.851  47.861   8.998  1.00  0.00     0.053 C 
BRANCH  21  22
ATOM     22  C   UNL     1       7.771  49.009   9.270  1.00  0.00     0.041 C 
ATOM     23  O   UNL     1       8.691  48.895  10.124  1.00  0.00    -0.550 OA
ATOM     24  O   UNL     1       7.589  50.219   8.613  1.00  0.00    -0.550 OA
ENDBRANCH  21  22
ENDBRANCH  20  21
ENDBRANCH  19  20
ENDBRANCH  18  19
ENDBRANCH  17  18
ENDBRANCH  16  17
ENDBRANCH  15  16
ENDBRANCH  14  15
ENDBRANCH  13  14
ENDBRANCH   1  13
TORSDOF 20
ENDMDL
MODEL 8
REMARK VINA RESULT:    -4.135      4.265      6.725
REMARK INTER + INTRA:         -11.568
REMARK INTER:                  -9.176
REMARK INTRA:                  -2.392
REMARK UNBOUND:                -2.598
REMARK SMILES CCCCCCCCCCCCCCCCCCCCCC(=O)[O-]
REMARK SMILES IDX 12 1 11 2 10 3 9 4 8 5 7 6 6 7 5 8 4 9 3 10 2 11 1 12 13 13
REMARK SMILES IDX 14 14 15 15 16 16 17 17 18 18 19 19 20 20 21 21 22 22 23 23
REMARK SMILES IDX 24 24
REMARK H PARENT
REMARK Flexibility Score: inf
ROOT
ATOM      1  C   UNL     1       3.197  47.998   8.498  1.00  0.00     0.000 C 
ENDROOT
BRANCH   1   2
ATOM      2  C   UNL     1       3.455  48.929   7.301  1.00  0.00     0.000 C 
BRANCH   2   3
ATOM      3  C   UNL     1       3.120  50.410   7.584  1.00  0.00     0.000 C 
BRANCH   3   4
ATOM      4  C   UNL     1       1.765  50.574   8.290  1.00  0.00    -0.000 C 
BRANCH   4   5
ATOM      5  C   UNL     1       0.661  50.940   7.291  1.00  0.00    -0.000 C 
BRANCH   5   6
ATOM      6  C   UNL     1      -0.609  50.116   7.551  1.00  0.00    -0.000 C 
BRANCH   6   7
ATOM      7  C   UNL     1      -0.305  48.739   8.163  1.00  0.00    -0.000 C 
BRANCH   7   8
ATOM      8  C   UNL     1      -0.317  47.615   7.115  1.00  0.00    -0.000 C 
BRANCH   8   9
ATOM      9  C   UNL     1      -0.847  46.306   7.718  1.00  0.00    -0.000 C 
BRANCH   9  10
ATOM     10  C   UNL     1       0.138  45.137   7.555  1.00  0.00    -0.000 C 
BRANCH  10  11
ATOM     11  C   UNL     1       1.032  44.940   8.788  1.00  0.00    -0.003 C 
ATOM     12  C   UNL     1       0.503  45.732   9.981  1.00  0.00     0.004 C 
ENDBRANCH  10  11
ENDBRANCH   9  10
ENDBRANCH   8   9
ENDBRANCH   7   8
ENDBRANCH   6   7
ENDBRANCH   5   6
ENDBRANCH   4   5
ENDBRANCH   3   4
ENDBRANCH   2   3
ENDBRANCH   1   2
BRANCH   1  13
ATOM     13  C   UNL     1       4.286  46.925   8.667  1.00  0.00     0.000 C 
BRANCH  13  14
ATOM     14  C   UNL     1       4.857  46.879  10.093  1.00  0.00     0.000 C 
BRANCH  14  15
ATOM     15  C   UNL     1       3.885  46.241  11.101  1.00  0.00     0.000 C 
BRANCH  15  16
ATOM     16  C   UNL     1       4.530  45.100  11.903  1.00  0.00     0.000 C 
BRANCH  16  17
ATOM     17  C   UNL     1       3.492  44.228  12.633  1.00  0.00     0.000 C 
BRANCH  17  18
ATOM     18  C   UNL     1       2.738  43.284  11.684  1.00  0.00     0.000 C 
BRANCH  18  19
ATOM     19  C   UNL     1       1.296  43.010  12.139  1.00  0.00     0.000 C 
BRANCH  19  20
ATOM     20  C   UNL     1       1.263  41.965  13.261  1.00  0.00     0.006 C 
BRANCH  20  21
ATOM     21  C   UNL     1      -0.144  41.836  13.853  1.00  0.00     0.053 C 
BRANCH  21  22
ATOM     22  C   UNL     1      -0.283  40.547  14.600  1.00  0.00     0.041 C 
ATOM     23  O   UNL     1      -0.300  39.452  13.977  1.00  0.00    -0.550 OA
ATOM     24  O   UNL     1      -0.435  40.556  15.981  1.00  0.00    -0.550 OA
ENDBRANCH  21  22
ENDBRANCH  20  21
ENDBRANCH  19  20
ENDBRANCH  18  19
ENDBRANCH  17  18
ENDBRANCH  16  17
ENDBRANCH  15  16
ENDBRANCH  14  15
ENDBRANCH  13  14
ENDBRANCH   1  13
TORSDOF 20
ENDMDL
MODEL 9
REMARK VINA RESULT:    -3.997      2.870      7.220
REMARK INTER + INTRA:         -11.268
REMARK INTER:                  -8.838
REMARK INTRA:                  -2.430
REMARK UNBOUND:                -2.598
REMARK SMILES CCCCCCCCCCCCCCCCCCCCCC(=O)[O-]
REMARK SMILES IDX 12 1 11 2 10 3 9 4 8 5 7 6 6 7 5 8 4 9 3 10 2 11 1 12 13 13
REMARK SMILES IDX 14 14 15 15 16 16 17 17 18 18 19 19 20 20 21 21 22 22 23 23
REMARK SMILES IDX 24 24
REMARK H PARENT
REMARK Flexibility Score: inf
ROOT
ATOM      1  C   UNL     1       2.141  46.444  10.038  1.00  0.00     0.000 C 
ENDROOT
BRANCH   1   2
ATOM      2  C   UNL     1       3.475  45.783   9.651  1.00  0.00     0.000 C 
BRANCH   2   3
ATOM      3  C   UNL     1       4.464  45.647  10.831  1.00  0.00     0.000 C 
BRANCH   3   4
ATOM      4  C   UNL     1       3.782  45.117  12.102  1.00  0.00    -0.000 C 
BRANCH   4   5
ATOM      5  C   UNL     1       3.912  43.593  12.204  1.00  0.00    -0.000 C 
BRANCH   5   6
ATOM      6  C   UNL     1       2.718  42.896  11.536  1.00  0.00    -0.000 C 
BRANCH   6   7
ATOM      7  C   UNL     1       1.413  43.064  12.332  1.00  0.00    -0.000 C 
BRANCH   7   8
ATOM      8  C   UNL     1       1.055  41.810  13.144  1.00  0.00    -0.000 C 
BRANCH   8   9
ATOM      9  C   UNL     1      -0.220  42.036  13.971  1.00  0.00    -0.000 C 
BRANCH   9  10
ATOM     10  C   UNL     1      -0.824  40.724  14.498  1.00  0.00    -0.000 C 
BRANCH  10  11
ATOM     11  C   UNL     1      -0.650  40.561  16.016  1.00  0.00    -0.003 C 
ATOM     12  C   UNL     1      -0.864  41.888  16.738  1.00  0.00     0.004 C 
ENDBRANCH  10  11
ENDBRANCH   9  10
ENDBRANCH   8   9
ENDBRANCH   7   8
ENDBRANCH   6   7
ENDBRANCH   5   6
ENDBRANCH   4   5
ENDBRANCH   3   4
ENDBRANCH   2   3
ENDBRANCH   1   2
BRANCH   1  13
ATOM     13  C   UNL     1       0.931  45.521   9.818  1.00  0.00     0.000 C 
BRANCH  13  14
ATOM     14  C   UNL     1       1.144  44.527   8.666  1.00  0.00     0.000 C 
BRANCH  14  15
ATOM     15  C   UNL     1       0.123  44.709   7.529  1.00  0.00     0.000 C 
BRANCH  15  16
ATOM     16  C   UNL     1      -0.876  45.843   7.808  1.00  0.00     0.000 C 
BRANCH  16  17
ATOM     17  C   UNL     1      -1.006  46.822   6.627  1.00  0.00     0.000 C 
BRANCH  17  18
ATOM     18  C   UNL     1      -1.097  48.288   7.079  1.00  0.00     0.000 C 
BRANCH  18  19
ATOM     19  C   UNL     1      -0.329  48.558   8.380  1.00  0.00     0.000 C 
BRANCH  19  20
ATOM     20  C   UNL     1       0.875  49.473   8.128  1.00  0.00     0.006 C 
BRANCH  20  21
ATOM     21  C   UNL     1       2.043  48.692   7.516  1.00  0.00     0.053 C 
BRANCH  21  22
ATOM     22  C   UNL     1       3.328  49.435   7.704  1.00  0.00     0.041 C 
ATOM     23  O   UNL     1       3.375  50.679   7.506  1.00  0.00    -0.550 OA
ATOM     24  O   UNL     1       4.484  48.751   8.057  1.00  0.00    -0.550 OA
ENDBRANCH  21  22
ENDBRANCH  20  21
ENDBRANCH  19  20
ENDBRANCH  18  19
ENDBRANCH  17  18
ENDBRANCH  16  17
ENDBRANCH  15  16
ENDBRANCH  14  15
ENDBRANCH  13  14
ENDBRANCH   1  13
TORSDOF 20
ENDMDL
