MODEL 1
REMARK VINA RESULT:    -4.196      0.000      0.000
REMARK INTER + INTRA:          -4.462
REMARK INTER:                  -4.441
REMARK INTRA:                  -0.021
REMARK UNBOUND:                -0.021
REMARK SMILES O=C([O-])c1cccnc1
REMARK SMILES IDX 4 1 5 2 9 3 6 4 8 5 7 6 2 7 1 8 3 9
REMARK H PARENT
REMARK Flexibility Score: inf
ROOT
ATOM      1  C   UNL     1     -44.360  26.868 -18.980  1.00  0.00     0.016 A 
ATOM      2  C   UNL     1     -43.664  26.880 -20.200  1.00  0.00     0.013 A 
ATOM      3  C   UNL     1     -44.041  27.843 -18.018  1.00  0.00     0.120 A 
ATOM      4  C   UNL     1     -42.683  27.844 -20.436  1.00  0.00     0.021 A 
ATOM      5  N   UNL     1     -43.080  28.770 -18.275  1.00  0.00    -0.264 NA
ATOM      6  C   UNL     1     -42.401  28.791 -19.451  1.00  0.00     0.111 A 
ENDROOT
BRANCH   1   7
ATOM      7  C   UNL     1     -45.403  25.852 -18.716  1.00  0.00     0.073 C 
ATOM      8  O   UNL     1     -45.265  24.670 -19.131  1.00  0.00    -0.545 OA
ATOM      9  O   UNL     1     -46.549  26.189 -18.006  1.00  0.00    -0.545 OA
ENDBRANCH   1   7
TORSDOF 1
ENDMDL
MODEL 2
REMARK VINA RESULT:    -4.050      0.994      1.627
REMARK INTER + INTRA:          -4.308
REMARK INTER:                  -4.289
REMARK INTRA:                  -0.019
REMARK UNBOUND:                -0.021
REMARK SMILES O=C([O-])c1cccnc1
REMARK SMILES IDX 4 1 5 2 9 3 6 4 8 5 7 6 2 7 1 8 3 9
REMARK H PARENT
REMARK Flexibility Score: inf
ROOT
ATOM      1  C   UNL     1     -44.270  27.019 -19.132  1.00  0.00     0.016 A 
ATOM      2  C   UNL     1     -43.853  27.959 -18.176  1.00  0.00     0.013 A 
ATOM      3  C   UNL     1     -43.599  26.978 -20.367  1.00  0.00     0.120 A 
ATOM      4  C   UNL     1     -42.795  28.824 -18.459  1.00  0.00     0.021 A 
ATOM      5  N   UNL     1     -42.572  27.834 -20.617  1.00  0.00    -0.264 NA
ATOM      6  C   UNL     1     -42.159  28.746 -19.699  1.00  0.00     0.111 A 
ENDROOT
BRANCH   1   7
ATOM      7  C   UNL     1     -45.390  26.096 -18.844  1.00  0.00     0.073 C 
ATOM      8  O   UNL     1     -45.270  24.859 -19.051  1.00  0.00    -0.545 OA
ATOM      9  O   UNL     1     -46.590  26.583 -18.338  1.00  0.00    -0.545 OA
ENDBRANCH   1   7
TORSDOF 1
ENDMDL
MODEL 3
REMARK VINA RESULT:    -3.944      9.811     11.414
REMARK INTER + INTRA:          -4.195
REMARK INTER:                  -4.177
REMARK INTRA:                  -0.019
REMARK UNBOUND:                -0.021
REMARK SMILES O=C([O-])c1cccnc1
REMARK SMILES IDX 4 1 5 2 9 3 6 4 8 5 7 6 2 7 1 8 3 9
REMARK H PARENT
REMARK Flexibility Score: inf
ROOT
ATOM      1  C   UNL     1     -52.657  23.808 -13.544  1.00  0.00     0.016 A 
ATOM      2  C   UNL     1     -53.819  24.593 -13.613  1.00  0.00     0.013 A 
ATOM      3  C   UNL     1     -52.463  22.997 -12.412  1.00  0.00     0.120 A 
ATOM      4  C   UNL     1     -54.751  24.558 -12.574  1.00  0.00     0.021 A 
ATOM      5  N   UNL     1     -53.387  22.982 -11.414  1.00  0.00    -0.264 NA
ATOM      6  C   UNL     1     -54.515  23.737 -11.470  1.00  0.00     0.111 A 
ENDROOT
BRANCH   1   7
ATOM      7  C   UNL     1     -51.662  23.837 -14.638  1.00  0.00     0.073 C 
ATOM      8  O   UNL     1     -51.264  22.766 -15.171  1.00  0.00    -0.545 OA
ATOM      9  O   UNL     1     -51.153  25.047 -15.095  1.00  0.00    -0.545 OA
ENDBRANCH   1   7
TORSDOF 1
ENDMDL
MODEL 4
REMARK VINA RESULT:    -3.903      1.604      2.713
REMARK INTER + INTRA:          -4.152
REMARK INTER:                  -4.133
REMARK INTRA:                  -0.019
REMARK UNBOUND:                -0.021
REMARK SMILES O=C([O-])c1cccnc1
REMARK SMILES IDX 4 1 5 2 9 3 6 4 8 5 7 6 2 7 1 8 3 9
REMARK H PARENT
REMARK Flexibility Score: inf
ROOT
ATOM      1  C   UNL     1     -45.097  26.796 -17.524  1.00  0.00     0.016 A 
ATOM      2  C   UNL     1     -45.258  26.902 -16.133  1.00  0.00     0.013 A 
ATOM      3  C   UNL     1     -44.292  27.746 -18.178  1.00  0.00     0.120 A 
ATOM      4  C   UNL     1     -44.628  27.931 -15.431  1.00  0.00     0.021 A 
ATOM      5  N   UNL     1     -43.690  28.739 -17.470  1.00  0.00    -0.264 NA
ATOM      6  C   UNL     1     -43.839  28.850 -16.124  1.00  0.00     0.111 A 
ENDROOT
BRANCH   1   7
ATOM      7  C   UNL     1     -45.759  25.711 -18.280  1.00  0.00     0.073 C 
ATOM      8  O   UNL     1     -45.118  25.042 -19.134  1.00  0.00    -0.545 OA
ATOM      9  O   UNL     1     -47.099  25.414 -18.057  1.00  0.00    -0.545 OA
ENDBRANCH   1   7
TORSDOF 1
ENDMDL
MODEL 5
REMARK VINA RESULT:    -3.871      1.568      2.140
REMARK INTER + INTRA:          -4.118
REMARK INTER:                  -4.094
REMARK INTRA:                  -0.024
REMARK UNBOUND:                -0.021
REMARK SMILES O=C([O-])c1cccnc1
REMARK SMILES IDX 4 1 5 2 9 3 6 4 8 5 7 6 2 7 1 8 3 9
REMARK H PARENT
REMARK Flexibility Score: inf
ROOT
ATOM      1  C   UNL     1     -46.023  26.588 -17.847  1.00  0.00     0.016 A 
ATOM      2  C   UNL     1     -45.323  25.934 -18.874  1.00  0.00     0.013 A 
ATOM      3  C   UNL     1     -45.503  27.796 -17.347  1.00  0.00     0.120 A 
ATOM      4  C   UNL     1     -44.141  26.481 -19.375  1.00  0.00     0.021 A 
ATOM      5  N   UNL     1     -44.348  28.306 -17.854  1.00  0.00    -0.264 NA
ATOM      6  C   UNL     1     -43.664  27.682 -18.847  1.00  0.00     0.111 A 
ENDROOT
BRANCH   1   7
ATOM      7  C   UNL     1     -47.277  26.019 -17.307  1.00  0.00     0.073 C 
ATOM      8  O   UNL     1     -47.754  24.954 -17.783  1.00  0.00    -0.545 OA
ATOM      9  O   UNL     1     -47.945  26.652 -16.265  1.00  0.00    -0.545 OA
ENDBRANCH   1   7
TORSDOF 1
ENDMDL
MODEL 6
REMARK VINA RESULT:    -3.834      6.559      7.523
REMARK INTER + INTRA:          -4.079
REMARK INTER:                  -4.056
REMARK INTRA:                  -0.023
REMARK UNBOUND:                -0.021
REMARK SMILES O=C([O-])c1cccnc1
REMARK SMILES IDX 4 1 5 2 9 3 6 4 8 5 7 6 2 7 1 8 3 9
REMARK H PARENT
REMARK Flexibility Score: inf
ROOT
ATOM      1  C   UNL     1     -50.398  24.909 -15.043  1.00  0.00     0.016 A 
ATOM      2  C   UNL     1     -49.053  24.554 -15.232  1.00  0.00     0.013 A 
ATOM      3  C   UNL     1     -50.739  26.273 -15.059  1.00  0.00     0.120 A 
ATOM      4  C   UNL     1     -48.088  25.543 -15.431  1.00  0.00     0.021 A 
ATOM      5  N   UNL     1     -49.779  27.217 -15.254  1.00  0.00    -0.264 NA
ATOM      6  C   UNL     1     -48.474  26.884 -15.439  1.00  0.00     0.111 A 
ENDROOT
BRANCH   1   7
ATOM      7  C   UNL     1     -51.430  23.870 -14.831  1.00  0.00     0.073 C 
ATOM      8  O   UNL     1     -51.230  22.683 -15.202  1.00  0.00    -0.545 OA
ATOM      9  O   UNL     1     -52.636  24.191 -14.217  1.00  0.00    -0.545 OA
ENDBRANCH   1   7
TORSDOF 1
ENDMDL
MODEL 7
REMARK VINA RESULT:    -3.814      1.828      2.624
REMARK INTER + INTRA:          -4.058
REMARK INTER:                  -4.035
REMARK INTRA:                  -0.023
REMARK UNBOUND:                -0.021
REMARK SMILES O=C([O-])c1cccnc1
REMARK SMILES IDX 4 1 5 2 9 3 6 4 8 5 7 6 2 7 1 8 3 9
REMARK H PARENT
REMARK Flexibility Score: inf
ROOT
ATOM      1  C   UNL     1     -45.986  26.546 -17.891  1.00  0.00     0.016 A 
ATOM      2  C   UNL     1     -45.386  27.745 -17.472  1.00  0.00     0.013 A 
ATOM      3  C   UNL     1     -45.345  25.791 -18.889  1.00  0.00     0.120 A 
ATOM      4  C   UNL     1     -44.181  28.162 -18.042  1.00  0.00     0.021 A 
ATOM      5  N   UNL     1     -44.173  26.221 -19.428  1.00  0.00    -0.264 NA
ATOM      6  C   UNL     1     -43.583  27.379 -19.030  1.00  0.00     0.111 A 
ENDROOT
BRANCH   1   7
ATOM      7  C   UNL     1     -47.261  26.093 -17.295  1.00  0.00     0.073 C 
ATOM      8  O   UNL     1     -47.874  25.101 -17.772  1.00  0.00    -0.545 OA
ATOM      9  O   UNL     1     -47.801  26.757 -16.199  1.00  0.00    -0.545 OA
ENDBRANCH   1   7
TORSDOF 1
ENDMDL
MODEL 8
REMARK VINA RESULT:    -3.805      7.356      8.276
REMARK INTER + INTRA:          -4.048
REMARK INTER:                  -4.031
REMARK INTRA:                  -0.018
REMARK UNBOUND:                -0.021
REMARK SMILES O=C([O-])c1cccnc1
REMARK SMILES IDX 4 1 5 2 9 3 6 4 8 5 7 6 2 7 1 8 3 9
REMARK H PARENT
REMARK Flexibility Score: inf
ROOT
ATOM      1  C   UNL     1     -51.214  25.118 -15.058  1.00  0.00     0.016 A 
ATOM      2  C   UNL     1     -52.122  26.100 -15.485  1.00  0.00     0.013 A 
ATOM      3  C   UNL     1     -49.838  25.402 -15.130  1.00  0.00     0.120 A 
ATOM      4  C   UNL     1     -51.655  27.324 -15.966  1.00  0.00     0.021 A 
ATOM      5  N   UNL     1     -49.411  26.603 -15.605  1.00  0.00    -0.264 NA
ATOM      6  C   UNL     1     -50.281  27.561 -16.020  1.00  0.00     0.111 A 
ENDROOT
BRANCH   1   7
ATOM      7  C   UNL     1     -51.695  23.817 -14.545  1.00  0.00     0.073 C 
ATOM      8  O   UNL     1     -51.376  22.743 -15.122  1.00  0.00    -0.545 OA
ATOM      9  O   UNL     1     -52.507  23.762 -13.418  1.00  0.00    -0.545 OA
ENDBRANCH   1   7
TORSDOF 1
ENDMDL
MODEL 9
REMARK VINA RESULT:    -3.753      6.251      7.902
REMARK INTER + INTRA:          -3.993
REMARK INTER:                  -3.977
REMARK INTRA:                  -0.016
REMARK UNBOUND:                -0.021
REMARK SMILES O=C([O-])c1cccnc1
REMARK SMILES IDX 4 1 5 2 9 3 6 4 8 5 7 6 2 7 1 8 3 9
REMARK H PARENT
REMARK Flexibility Score: inf
ROOT
ATOM      1  C   UNL     1     -49.627  25.582 -15.497  1.00  0.00     0.016 A 
ATOM      2  C   UNL     1     -50.734  26.443 -15.425  1.00  0.00     0.013 A 
ATOM      3  C   UNL     1     -49.808  24.230 -15.156  1.00  0.00     0.120 A 
ATOM      4  C   UNL     1     -51.977  25.953 -15.023  1.00  0.00     0.021 A 
ATOM      5  N   UNL     1     -51.030  23.779 -14.767  1.00  0.00    -0.264 NA
ATOM      6  C   UNL     1     -52.108  24.604 -14.694  1.00  0.00     0.111 A 
ENDROOT
BRANCH   1   7
ATOM      7  C   UNL     1     -48.304  26.089 -15.922  1.00  0.00     0.073 C 
ATOM      8  O   UNL     1     -47.894  25.903 -17.099  1.00  0.00    -0.545 OA
ATOM      9  O   UNL     1     -47.494  26.779 -15.027  1.00  0.00    -0.545 OA
ENDBRANCH   1   7
TORSDOF 1
ENDMDL
