MODEL 1
REMARK VINA RESULT:    -3.446      0.000      0.000
REMARK INTER + INTRA:          -4.909
REMARK INTER:                  -4.857
REMARK INTRA:                  -0.053
REMARK UNBOUND:                -0.053
REMARK SMILES CC1=CCC(=C(C)C)C(=O)CC(C)=CCC1
REMARK SMILES IDX 12 1 14 2 13 3 15 4 16 5 2 6 1 7 3 8 11 10 9 11 10 12 5 13
REMARK SMILES IDX 6 14 7 15 8 16 4 17
REMARK H PARENT
REMARK Flexibility Score: 60.00
ROOT
ATOM      1  C   UNL     1     -32.890  18.737  24.304  1.00  0.00    -0.070 C 
ATOM      2  C   UNL     1     -33.626  17.598  24.451  1.00  0.00    -0.027 C 
ATOM      3  C   UNL     1     -33.585  20.040  24.630  1.00  0.00     0.039 C 
ENDROOT
BRANCH   2   4
ATOM      4  C   UNL     1     -33.259  16.129  24.275  1.00  0.00     0.032 C 
BRANCH   4   5
ATOM      5  C   UNL     1     -32.949  15.326  25.544  1.00  0.00     0.034 C 
BRANCH   5   6
ATOM      6  C   UNL     1     -32.930  16.067  26.889  1.00  0.00    -0.077 C 
ATOM      7  C   UNL     1     -34.194  15.947  27.713  1.00  0.00     0.039 C 
ATOM      8  C   UNL     1     -31.905  16.748  27.481  1.00  0.00    -0.023 CG0
ATOM      9  G   UNL     1     -30.491  17.024  27.006  1.00  0.00     0.000 G0
ENDBRANCH   5   6
ENDBRANCH   4   5
ENDBRANCH   2   4
BRANCH   1  10
ATOM     10  C   UNL     1     -31.445  18.836  23.838  1.00  0.00     0.111 C 
BRANCH  10  11
ATOM     11  C   UNL     1     -30.534  17.983  24.666  1.00  0.00     0.163 C 
ATOM     12  O   UNL     1     -29.880  17.063  24.103  1.00  0.00    -0.294 OA
BRANCH  11  13
ATOM     13  C   UNL     1     -30.364  18.238  26.119  1.00  0.00    -0.002 C 
ATOM     14  C   UNL     1     -30.146  19.495  26.603  1.00  0.00    -0.069 C 
ATOM     15  C   UNL     1     -30.080  19.774  28.088  1.00  0.00     0.039 C 
ATOM     16  C   UNL     1     -29.944  20.667  25.669  1.00  0.00     0.039 C 
BRANCH  13  17
ATOM     17  C   UNL     1     -30.466  17.026  27.022  1.00  0.00     0.066 CG0
ATOM     18  G   UNL     1     -31.893  16.767  27.465  1.00  0.00     0.000 G0
ENDBRANCH  13  17
ENDBRANCH  11  13
ENDBRANCH  10  11
ENDBRANCH   1  10
TORSDOF 0
ENDMDL
MODEL 2
REMARK VINA RESULT:    -3.445      7.126      8.877
REMARK INTER + INTRA:          -4.908
REMARK INTER:                  -5.097
REMARK INTRA:                   0.189
REMARK UNBOUND:                -0.053
REMARK SMILES CC1=CCC(=C(C)C)C(=O)CC(C)=CCC1
REMARK SMILES IDX 12 1 14 2 13 3 15 4 16 5 2 6 1 7 3 8 11 10 9 11 10 12 5 13
REMARK SMILES IDX 6 14 7 15 8 16 4 17
REMARK H PARENT
REMARK Flexibility Score: 60.00
ROOT
ATOM      1  C   UNL     1     -34.316  25.494  30.903  1.00  0.00    -0.070 C 
ATOM      2  C   UNL     1     -34.477  25.737  32.236  1.00  0.00    -0.027 C 
ATOM      3  C   UNL     1     -35.148  26.329  29.957  1.00  0.00     0.039 C 
ENDROOT
BRANCH   2   4
ATOM      4  C   UNL     1     -33.786  25.148  33.460  1.00  0.00     0.032 C 
BRANCH   4   5
ATOM      5  C   UNL     1     -34.387  23.871  34.059  1.00  0.00     0.034 C 
BRANCH   5   6
ATOM      6  C   UNL     1     -33.749  22.523  33.690  1.00  0.00    -0.077 C 
ATOM      7  C   UNL     1     -34.648  21.315  33.847  1.00  0.00     0.039 C 
ATOM      8  C   UNL     1     -32.514  22.273  33.164  1.00  0.00    -0.023 CG0
ATOM      9  G   UNL     1     -31.377  23.211  32.808  1.00  0.00     0.000 G0
ENDBRANCH   5   6
ENDBRANCH   4   5
ENDBRANCH   2   4
BRANCH   1  10
ATOM     10  C   UNL     1     -33.394  24.465  30.269  1.00  0.00     0.111 C 
BRANCH  10  11
ATOM     11  C   UNL     1     -31.986  24.600  30.761  1.00  0.00     0.163 C 
ATOM     12  O   UNL     1     -31.438  25.736  30.742  1.00  0.00    -0.294 OA
BRANCH  11  13
ATOM     13  C   UNL     1     -31.254  23.427  31.303  1.00  0.00    -0.002 C 
ATOM     14  C   UNL     1     -30.513  22.612  30.497  1.00  0.00    -0.069 C 
ATOM     15  C   UNL     1     -29.681  21.482  31.059  1.00  0.00     0.039 C 
ATOM     16  C   UNL     1     -30.506  22.797  28.995  1.00  0.00     0.039 C 
BRANCH  13  17
ATOM     17  C   UNL     1     -31.366  23.206  32.797  1.00  0.00     0.066 CG0
ATOM     18  G   UNL     1     -32.513  22.279  33.150  1.00  0.00     0.000 G0
ENDBRANCH  13  17
ENDBRANCH  11  13
ENDBRANCH  10  11
ENDBRANCH   1  10
TORSDOF 0
ENDMDL
MODEL 3
REMARK VINA RESULT:    -3.434      2.253      4.453
REMARK INTER + INTRA:          -4.892
REMARK INTER:                  -4.947
REMARK INTRA:                   0.056
REMARK UNBOUND:                -0.053
REMARK SMILES CC1=CCC(=C(C)C)C(=O)CC(C)=CCC1
REMARK SMILES IDX 12 1 14 2 13 3 15 4 16 5 2 6 1 7 3 8 11 10 9 11 10 12 5 13
REMARK SMILES IDX 6 14 7 15 8 16 4 17
REMARK H PARENT
REMARK Flexibility Score: 60.00
ROOT
ATOM      1  C   UNL     1     -32.801  19.563  24.649  1.00  0.00    -0.070 C 
ATOM      2  C   UNL     1     -31.677  19.821  23.921  1.00  0.00    -0.027 C 
ATOM      3  C   UNL     1     -34.002  20.440  24.376  1.00  0.00     0.039 C 
ENDROOT
BRANCH   2   4
ATOM      4  C   UNL     1     -30.320  19.128  23.879  1.00  0.00     0.032 C 
BRANCH   4   5
ATOM      5  C   UNL     1     -29.963  18.359  22.601  1.00  0.00     0.034 C 
BRANCH   5   6
ATOM      6  C   UNL     1     -30.669  17.021  22.335  1.00  0.00    -0.077 C 
ATOM      7  C   UNL     1     -30.858  16.667  20.875  1.00  0.00     0.039 C 
ATOM      8  C   UNL     1     -31.073  16.071  23.228  1.00  0.00    -0.023 CG0
ATOM      9  G   UNL     1     -30.997  16.033  24.742  1.00  0.00     0.000 G0
ENDBRANCH   5   6
ENDBRANCH   4   5
ENDBRANCH   2   4
BRANCH   1  10
ATOM     10  C   UNL     1     -32.972  18.490  25.713  1.00  0.00     0.111 C 
BRANCH  10  11
ATOM     11  C   UNL     1     -33.262  17.149  25.113  1.00  0.00     0.163 C 
ATOM     12  O   UNL     1     -34.248  17.028  24.336  1.00  0.00    -0.294 OA
BRANCH  11  13
ATOM     13  C   UNL     1     -32.382  15.986  25.389  1.00  0.00    -0.002 C 
ATOM     14  C   UNL     1     -32.803  14.938  26.155  1.00  0.00    -0.069 C 
ATOM     15  C   UNL     1     -31.951  13.704  26.350  1.00  0.00     0.039 C 
ATOM     16  C   UNL     1     -34.141  14.973  26.858  1.00  0.00     0.039 C 
BRANCH  13  17
ATOM     17  C   UNL     1     -31.006  16.028  24.757  1.00  0.00     0.066 CG0
ATOM     18  G   UNL     1     -31.077  16.045  23.242  1.00  0.00     0.000 G0
ENDBRANCH  13  17
ENDBRANCH  11  13
ENDBRANCH  10  11
ENDBRANCH   1  10
TORSDOF 0
ENDMDL
MODEL 4
REMARK VINA RESULT:    -3.369      2.584      4.681
REMARK INTER + INTRA:          -4.800
REMARK INTER:                  -4.771
REMARK INTRA:                  -0.029
REMARK UNBOUND:                -0.053
REMARK SMILES CC1=CCC(=C(C)C)C(=O)CC(C)=CCC1
REMARK SMILES IDX 12 1 14 2 13 3 15 4 16 5 2 6 1 7 3 8 11 10 9 11 10 12 5 13
REMARK SMILES IDX 6 14 7 15 8 16 4 17
REMARK H PARENT
REMARK Flexibility Score: 60.00
ROOT
ATOM      1  C   UNL     1     -31.975  19.206  24.928  1.00  0.00    -0.070 C 
ATOM      2  C   UNL     1     -31.570  19.081  23.631  1.00  0.00    -0.027 C 
ATOM      3  C   UNL     1     -33.050  18.251  25.396  1.00  0.00     0.039 C 
ENDROOT
BRANCH   2   4
ATOM      4  C   UNL     1     -30.495  19.811  22.834  1.00  0.00     0.032 C 
BRANCH   4   5
ATOM      5  C   UNL     1     -29.040  19.621  23.280  1.00  0.00     0.034 C 
BRANCH   5   6
ATOM      6  C   UNL     1     -28.314  20.812  23.924  1.00  0.00    -0.077 C 
ATOM      7  C   UNL     1     -28.104  22.009  23.021  1.00  0.00     0.039 C 
ATOM      8  C   UNL     1     -27.908  20.974  25.218  1.00  0.00    -0.023 CG0
ATOM      9  G   UNL     1     -28.002  20.044  26.412  1.00  0.00     0.000 G0
ENDBRANCH   5   6
ENDBRANCH   4   5
ENDBRANCH   2   4
BRANCH   1  10
ATOM     10  C   UNL     1     -31.464  20.209  25.950  1.00  0.00     0.111 C 
BRANCH  10  11
ATOM     11  C   UNL     1     -30.465  19.597  26.882  1.00  0.00     0.163 C 
ATOM     12  O   UNL     1     -30.665  18.427  27.311  1.00  0.00    -0.294 OA
BRANCH  11  13
ATOM     13  C   UNL     1     -29.232  20.332  27.266  1.00  0.00    -0.002 C 
ATOM     14  C   UNL     1     -29.214  21.189  28.326  1.00  0.00    -0.069 C 
ATOM     15  C   UNL     1     -27.938  21.856  28.786  1.00  0.00     0.039 C 
ATOM     16  C   UNL     1     -30.481  21.523  29.082  1.00  0.00     0.039 C 
BRANCH  13  17
ATOM     17  C   UNL     1     -28.005  20.056  26.423  1.00  0.00     0.066 CG0
ATOM     18  G   UNL     1     -27.919  20.979  25.223  1.00  0.00     0.000 G0
ENDBRANCH  13  17
ENDBRANCH  11  13
ENDBRANCH  10  11
ENDBRANCH   1  10
TORSDOF 0
ENDMDL
MODEL 5
REMARK VINA RESULT:    -3.259      2.636      5.048
REMARK INTER + INTRA:          -4.645
REMARK INTER:                  -5.007
REMARK INTRA:                   0.362
REMARK UNBOUND:                -0.053
REMARK SMILES CC1=CCC(=C(C)C)C(=O)CC(C)=CCC1
REMARK SMILES IDX 12 1 14 2 13 3 15 4 16 5 2 6 1 7 3 8 11 10 9 11 10 12 5 13
REMARK SMILES IDX 6 14 7 15 8 16 4 17
REMARK H PARENT
REMARK Flexibility Score: 60.00
ROOT
ATOM      1  C   UNL     1     -28.543  20.706  23.804  1.00  0.00    -0.070 C 
ATOM      2  C   UNL     1     -27.474  19.907  24.085  1.00  0.00    -0.027 C 
ATOM      3  C   UNL     1     -28.293  21.870  22.872  1.00  0.00     0.039 C 
ENDROOT
BRANCH   2   4
ATOM      4  C   UNL     1     -27.355  18.636  24.919  1.00  0.00     0.032 C 
BRANCH   4   5
ATOM      5  C   UNL     1     -27.478  17.298  24.181  1.00  0.00     0.034 C 
BRANCH   5   6
ATOM      6  C   UNL     1     -28.357  17.237  22.923  1.00  0.00    -0.077 C 
ATOM      7  C   UNL     1     -27.609  17.099  21.614  1.00  0.00     0.039 C 
ATOM      8  C   UNL     1     -29.719  17.206  22.827  1.00  0.00    -0.023 CG0
ATOM      9  G   UNL     1     -30.791  17.256  23.898  1.00  0.00     0.000 G0
ENDBRANCH   5   6
ENDBRANCH   4   5
ENDBRANCH   2   4
BRANCH   1  10
ATOM     10  C   UNL     1     -29.960  20.556  24.336  1.00  0.00     0.111 C 
BRANCH  10  11
ATOM     11  C   UNL     1     -30.819  19.746  23.415  1.00  0.00     0.163 C 
ATOM     12  O   UNL     1     -30.879  20.067  22.196  1.00  0.00    -0.294 OA
BRANCH  11  13
ATOM     13  C   UNL     1     -31.558  18.558  23.911  1.00  0.00    -0.002 C 
ATOM     14  C   UNL     1     -32.855  18.645  24.326  1.00  0.00    -0.069 C 
ATOM     15  C   UNL     1     -33.644  17.421  24.731  1.00  0.00     0.039 C 
ATOM     16  C   UNL     1     -33.558  19.982  24.414  1.00  0.00     0.039 C 
BRANCH  13  17
ATOM     17  C   UNL     1     -30.793  17.251  23.910  1.00  0.00     0.066 CG0
ATOM     18  G   UNL     1     -29.728  17.216  22.831  1.00  0.00     0.000 G0
ENDBRANCH  13  17
ENDBRANCH  11  13
ENDBRANCH  10  11
ENDBRANCH   1  10
TORSDOF 0
ENDMDL
MODEL 6
REMARK VINA RESULT:    -3.215      2.368      4.693
REMARK INTER + INTRA:          -4.584
REMARK INTER:                  -4.727
REMARK INTRA:                   0.143
REMARK UNBOUND:                -0.053
REMARK SMILES CC1=CCC(=C(C)C)C(=O)CC(C)=CCC1
REMARK SMILES IDX 12 1 14 2 13 3 15 4 16 5 2 6 1 7 3 8 11 10 9 11 10 12 5 13
REMARK SMILES IDX 6 14 7 15 8 16 4 17
REMARK H PARENT
REMARK Flexibility Score: 60.00
ROOT
ATOM      1  C   UNL     1     -33.894  16.907  25.339  1.00  0.00    -0.070 C 
ATOM      2  C   UNL     1     -33.838  18.259  25.508  1.00  0.00    -0.027 C 
ATOM      3  C   UNL     1     -34.399  16.098  26.513  1.00  0.00     0.039 C 
ENDROOT
BRANCH   2   4
ATOM      4  C   UNL     1     -33.445  19.381  24.553  1.00  0.00     0.032 C 
BRANCH   4   5
ATOM      5  C   UNL     1     -32.125  20.110  24.831  1.00  0.00     0.034 C 
BRANCH   5   6
ATOM      6  C   UNL     1     -30.840  19.276  24.936  1.00  0.00    -0.077 C 
ATOM      7  C   UNL     1     -30.071  19.429  26.231  1.00  0.00     0.039 C 
ATOM      8  C   UNL     1     -30.339  18.356  24.060  1.00  0.00    -0.023 CG0
ATOM      9  G   UNL     1     -30.851  17.886  22.712  1.00  0.00     0.000 G0
ENDBRANCH   5   6
ENDBRANCH   4   5
ENDBRANCH   2   4
BRANCH   1  10
ATOM     10  C   UNL     1     -33.495  16.125  24.097  1.00  0.00     0.111 C 
BRANCH  10  11
ATOM     11  C   UNL     1     -32.008  15.993  23.976  1.00  0.00     0.163 C 
ATOM     12  O   UNL     1     -31.361  15.474  24.926  1.00  0.00    -0.294 OA
BRANCH  11  13
ATOM     13  C   UNL     1     -31.304  16.425  22.742  1.00  0.00    -0.002 C 
ATOM     14  C   UNL     1     -31.097  15.568  21.701  1.00  0.00    -0.069 C 
ATOM     15  C   UNL     1     -30.477  16.032  20.402  1.00  0.00     0.039 C 
ATOM     16  C   UNL     1     -31.466  14.105  21.808  1.00  0.00     0.039 C 
BRANCH  13  17
ATOM     17  C   UNL     1     -30.852  17.870  22.706  1.00  0.00     0.066 CG0
ATOM     18  G   UNL     1     -30.358  18.345  24.059  1.00  0.00     0.000 G0
ENDBRANCH  13  17
ENDBRANCH  11  13
ENDBRANCH  10  11
ENDBRANCH   1  10
TORSDOF 0
ENDMDL
MODEL 7
REMARK VINA RESULT:    -3.202      2.614      4.360
REMARK INTER + INTRA:          -4.565
REMARK INTER:                  -4.599
REMARK INTRA:                   0.034
REMARK UNBOUND:                -0.053
REMARK SMILES CC1=CCC(=C(C)C)C(=O)CC(C)=CCC1
REMARK SMILES IDX 12 1 14 2 13 3 15 4 16 5 2 6 1 7 3 8 11 10 9 11 10 12 5 13
REMARK SMILES IDX 6 14 7 15 8 16 4 17
REMARK H PARENT
REMARK Flexibility Score: 60.00
ROOT
ATOM      1  C   UNL     1     -32.625  15.968  23.839  1.00  0.00    -0.070 C 
ATOM      2  C   UNL     1     -33.602  16.715  24.427  1.00  0.00    -0.027 C 
ATOM      3  C   UNL     1     -33.070  14.713  23.122  1.00  0.00     0.039 C 
ENDROOT
BRANCH   2   4
ATOM      4  C   UNL     1     -33.547  18.043  25.175  1.00  0.00     0.032 C 
BRANCH   4   5
ATOM      5  C   UNL     1     -32.981  19.251  24.420  1.00  0.00     0.034 C 
BRANCH   5   6
ATOM      6  C   UNL     1     -31.582  19.759  24.801  1.00  0.00    -0.077 C 
ATOM      7  C   UNL     1     -31.426  20.210  26.238  1.00  0.00     0.039 C 
ATOM      8  C   UNL     1     -30.442  19.781  24.050  1.00  0.00    -0.023 CG0
ATOM      9  G   UNL     1     -30.188  19.358  22.616  1.00  0.00     0.000 G0
ENDBRANCH   5   6
ENDBRANCH   4   5
ENDBRANCH   2   4
BRANCH   1  10
ATOM     10  C   UNL     1     -31.132  16.259  23.835  1.00  0.00     0.111 C 
BRANCH  10  11
ATOM     11  C   UNL     1     -30.684  16.857  22.537  1.00  0.00     0.163 C 
ATOM     12  O   UNL     1     -31.216  16.459  21.465  1.00  0.00    -0.294 OA
BRANCH  11  13
ATOM     13  C   UNL     1     -29.659  17.932  22.509  1.00  0.00    -0.002 C 
ATOM     14  C   UNL     1     -28.330  17.648  22.386  1.00  0.00    -0.069 C 
ATOM     15  C   UNL     1     -27.294  18.741  22.249  1.00  0.00     0.039 C 
ATOM     16  C   UNL     1     -27.832  16.220  22.400  1.00  0.00     0.039 C 
BRANCH  13  17
ATOM     17  C   UNL     1     -30.181  19.350  22.604  1.00  0.00     0.066 CG0
ATOM     18  G   UNL     1     -30.432  19.769  24.040  1.00  0.00     0.000 G0
ENDBRANCH  13  17
ENDBRANCH  11  13
ENDBRANCH  10  11
ENDBRANCH   1  10
TORSDOF 0
ENDMDL
MODEL 8
REMARK VINA RESULT:    -3.190      2.327      3.948
REMARK INTER + INTRA:          -4.548
REMARK INTER:                  -4.639
REMARK INTRA:                   0.091
REMARK UNBOUND:                -0.053
REMARK SMILES CC1=CCC(=C(C)C)C(=O)CC(C)=CCC1
REMARK SMILES IDX 12 1 14 2 13 3 15 4 16 5 2 6 1 7 3 8 11 10 9 11 10 12 5 13
REMARK SMILES IDX 6 14 7 15 8 16 4 17
REMARK H PARENT
REMARK Flexibility Score: 60.00
ROOT
ATOM      1  C   UNL     1     -33.764  17.667  24.952  1.00  0.00    -0.070 C 
ATOM      2  C   UNL     1     -34.343  17.338  26.142  1.00  0.00    -0.027 C 
ATOM      3  C   UNL     1     -33.409  19.123  24.751  1.00  0.00     0.039 C 
ENDROOT
BRANCH   2   4
ATOM      4  C   UNL     1     -34.780  15.995  26.716  1.00  0.00     0.032 C 
BRANCH   4   5
ATOM      5  C   UNL     1     -33.878  15.360  27.781  1.00  0.00     0.034 C 
BRANCH   5   6
ATOM      6  C   UNL     1     -32.368  15.291  27.511  1.00  0.00    -0.077 C 
ATOM      7  C   UNL     1     -31.485  15.842  28.610  1.00  0.00     0.039 C 
ATOM      8  C   UNL     1     -31.709  14.726  26.456  1.00  0.00    -0.023 CG0
ATOM      9  G   UNL     1     -32.233  14.029  25.215  1.00  0.00     0.000 G0
ENDBRANCH   5   6
ENDBRANCH   4   5
ENDBRANCH   2   4
BRANCH   1  10
ATOM     10  C   UNL     1     -33.446  16.725  23.801  1.00  0.00     0.111 C 
BRANCH  10  11
ATOM     11  C   UNL     1     -32.049  16.191  23.888  1.00  0.00     0.163 C 
ATOM     12  O   UNL     1     -31.087  17.003  23.955  1.00  0.00    -0.294 OA
BRANCH  11  13
ATOM     13  C   UNL     1     -31.796  14.728  23.938  1.00  0.00    -0.002 C 
ATOM     14  C   UNL     1     -31.194  14.072  22.904  1.00  0.00    -0.069 C 
ATOM     15  C   UNL     1     -30.838  12.605  22.994  1.00  0.00     0.039 C 
ATOM     16  C   UNL     1     -30.871  14.785  21.610  1.00  0.00     0.039 C 
BRANCH  13  17
ATOM     17  C   UNL     1     -32.228  14.022  25.206  1.00  0.00     0.066 CG0
ATOM     18  G   UNL     1     -31.719  14.724  26.450  1.00  0.00     0.000 G0
ENDBRANCH  13  17
ENDBRANCH  11  13
ENDBRANCH  10  11
ENDBRANCH   1  10
TORSDOF 0
ENDMDL
MODEL 9
REMARK VINA RESULT:    -3.139      1.772      4.621
REMARK INTER + INTRA:          -4.476
REMARK INTER:                  -4.464
REMARK INTRA:                  -0.011
REMARK UNBOUND:                -0.053
REMARK SMILES CC1=CCC(=C(C)C)C(=O)CC(C)=CCC1
REMARK SMILES IDX 12 1 14 2 13 3 15 4 16 5 2 6 1 7 3 8 11 10 9 11 10 12 5 13
REMARK SMILES IDX 6 14 7 15 8 16 4 17
REMARK H PARENT
REMARK Flexibility Score: 60.00
ROOT
ATOM      1  C   UNL     1     -29.296  21.567  24.318  1.00  0.00    -0.070 C 
ATOM      2  C   UNL     1     -28.589  22.346  25.186  1.00  0.00    -0.027 C 
ATOM      3  C   UNL     1     -28.850  21.584  22.874  1.00  0.00     0.039 C 
ENDROOT
BRANCH   2   4
ATOM      4  C   UNL     1     -28.705  22.541  26.693  1.00  0.00     0.032 C 
BRANCH   4   5
ATOM      5  C   UNL     1     -28.406  21.329  27.583  1.00  0.00     0.034 C 
BRANCH   5   6
ATOM      6  C   UNL     1     -29.575  20.662  28.323  1.00  0.00    -0.077 C 
ATOM      7  C   UNL     1     -30.251  21.518  29.372  1.00  0.00     0.039 C 
ATOM      8  C   UNL     1     -30.140  19.437  28.109  1.00  0.00    -0.023 CG0
ATOM      9  G   UNL     1     -29.792  18.340  27.121  1.00  0.00     0.000 G0
ENDBRANCH   5   6
ENDBRANCH   4   5
ENDBRANCH   2   4
BRANCH   1  10
ATOM     10  C   UNL     1     -30.493  20.688  24.649  1.00  0.00     0.111 C 
BRANCH  10  11
ATOM     11  C   UNL     1     -30.110  19.245  24.761  1.00  0.00     0.163 C 
ATOM     12  O   UNL     1     -29.301  18.760  23.924  1.00  0.00    -0.294 OA
BRANCH  11  13
ATOM     13  C   UNL     1     -30.640  18.401  25.862  1.00  0.00    -0.002 C 
ATOM     14  C   UNL     1     -31.811  17.713  25.735  1.00  0.00    -0.069 C 
ATOM     15  C   UNL     1     -32.299  16.769  26.811  1.00  0.00     0.039 C 
ATOM     16  C   UNL     1     -32.685  17.878  24.511  1.00  0.00     0.039 C 
BRANCH  13  17
ATOM     17  C   UNL     1     -29.794  18.339  27.117  1.00  0.00     0.066 CG0
ATOM     18  G   UNL     1     -30.145  19.445  28.094  1.00  0.00     0.000 G0
ENDBRANCH  13  17
ENDBRANCH  11  13
ENDBRANCH  10  11
ENDBRANCH   1  10
TORSDOF 0
ENDMDL
