MODEL 1
REMARK VINA RESULT:     9.373      0.000      0.000
REMARK INTER + INTRA:          21.903
REMARK INTER:                  23.619
REMARK INTRA:                  -1.717
REMARK UNBOUND:                -1.717
REMARK SMILES CCCCCCCCCCCCCCCCCCCCCCCCCCCC(=O)[O-]
REMARK SMILES IDX 15 1 16 2 17 3 18 4 19 5 20 6 21 7 22 8 23 9 24 10 25 11
REMARK SMILES IDX 26 12 27 13 28 14 29 15 30 16 14 17 13 18 12 19 11 20 10 21
REMARK SMILES IDX 9 22 8 23 7 24 6 25 5 26 4 27 3 28 2 29 1 30
REMARK H PARENT
REMARK Flexibility Score: inf
ROOT
ATOM      1  C   UNL     1      13.263   4.990  22.586  1.00  0.00     0.000 C 
ENDROOT
BRANCH   1   2
ATOM      2  C   UNL     1      13.977   3.701  23.025  1.00  0.00     0.000 C 
BRANCH   2   3
ATOM      3  C   UNL     1      13.205   2.938  24.115  1.00  0.00     0.000 C 
BRANCH   3   4
ATOM      4  C   UNL     1      14.084   2.577  25.326  1.00  0.00     0.000 C 
BRANCH   4   5
ATOM      5  C   UNL     1      15.053   3.682  25.783  1.00  0.00     0.000 C 
BRANCH   5   6
ATOM      6  C   UNL     1      16.460   3.148  26.106  1.00  0.00     0.000 C 
BRANCH   6   7
ATOM      7  C   UNL     1      17.122   2.454  24.898  1.00  0.00     0.000 C 
BRANCH   7   8
ATOM      8  C   UNL     1      18.059   1.288  25.273  1.00  0.00     0.000 C 
BRANCH   8   9
ATOM      9  C   UNL     1      19.485   1.726  25.667  1.00  0.00     0.000 C 
BRANCH   9  10
ATOM     10  C   UNL     1      20.176   0.743  26.632  1.00  0.00     0.000 C 
BRANCH  10  11
ATOM     11  C   UNL     1      20.359   1.343  28.033  1.00  0.00     0.000 C 
BRANCH  11  12
ATOM     12  C   UNL     1      19.018   1.815  28.608  1.00  0.00     0.006 C 
BRANCH  12  13
ATOM     13  C   UNL     1      19.038   3.320  28.888  1.00  0.00     0.053 C 
BRANCH  13  14
ATOM     14  C   UNL     1      19.055   3.579  30.360  1.00  0.00     0.041 C 
ATOM     15  O   UNL     1      17.977   3.623  31.009  1.00  0.00    -0.550 OA
ATOM     16  O   UNL     1      20.265   3.729  31.026  1.00  0.00    -0.550 OA
ENDBRANCH  13  14
ENDBRANCH  12  13
ENDBRANCH  11  12
ENDBRANCH  10  11
ENDBRANCH   9  10
ENDBRANCH   8   9
ENDBRANCH   7   8
ENDBRANCH   6   7
ENDBRANCH   5   6
ENDBRANCH   4   5
ENDBRANCH   3   4
ENDBRANCH   2   3
ENDBRANCH   1   2
BRANCH   1  17
ATOM     17  C   UNL     1      13.486   6.158  23.564  1.00  0.00     0.000 C 
BRANCH  17  18
ATOM     18  C   UNL     1      13.805   7.480  22.835  1.00  0.00     0.000 C 
BRANCH  18  19
ATOM     19  C   UNL     1      14.259   8.625  23.763  1.00  0.00     0.000 C 
BRANCH  19  20
ATOM     20  C   UNL     1      14.473   9.974  23.044  1.00  0.00     0.000 C 
BRANCH  20  21
ATOM     21  C   UNL     1      13.217  10.433  22.279  1.00  0.00     0.000 C 
BRANCH  21  22
ATOM     22  C   UNL     1      12.683  11.793  22.771  1.00  0.00    -0.000 C 
BRANCH  22  23
ATOM     23  C   UNL     1      11.391  12.249  22.071  1.00  0.00    -0.000 C 
BRANCH  23  24
ATOM     24  C   UNL     1      10.919  13.636  22.538  1.00  0.00    -0.000 C 
BRANCH  24  25
ATOM     25  C   UNL     1      11.291  14.755  21.553  1.00  0.00    -0.000 C 
BRANCH  25  26
ATOM     26  C   UNL     1      10.889  16.150  22.064  1.00  0.00    -0.000 C 
BRANCH  26  27
ATOM     27  C   UNL     1      11.210  16.358  23.555  1.00  0.00    -0.000 C 
BRANCH  27  28
ATOM     28  C   UNL     1      12.026  17.626  23.882  1.00  0.00    -0.000 C 
BRANCH  28  29
ATOM     29  C   UNL     1      12.431  17.779  25.360  1.00  0.00    -0.003 C 
ATOM     30  C   UNL     1      12.223  16.502  26.172  1.00  0.00     0.004 C 
ENDBRANCH  28  29
ENDBRANCH  27  28
ENDBRANCH  26  27
ENDBRANCH  25  26
ENDBRANCH  24  25
ENDBRANCH  23  24
ENDBRANCH  22  23
ENDBRANCH  21  22
ENDBRANCH  20  21
ENDBRANCH  19  20
ENDBRANCH  18  19
ENDBRANCH  17  18
ENDBRANCH   1  17
TORSDOF 26
ENDMDL
MODEL 2
REMARK VINA RESULT:    10.950      2.117      3.165
REMARK INTER + INTRA:          25.878
REMARK INTER:                  26.018
REMARK INTRA:                  -0.140
REMARK UNBOUND:                -1.717
REMARK SMILES CCCCCCCCCCCCCCCCCCCCCCCCCCCC(=O)[O-]
REMARK SMILES IDX 15 1 16 2 17 3 18 4 19 5 20 6 21 7 22 8 23 9 24 10 25 11
REMARK SMILES IDX 26 12 27 13 28 14 29 15 30 16 14 17 13 18 12 19 11 20 10 21
REMARK SMILES IDX 9 22 8 23 7 24 6 25 5 26 4 27 3 28 2 29 1 30
REMARK H PARENT
REMARK Flexibility Score: inf
ROOT
ATOM      1  C   UNL     1      13.770   6.652  22.749  1.00  0.00     0.000 C 
ENDROOT
BRANCH   1   2
ATOM      2  C   UNL     1      13.394   5.528  23.728  1.00  0.00     0.000 C 
BRANCH   2   3
ATOM      3  C   UNL     1      14.031   4.179  23.353  1.00  0.00     0.000 C 
BRANCH   3   4
ATOM      4  C   UNL     1      12.995   3.139  22.889  1.00  0.00     0.000 C 
BRANCH   4   5
ATOM      5  C   UNL     1      12.719   2.001  23.889  1.00  0.00     0.000 C 
BRANCH   5   6
ATOM      6  C   UNL     1      13.155   2.345  25.324  1.00  0.00     0.000 C 
BRANCH   6   7
ATOM      7  C   UNL     1      14.680   2.218  25.525  1.00  0.00     0.000 C 
BRANCH   7   8
ATOM      8  C   UNL     1      15.354   3.489  26.081  1.00  0.00     0.000 C 
BRANCH   8   9
ATOM      9  C   UNL     1      16.886   3.520  25.904  1.00  0.00     0.000 C 
BRANCH   9  10
ATOM     10  C   UNL     1      17.397   2.503  24.866  1.00  0.00     0.000 C 
BRANCH  10  11
ATOM     11  C   UNL     1      18.026   1.269  25.529  1.00  0.00     0.000 C 
BRANCH  11  12
ATOM     12  C   UNL     1      18.678   1.637  26.867  1.00  0.00     0.006 C 
BRANCH  12  13
ATOM     13  C   UNL     1      20.007   0.899  27.053  1.00  0.00     0.053 C 
BRANCH  13  14
ATOM     14  C   UNL     1      20.830   0.981  25.808  1.00  0.00     0.041 C 
ATOM     15  O   UNL     1      21.324   2.082  25.446  1.00  0.00    -0.550 OA
ATOM     16  O   UNL     1      21.089  -0.165  25.068  1.00  0.00    -0.550 OA
ENDBRANCH  13  14
ENDBRANCH  12  13
ENDBRANCH  11  12
ENDBRANCH  10  11
ENDBRANCH   9  10
ENDBRANCH   8   9
ENDBRANCH   7   8
ENDBRANCH   6   7
ENDBRANCH   5   6
ENDBRANCH   4   5
ENDBRANCH   3   4
ENDBRANCH   2   3
ENDBRANCH   1   2
BRANCH   1  17
ATOM     17  C   UNL     1      13.480   8.055  23.312  1.00  0.00     0.000 C 
BRANCH  17  18
ATOM     18  C   UNL     1      14.765   8.883  23.518  1.00  0.00     0.000 C 
BRANCH  18  19
ATOM     19  C   UNL     1      14.809  10.201  22.720  1.00  0.00     0.000 C 
BRANCH  19  20
ATOM     20  C   UNL     1      13.945  11.331  23.316  1.00  0.00     0.000 C 
BRANCH  20  21
ATOM     21  C   UNL     1      13.036  11.990  22.261  1.00  0.00     0.000 C 
BRANCH  21  22
ATOM     22  C   UNL     1      11.575  12.132  22.737  1.00  0.00    -0.000 C 
BRANCH  22  23
ATOM     23  C   UNL     1      10.876  13.410  22.241  1.00  0.00    -0.000 C 
BRANCH  23  24
ATOM     24  C   UNL     1      11.654  14.117  21.119  1.00  0.00    -0.000 C 
BRANCH  24  25
ATOM     25  C   UNL     1      11.423  15.636  21.099  1.00  0.00    -0.000 C 
BRANCH  25  26
ATOM     26  C   UNL     1      12.134  16.326  19.921  1.00  0.00    -0.000 C 
BRANCH  26  27
ATOM     27  C   UNL     1      12.928  17.574  20.348  1.00  0.00    -0.000 C 
BRANCH  27  28
ATOM     28  C   UNL     1      12.965  17.840  21.867  1.00  0.00    -0.000 C 
BRANCH  28  29
ATOM     29  C   UNL     1      11.592  18.077  22.523  1.00  0.00    -0.003 C 
ATOM     30  C   UNL     1      11.645  18.045  24.050  1.00  0.00     0.004 C 
ENDBRANCH  28  29
ENDBRANCH  27  28
ENDBRANCH  26  27
ENDBRANCH  25  26
ENDBRANCH  24  25
ENDBRANCH  23  24
ENDBRANCH  22  23
ENDBRANCH  21  22
ENDBRANCH  20  21
ENDBRANCH  19  20
ENDBRANCH  18  19
ENDBRANCH  17  18
ENDBRANCH   1  17
TORSDOF 26
ENDMDL
MODEL 3
REMARK VINA RESULT:    10.980      1.272      2.470
REMARK INTER + INTRA:          25.952
REMARK INTER:                  26.068
REMARK INTRA:                  -0.116
REMARK UNBOUND:                -1.717
REMARK SMILES CCCCCCCCCCCCCCCCCCCCCCCCCCCC(=O)[O-]
REMARK SMILES IDX 15 1 16 2 17 3 18 4 19 5 20 6 21 7 22 8 23 9 24 10 25 11
REMARK SMILES IDX 26 12 27 13 28 14 29 15 30 16 14 17 13 18 12 19 11 20 10 21
REMARK SMILES IDX 9 22 8 23 7 24 6 25 5 26 4 27 3 28 2 29 1 30
REMARK H PARENT
REMARK Flexibility Score: inf
ROOT
ATOM      1  C   UNL     1      13.737   5.861  22.864  1.00  0.00     0.000 C 
ENDROOT
BRANCH   1   2
ATOM      2  C   UNL     1      13.499   4.803  23.953  1.00  0.00     0.000 C 
BRANCH   2   3
ATOM      3  C   UNL     1      13.016   3.460  23.379  1.00  0.00     0.000 C 
BRANCH   3   4
ATOM      4  C   UNL     1      12.981   2.339  24.434  1.00  0.00     0.000 C 
BRANCH   4   5
ATOM      5  C   UNL     1      14.156   2.342  25.429  1.00  0.00     0.000 C 
BRANCH   5   6
ATOM      6  C   UNL     1      15.356   3.171  24.939  1.00  0.00     0.000 C 
BRANCH   6   7
ATOM      7  C   UNL     1      16.610   2.973  25.815  1.00  0.00     0.000 C 
BRANCH   7   8
ATOM      8  C   UNL     1      17.604   1.927  25.272  1.00  0.00     0.000 C 
BRANCH   8   9
ATOM      9  C   UNL     1      19.060   2.138  25.738  1.00  0.00     0.000 C 
BRANCH   9  10
ATOM     10  C   UNL     1      19.569   1.017  26.663  1.00  0.00     0.000 C 
BRANCH  10  11
ATOM     11  C   UNL     1      18.856   1.022  28.022  1.00  0.00     0.000 C 
BRANCH  11  12
ATOM     12  C   UNL     1      19.588   1.924  29.024  1.00  0.00     0.006 C 
BRANCH  12  13
ATOM     13  C   UNL     1      18.937   3.308  29.096  1.00  0.00     0.053 C 
BRANCH  13  14
ATOM     14  C   UNL     1      18.762   3.731  30.520  1.00  0.00     0.041 C 
ATOM     15  O   UNL     1      19.752   3.765  31.297  1.00  0.00    -0.550 OA
ATOM     16  O   UNL     1      17.513   4.128  30.978  1.00  0.00    -0.550 OA
ENDBRANCH  13  14
ENDBRANCH  12  13
ENDBRANCH  11  12
ENDBRANCH  10  11
ENDBRANCH   9  10
ENDBRANCH   8   9
ENDBRANCH   7   8
ENDBRANCH   6   7
ENDBRANCH   5   6
ENDBRANCH   4   5
ENDBRANCH   3   4
ENDBRANCH   2   3
ENDBRANCH   1   2
BRANCH   1  17
ATOM     17  C   UNL     1      13.366   7.283  23.322  1.00  0.00     0.000 C 
BRANCH  17  18
ATOM     18  C   UNL     1      14.334   8.349  22.768  1.00  0.00     0.000 C 
BRANCH  18  19
ATOM     19  C   UNL     1      13.977   9.798  23.157  1.00  0.00     0.000 C 
BRANCH  19  20
ATOM     20  C   UNL     1      13.181  10.564  22.080  1.00  0.00     0.000 C 
BRANCH  20  21
ATOM     21  C   UNL     1      12.987  12.048  22.444  1.00  0.00     0.000 C 
BRANCH  21  22
ATOM     22  C   UNL     1      11.569  12.561  22.120  1.00  0.00    -0.000 C 
BRANCH  22  23
ATOM     23  C   UNL     1      11.047  13.624  23.104  1.00  0.00    -0.000 C 
BRANCH  23  24
ATOM     24  C   UNL     1      10.876  15.005  22.450  1.00  0.00    -0.000 C 
BRANCH  24  25
ATOM     25  C   UNL     1      11.914  16.028  22.936  1.00  0.00    -0.000 C 
BRANCH  25  26
ATOM     26  C   UNL     1      11.477  17.482  22.678  1.00  0.00    -0.000 C 
BRANCH  26  27
ATOM     27  C   UNL     1      11.260  17.786  21.185  1.00  0.00    -0.000 C 
BRANCH  27  28
ATOM     28  C   UNL     1      12.117  16.951  20.212  1.00  0.00    -0.000 C 
BRANCH  28  29
ATOM     29  C   UNL     1      11.647  16.970  18.745  1.00  0.00    -0.003 C 
ATOM     30  C   UNL     1      11.125  15.616  18.268  1.00  0.00     0.004 C 
ENDBRANCH  28  29
ENDBRANCH  27  28
ENDBRANCH  26  27
ENDBRANCH  25  26
ENDBRANCH  24  25
ENDBRANCH  23  24
ENDBRANCH  22  23
ENDBRANCH  21  22
ENDBRANCH  20  21
ENDBRANCH  19  20
ENDBRANCH  18  19
ENDBRANCH  17  18
ENDBRANCH   1  17
TORSDOF 26
ENDMDL
MODEL 4
REMARK VINA RESULT:    11.396      4.539     12.939
REMARK INTER + INTRA:          27.002
REMARK INTER:                  27.446
REMARK INTRA:                  -0.444
REMARK UNBOUND:                -1.717
REMARK SMILES CCCCCCCCCCCCCCCCCCCCCCCCCCCC(=O)[O-]
REMARK SMILES IDX 15 1 16 2 17 3 18 4 19 5 20 6 21 7 22 8 23 9 24 10 25 11
REMARK SMILES IDX 26 12 27 13 28 14 29 15 30 16 14 17 13 18 12 19 11 20 10 21
REMARK SMILES IDX 9 22 8 23 7 24 6 25 5 26 4 27 3 28 2 29 1 30
REMARK H PARENT
REMARK Flexibility Score: inf
ROOT
ATOM      1  C   UNL     1      13.130   2.818  23.373  1.00  0.00     0.000 C 
ENDROOT
BRANCH   1   2
ATOM      2  C   UNL     1      13.861   4.125  23.028  1.00  0.00     0.000 C 
BRANCH   2   3
ATOM      3  C   UNL     1      12.910   5.330  22.941  1.00  0.00     0.000 C 
BRANCH   3   4
ATOM      4  C   UNL     1      13.514   6.612  23.543  1.00  0.00     0.000 C 
BRANCH   4   5
ATOM      5  C   UNL     1      14.328   7.474  22.561  1.00  0.00     0.000 C 
BRANCH   5   6
ATOM      6  C   UNL     1      13.712   8.866  22.333  1.00  0.00     0.000 C 
BRANCH   6   7
ATOM      7  C   UNL     1      14.567   9.998  22.938  1.00  0.00     0.000 C 
BRANCH   7   8
ATOM      8  C   UNL     1      13.946  11.403  22.805  1.00  0.00     0.000 C 
BRANCH   8   9
ATOM      9  C   UNL     1      12.478  11.401  22.330  1.00  0.00     0.000 C 
BRANCH   9  10
ATOM     10  C   UNL     1      11.763  12.745  22.567  1.00  0.00     0.000 C 
BRANCH  10  11
ATOM     11  C   UNL     1      11.114  13.286  21.285  1.00  0.00     0.000 C 
BRANCH  11  12
ATOM     12  C   UNL     1      10.909  14.804  21.371  1.00  0.00     0.006 C 
BRANCH  12  13
ATOM     13  C   UNL     1      10.939  15.282  22.826  1.00  0.00     0.053 C 
BRANCH  13  14
ATOM     14  C   UNL     1      11.303  16.730  22.893  1.00  0.00     0.041 C 
ATOM     15  O   UNL     1      11.029  17.499  21.934  1.00  0.00    -0.550 OA
ATOM     16  O   UNL     1      11.907  17.243  24.034  1.00  0.00    -0.550 OA
ENDBRANCH  13  14
ENDBRANCH  12  13
ENDBRANCH  11  12
ENDBRANCH  10  11
ENDBRANCH   9  10
ENDBRANCH   8   9
ENDBRANCH   7   8
ENDBRANCH   6   7
ENDBRANCH   5   6
ENDBRANCH   4   5
ENDBRANCH   3   4
ENDBRANCH   2   3
ENDBRANCH   1   2
BRANCH   1  17
ATOM     17  C   UNL     1      13.429   2.325  24.800  1.00  0.00     0.000 C 
BRANCH  17  18
ATOM     18  C   UNL     1      13.874   3.468  25.735  1.00  0.00     0.000 C 
BRANCH  18  19
ATOM     19  C   UNL     1      15.382   3.477  26.058  1.00  0.00     0.000 C 
BRANCH  19  20
ATOM     20  C   UNL     1      16.218   2.504  25.200  1.00  0.00     0.000 C 
BRANCH  20  21
ATOM     21  C   UNL     1      17.721   2.843  25.232  1.00  0.00     0.000 C 
BRANCH  21  22
ATOM     22  C   UNL     1      18.612   1.590  25.353  1.00  0.00    -0.000 C 
BRANCH  22  23
ATOM     23  C   UNL     1      20.117   1.873  25.194  1.00  0.00    -0.000 C 
BRANCH  23  24
ATOM     24  C   UNL     1      20.994   0.688  25.628  1.00  0.00    -0.000 C 
BRANCH  24  25
ATOM     25  C   UNL     1      20.772   0.288  27.096  1.00  0.00    -0.000 C 
BRANCH  25  26
ATOM     26  C   UNL     1      19.712   1.160  27.792  1.00  0.00    -0.000 C 
BRANCH  26  27
ATOM     27  C   UNL     1      20.186   1.709  29.150  1.00  0.00    -0.000 C 
BRANCH  27  28
ATOM     28  C   UNL     1      19.080   2.318  30.035  1.00  0.00    -0.000 C 
BRANCH  28  29
ATOM     29  C   UNL     1      19.020   3.857  30.041  1.00  0.00    -0.003 C 
ATOM     30  C   UNL     1      17.791   4.405  30.763  1.00  0.00     0.004 C 
ENDBRANCH  28  29
ENDBRANCH  27  28
ENDBRANCH  26  27
ENDBRANCH  25  26
ENDBRANCH  24  25
ENDBRANCH  23  24
ENDBRANCH  22  23
ENDBRANCH  21  22
ENDBRANCH  20  21
ENDBRANCH  19  20
ENDBRANCH  18  19
ENDBRANCH  17  18
ENDBRANCH   1  17
TORSDOF 26
ENDMDL
MODEL 5
REMARK VINA RESULT:    11.587      1.286      2.114
REMARK INTER + INTRA:          27.483
REMARK INTER:                  28.614
REMARK INTRA:                  -1.131
REMARK UNBOUND:                -1.717
REMARK SMILES CCCCCCCCCCCCCCCCCCCCCCCCCCCC(=O)[O-]
REMARK SMILES IDX 15 1 16 2 17 3 18 4 19 5 20 6 21 7 22 8 23 9 24 10 25 11
REMARK SMILES IDX 26 12 27 13 28 14 29 15 30 16 14 17 13 18 12 19 11 20 10 21
REMARK SMILES IDX 9 22 8 23 7 24 6 25 5 26 4 27 3 28 2 29 1 30
REMARK H PARENT
REMARK Flexibility Score: inf
ROOT
ATOM      1  C   UNL     1      13.036   3.359  23.222  1.00  0.00     0.000 C 
ENDROOT
BRANCH   1   2
ATOM      2  C   UNL     1      13.518   2.555  24.441  1.00  0.00     0.000 C 
BRANCH   2   3
ATOM      3  C   UNL     1      14.139   3.446  25.529  1.00  0.00     0.000 C 
BRANCH   3   4
ATOM      4  C   UNL     1      15.655   3.227  25.685  1.00  0.00     0.000 C 
BRANCH   4   5
ATOM      5  C   UNL     1      16.224   2.020  24.917  1.00  0.00     0.000 C 
BRANCH   5   6
ATOM      6  C   UNL     1      17.650   1.647  25.358  1.00  0.00     0.000 C 
BRANCH   6   7
ATOM      7  C   UNL     1      18.614   2.851  25.322  1.00  0.00     0.000 C 
BRANCH   7   8
ATOM      8  C   UNL     1      20.106   2.466  25.246  1.00  0.00     0.000 C 
BRANCH   8   9
ATOM      9  C   UNL     1      20.379   0.958  25.424  1.00  0.00     0.000 C 
BRANCH   9  10
ATOM     10  C   UNL     1      20.978   0.609  26.800  1.00  0.00     0.000 C 
BRANCH  10  11
ATOM     11  C   UNL     1      19.915   0.073  27.770  1.00  0.00     0.000 C 
BRANCH  11  12
ATOM     12  C   UNL     1      19.106   1.220  28.387  1.00  0.00     0.006 C 
BRANCH  12  13
ATOM     13  C   UNL     1      19.867   1.869  29.547  1.00  0.00     0.053 C 
BRANCH  13  14
ATOM     14  C   UNL     1      19.216   3.154  29.946  1.00  0.00     0.041 C 
ATOM     15  O   UNL     1      18.750   3.929  29.069  1.00  0.00    -0.550 OA
ATOM     16  O   UNL     1      19.083   3.479  31.290  1.00  0.00    -0.550 OA
ENDBRANCH  13  14
ENDBRANCH  12  13
ENDBRANCH  11  12
ENDBRANCH  10  11
ENDBRANCH   9  10
ENDBRANCH   8   9
ENDBRANCH   7   8
ENDBRANCH   6   7
ENDBRANCH   5   6
ENDBRANCH   4   5
ENDBRANCH   3   4
ENDBRANCH   2   3
ENDBRANCH   1   2
BRANCH   1  17
ATOM     17  C   UNL     1      13.961   4.541  22.883  1.00  0.00     0.000 C 
BRANCH  17  18
ATOM     18  C   UNL     1      13.222   5.894  22.918  1.00  0.00     0.000 C 
BRANCH  18  19
ATOM     19  C   UNL     1      14.113   7.098  23.285  1.00  0.00     0.000 C 
BRANCH  19  20
ATOM     20  C   UNL     1      13.848   8.362  22.440  1.00  0.00     0.000 C 
BRANCH  20  21
ATOM     21  C   UNL     1      14.842   9.495  22.757  1.00  0.00     0.000 C 
BRANCH  21  22
ATOM     22  C   UNL     1      14.144  10.784  23.238  1.00  0.00    -0.000 C 
BRANCH  22  23
ATOM     23  C   UNL     1      13.138  11.365  22.228  1.00  0.00    -0.000 C 
BRANCH  23  24
ATOM     24  C   UNL     1      12.094  12.280  22.889  1.00  0.00    -0.000 C 
BRANCH  24  25
ATOM     25  C   UNL     1      11.170  12.964  21.869  1.00  0.00    -0.000 C 
BRANCH  25  26
ATOM     26  C   UNL     1      11.238  14.499  21.947  1.00  0.00    -0.000 C 
BRANCH  26  27
ATOM     27  C   UNL     1      10.986  15.179  20.589  1.00  0.00    -0.000 C 
BRANCH  27  28
ATOM     28  C   UNL     1      11.903  16.379  20.274  1.00  0.00    -0.000 C 
BRANCH  28  29
ATOM     29  C   UNL     1      11.630  17.646  21.108  1.00  0.00    -0.003 C 
ATOM     30  C   UNL     1      11.982  17.475  22.585  1.00  0.00     0.004 C 
ENDBRANCH  28  29
ENDBRANCH  27  28
ENDBRANCH  26  27
ENDBRANCH  25  26
ENDBRANCH  24  25
ENDBRANCH  23  24
ENDBRANCH  22  23
ENDBRANCH  21  22
ENDBRANCH  20  21
ENDBRANCH  19  20
ENDBRANCH  18  19
ENDBRANCH  17  18
ENDBRANCH   1  17
TORSDOF 26
ENDMDL
MODEL 6
REMARK VINA RESULT:    11.922      1.842      2.940
REMARK INTER + INTRA:          28.327
REMARK INTER:                  29.381
REMARK INTRA:                  -1.053
REMARK UNBOUND:                -1.717
REMARK SMILES CCCCCCCCCCCCCCCCCCCCCCCCCCCC(=O)[O-]
REMARK SMILES IDX 15 1 16 2 17 3 18 4 19 5 20 6 21 7 22 8 23 9 24 10 25 11
REMARK SMILES IDX 26 12 27 13 28 14 29 15 30 16 14 17 13 18 12 19 11 20 10 21
REMARK SMILES IDX 9 22 8 23 7 24 6 25 5 26 4 27 3 28 2 29 1 30
REMARK H PARENT
REMARK Flexibility Score: inf
ROOT
ATOM      1  C   UNL     1      13.359   3.145  24.248  1.00  0.00     0.000 C 
ENDROOT
BRANCH   1   2
ATOM      2  C   UNL     1      14.739   2.701  24.756  1.00  0.00     0.000 C 
BRANCH   2   3
ATOM      3  C   UNL     1      15.167   3.442  26.034  1.00  0.00     0.000 C 
BRANCH   3   4
ATOM      4  C   UNL     1      16.691   3.632  26.131  1.00  0.00     0.000 C 
BRANCH   4   5
ATOM      5  C   UNL     1      17.504   2.987  24.994  1.00  0.00     0.000 C 
BRANCH   5   6
ATOM      6  C   UNL     1      17.909   1.533  25.297  1.00  0.00     0.000 C 
BRANCH   6   7
ATOM      7  C   UNL     1      19.239   1.137  24.623  1.00  0.00     0.000 C 
BRANCH   7   8
ATOM      8  C   UNL     1      20.498   1.607  25.380  1.00  0.00     0.000 C 
BRANCH   8   9
ATOM      9  C   UNL     1      20.687   0.946  26.761  1.00  0.00     0.000 C 
BRANCH   9  10
ATOM     10  C   UNL     1      19.359   0.533  27.423  1.00  0.00     0.000 C 
BRANCH  10  11
ATOM     11  C   UNL     1      19.151   1.225  28.778  1.00  0.00     0.000 C 
BRANCH  11  12
ATOM     12  C   UNL     1      19.303   2.746  28.647  1.00  0.00     0.006 C 
BRANCH  12  13
ATOM     13  C   UNL     1      19.361   3.413  30.025  1.00  0.00     0.053 C 
BRANCH  13  14
ATOM     14  C   UNL     1      18.028   3.983  30.387  1.00  0.00     0.041 C 
ATOM     15  O   UNL     1      17.198   4.277  29.486  1.00  0.00    -0.550 OA
ATOM     16  O   UNL     1      17.682   4.151  31.721  1.00  0.00    -0.550 OA
ENDBRANCH  13  14
ENDBRANCH  12  13
ENDBRANCH  11  12
ENDBRANCH  10  11
ENDBRANCH   9  10
ENDBRANCH   8   9
ENDBRANCH   7   8
ENDBRANCH   6   7
ENDBRANCH   5   6
ENDBRANCH   4   5
ENDBRANCH   3   4
ENDBRANCH   2   3
ENDBRANCH   1   2
BRANCH   1  17
ATOM     17  C   UNL     1      13.436   3.962  22.946  1.00  0.00     0.000 C 
BRANCH  17  18
ATOM     18  C   UNL     1      12.913   5.402  23.124  1.00  0.00     0.000 C 
BRANCH  18  19
ATOM     19  C   UNL     1      13.805   6.487  22.486  1.00  0.00     0.000 C 
BRANCH  19  20
ATOM     20  C   UNL     1      13.911   7.785  23.313  1.00  0.00     0.000 C 
BRANCH  20  21
ATOM     21  C   UNL     1      14.397   8.977  22.468  1.00  0.00     0.000 C 
BRANCH  21  22
ATOM     22  C   UNL     1      14.825  10.184  23.328  1.00  0.00    -0.000 C 
BRANCH  22  23
ATOM     23  C   UNL     1      13.862  11.382  23.252  1.00  0.00    -0.000 C 
BRANCH  23  24
ATOM     24  C   UNL     1      13.179  11.508  21.880  1.00  0.00    -0.000 C 
BRANCH  24  25
ATOM     25  C   UNL     1      11.663  11.261  21.944  1.00  0.00    -0.000 C 
BRANCH  25  26
ATOM     26  C   UNL     1      10.877  12.511  22.377  1.00  0.00    -0.000 C 
BRANCH  26  27
ATOM     27  C   UNL     1      11.584  13.825  21.996  1.00  0.00    -0.000 C 
BRANCH  27  28
ATOM     28  C   UNL     1      11.048  14.514  20.724  1.00  0.00    -0.000 C 
BRANCH  28  29
ATOM     29  C   UNL     1      11.579  15.939  20.480  1.00  0.00    -0.003 C 
ATOM     30  C   UNL     1      11.646  16.306  18.998  1.00  0.00     0.004 C 
ENDBRANCH  28  29
ENDBRANCH  27  28
ENDBRANCH  26  27
ENDBRANCH  25  26
ENDBRANCH  24  25
ENDBRANCH  23  24
ENDBRANCH  22  23
ENDBRANCH  21  22
ENDBRANCH  20  21
ENDBRANCH  19  20
ENDBRANCH  18  19
ENDBRANCH  17  18
ENDBRANCH   1  17
TORSDOF 26
ENDMDL
