MODEL 1
REMARK VINA RESULT:    -3.127      0.000      0.000
REMARK INTER + INTRA:          -3.534
REMARK INTER:                  -3.493
REMARK INTRA:                  -0.041
REMARK UNBOUND:                -0.041
REMARK SMILES CCCC(=O)[O-]
REMARK SMILES IDX 3 1 4 2 5 3 6 4 2 5 1 6
REMARK H PARENT
REMARK Flexibility Score: inf
ROOT
ATOM      1  C   UNL     1      14.330  15.120 162.670  1.00  0.00     0.052 C 
ENDROOT
BRANCH   1   2
ATOM      2  C   UNL     1      13.539  14.466 161.579  1.00  0.00     0.041 C 
ATOM      3  O   UNL     1      13.468  14.999 160.441  1.00  0.00    -0.550 OA
ATOM      4  O   UNL     1      12.908  13.249 161.809  1.00  0.00    -0.550 OA
ENDBRANCH   1   2
BRANCH   1   5
ATOM      5  C   UNL     1      15.363  14.162 163.277  1.00  0.00     0.003 C 
ATOM      6  C   UNL     1      16.717  14.242 162.569  1.00  0.00     0.004 C 
ENDBRANCH   1   5
TORSDOF 2
ENDMDL
MODEL 2
REMARK VINA RESULT:    -3.114      3.165      4.443
REMARK INTER + INTRA:          -3.519
REMARK INTER:                  -3.482
REMARK INTRA:                  -0.037
REMARK UNBOUND:                -0.041
REMARK SMILES CCCC(=O)[O-]
REMARK SMILES IDX 3 1 4 2 5 3 6 4 2 5 1 6
REMARK H PARENT
REMARK Flexibility Score: inf
ROOT
ATOM      1  C   UNL     1      12.140  12.780 161.976  1.00  0.00     0.052 C 
ENDROOT
BRANCH   1   2
ATOM      2  C   UNL     1      12.367  13.180 163.401  1.00  0.00     0.041 C 
ATOM      3  O   UNL     1      13.390  13.843 163.718  1.00  0.00    -0.550 OA
ATOM      4  O   UNL     1      11.432  12.852 164.375  1.00  0.00    -0.550 OA
ENDBRANCH   1   2
BRANCH   1   5
ATOM      5  C   UNL     1      10.650  12.786 161.613  1.00  0.00     0.003 C 
ATOM      6  C   UNL     1      10.091  11.375 161.427  1.00  0.00     0.004 C 
ENDBRANCH   1   5
TORSDOF 2
ENDMDL
MODEL 3
REMARK VINA RESULT:    -3.094      1.333      1.624
REMARK INTER + INTRA:          -3.498
REMARK INTER:                  -3.428
REMARK INTRA:                  -0.069
REMARK UNBOUND:                -0.041
REMARK SMILES CCCC(=O)[O-]
REMARK SMILES IDX 3 1 4 2 5 3 6 4 2 5 1 6
REMARK H PARENT
REMARK Flexibility Score: inf
ROOT
ATOM      1  C   UNL     1      13.211  13.604 162.092  1.00  0.00     0.052 C 
ENDROOT
BRANCH   1   2
ATOM      2  C   UNL     1      13.045  14.862 161.295  1.00  0.00     0.041 C 
ATOM      3  O   UNL     1      13.459  14.919 160.108  1.00  0.00    -0.550 OA
ATOM      4  O   UNL     1      12.401  15.960 161.852  1.00  0.00    -0.550 OA
ENDBRANCH   1   2
BRANCH   1   5
ATOM      5  C   UNL     1      14.020  13.844 163.373  1.00  0.00     0.003 C 
ATOM      6  C   UNL     1      15.473  14.219 163.080  1.00  0.00     0.004 C 
ENDBRANCH   1   5
TORSDOF 2
ENDMDL
MODEL 4
REMARK VINA RESULT:    -3.079      1.688      2.392
REMARK INTER + INTRA:          -3.481
REMARK INTER:                  -3.417
REMARK INTRA:                  -0.063
REMARK UNBOUND:                -0.041
REMARK SMILES CCCC(=O)[O-]
REMARK SMILES IDX 3 1 4 2 5 3 6 4 2 5 1 6
REMARK H PARENT
REMARK Flexibility Score: inf
ROOT
ATOM      1  C   UNL     1      14.341  13.627 163.256  1.00  0.00     0.052 C 
ENDROOT
BRANCH   1   2
ATOM      2  C   UNL     1      12.950  13.140 162.990  1.00  0.00     0.041 C 
ATOM      3  O   UNL     1      12.634  12.720 161.846  1.00  0.00    -0.550 OA
ATOM      4  O   UNL     1      12.012  13.117 164.015  1.00  0.00    -0.550 OA
ENDBRANCH   1   2
BRANCH   1   5
ATOM      5  C   UNL     1      14.605  14.986 162.594  1.00  0.00     0.003 C 
ATOM      6  C   UNL     1      13.821  16.118 163.258  1.00  0.00     0.004 C 
ENDBRANCH   1   5
TORSDOF 2
ENDMDL
MODEL 5
REMARK VINA RESULT:    -3.067      2.846      4.278
REMARK INTER + INTRA:          -3.467
REMARK INTER:                  -3.402
REMARK INTRA:                  -0.065
REMARK UNBOUND:                -0.041
REMARK SMILES CCCC(=O)[O-]
REMARK SMILES IDX 3 1 4 2 5 3 6 4 2 5 1 6
REMARK H PARENT
REMARK Flexibility Score: inf
ROOT
ATOM      1  C   UNL     1      11.250  13.210 162.956  1.00  0.00     0.052 C 
ENDROOT
BRANCH   1   2
ATOM      2  C   UNL     1      12.544  13.345 162.214  1.00  0.00     0.041 C 
ATOM      3  O   UNL     1      13.570  12.732 162.612  1.00  0.00    -0.550 OA
ATOM      4  O   UNL     1      12.610  14.120 161.062  1.00  0.00    -0.550 OA
ENDBRANCH   1   2
BRANCH   1   5
ATOM      5  C   UNL     1      10.077  12.925 162.009  1.00  0.00     0.003 C 
ATOM      6  C   UNL     1      10.171  11.541 161.367  1.00  0.00     0.004 C 
ENDBRANCH   1   5
TORSDOF 2
ENDMDL
MODEL 6
REMARK VINA RESULT:    -3.049      2.200      2.897
REMARK INTER + INTRA:          -3.446
REMARK INTER:                  -3.399
REMARK INTRA:                  -0.047
REMARK UNBOUND:                -0.041
REMARK SMILES CCCC(=O)[O-]
REMARK SMILES IDX 3 1 4 2 5 3 6 4 2 5 1 6
REMARK H PARENT
REMARK Flexibility Score: inf
ROOT
ATOM      1  C   UNL     1      13.084  13.085 162.602  1.00  0.00     0.052 C 
ENDROOT
BRANCH   1   2
ATOM      2  C   UNL     1      11.829  13.384 163.364  1.00  0.00     0.041 C 
ATOM      3  O   UNL     1      11.594  12.798 164.453  1.00  0.00    -0.550 OA
ATOM      4  O   UNL     1      10.934  14.335 162.888  1.00  0.00    -0.550 OA
ENDBRANCH   1   2
BRANCH   1   5
ATOM      5  C   UNL     1      14.323  13.665 163.297  1.00  0.00     0.003 C 
ATOM      6  C   UNL     1      14.599  15.111 162.883  1.00  0.00     0.004 C 
ENDBRANCH   1   5
TORSDOF 2
ENDMDL
MODEL 7
REMARK VINA RESULT:    -3.010      2.305      3.613
REMARK INTER + INTRA:          -3.403
REMARK INTER:                  -3.366
REMARK INTRA:                  -0.037
REMARK UNBOUND:                -0.041
REMARK SMILES CCCC(=O)[O-]
REMARK SMILES IDX 3 1 4 2 5 3 6 4 2 5 1 6
REMARK H PARENT
REMARK Flexibility Score: inf
ROOT
ATOM      1  C   UNL     1      12.751  12.885 162.078  1.00  0.00     0.052 C 
ENDROOT
BRANCH   1   2
ATOM      2  C   UNL     1      13.205  14.221 161.576  1.00  0.00     0.041 C 
ATOM      3  O   UNL     1      12.721  14.698 160.515  1.00  0.00    -0.550 OA
ATOM      4  O   UNL     1      14.137  14.957 162.297  1.00  0.00    -0.550 OA
ENDBRANCH   1   2
BRANCH   1   5
ATOM      5  C   UNL     1      11.234  12.849 162.309  1.00  0.00     0.003 C 
ATOM      6  C   UNL     1      10.506  12.011 161.257  1.00  0.00     0.004 C 
ENDBRANCH   1   5
TORSDOF 2
ENDMDL
MODEL 8
REMARK VINA RESULT:    -2.993      2.520      3.204
REMARK INTER + INTRA:          -3.385
REMARK INTER:                  -3.317
REMARK INTRA:                  -0.068
REMARK UNBOUND:                -0.041
REMARK SMILES CCCC(=O)[O-]
REMARK SMILES IDX 3 1 4 2 5 3 6 4 2 5 1 6
REMARK H PARENT
REMARK Flexibility Score: inf
ROOT
ATOM      1  C   UNL     1      13.102  13.095 162.318  1.00  0.00     0.052 C 
ENDROOT
BRANCH   1   2
ATOM      2  C   UNL     1      13.727  13.873 163.434  1.00  0.00     0.041 C 
ATOM      3  O   UNL     1      14.973  13.832 163.615  1.00  0.00    -0.550 OA
ATOM      4  O   UNL     1      12.939  14.672 164.255  1.00  0.00    -0.550 OA
ENDBRANCH   1   2
BRANCH   1   5
ATOM      5  C   UNL     1      12.281  13.995 161.386  1.00  0.00     0.003 C 
ATOM      6  C   UNL     1      13.163  14.911 160.536  1.00  0.00     0.004 C 
ENDBRANCH   1   5
TORSDOF 2
ENDMDL
MODEL 9
REMARK VINA RESULT:    -2.960      3.169      3.693
REMARK INTER + INTRA:          -3.347
REMARK INTER:                  -3.278
REMARK INTRA:                  -0.069
REMARK UNBOUND:                -0.041
REMARK SMILES CCCC(=O)[O-]
REMARK SMILES IDX 3 1 4 2 5 3 6 4 2 5 1 6
REMARK H PARENT
REMARK Flexibility Score: inf
ROOT
ATOM      1  C   UNL     1      11.380  13.076 162.898  1.00  0.00     0.052 C 
ENDROOT
BRANCH   1   2
ATOM      2  C   UNL     1      10.217  12.987 161.958  1.00  0.00     0.041 C 
ATOM      3  O   UNL     1       9.359  13.908 161.921  1.00  0.00    -0.550 OA
ATOM      4  O   UNL     1      10.099  11.903 161.096  1.00  0.00    -0.550 OA
ENDBRANCH   1   2
BRANCH   1   5
ATOM      5  C   UNL     1      12.720  12.995 162.157  1.00  0.00     0.003 C 
ATOM      6  C   UNL     1      12.993  14.239 161.311  1.00  0.00     0.004 C 
ENDBRANCH   1   5
TORSDOF 2
ENDMDL
