MODEL 1
REMARK VINA RESULT:    -4.875      0.000      0.000
REMARK INTER + INTRA:          -9.458
REMARK INTER:                  -8.294
REMARK INTRA:                  -1.163
REMARK UNBOUND:                -1.163
REMARK SMILES CCCCCCCCCCCCCC(=O)[O-]
REMARK SMILES IDX 8 1 9 2 10 3 11 4 12 5 13 6 14 7 15 8 16 9 7 10 6 11 5 12
REMARK SMILES IDX 4 13 3 14 2 15 1 16
REMARK H PARENT
REMARK Flexibility Score: inf
ROOT
ATOM      1  C   UNL     1       0.402  -0.053   9.439  1.00  0.00     0.000 C 
ENDROOT
BRANCH   1   2
ATOM      2  C   UNL     1      -1.133  -0.032   9.608  1.00  0.00     0.000 C 
BRANCH   2   3
ATOM      3  C   UNL     1      -1.887   0.383   8.333  1.00  0.00     0.000 C 
BRANCH   3   4
ATOM      4  C   UNL     1      -1.050   0.197   7.057  1.00  0.00     0.000 C 
BRANCH   4   5
ATOM      5  C   UNL     1      -1.313  -1.153   6.370  1.00  0.00     0.006 C 
BRANCH   5   6
ATOM      6  C   UNL     1      -1.489  -1.019   4.851  1.00  0.00     0.053 C 
BRANCH   6   7
ATOM      7  C   UNL     1      -1.542  -2.370   4.212  1.00  0.00     0.041 C 
ATOM      8  O   UNL     1      -1.815  -3.387   4.902  1.00  0.00    -0.550 OA
ATOM      9  O   UNL     1      -1.242  -2.514   2.863  1.00  0.00    -0.550 OA
ENDBRANCH   6   7
ENDBRANCH   5   6
ENDBRANCH   4   5
ENDBRANCH   3   4
ENDBRANCH   2   3
ENDBRANCH   1   2
BRANCH   1  10
ATOM     10  C   UNL     1       1.007  -1.417   9.816  1.00  0.00     0.000 C 
BRANCH  10  11
ATOM     11  C   UNL     1      -0.062  -2.503  10.016  1.00  0.00    -0.000 C 
BRANCH  11  12
ATOM     12  C   UNL     1      -0.038  -3.567   8.904  1.00  0.00    -0.000 C 
BRANCH  12  13
ATOM     13  C   UNL     1       1.120  -4.565   9.069  1.00  0.00    -0.000 C 
BRANCH  13  14
ATOM     14  C   UNL     1       1.267  -5.503   7.862  1.00  0.00    -0.000 C 
BRANCH  14  15
ATOM     15  C   UNL     1      -0.005  -5.498   7.006  1.00  0.00    -0.003 C 
ATOM     16  C   UNL     1      -0.778  -6.805   7.160  1.00  0.00     0.004 C 
ENDBRANCH  14  15
ENDBRANCH  13  14
ENDBRANCH  12  13
ENDBRANCH  11  12
ENDBRANCH  10  11
ENDBRANCH   1  10
TORSDOF 12
ENDMDL
MODEL 2
REMARK VINA RESULT:    -4.820      1.791      4.576
REMARK INTER + INTRA:          -9.365
REMARK INTER:                  -8.198
REMARK INTRA:                  -1.167
REMARK UNBOUND:                -1.163
REMARK SMILES CCCCCCCCCCCCCC(=O)[O-]
REMARK SMILES IDX 8 1 9 2 10 3 11 4 12 5 13 6 14 7 15 8 16 9 7 10 6 11 5 12
REMARK SMILES IDX 4 13 3 14 2 15 1 16
REMARK H PARENT
REMARK Flexibility Score: inf
ROOT
ATOM      1  C   UNL     1       0.348  -0.280   9.677  1.00  0.00     0.000 C 
ENDROOT
BRANCH   1   2
ATOM      2  C   UNL     1       1.333  -1.399  10.080  1.00  0.00     0.000 C 
BRANCH   2   3
ATOM      3  C   UNL     1       0.799  -2.816   9.813  1.00  0.00     0.000 C 
BRANCH   3   4
ATOM      4  C   UNL     1       1.915  -3.828   9.509  1.00  0.00     0.000 C 
BRANCH   4   5
ATOM      5  C   UNL     1       1.371  -5.171   8.995  1.00  0.00     0.006 C 
BRANCH   5   6
ATOM      6  C   UNL     1      -0.111  -5.097   8.603  1.00  0.00     0.053 C 
BRANCH   6   7
ATOM      7  C   UNL     1      -0.393  -6.015   7.455  1.00  0.00     0.041 C 
ATOM      8  O   UNL     1       0.260  -5.908   6.384  1.00  0.00    -0.550 OA
ATOM      9  O   UNL     1      -1.409  -6.956   7.550  1.00  0.00    -0.550 OA
ENDBRANCH   6   7
ENDBRANCH   5   6
ENDBRANCH   4   5
ENDBRANCH   3   4
ENDBRANCH   2   3
ENDBRANCH   1   2
BRANCH   1  10
ATOM     10  C   UNL     1      -0.772  -0.800   8.757  1.00  0.00     0.000 C 
BRANCH  10  11
ATOM     11  C   UNL     1      -1.011   0.114   7.544  1.00  0.00    -0.000 C 
BRANCH  11  12
ATOM     12  C   UNL     1      -1.422  -0.671   6.286  1.00  0.00    -0.000 C 
BRANCH  12  13
ATOM     13  C   UNL     1      -1.063  -2.163   6.378  1.00  0.00    -0.000 C 
BRANCH  13  14
ATOM     14  C   UNL     1      -1.533  -2.961   5.153  1.00  0.00    -0.000 C 
BRANCH  14  15
ATOM     15  C   UNL     1      -1.438  -2.115   3.878  1.00  0.00    -0.003 C 
ATOM     16  C   UNL     1      -1.293  -2.997   2.641  1.00  0.00     0.004 C 
ENDBRANCH  14  15
ENDBRANCH  13  14
ENDBRANCH  12  13
ENDBRANCH  11  12
ENDBRANCH  10  11
ENDBRANCH   1  10
TORSDOF 12
ENDMDL
MODEL 3
REMARK VINA RESULT:    -4.389      1.824      3.227
REMARK INTER + INTRA:          -8.632
REMARK INTER:                  -7.958
REMARK INTRA:                  -0.674
REMARK UNBOUND:                -1.163
REMARK SMILES CCCCCCCCCCCCCC(=O)[O-]
REMARK SMILES IDX 8 1 9 2 10 3 11 4 12 5 13 6 14 7 15 8 16 9 7 10 6 11 5 12
REMARK SMILES IDX 4 13 3 14 2 15 1 16
REMARK H PARENT
REMARK Flexibility Score: inf
ROOT
ATOM      1  C   UNL     1       1.495  -3.769   9.849  1.00  0.00     0.000 C 
ENDROOT
BRANCH   1   2
ATOM      2  C   UNL     1       1.041  -2.301  10.005  1.00  0.00     0.000 C 
BRANCH   2   3
ATOM      3  C   UNL     1      -0.132  -1.918   9.086  1.00  0.00     0.000 C 
BRANCH   3   4
ATOM      4  C   UNL     1      -0.441  -0.413   9.109  1.00  0.00     0.000 C 
BRANCH   4   5
ATOM      5  C   UNL     1      -1.160   0.062   7.836  1.00  0.00     0.006 C 
BRANCH   5   6
ATOM      6  C   UNL     1      -1.150  -0.994   6.723  1.00  0.00     0.053 C 
BRANCH   6   7
ATOM      7  C   UNL     1      -1.301  -0.342   5.385  1.00  0.00     0.041 C 
ATOM      8  O   UNL     1      -1.192   0.907   5.273  1.00  0.00    -0.550 OA
ATOM      9  O   UNL     1      -1.612  -1.109   4.269  1.00  0.00    -0.550 OA
ENDBRANCH   6   7
ENDBRANCH   5   6
ENDBRANCH   4   5
ENDBRANCH   3   4
ENDBRANCH   2   3
ENDBRANCH   1   2
BRANCH   1  10
ATOM     10  C   UNL     1       0.380  -4.661   9.273  1.00  0.00     0.000 C 
BRANCH  10  11
ATOM     11  C   UNL     1       0.813  -5.393   7.992  1.00  0.00    -0.000 C 
BRANCH  11  12
ATOM     12  C   UNL     1      -0.372  -5.700   7.059  1.00  0.00    -0.000 C 
BRANCH  12  13
ATOM     13  C   UNL     1      -0.798  -7.176   7.113  1.00  0.00    -0.000 C 
BRANCH  13  14
ATOM     14  C   UNL     1      -1.697  -7.488   8.319  1.00  0.00    -0.000 C 
BRANCH  14  15
ATOM     15  C   UNL     1      -2.881  -8.370   7.906  1.00  0.00    -0.003 C 
ATOM     16  C   UNL     1      -2.762  -9.768   8.506  1.00  0.00     0.004 C 
ENDBRANCH  14  15
ENDBRANCH  13  14
ENDBRANCH  12  13
ENDBRANCH  11  12
ENDBRANCH  10  11
ENDBRANCH   1  10
TORSDOF 12
ENDMDL
MODEL 4
REMARK VINA RESULT:    -4.266      2.789      6.078
REMARK INTER + INTRA:          -8.423
REMARK INTER:                  -7.663
REMARK INTRA:                  -0.760
REMARK UNBOUND:                -1.163
REMARK SMILES CCCCCCCCCCCCCC(=O)[O-]
REMARK SMILES IDX 8 1 9 2 10 3 11 4 12 5 13 6 14 7 15 8 16 9 7 10 6 11 5 12
REMARK SMILES IDX 4 13 3 14 2 15 1 16
REMARK H PARENT
REMARK Flexibility Score: inf
ROOT
ATOM      1  C   UNL     1       0.069  -4.189   8.391  1.00  0.00     0.000 C 
ENDROOT
BRANCH   1   2
ATOM      2  C   UNL     1       0.548  -5.610   8.022  1.00  0.00     0.000 C 
BRANCH   2   3
ATOM      3  C   UNL     1      -0.186  -6.213   6.812  1.00  0.00     0.000 C 
BRANCH   3   4
ATOM      4  C   UNL     1      -0.846  -7.565   7.127  1.00  0.00     0.000 C 
BRANCH   4   5
ATOM      5  C   UNL     1      -1.962  -7.448   8.177  1.00  0.00     0.006 C 
BRANCH   5   6
ATOM      6  C   UNL     1      -2.726  -8.764   8.377  1.00  0.00     0.053 C 
BRANCH   6   7
ATOM      7  C   UNL     1      -4.118  -8.644   7.842  1.00  0.00     0.041 C 
ATOM      8  O   UNL     1      -4.622  -7.509   7.634  1.00  0.00    -0.550 OA
ATOM      9  O   UNL     1      -4.877  -9.785   7.618  1.00  0.00    -0.550 OA
ENDBRANCH   6   7
ENDBRANCH   5   6
ENDBRANCH   4   5
ENDBRANCH   3   4
ENDBRANCH   2   3
ENDBRANCH   1   2
BRANCH   1  10
ATOM     10  C   UNL     1       0.761  -3.656   9.658  1.00  0.00     0.000 C 
BRANCH  10  11
ATOM     11  C   UNL     1       0.756  -2.121   9.733  1.00  0.00    -0.000 C 
BRANCH  11  12
ATOM     12  C   UNL     1      -0.606  -1.515   9.347  1.00  0.00    -0.000 C 
BRANCH  12  13
ATOM     13  C   UNL     1      -0.472  -0.122   8.713  1.00  0.00    -0.000 C 
BRANCH  13  14
ATOM     14  C   UNL     1      -1.303   0.025   7.429  1.00  0.00    -0.000 C 
BRANCH  14  15
ATOM     15  C   UNL     1      -1.191  -1.232   6.558  1.00  0.00    -0.003 C 
ATOM     16  C   UNL     1      -1.435  -0.907   5.087  1.00  0.00     0.004 C 
ENDBRANCH  14  15
ENDBRANCH  13  14
ENDBRANCH  12  13
ENDBRANCH  11  12
ENDBRANCH  10  11
ENDBRANCH   1  10
TORSDOF 12
ENDMDL
MODEL 5
REMARK VINA RESULT:    -3.984      4.316      6.706
REMARK INTER + INTRA:          -7.942
REMARK INTER:                  -7.409
REMARK INTRA:                  -0.533
REMARK UNBOUND:                -1.163
REMARK SMILES CCCCCCCCCCCCCC(=O)[O-]
REMARK SMILES IDX 8 1 9 2 10 3 11 4 12 5 13 6 14 7 15 8 16 9 7 10 6 11 5 12
REMARK SMILES IDX 4 13 3 14 2 15 1 16
REMARK H PARENT
REMARK Flexibility Score: inf
ROOT
ATOM      1  C   UNL     1       2.851  -2.645  10.055  1.00  0.00     0.000 C 
ENDROOT
BRANCH   1   2
ATOM      2  C   UNL     1       3.243  -4.138  10.004  1.00  0.00     0.000 C 
BRANCH   2   3
ATOM      3  C   UNL     1       2.056  -5.076   9.723  1.00  0.00     0.000 C 
BRANCH   3   4
ATOM      4  C   UNL     1       1.638  -5.082   8.244  1.00  0.00     0.000 C 
BRANCH   4   5
ATOM      5  C   UNL     1       0.149  -5.416   8.053  1.00  0.00     0.006 C 
BRANCH   5   6
ATOM      6  C   UNL     1      -0.088  -6.448   6.942  1.00  0.00     0.053 C 
BRANCH   6   7
ATOM      7  C   UNL     1      -1.071  -7.482   7.392  1.00  0.00     0.041 C 
ATOM      8  O   UNL     1      -0.957  -8.675   7.005  1.00  0.00    -0.550 OA
ATOM      9  O   UNL     1      -2.142  -7.119   8.199  1.00  0.00    -0.550 OA
ENDBRANCH   6   7
ENDBRANCH   5   6
ENDBRANCH   4   5
ENDBRANCH   3   4
ENDBRANCH   2   3
ENDBRANCH   1   2
BRANCH   1  10
ATOM     10  C   UNL     1       4.084  -1.726  10.125  1.00  0.00     0.000 C 
BRANCH  10  11
ATOM     11  C   UNL     1       3.761  -0.274   9.737  1.00  0.00    -0.000 C 
BRANCH  11  12
ATOM     12  C   UNL     1       5.000   0.494   9.242  1.00  0.00    -0.000 C 
BRANCH  12  13
ATOM     13  C   UNL     1       5.603  -0.120   7.969  1.00  0.00    -0.000 C 
BRANCH  13  14
ATOM     14  C   UNL     1       7.121   0.097   7.870  1.00  0.00    -0.000 C 
BRANCH  14  15
ATOM     15  C   UNL     1       7.829  -0.410   9.132  1.00  0.00    -0.003 C 
ATOM     16  C   UNL     1       9.232  -0.917   8.809  1.00  0.00     0.004 C 
ENDBRANCH  14  15
ENDBRANCH  13  14
ENDBRANCH  12  13
ENDBRANCH  11  12
ENDBRANCH  10  11
ENDBRANCH   1  10
TORSDOF 12
ENDMDL
MODEL 6
REMARK VINA RESULT:    -3.792      5.563      7.385
REMARK INTER + INTRA:          -7.616
REMARK INTER:                  -7.096
REMARK INTRA:                  -0.520
REMARK UNBOUND:                -1.163
REMARK SMILES CCCCCCCCCCCCCC(=O)[O-]
REMARK SMILES IDX 8 1 9 2 10 3 11 4 12 5 13 6 14 7 15 8 16 9 7 10 6 11 5 12
REMARK SMILES IDX 4 13 3 14 2 15 1 16
REMARK H PARENT
REMARK Flexibility Score: inf
ROOT
ATOM      1  C   UNL     1       2.057  -0.754  10.124  1.00  0.00     0.000 C 
ENDROOT
BRANCH   1   2
ATOM      2  C   UNL     1       3.551  -1.081   9.909  1.00  0.00     0.000 C 
BRANCH   2   3
ATOM      3  C   UNL     1       4.387   0.128   9.456  1.00  0.00     0.000 C 
BRANCH   3   4
ATOM      4  C   UNL     1       5.664  -0.278   8.704  1.00  0.00     0.000 C 
BRANCH   4   5
ATOM      5  C   UNL     1       6.941   0.244   9.382  1.00  0.00     0.006 C 
BRANCH   5   6
ATOM      6  C   UNL     1       8.134  -0.705   9.207  1.00  0.00     0.053 C 
BRANCH   6   7
ATOM      7  C   UNL     1       9.040  -0.209   8.125  1.00  0.00     0.041 C 
ATOM      8  O   UNL     1       9.843   0.734   8.353  1.00  0.00    -0.550 OA
ATOM      9  O   UNL     1       8.964  -0.755   6.850  1.00  0.00    -0.550 OA
ENDBRANCH   6   7
ENDBRANCH   5   6
ENDBRANCH   4   5
ENDBRANCH   3   4
ENDBRANCH   2   3
ENDBRANCH   1   2
BRANCH   1  10
ATOM     10  C   UNL     1       1.157  -1.983   9.901  1.00  0.00     0.000 C 
BRANCH  10  11
ATOM     11  C   UNL     1      -0.266  -1.601   9.463  1.00  0.00    -0.000 C 
BRANCH  11  12
ATOM     12  C   UNL     1      -0.358  -0.151   8.956  1.00  0.00    -0.000 C 
BRANCH  12  13
ATOM     13  C   UNL     1      -1.586   0.083   8.062  1.00  0.00    -0.000 C 
BRANCH  13  14
ATOM     14  C   UNL     1      -1.223   0.181   6.572  1.00  0.00    -0.000 C 
BRANCH  14  15
ATOM     15  C   UNL     1      -1.326  -1.189   5.893  1.00  0.00    -0.003 C 
ATOM     16  C   UNL     1      -1.444  -1.045   4.378  1.00  0.00     0.004 C 
ENDBRANCH  14  15
ENDBRANCH  13  14
ENDBRANCH  12  13
ENDBRANCH  11  12
ENDBRANCH  10  11
ENDBRANCH   1  10
TORSDOF 12
ENDMDL
MODEL 7
REMARK VINA RESULT:    -3.720     13.257     15.767
REMARK INTER + INTRA:          -7.493
REMARK INTER:                  -6.018
REMARK INTRA:                  -1.475
REMARK UNBOUND:                -1.163
REMARK SMILES CCCCCCCCCCCCCC(=O)[O-]
REMARK SMILES IDX 8 1 9 2 10 3 11 4 12 5 13 6 14 7 15 8 16 9 7 10 6 11 5 12
REMARK SMILES IDX 4 13 3 14 2 15 1 16
REMARK H PARENT
REMARK Flexibility Score: inf
ROOT
ATOM      1  C   UNL     1       7.686  -9.147  -5.698  1.00  0.00     0.000 C 
ENDROOT
BRANCH   1   2
ATOM      2  C   UNL     1       7.830 -10.057  -4.459  1.00  0.00     0.000 C 
BRANCH   2   3
ATOM      3  C   UNL     1       8.529  -9.373  -3.271  1.00  0.00     0.000 C 
BRANCH   3   4
ATOM      4  C   UNL     1       7.540  -8.848  -2.218  1.00  0.00     0.000 C 
BRANCH   4   5
ATOM      5  C   UNL     1       7.939  -7.468  -1.671  1.00  0.00     0.006 C 
BRANCH   5   6
ATOM      6  C   UNL     1       9.000  -6.773  -2.535  1.00  0.00     0.053 C 
BRANCH   6   7
ATOM      7  C   UNL     1       8.486  -5.460  -3.036  1.00  0.00     0.041 C 
ATOM      8  O   UNL     1       9.174  -4.415  -2.894  1.00  0.00    -0.550 OA
ATOM      9  O   UNL     1       7.227  -5.382  -3.616  1.00  0.00    -0.550 OA
ENDBRANCH   6   7
ENDBRANCH   5   6
ENDBRANCH   4   5
ENDBRANCH   3   4
ENDBRANCH   2   3
ENDBRANCH   1   2
BRANCH   1  10
ATOM     10  C   UNL     1       7.322  -9.946  -6.963  1.00  0.00     0.000 C 
BRANCH  10  11
ATOM     11  C   UNL     1       6.018  -9.459  -7.614  1.00  0.00    -0.000 C 
BRANCH  11  12
ATOM     12  C   UNL     1       5.181  -8.576  -6.672  1.00  0.00    -0.000 C 
BRANCH  12  13
ATOM     13  C   UNL     1       4.166  -9.387  -5.851  1.00  0.00    -0.000 C 
BRANCH  13  14
ATOM     14  C   UNL     1       4.209  -9.046  -4.354  1.00  0.00    -0.000 C 
BRANCH  14  15
ATOM     15  C   UNL     1       4.554  -7.568  -4.139  1.00  0.00    -0.003 C 
ATOM     16  C   UNL     1       3.296  -6.739  -3.894  1.00  0.00     0.004 C 
ENDBRANCH  14  15
ENDBRANCH  13  14
ENDBRANCH  12  13
ENDBRANCH  11  12
ENDBRANCH  10  11
ENDBRANCH   1  10
TORSDOF 12
ENDMDL
MODEL 8
REMARK VINA RESULT:    -3.700     15.576     18.182
REMARK INTER + INTRA:          -7.460
REMARK INTER:                  -6.048
REMARK INTRA:                  -1.412
REMARK UNBOUND:                -1.163
REMARK SMILES CCCCCCCCCCCCCC(=O)[O-]
REMARK SMILES IDX 8 1 9 2 10 3 11 4 12 5 13 6 14 7 15 8 16 9 7 10 6 11 5 12
REMARK SMILES IDX 4 13 3 14 2 15 1 16
REMARK H PARENT
REMARK Flexibility Score: inf
ROOT
ATOM      1  C   UNL     1       5.267   4.230  -4.154  1.00  0.00     0.000 C 
ENDROOT
BRANCH   1   2
ATOM      2  C   UNL     1       4.831   3.627  -5.508  1.00  0.00     0.000 C 
BRANCH   2   3
ATOM      3  C   UNL     1       4.032   4.604  -6.388  1.00  0.00     0.000 C 
BRANCH   3   4
ATOM      4  C   UNL     1       4.647   4.790  -7.784  1.00  0.00     0.000 C 
BRANCH   4   5
ATOM      5  C   UNL     1       3.757   5.631  -8.714  1.00  0.00     0.006 C 
BRANCH   5   6
ATOM      6  C   UNL     1       3.894   7.138  -8.459  1.00  0.00     0.053 C 
BRANCH   6   7
ATOM      7  C   UNL     1       2.582   7.714  -8.028  1.00  0.00     0.041 C 
ATOM      8  O   UNL     1       1.660   6.958  -7.624  1.00  0.00    -0.550 OA
ATOM      9  O   UNL     1       2.360   9.082  -8.119  1.00  0.00    -0.550 OA
ENDBRANCH   6   7
ENDBRANCH   5   6
ENDBRANCH   4   5
ENDBRANCH   3   4
ENDBRANCH   2   3
ENDBRANCH   1   2
BRANCH   1  10
ATOM     10  C   UNL     1       5.585   5.732  -4.265  1.00  0.00     0.000 C 
BRANCH  10  11
ATOM     11  C   UNL     1       7.095   6.014  -4.310  1.00  0.00    -0.000 C 
BRANCH  11  12
ATOM     12  C   UNL     1       7.623   6.172  -5.747  1.00  0.00    -0.000 C 
BRANCH  12  13
ATOM     13  C   UNL     1       7.031   7.398  -6.460  1.00  0.00    -0.000 C 
BRANCH  13  14
ATOM     14  C   UNL     1       7.507   8.724  -5.849  1.00  0.00    -0.000 C 
BRANCH  14  15
ATOM     15  C   UNL     1       7.657   9.803  -6.929  1.00  0.00    -0.003 C 
ATOM     16  C   UNL     1       6.425   9.857  -7.827  1.00  0.00     0.004 C 
ENDBRANCH  14  15
ENDBRANCH  13  14
ENDBRANCH  12  13
ENDBRANCH  11  12
ENDBRANCH  10  11
ENDBRANCH   1  10
TORSDOF 12
ENDMDL
MODEL 9
REMARK VINA RESULT:    -3.671     15.095     17.272
REMARK INTER + INTRA:          -7.409
REMARK INTER:                  -5.727
REMARK INTRA:                  -1.683
REMARK UNBOUND:                -1.163
REMARK SMILES CCCCCCCCCCCCCC(=O)[O-]
REMARK SMILES IDX 8 1 9 2 10 3 11 4 12 5 13 6 14 7 15 8 16 9 7 10 6 11 5 12
REMARK SMILES IDX 4 13 3 14 2 15 1 16
REMARK H PARENT
REMARK Flexibility Score: inf
ROOT
ATOM      1  C   UNL     1       6.728   6.109  -4.042  1.00  0.00     0.000 C 
ENDROOT
BRANCH   1   2
ATOM      2  C   UNL     1       5.676   4.984  -4.153  1.00  0.00     0.000 C 
BRANCH   2   3
ATOM      3  C   UNL     1       4.572   5.272  -5.184  1.00  0.00     0.000 C 
BRANCH   3   4
ATOM      4  C   UNL     1       4.282   4.072  -6.100  1.00  0.00     0.000 C 
BRANCH   4   5
ATOM      5  C   UNL     1       4.849   2.755  -5.545  1.00  0.00     0.006 C 
BRANCH   5   6
ATOM      6  C   UNL     1       5.839   2.086  -6.507  1.00  0.00     0.053 C 
BRANCH   6   7
ATOM      7  C   UNL     1       5.891   0.611  -6.259  1.00  0.00     0.041 C 
ATOM      8  O   UNL     1       4.854  -0.091  -6.395  1.00  0.00    -0.550 OA
ATOM      9  O   UNL     1       7.072   0.019  -5.829  1.00  0.00    -0.550 OA
ENDBRANCH   6   7
ENDBRANCH   5   6
ENDBRANCH   4   5
ENDBRANCH   3   4
ENDBRANCH   2   3
ENDBRANCH   1   2
BRANCH   1  10
ATOM     10  C   UNL     1       6.995   6.786  -5.398  1.00  0.00     0.000 C 
BRANCH  10  11
ATOM     11  C   UNL     1       7.808   5.897  -6.352  1.00  0.00    -0.000 C 
BRANCH  11  12
ATOM     12  C   UNL     1       7.234   5.885  -7.780  1.00  0.00    -0.000 C 
BRANCH  12  13
ATOM     13  C   UNL     1       6.286   7.066  -8.044  1.00  0.00    -0.000 C 
BRANCH  13  14
ATOM     14  C   UNL     1       4.928   6.621  -8.607  1.00  0.00    -0.000 C 
BRANCH  14  15
ATOM     15  C   UNL     1       3.850   7.676  -8.333  1.00  0.00    -0.003 C 
ATOM     16  C   UNL     1       2.575   7.034  -7.793  1.00  0.00     0.004 C 
ENDBRANCH  14  15
ENDBRANCH  13  14
ENDBRANCH  12  13
ENDBRANCH  11  12
ENDBRANCH  10  11
ENDBRANCH   1  10
TORSDOF 12
ENDMDL
