MODEL 1
REMARK VINA RESULT:    -5.396      0.000      0.000
REMARK INTER + INTRA:          -7.278
REMARK INTER:                  -8.235
REMARK INTRA:                   0.957
REMARK UNBOUND:                 0.957
REMARK SMILES CC1=CCC[C@@H](C)C(=O)C[C@@H](C(C)C)C(=O)C1
REMARK SMILES IDX 8 1 9 2 6 3 7 4 5 5 4 6 3 7 2 8 1 9 10 11 11 12 15 13 16 14
REMARK SMILES IDX 17 15 12 17 13 18 14 19
REMARK H PARENT
REMARK Flexibility Score: 70.00
ROOT
ATOM      1  C   UNL     1      17.467  24.920   4.725  1.00  0.00     0.136 C 
ATOM      2  O   UNL     1      18.121  23.905   4.921  1.00  0.00    -0.299 OA
ENDROOT
BRANCH   1   3
ATOM      3  C   UNL     1      15.976  24.932   5.025  1.00  0.00     0.053 C 
ATOM      4  C   UNL     1      15.379  26.321   4.752  1.00  0.00     0.016 C 
BRANCH   3   5
ATOM      5  C   UNL     1      15.706  24.493   6.484  1.00  0.00     0.015 C 
BRANCH   5   6
ATOM      6  C   UNL     1      15.843  25.660   7.484  1.00  0.00     0.028 C 
BRANCH   6   7
ATOM      7  C   UNL     1      17.059  25.495   8.361  1.00  0.00    -0.028 C 
ATOM      8  C   UNL     1      18.258  26.081   8.134  1.00  0.00    -0.070 CG0
ATOM      9  C   UNL     1      19.359  25.853   9.139  1.00  0.00     0.039 C 
ATOM     10  G   UNL     1      18.536  26.953   6.916  1.00  0.00     0.000 G0
ENDBRANCH   6   7
ENDBRANCH   5   6
ENDBRANCH   3   5
ENDBRANCH   1   3
BRANCH   1  11
ATOM     11  C   UNL     1      18.155  26.142   4.163  1.00  0.00     0.087 C 
BRANCH  11  12
ATOM     12  C   UNL     1      19.637  26.301   4.608  1.00  0.00     0.066 C 
BRANCH  12  13
ATOM     13  C   UNL     1      19.725  26.460   6.120  1.00  0.00     0.140 C 
ATOM     14  O   UNL     1      20.749  26.138   6.706  1.00  0.00    -0.299 OA
BRANCH  13  15
ATOM     15  C   UNL     1      18.538  26.947   6.913  1.00  0.00     0.106 CG0
ATOM     16  G   UNL     1      18.265  26.076   8.133  1.00  0.00     0.000 G0
ENDBRANCH  13  15
ENDBRANCH  12  13
BRANCH  12  17
ATOM     17  C   UNL     1      20.422  27.437   3.868  1.00  0.00    -0.006 C 
ATOM     18  C   UNL     1      19.514  28.303   2.976  1.00  0.00     0.008 C 
ATOM     19  C   UNL     1      21.548  26.845   2.998  1.00  0.00     0.008 C 
ENDBRANCH  12  17
ENDBRANCH  11  12
ENDBRANCH   1  11
TORSDOF 1
ENDMDL
MODEL 2
REMARK VINA RESULT:    -4.934      1.600      3.519
REMARK INTER + INTRA:          -6.572
REMARK INTER:                  -7.088
REMARK INTRA:                   0.515
REMARK UNBOUND:                 0.957
REMARK SMILES CC1=CCC[C@@H](C)C(=O)C[C@@H](C(C)C)C(=O)C1
REMARK SMILES IDX 8 1 9 2 6 3 7 4 5 5 4 6 3 7 2 8 1 9 10 11 11 12 15 13 16 14
REMARK SMILES IDX 17 15 12 17 13 18 14 19
REMARK H PARENT
REMARK Flexibility Score: 70.00
ROOT
ATOM      1  C   UNL     1      18.598  26.825   7.115  1.00  0.00     0.136 C 
ATOM      2  O   UNL     1      17.950  27.813   6.803  1.00  0.00    -0.299 OA
ENDROOT
BRANCH   1   3
ATOM      3  C   UNL     1      18.498  26.265   8.526  1.00  0.00     0.053 C 
ATOM      4  C   UNL     1      19.375  25.013   8.677  1.00  0.00     0.016 C 
BRANCH   3   5
ATOM      5  C   UNL     1      17.026  25.953   8.889  1.00  0.00     0.015 C 
BRANCH   5   6
ATOM      6  C   UNL     1      16.462  24.762   8.088  1.00  0.00     0.028 C 
BRANCH   6   7
ATOM      7  C   UNL     1      15.621  25.228   6.927  1.00  0.00    -0.028 C 
ATOM      8  C   UNL     1      15.986  25.142   5.626  1.00  0.00    -0.070 CG0
ATOM      9  C   UNL     1      15.004  25.607   4.581  1.00  0.00     0.039 C 
ATOM     10  G   UNL     1      17.338  24.597   5.180  1.00  0.00     0.000 G0
ENDBRANCH   6   7
ENDBRANCH   5   6
ENDBRANCH   3   5
ENDBRANCH   1   3
BRANCH   1  11
ATOM     11  C   UNL     1      19.510  26.188   6.091  1.00  0.00     0.087 C 
BRANCH  11  12
ATOM     12  C   UNL     1      19.100  26.462   4.615  1.00  0.00     0.066 C 
BRANCH  12  13
ATOM     13  C   UNL     1      18.026  25.479   4.170  1.00  0.00     0.140 C 
ATOM     14  O   UNL     1      17.671  25.457   2.999  1.00  0.00    -0.299 OA
BRANCH  13  15
ATOM     15  C   UNL     1      17.345  24.578   5.169  1.00  0.00     0.106 CG0
ATOM     16  G   UNL     1      15.997  25.129   5.617  1.00  0.00     0.000 G0
ENDBRANCH  13  15
ENDBRANCH  12  13
BRANCH  12  17
ATOM     17  C   UNL     1      20.296  26.499   3.604  1.00  0.00    -0.006 C 
ATOM     18  C   UNL     1      21.459  25.582   4.024  1.00  0.00     0.008 C 
ATOM     19  C   UNL     1      20.832  27.935   3.445  1.00  0.00     0.008 C 
ENDBRANCH  12  17
ENDBRANCH  11  12
ENDBRANCH   1  11
TORSDOF 1
ENDMDL
MODEL 3
REMARK VINA RESULT:    -4.710      1.838      4.445
REMARK INTER + INTRA:          -6.231
REMARK INTER:                  -6.817
REMARK INTRA:                   0.586
REMARK UNBOUND:                 0.957
REMARK SMILES CC1=CCC[C@@H](C)C(=O)C[C@@H](C(C)C)C(=O)C1
REMARK SMILES IDX 8 1 9 2 6 3 7 4 5 5 4 6 3 7 2 8 1 9 10 11 11 12 15 13 16 14
REMARK SMILES IDX 17 15 12 17 13 18 14 19
REMARK H PARENT
REMARK Flexibility Score: 70.00
ROOT
ATOM      1  C   UNL     1      19.337  26.874   5.527  1.00  0.00     0.136 C 
ATOM      2  O   UNL     1      20.138  27.664   5.048  1.00  0.00    -0.299 OA
ENDROOT
BRANCH   1   3
ATOM      3  C   UNL     1      19.056  25.556   4.820  1.00  0.00     0.053 C 
ATOM      4  C   UNL     1      20.359  24.933   4.297  1.00  0.00     0.016 C 
BRANCH   3   5
ATOM      5  C   UNL     1      18.040  25.755   3.670  1.00  0.00     0.015 C 
BRANCH   5   6
ATOM      6  C   UNL     1      16.643  26.163   4.183  1.00  0.00     0.028 C 
BRANCH   6   7
ATOM      7  C   UNL     1      15.953  25.014   4.874  1.00  0.00    -0.028 C 
ATOM      8  C   UNL     1      15.628  24.987   6.188  1.00  0.00    -0.070 CG0
ATOM      9  C   UNL     1      14.891  23.780   6.711  1.00  0.00     0.039 C 
ATOM     10  G   UNL     1      15.973  26.117   7.149  1.00  0.00     0.000 G0
ENDBRANCH   6   7
ENDBRANCH   5   6
ENDBRANCH   3   5
ENDBRANCH   1   3
BRANCH   1  11
ATOM     11  C   UNL     1      18.621  27.235   6.808  1.00  0.00     0.087 C 
BRANCH  11  12
ATOM     12  C   UNL     1      18.539  26.075   7.841  1.00  0.00     0.066 C 
BRANCH  12  13
ATOM     13  C   UNL     1      17.087  25.715   8.124  1.00  0.00     0.140 C 
ATOM     14  O   UNL     1      16.807  25.052   9.113  1.00  0.00    -0.299 OA
BRANCH  13  15
ATOM     15  C   UNL     1      15.994  26.111   7.163  1.00  0.00     0.106 CG0
ATOM     16  G   UNL     1      15.648  24.989   6.191  1.00  0.00     0.000 G0
ENDBRANCH  13  15
ENDBRANCH  12  13
BRANCH  12  17
ATOM     17  C   UNL     1      19.334  26.327   9.168  1.00  0.00    -0.006 C 
ATOM     18  C   UNL     1      19.781  25.022   9.850  1.00  0.00     0.008 C 
ATOM     19  C   UNL     1      18.487  27.141  10.165  1.00  0.00     0.008 C 
ENDBRANCH  12  17
ENDBRANCH  11  12
ENDBRANCH   1  11
TORSDOF 1
ENDMDL
MODEL 4
REMARK VINA RESULT:    -4.206     18.727     21.495
REMARK INTER + INTRA:          -5.463
REMARK INTER:                  -5.636
REMARK INTRA:                   0.173
REMARK UNBOUND:                 0.957
REMARK SMILES CC1=CCC[C@@H](C)C(=O)C[C@@H](C(C)C)C(=O)C1
REMARK SMILES IDX 8 1 9 2 6 3 7 4 5 5 4 6 3 7 2 8 1 9 10 11 11 12 15 13 16 14
REMARK SMILES IDX 17 15 12 17 13 18 14 19
REMARK H PARENT
REMARK Flexibility Score: 70.00
ROOT
ATOM      1  C   UNL     1      34.304  16.013  -4.608  1.00  0.00     0.136 C 
ATOM      2  O   UNL     1      34.594  15.933  -3.422  1.00  0.00    -0.299 OA
ENDROOT
BRANCH   1   3
ATOM      3  C   UNL     1      35.016  15.134  -5.625  1.00  0.00     0.053 C 
ATOM      4  C   UNL     1      34.788  15.661  -7.050  1.00  0.00     0.016 C 
BRANCH   3   5
ATOM      5  C   UNL     1      34.553  13.663  -5.500  1.00  0.00     0.015 C 
BRANCH   5   6
ATOM      6  C   UNL     1      33.806  13.173  -6.758  1.00  0.00     0.028 C 
BRANCH   6   7
ATOM      7  C   UNL     1      32.351  12.906  -6.465  1.00  0.00    -0.028 C 
ATOM      8  C   UNL     1      31.353  13.806  -6.630  1.00  0.00    -0.070 CG0
ATOM      9  C   UNL     1      29.942  13.361  -6.340  1.00  0.00     0.039 C 
ATOM     10  G   UNL     1      31.597  15.237  -7.093  1.00  0.00     0.000 G0
ENDBRANCH   6   7
ENDBRANCH   5   6
ENDBRANCH   3   5
ENDBRANCH   1   3
BRANCH   1  11
ATOM     11  C   UNL     1      33.251  17.007  -5.042  1.00  0.00     0.087 C 
BRANCH  11  12
ATOM     12  C   UNL     1      31.789  16.520  -4.830  1.00  0.00     0.066 C 
BRANCH  12  13
ATOM     13  C   UNL     1      31.101  16.302  -6.171  1.00  0.00     0.140 C 
ATOM     14  O   UNL     1      30.107  16.955  -6.457  1.00  0.00    -0.299 OA
BRANCH  13  15
ATOM     15  C   UNL     1      31.591  15.242  -7.125  1.00  0.00     0.106 CG0
ATOM     16  G   UNL     1      31.345  13.834  -6.598  1.00  0.00     0.000 G0
ENDBRANCH  13  15
ENDBRANCH  12  13
BRANCH  12  17
ATOM     17  C   UNL     1      30.930  17.430  -3.888  1.00  0.00    -0.006 C 
ATOM     18  C   UNL     1      31.035  18.923  -4.245  1.00  0.00     0.008 C 
ATOM     19  C   UNL     1      31.350  17.243  -2.417  1.00  0.00     0.008 C 
ENDBRANCH  12  17
ENDBRANCH  11  12
ENDBRANCH   1  11
TORSDOF 1
ENDMDL
MODEL 5
REMARK VINA RESULT:    -4.204      1.568      4.163
REMARK INTER + INTRA:          -5.459
REMARK INTER:                  -5.535
REMARK INTRA:                   0.076
REMARK UNBOUND:                 0.957
REMARK SMILES CC1=CCC[C@@H](C)C(=O)C[C@@H](C(C)C)C(=O)C1
REMARK SMILES IDX 8 1 9 2 6 3 7 4 5 5 4 6 3 7 2 8 1 9 10 11 11 12 15 13 16 14
REMARK SMILES IDX 17 15 12 17 13 18 14 19
REMARK H PARENT
REMARK Flexibility Score: 70.00
ROOT
ATOM      1  C   UNL     1      16.602  24.967   6.225  1.00  0.00     0.136 C 
ATOM      2  O   UNL     1      15.712  24.361   6.804  1.00  0.00    -0.299 OA
ENDROOT
BRANCH   1   3
ATOM      3  C   UNL     1      16.277  25.802   4.995  1.00  0.00     0.053 C 
ATOM      4  C   UNL     1      14.878  25.458   4.461  1.00  0.00     0.016 C 
BRANCH   3   5
ATOM      5  C   UNL     1      17.350  25.604   3.898  1.00  0.00     0.015 C 
BRANCH   5   6
ATOM      6  C   UNL     1      17.804  26.939   3.272  1.00  0.00     0.028 C 
BRANCH   6   7
ATOM      7  C   UNL     1      19.277  26.923   2.948  1.00  0.00    -0.028 C 
ATOM      8  C   UNL     1      20.264  27.202   3.832  1.00  0.00    -0.070 CG0
ATOM      9  C   UNL     1      21.691  27.089   3.359  1.00  0.00     0.039 C 
ATOM     10  G   UNL     1      19.992  27.620   5.272  1.00  0.00     0.000 G0
ENDBRANCH   6   7
ENDBRANCH   5   6
ENDBRANCH   3   5
ENDBRANCH   1   3
BRANCH   1  11
ATOM     11  C   UNL     1      18.020  24.856   6.734  1.00  0.00     0.087 C 
BRANCH  11  12
ATOM     12  C   UNL     1      18.676  26.219   7.099  1.00  0.00     0.066 C 
BRANCH  12  13
ATOM     13  C   UNL     1      19.918  26.456   6.251  1.00  0.00     0.140 C 
ATOM     14  O   UNL     1      20.890  25.724   6.380  1.00  0.00    -0.299 OA
BRANCH  13  15
ATOM     15  C   UNL     1      19.989  27.623   5.299  1.00  0.00     0.106 CG0
ATOM     16  G   UNL     1      20.240  27.181   3.863  1.00  0.00     0.000 G0
ENDBRANCH  13  15
ENDBRANCH  12  13
BRANCH  12  17
ATOM     17  C   UNL     1      18.980  26.408   8.624  1.00  0.00    -0.006 C 
ATOM     18  C   UNL     1      19.268  25.078   9.343  1.00  0.00     0.008 C 
ATOM     19  C   UNL     1      17.803  27.107   9.333  1.00  0.00     0.008 C 
ENDBRANCH  12  17
ENDBRANCH  11  12
ENDBRANCH   1  11
TORSDOF 1
ENDMDL
MODEL 6
REMARK VINA RESULT:    -3.993      1.708      4.521
REMARK INTER + INTRA:          -5.137
REMARK INTER:                  -5.503
REMARK INTRA:                   0.366
REMARK UNBOUND:                 0.957
REMARK SMILES CC1=CCC[C@@H](C)C(=O)C[C@@H](C(C)C)C(=O)C1
REMARK SMILES IDX 8 1 9 2 6 3 7 4 5 5 4 6 3 7 2 8 1 9 10 11 11 12 15 13 16 14
REMARK SMILES IDX 17 15 12 17 13 18 14 19
REMARK H PARENT
REMARK Flexibility Score: 70.00
ROOT
ATOM      1  C   UNL     1      19.496  25.526   5.531  1.00  0.00     0.136 C 
ATOM      2  O   UNL     1      19.346  24.314   5.464  1.00  0.00    -0.299 OA
ENDROOT
BRANCH   1   3
ATOM      3  C   UNL     1      19.986  26.299   4.315  1.00  0.00     0.053 C 
ATOM      4  C   UNL     1      20.203  27.779   4.665  1.00  0.00     0.016 C 
BRANCH   3   5
ATOM      5  C   UNL     1      18.997  26.150   3.134  1.00  0.00     0.015 C 
BRANCH   5   6
ATOM      6  C   UNL     1      17.671  26.899   3.380  1.00  0.00     0.028 C 
BRANCH   6   7
ATOM      7  C   UNL     1      16.565  25.949   3.762  1.00  0.00    -0.028 C 
ATOM      8  C   UNL     1      16.015  25.862   4.997  1.00  0.00    -0.070 CG0
ATOM      9  C   UNL     1      14.878  24.893   5.199  1.00  0.00     0.039 C 
ATOM     10  G   UNL     1      16.495  26.697   6.177  1.00  0.00     0.000 G0
ENDBRANCH   6   7
ENDBRANCH   5   6
ENDBRANCH   3   5
ENDBRANCH   1   3
BRANCH   1  11
ATOM     11  C   UNL     1      19.210  26.233   6.836  1.00  0.00     0.087 C 
BRANCH  11  12
ATOM     12  C   UNL     1      18.208  25.484   7.760  1.00  0.00     0.066 C 
BRANCH  12  13
ATOM     13  C   UNL     1      16.775  25.851   7.400  1.00  0.00     0.140 C 
ATOM     14  O   UNL     1      15.849  25.417   8.072  1.00  0.00    -0.299 OA
BRANCH  13  15
ATOM     15  C   UNL     1      16.477  26.692   6.183  1.00  0.00     0.106 CG0
ATOM     16  G   UNL     1      16.033  25.847   4.995  1.00  0.00     0.000 G0
ENDBRANCH  13  15
ENDBRANCH  12  13
BRANCH  12  17
ATOM     17  C   UNL     1      18.476  25.663   9.293  1.00  0.00    -0.006 C 
ATOM     18  C   UNL     1      18.429  27.137   9.736  1.00  0.00     0.008 C 
ATOM     19  C   UNL     1      19.847  25.075   9.680  1.00  0.00     0.008 C 
ENDBRANCH  12  17
ENDBRANCH  11  12
ENDBRANCH   1  11
TORSDOF 1
ENDMDL
MODEL 7
REMARK VINA RESULT:    -3.812      1.735      4.588
REMARK INTER + INTRA:          -4.861
REMARK INTER:                  -5.660
REMARK INTRA:                   0.799
REMARK UNBOUND:                 0.957
REMARK SMILES CC1=CCC[C@@H](C)C(=O)C[C@@H](C(C)C)C(=O)C1
REMARK SMILES IDX 8 1 9 2 6 3 7 4 5 5 4 6 3 7 2 8 1 9 10 11 11 12 15 13 16 14
REMARK SMILES IDX 17 15 12 17 13 18 14 19
REMARK H PARENT
REMARK Flexibility Score: 70.00
ROOT
ATOM      1  C   UNL     1      19.660  26.823   5.767  1.00  0.00     0.136 C 
ATOM      2  O   UNL     1      20.703  26.564   6.350  1.00  0.00    -0.299 OA
ENDROOT
BRANCH   1   3
ATOM      3  C   UNL     1      19.667  27.052   4.263  1.00  0.00     0.053 C 
ATOM      4  C   UNL     1      20.572  28.239   3.900  1.00  0.00     0.016 C 
BRANCH   3   5
ATOM      5  C   UNL     1      18.229  27.273   3.735  1.00  0.00     0.015 C 
BRANCH   5   6
ATOM      6  C   UNL     1      17.636  26.001   3.094  1.00  0.00     0.028 C 
BRANCH   6   7
ATOM      7  C   UNL     1      18.170  24.753   3.752  1.00  0.00    -0.028 C 
ATOM      8  C   UNL     1      17.640  24.178   4.857  1.00  0.00    -0.070 CG0
ATOM      9  C   UNL     1      18.263  22.900   5.358  1.00  0.00     0.039 C 
ATOM     10  G   UNL     1      16.450  24.764   5.607  1.00  0.00     0.000 G0
ENDBRANCH   6   7
ENDBRANCH   5   6
ENDBRANCH   3   5
ENDBRANCH   1   3
BRANCH   1  11
ATOM     11  C   UNL     1      18.379  26.931   6.562  1.00  0.00     0.087 C 
BRANCH  11  12
ATOM     12  C   UNL     1      18.075  25.692   7.452  1.00  0.00     0.066 C 
BRANCH  12  13
ATOM     13  C   UNL     1      16.749  25.060   7.050  1.00  0.00     0.140 C 
ATOM     14  O   UNL     1      15.945  24.735   7.913  1.00  0.00    -0.299 OA
BRANCH  13  15
ATOM     15  C   UNL     1      16.442  24.770   5.602  1.00  0.00     0.106 CG0
ATOM     16  G   UNL     1      17.642  24.188   4.865  1.00  0.00     0.000 G0
ENDBRANCH  13  15
ENDBRANCH  12  13
BRANCH  12  17
ATOM     17  C   UNL     1      18.133  25.966   8.994  1.00  0.00    -0.006 C 
ATOM     18  C   UNL     1      17.668  27.387   9.362  1.00  0.00     0.008 C 
ATOM     19  C   UNL     1      19.563  25.760   9.531  1.00  0.00     0.008 C 
ENDBRANCH  12  17
ENDBRANCH  11  12
ENDBRANCH   1  11
TORSDOF 1
ENDMDL
MODEL 8
REMARK VINA RESULT:    -3.771      1.398      1.963
REMARK INTER + INTRA:          -4.799
REMARK INTER:                  -6.552
REMARK INTRA:                   1.753
REMARK UNBOUND:                 0.957
REMARK SMILES CC1=CCC[C@@H](C)C(=O)C[C@@H](C(C)C)C(=O)C1
REMARK SMILES IDX 8 1 9 2 6 3 7 4 5 5 4 6 3 7 2 8 1 9 10 11 11 12 15 13 16 14
REMARK SMILES IDX 17 15 12 17 13 18 14 19
REMARK H PARENT
REMARK Flexibility Score: 70.00
ROOT
ATOM      1  C   UNL     1      15.971  25.472   5.346  1.00  0.00     0.136 C 
ATOM      2  O   UNL     1      15.002  25.486   4.600  1.00  0.00    -0.299 OA
ENDROOT
BRANCH   1   3
ATOM      3  C   UNL     1      15.974  24.571   6.571  1.00  0.00     0.053 C 
ATOM      4  C   UNL     1      14.882  23.497   6.458  1.00  0.00     0.016 C 
BRANCH   3   5
ATOM      5  C   UNL     1      15.797  25.403   7.865  1.00  0.00     0.015 C 
BRANCH   5   6
ATOM      6  C   UNL     1      16.648  26.689   7.858  1.00  0.00     0.028 C 
BRANCH   6   7
ATOM      7  C   UNL     1      17.665  26.682   8.971  1.00  0.00    -0.028 C 
ATOM      8  C   UNL     1      18.889  26.108   8.894  1.00  0.00    -0.070 CG0
ATOM      9  C   UNL     1      19.808  26.237  10.082  1.00  0.00     0.039 C 
ATOM     10  G   UNL     1      19.370  25.346   7.666  1.00  0.00     0.000 G0
ENDBRANCH   6   7
ENDBRANCH   5   6
ENDBRANCH   3   5
ENDBRANCH   1   3
BRANCH   1  11
ATOM     11  C   UNL     1      17.146  26.374   5.043  1.00  0.00     0.087 C 
BRANCH  11  12
ATOM     12  C   UNL     1      18.532  25.679   5.165  1.00  0.00     0.066 C 
BRANCH  12  13
ATOM     13  C   UNL     1      19.274  26.184   6.395  1.00  0.00     0.140 C 
ATOM     14  O   UNL     1      19.859  27.258   6.352  1.00  0.00    -0.299 OA
BRANCH  13  15
ATOM     15  C   UNL     1      19.352  25.346   7.646  1.00  0.00     0.106 CG0
ATOM     16  G   UNL     1      18.902  26.114   8.882  1.00  0.00     0.000 G0
ENDBRANCH  13  15
ENDBRANCH  12  13
BRANCH  12  17
ATOM     17  C   UNL     1      19.423  25.773   3.880  1.00  0.00    -0.006 C 
ATOM     18  C   UNL     1      20.878  25.338   4.133  1.00  0.00     0.008 C 
ATOM     19  C   UNL     1      19.428  27.210   3.323  1.00  0.00     0.008 C 
ENDBRANCH  12  17
ENDBRANCH  11  12
ENDBRANCH   1  11
TORSDOF 1
ENDMDL
MODEL 9
REMARK VINA RESULT:    -3.770      1.533      4.029
REMARK INTER + INTRA:          -4.796
REMARK INTER:                  -6.629
REMARK INTRA:                   1.833
REMARK UNBOUND:                 0.957
REMARK SMILES CC1=CCC[C@@H](C)C(=O)C[C@@H](C(C)C)C(=O)C1
REMARK SMILES IDX 8 1 9 2 6 3 7 4 5 5 4 6 3 7 2 8 1 9 10 11 11 12 15 13 16 14
REMARK SMILES IDX 17 15 12 17 13 18 14 19
REMARK H PARENT
REMARK Flexibility Score: 70.00
ROOT
ATOM      1  C   UNL     1      16.176  25.708   7.574  1.00  0.00     0.136 C 
ATOM      2  O   UNL     1      16.307  24.937   8.514  1.00  0.00    -0.299 OA
ENDROOT
BRANCH   1   3
ATOM      3  C   UNL     1      15.178  25.396   6.469  1.00  0.00     0.053 C 
ATOM      4  C   UNL     1      15.248  23.913   6.077  1.00  0.00     0.016 C 
BRANCH   3   5
ATOM      5  C   UNL     1      15.420  26.303   5.238  1.00  0.00     0.015 C 
BRANCH   5   6
ATOM      6  C   UNL     1      16.208  25.584   4.124  1.00  0.00     0.028 C 
BRANCH   6   7
ATOM      7  C   UNL     1      17.507  26.290   3.825  1.00  0.00    -0.028 C 
ATOM      8  C   UNL     1      18.638  26.168   4.559  1.00  0.00    -0.070 CG0
ATOM      9  C   UNL     1      19.868  26.904   4.092  1.00  0.00     0.039 C 
ATOM     10  G   UNL     1      18.716  25.325   5.825  1.00  0.00     0.000 G0
ENDBRANCH   6   7
ENDBRANCH   5   6
ENDBRANCH   3   5
ENDBRANCH   1   3
BRANCH   1  11
ATOM     11  C   UNL     1      17.031  26.953   7.519  1.00  0.00     0.087 C 
BRANCH  11  12
ATOM     12  C   UNL     1      18.482  26.754   8.043  1.00  0.00     0.066 C 
BRANCH  12  13
ATOM     13  C   UNL     1      19.347  26.092   6.980  1.00  0.00     0.140 C 
ATOM     14  O   UNL     1      20.563  26.219   7.020  1.00  0.00    -0.299 OA
BRANCH  13  15
ATOM     15  C   UNL     1      18.718  25.334   5.837  1.00  0.00     0.106 CG0
ATOM     16  G   UNL     1      18.643  26.170   4.565  1.00  0.00     0.000 G0
ENDBRANCH  13  15
ENDBRANCH  12  13
BRANCH  12  17
ATOM     17  C   UNL     1      18.581  25.999   9.413  1.00  0.00    -0.006 C 
ATOM     18  C   UNL     1      18.707  26.956  10.612  1.00  0.00     0.008 C 
ATOM     19  C   UNL     1      19.787  25.039   9.420  1.00  0.00     0.008 C 
ENDBRANCH  12  17
ENDBRANCH  11  12
ENDBRANCH   1  11
TORSDOF 1
ENDMDL
