MODEL 1
REMARK VINA RESULT:    -7.254      0.000      0.000
REMARK INTER + INTRA:          -9.325
REMARK INTER:                  -8.951
REMARK INTRA:                  -0.374
REMARK UNBOUND:                -0.374
REMARK SMILES Oc1cc(O)c2cc(O)c(-c3cc(O)c(O)c(O)c3)[o+]c2c1
REMARK SMILES IDX 10 1 20 2 21 3 22 4 2 5 3 6 4 7 6 8 7 9 8 10 11 11 12 12
REMARK SMILES IDX 13 13 19 14 15 15 17 16 14 17 16 19 18 21 9 23 1 25 5 27
REMARK H PARENT 14 18 16 20 18 22 9 24 1 26 5 28
REMARK Flexibility Score: inf
ROOT
ATOM      1  C   UNL     1       3.809  -0.096 -23.607  1.00  0.00     0.402 A 
ATOM      2  O   UNL     1       2.510  -0.368 -23.698  1.00  0.00    -0.202 OA
ATOM      3  C   UNL     1       2.007  -1.588 -23.537  1.00  0.00     0.368 A 
ATOM      4  C   UNL     1       0.627  -1.777 -23.654  1.00  0.00     0.162 A 
ATOM      5  C   UNL     1       0.072  -3.049 -23.494  1.00  0.00     0.128 A 
ATOM      6  C   UNL     1       0.901  -4.139 -23.215  1.00  0.00     0.093 A 
ATOM      7  C   UNL     1       2.286  -3.977 -23.094  1.00  0.00     0.136 A 
ATOM      8  C   UNL     1       2.854  -2.687 -23.253  1.00  0.00     0.125 A 
ATOM      9  C   UNL     1       4.229  -2.428 -23.135  1.00  0.00     0.078 A 
ATOM     10  C   UNL     1       4.715  -1.128 -23.301  1.00  0.00     0.223 A 
ENDROOT
BRANCH   1  11
ATOM     11  C   UNL     1       4.247   1.303 -23.816  1.00  0.00     0.091 A 
ATOM     12  C   UNL     1       4.494   1.807 -25.103  1.00  0.00     0.068 A 
ATOM     13  C   UNL     1       4.886   3.139 -25.292  1.00  0.00     0.162 A 
ATOM     14  C   UNL     1       4.362   2.161 -22.714  1.00  0.00     0.068 A 
ATOM     15  C   UNL     1       5.025   3.991 -24.171  1.00  0.00     0.200 A 
ATOM     16  C   UNL     1       4.757   3.494 -22.888  1.00  0.00     0.162 A 
BRANCH  13  17
ATOM     17  O   UNL     1       5.116   3.569 -26.599  1.00  0.00    -0.504 OA
ATOM     18  H   UNL     1       4.430   4.048 -27.166  1.00  0.00     0.293 HD
ENDBRANCH  13  17
BRANCH  15  19
ATOM     19  O   UNL     1       5.423   5.325 -24.287  1.00  0.00    -0.502 OA
ATOM     20  H   UNL     1       6.147   5.647 -24.913  1.00  0.00     0.293 HD
ENDBRANCH  15  19
BRANCH  16  21
ATOM     21  O   UNL     1       4.885   4.335 -21.783  1.00  0.00    -0.504 OA
ATOM     22  H   UNL     1       4.322   4.208 -20.950  1.00  0.00     0.293 HD
ENDBRANCH  16  21
ENDBRANCH   1  11
BRANCH  10  23
ATOM     23  O   UNL     1       6.074  -0.862 -23.135  1.00  0.00    -0.500 OA
ATOM     24  H   UNL     1       6.444   0.080 -23.189  1.00  0.00     0.294 HD
ENDBRANCH  10  23
BRANCH   5  25
ATOM     25  O   UNL     1      -1.302  -3.244 -23.609  1.00  0.00    -0.507 OA
ATOM     26  H   UNL     1      -1.942  -2.463 -23.710  1.00  0.00     0.293 HD
ENDBRANCH   5  25
BRANCH   7  27
ATOM     27  O   UNL     1       3.045  -5.118 -22.817  1.00  0.00    -0.507 OA
ATOM     28  H   UNL     1       2.656  -6.021 -22.587  1.00  0.00     0.293 HD
ENDBRANCH   7  27
TORSDOF 7
ENDMDL
MODEL 2
REMARK VINA RESULT:    -7.116      1.991      6.915
REMARK INTER + INTRA:          -9.155
REMARK INTER:                  -8.803
REMARK INTRA:                  -0.351
REMARK UNBOUND:                -0.374
REMARK SMILES Oc1cc(O)c2cc(O)c(-c3cc(O)c(O)c(O)c3)[o+]c2c1
REMARK SMILES IDX 10 1 20 2 21 3 22 4 2 5 3 6 4 7 6 8 7 9 8 10 11 11 12 12
REMARK SMILES IDX 13 13 19 14 15 15 17 16 14 17 16 19 18 21 9 23 1 25 5 27
REMARK H PARENT 14 18 16 20 18 22 9 24 1 26 5 28
REMARK Flexibility Score: inf
ROOT
ATOM      1  C   UNL     1       4.423   0.956 -23.579  1.00  0.00     0.402 A 
ATOM      2  O   UNL     1       3.781   1.653 -24.512  1.00  0.00    -0.202 OA
ATOM      3  C   UNL     1       3.937   2.963 -24.681  1.00  0.00     0.368 A 
ATOM      4  C   UNL     1       3.216   3.610 -25.688  1.00  0.00     0.162 A 
ATOM      5  C   UNL     1       3.358   4.986 -25.885  1.00  0.00     0.128 A 
ATOM      6  C   UNL     1       4.225   5.719 -25.072  1.00  0.00     0.093 A 
ATOM      7  C   UNL     1       4.959   5.095 -24.056  1.00  0.00     0.136 A 
ATOM      8  C   UNL     1       4.820   3.697 -23.853  1.00  0.00     0.125 A 
ATOM      9  C   UNL     1       5.525   2.986 -22.868  1.00  0.00     0.078 A 
ATOM     10  C   UNL     1       5.339   1.607 -22.732  1.00  0.00     0.223 A 
ENDROOT
BRANCH   1  11
ATOM     11  C   UNL     1       4.157  -0.498 -23.485  1.00  0.00     0.091 A 
ATOM     12  C   UNL     1       4.782  -1.413 -24.347  1.00  0.00     0.068 A 
ATOM     13  C   UNL     1       4.542  -2.788 -24.235  1.00  0.00     0.162 A 
ATOM     14  C   UNL     1       3.310  -0.980 -22.478  1.00  0.00     0.068 A 
ATOM     15  C   UNL     1       3.664  -3.264 -23.233  1.00  0.00     0.200 A 
ATOM     16  C   UNL     1       3.058  -2.352 -22.357  1.00  0.00     0.162 A 
BRANCH  13  17
ATOM     17  O   UNL     1       5.198  -3.637 -25.128  1.00  0.00    -0.504 OA
ATOM     18  H   UNL     1       5.605  -3.334 -26.002  1.00  0.00     0.293 HD
ENDBRANCH  13  17
BRANCH  15  19
ATOM     19  O   UNL     1       3.372  -4.621 -23.073  1.00  0.00    -0.502 OA
ATOM     20  H   UNL     1       2.753  -5.141 -23.678  1.00  0.00     0.293 HD
ENDBRANCH  15  19
BRANCH  16  21
ATOM     21  O   UNL     1       2.199  -2.821 -21.363  1.00  0.00    -0.504 OA
ATOM     22  H   UNL     1       1.244  -2.492 -21.288  1.00  0.00     0.293 HD
ENDBRANCH  16  21
ENDBRANCH   1  11
BRANCH  10  23
ATOM     23  O   UNL     1       6.075   0.891 -21.788  1.00  0.00    -0.500 OA
ATOM     24  H   UNL     1       5.933   1.019 -20.792  1.00  0.00     0.294 HD
ENDBRANCH  10  23
BRANCH   5  25
ATOM     25  O   UNL     1       2.642   5.637 -26.887  1.00  0.00    -0.507 OA
ATOM     26  H   UNL     1       2.944   5.613 -27.855  1.00  0.00     0.293 HD
ENDBRANCH   5  25
BRANCH   7  27
ATOM     27  O   UNL     1       5.802   5.899 -23.283  1.00  0.00    -0.507 OA
ATOM     28  H   UNL     1       5.717   6.021 -22.284  1.00  0.00     0.293 HD
ENDBRANCH   7  27
TORSDOF 7
ENDMDL
MODEL 3
REMARK VINA RESULT:    -7.033      1.992      7.082
REMARK INTER + INTRA:          -9.052
REMARK INTER:                  -8.668
REMARK INTRA:                  -0.384
REMARK UNBOUND:                -0.374
REMARK SMILES Oc1cc(O)c2cc(O)c(-c3cc(O)c(O)c(O)c3)[o+]c2c1
REMARK SMILES IDX 10 1 20 2 21 3 22 4 2 5 3 6 4 7 6 8 7 9 8 10 11 11 12 12
REMARK SMILES IDX 13 13 19 14 15 15 17 16 14 17 16 19 18 21 9 23 1 25 5 27
REMARK H PARENT 14 18 16 20 18 22 9 24 1 26 5 28
REMARK Flexibility Score: inf
ROOT
ATOM      1  C   UNL     1       4.449   0.916 -23.493  1.00  0.00     0.402 A 
ATOM      2  O   UNL     1       3.750   1.615 -24.384  1.00  0.00    -0.202 OA
ATOM      3  C   UNL     1       3.913   2.920 -24.578  1.00  0.00     0.368 A 
ATOM      4  C   UNL     1       3.129   3.569 -25.535  1.00  0.00     0.162 A 
ATOM      5  C   UNL     1       3.276   4.941 -25.757  1.00  0.00     0.128 A 
ATOM      6  C   UNL     1       4.213   5.667 -25.017  1.00  0.00     0.093 A 
ATOM      7  C   UNL     1       5.010   5.041 -24.051  1.00  0.00     0.136 A 
ATOM      8  C   UNL     1       4.865   3.648 -23.824  1.00  0.00     0.125 A 
ATOM      9  C   UNL     1       5.630   2.934 -22.887  1.00  0.00     0.078 A 
ATOM     10  C   UNL     1       5.434   1.560 -22.723  1.00  0.00     0.223 A 
ENDROOT
BRANCH   1  11
ATOM     11  C   UNL     1       4.169  -0.533 -23.365  1.00  0.00     0.091 A 
ATOM     12  C   UNL     1       3.281  -1.022 -22.393  1.00  0.00     0.068 A 
ATOM     13  C   UNL     1       3.004  -2.391 -22.295  1.00  0.00     0.162 A 
ATOM     14  C   UNL     1       4.755  -1.431 -24.267  1.00  0.00     0.068 A 
ATOM     15  C   UNL     1       3.621  -3.295 -23.193  1.00  0.00     0.200 A 
ATOM     16  C   UNL     1       4.490  -2.804 -24.177  1.00  0.00     0.162 A 
BRANCH  13  17
ATOM     17  O   UNL     1       2.113  -2.804 -21.303  1.00  0.00    -0.504 OA
ATOM     18  H   UNL     1       2.233  -2.613 -20.319  1.00  0.00     0.293 HD
ENDBRANCH  13  17
BRANCH  15  19
ATOM     19  O   UNL     1       3.398  -4.673 -23.142  1.00  0.00    -0.502 OA
ATOM     20  H   UNL     1       4.101  -5.367 -23.346  1.00  0.00     0.293 HD
ENDBRANCH  15  19
BRANCH  16  21
ATOM     21  O   UNL     1       5.091  -3.692 -25.069  1.00  0.00    -0.504 OA
ATOM     22  H   UNL     1       4.642  -3.957 -25.938  1.00  0.00     0.293 HD
ENDBRANCH  16  21
ENDBRANCH   1  11
BRANCH  10  23
ATOM     23  O   UNL     1       6.227   0.842 -21.828  1.00  0.00    -0.500 OA
ATOM     24  H   UNL     1       6.342   1.133 -20.864  1.00  0.00     0.294 HD
ENDBRANCH  10  23
BRANCH   5  25
ATOM     25  O   UNL     1       2.499   5.594 -26.710  1.00  0.00    -0.507 OA
ATOM     26  H   UNL     1       2.576   5.375 -27.697  1.00  0.00     0.293 HD
ENDBRANCH   5  25
BRANCH   7  27
ATOM     27  O   UNL     1       5.920   5.839 -23.351  1.00  0.00    -0.507 OA
ATOM     28  H   UNL     1       5.725   6.775 -23.026  1.00  0.00     0.293 HD
ENDBRANCH   7  27
TORSDOF 7
ENDMDL
MODEL 4
REMARK VINA RESULT:    -6.823      2.036      7.256
REMARK INTER + INTRA:          -8.792
REMARK INTER:                  -8.439
REMARK INTRA:                  -0.353
REMARK UNBOUND:                -0.374
REMARK SMILES Oc1cc(O)c2cc(O)c(-c3cc(O)c(O)c(O)c3)[o+]c2c1
REMARK SMILES IDX 10 1 20 2 21 3 22 4 2 5 3 6 4 7 6 8 7 9 8 10 11 11 12 12
REMARK SMILES IDX 13 13 19 14 15 15 17 16 14 17 16 19 18 21 9 23 1 25 5 27
REMARK H PARENT 14 18 16 20 18 22 9 24 1 26 5 28
REMARK Flexibility Score: inf
ROOT
ATOM      1  C   UNL     1       3.804   0.961 -24.315  1.00  0.00     0.402 A 
ATOM      2  O   UNL     1       4.492   1.763 -23.507  1.00  0.00    -0.202 OA
ATOM      3  C   UNL     1       4.610   3.072 -23.706  1.00  0.00     0.368 A 
ATOM      4  C   UNL     1       5.357   3.833 -22.803  1.00  0.00     0.162 A 
ATOM      5  C   UNL     1       5.501   5.211 -22.990  1.00  0.00     0.128 A 
ATOM      6  C   UNL     1       4.893   5.830 -24.085  1.00  0.00     0.093 A 
ATOM      7  C   UNL     1       4.140   5.090 -25.004  1.00  0.00     0.136 A 
ATOM      8  C   UNL     1       3.990   3.692 -24.818  1.00  0.00     0.125 A 
ATOM      9  C   UNL     1       3.243   2.873 -25.680  1.00  0.00     0.078 A 
ATOM     10  C   UNL     1       3.136   1.502 -25.428  1.00  0.00     0.223 A 
ENDROOT
BRANCH   1  11
ATOM     11  C   UNL     1       3.755  -0.483 -23.991  1.00  0.00     0.091 A 
ATOM     12  C   UNL     1       4.539  -1.417 -24.689  1.00  0.00     0.068 A 
ATOM     13  C   UNL     1       4.503  -2.777 -24.360  1.00  0.00     0.162 A 
ATOM     14  C   UNL     1       2.955  -0.925 -22.929  1.00  0.00     0.068 A 
ATOM     15  C   UNL     1       3.673  -3.218 -23.303  1.00  0.00     0.200 A 
ATOM     16  C   UNL     1       2.907  -2.284 -22.591  1.00  0.00     0.162 A 
BRANCH  13  17
ATOM     17  O   UNL     1       5.309  -3.645 -25.099  1.00  0.00    -0.504 OA
ATOM     18  H   UNL     1       5.535  -3.515 -26.075  1.00  0.00     0.293 HD
ENDBRANCH  13  17
BRANCH  15  19
ATOM     19  O   UNL     1       3.581  -4.562 -22.931  1.00  0.00    -0.502 OA
ATOM     20  H   UNL     1       2.729  -5.102 -22.966  1.00  0.00     0.293 HD
ENDBRANCH  15  19
BRANCH  16  21
ATOM     21  O   UNL     1       2.095  -2.716 -21.543  1.00  0.00    -0.504 OA
ATOM     22  H   UNL     1       2.426  -3.384 -20.855  1.00  0.00     0.293 HD
ENDBRANCH  16  21
ENDBRANCH   1  11
BRANCH  10  23
ATOM     23  O   UNL     1       2.353   0.697 -26.256  1.00  0.00    -0.500 OA
ATOM     24  H   UNL     1       1.838   1.081 -27.040  1.00  0.00     0.294 HD
ENDBRANCH  10  23
BRANCH   5  25
ATOM     25  O   UNL     1       6.243   5.975 -22.094  1.00  0.00    -0.507 OA
ATOM     26  H   UNL     1       5.884   6.844 -21.713  1.00  0.00     0.293 HD
ENDBRANCH   5  25
BRANCH   7  27
ATOM     27  O   UNL     1       3.568   5.785 -26.075  1.00  0.00    -0.507 OA
ATOM     28  H   UNL     1       3.277   6.751 -26.038  1.00  0.00     0.293 HD
ENDBRANCH   7  27
TORSDOF 7
ENDMDL
MODEL 5
REMARK VINA RESULT:    -6.737      2.054      7.444
REMARK INTER + INTRA:          -8.686
REMARK INTER:                  -8.381
REMARK INTRA:                  -0.305
REMARK UNBOUND:                -0.374
REMARK SMILES Oc1cc(O)c2cc(O)c(-c3cc(O)c(O)c(O)c3)[o+]c2c1
REMARK SMILES IDX 10 1 20 2 21 3 22 4 2 5 3 6 4 7 6 8 7 9 8 10 11 11 12 12
REMARK SMILES IDX 13 13 19 14 15 15 17 16 14 17 16 19 18 21 9 23 1 25 5 27
REMARK H PARENT 14 18 16 20 18 22 9 24 1 26 5 28
REMARK Flexibility Score: inf
ROOT
ATOM      1  C   UNL     1       3.830   1.035 -24.267  1.00  0.00     0.402 A 
ATOM      2  O   UNL     1       4.492   1.871 -23.472  1.00  0.00    -0.202 OA
ATOM      3  C   UNL     1       4.614   3.171 -23.719  1.00  0.00     0.368 A 
ATOM      4  C   UNL     1       5.332   3.969 -22.825  1.00  0.00     0.162 A 
ATOM      5  C   UNL     1       5.480   5.339 -23.062  1.00  0.00     0.128 A 
ATOM      6  C   UNL     1       4.906   5.912 -24.199  1.00  0.00     0.093 A 
ATOM      7  C   UNL     1       4.182   5.135 -25.111  1.00  0.00     0.136 A 
ATOM      8  C   UNL     1       4.028   3.744 -24.873  1.00  0.00     0.125 A 
ATOM      9  C   UNL     1       3.308   2.890 -25.725  1.00  0.00     0.078 A 
ATOM     10  C   UNL     1       3.196   1.530 -25.422  1.00  0.00     0.223 A 
ENDROOT
BRANCH   1  11
ATOM     11  C   UNL     1       3.772  -0.395 -23.888  1.00  0.00     0.091 A 
ATOM     12  C   UNL     1       2.956  -0.840 -22.835  1.00  0.00     0.068 A 
ATOM     13  C   UNL     1       2.891  -2.198 -22.499  1.00  0.00     0.162 A 
ATOM     14  C   UNL     1       4.501  -1.335 -24.629  1.00  0.00     0.068 A 
ATOM     15  C   UNL     1       3.651  -3.137 -23.236  1.00  0.00     0.200 A 
ATOM     16  C   UNL     1       4.448  -2.696 -24.301  1.00  0.00     0.162 A 
BRANCH  13  17
ATOM     17  O   UNL     1       2.060  -2.565 -21.439  1.00  0.00    -0.504 OA
ATOM     18  H   UNL     1       1.587  -3.455 -21.373  1.00  0.00     0.293 HD
ENDBRANCH  13  17
BRANCH  15  19
ATOM     19  O   UNL     1       3.640  -4.504 -22.945  1.00  0.00    -0.502 OA
ATOM     20  H   UNL     1       3.475  -4.886 -22.026  1.00  0.00     0.293 HD
ENDBRANCH  15  19
BRANCH  16  21
ATOM     21  O   UNL     1       5.189  -3.622 -25.034  1.00  0.00    -0.504 OA
ATOM     22  H   UNL     1       5.007  -4.617 -24.972  1.00  0.00     0.293 HD
ENDBRANCH  16  21
ENDBRANCH   1  11
BRANCH  10  23
ATOM     23  O   UNL     1       2.440   0.691 -26.240  1.00  0.00    -0.500 OA
ATOM     24  H   UNL     1       2.731   0.462 -27.184  1.00  0.00     0.294 HD
ENDBRANCH  10  23
BRANCH   5  25
ATOM     25  O   UNL     1       6.193   6.140 -22.175  1.00  0.00    -0.507 OA
ATOM     26  H   UNL     1       7.054   6.600 -22.450  1.00  0.00     0.293 HD
ENDBRANCH   5  25
BRANCH   7  27
ATOM     27  O   UNL     1       3.643   5.784 -26.226  1.00  0.00    -0.507 OA
ATOM     28  H   UNL     1       4.002   6.645 -26.614  1.00  0.00     0.293 HD
ENDBRANCH   7  27
TORSDOF 7
ENDMDL
MODEL 6
REMARK VINA RESULT:    -6.718      1.170      7.235
REMARK INTER + INTRA:          -8.663
REMARK INTER:                  -8.318
REMARK INTRA:                  -0.345
REMARK UNBOUND:                -0.374
REMARK SMILES Oc1cc(O)c2cc(O)c(-c3cc(O)c(O)c(O)c3)[o+]c2c1
REMARK SMILES IDX 10 1 20 2 21 3 22 4 2 5 3 6 4 7 6 8 7 9 8 10 11 11 12 12
REMARK SMILES IDX 13 13 19 14 15 15 17 16 14 17 16 19 18 21 9 23 1 25 5 27
REMARK H PARENT 14 18 16 20 18 22 9 24 1 26 5 28
REMARK Flexibility Score: inf
ROOT
ATOM      1  C   UNL     1       3.010  -0.147 -24.439  1.00  0.00     0.402 A 
ATOM      2  O   UNL     1       3.433   0.665 -23.473  1.00  0.00    -0.202 OA
ATOM      3  C   UNL     1       4.018   1.835 -23.707  1.00  0.00     0.368 A 
ATOM      4  C   UNL     1       4.431   2.619 -22.627  1.00  0.00     0.162 A 
ATOM      5  C   UNL     1       5.053   3.852 -22.844  1.00  0.00     0.128 A 
ATOM      6  C   UNL     1       5.261   4.303 -24.150  1.00  0.00     0.093 A 
ATOM      7  C   UNL     1       4.857   3.538 -25.250  1.00  0.00     0.136 A 
ATOM      8  C   UNL     1       4.224   2.286 -25.034  1.00  0.00     0.125 A 
ATOM      9  C   UNL     1       3.774   1.458 -26.075  1.00  0.00     0.078 A 
ATOM     10  C   UNL     1       3.154   0.240 -25.784  1.00  0.00     0.223 A 
ENDROOT
BRANCH   1  11
ATOM     11  C   UNL     1       2.382  -1.429 -24.049  1.00  0.00     0.091 A 
ATOM     12  C   UNL     1       3.155  -2.529 -23.642  1.00  0.00     0.068 A 
ATOM     13  C   UNL     1       2.549  -3.730 -23.253  1.00  0.00     0.162 A 
ATOM     14  C   UNL     1       0.984  -1.534 -24.029  1.00  0.00     0.068 A 
ATOM     15  C   UNL     1       1.138  -3.836 -23.261  1.00  0.00     0.200 A 
ATOM     16  C   UNL     1       0.366  -2.731 -23.646  1.00  0.00     0.162 A 
BRANCH  13  17
ATOM     17  O   UNL     1       3.382  -4.780 -22.863  1.00  0.00    -0.504 OA
ATOM     18  H   UNL     1       3.589  -5.583 -23.440  1.00  0.00     0.293 HD
ENDBRANCH  13  17
BRANCH  15  19
ATOM     19  O   UNL     1       0.471  -5.009 -22.896  1.00  0.00    -0.502 OA
ATOM     20  H   UNL     1      -0.345  -5.366 -23.371  1.00  0.00     0.293 HD
ENDBRANCH  15  19
BRANCH  16  21
ATOM     21  O   UNL     1      -1.025  -2.831 -23.645  1.00  0.00    -0.504 OA
ATOM     22  H   UNL     1      -1.614  -2.052 -23.916  1.00  0.00     0.293 HD
ENDBRANCH  16  21
ENDBRANCH   1  11
BRANCH  10  23
ATOM     23  O   UNL     1       2.662  -0.560 -26.816  1.00  0.00    -0.500 OA
ATOM     24  H   UNL     1       2.419  -1.532 -26.667  1.00  0.00     0.294 HD
ENDBRANCH  10  23
BRANCH   5  25
ATOM     25  O   UNL     1       5.466   4.637 -21.772  1.00  0.00    -0.507 OA
ATOM     26  H   UNL     1       6.218   4.342 -21.158  1.00  0.00     0.293 HD
ENDBRANCH   5  25
BRANCH   7  27
ATOM     27  O   UNL     1       5.106   4.059 -26.523  1.00  0.00    -0.507 OA
ATOM     28  H   UNL     1       4.634   3.759 -27.365  1.00  0.00     0.293 HD
ENDBRANCH   7  27
TORSDOF 7
ENDMDL
MODEL 7
REMARK VINA RESULT:    -6.706      1.223      7.074
REMARK INTER + INTRA:          -8.649
REMARK INTER:                  -8.471
REMARK INTRA:                  -0.178
REMARK UNBOUND:                -0.374
REMARK SMILES Oc1cc(O)c2cc(O)c(-c3cc(O)c(O)c(O)c3)[o+]c2c1
REMARK SMILES IDX 10 1 20 2 21 3 22 4 2 5 3 6 4 7 6 8 7 9 8 10 11 11 12 12
REMARK SMILES IDX 13 13 19 14 15 15 17 16 14 17 16 19 18 21 9 23 1 25 5 27
REMARK H PARENT 14 18 16 20 18 22 9 24 1 26 5 28
REMARK Flexibility Score: inf
ROOT
ATOM      1  C   UNL     1       3.190  -0.049 -23.698  1.00  0.00     0.402 A 
ATOM      2  O   UNL     1       3.159   0.566 -24.877  1.00  0.00    -0.202 OA
ATOM      3  C   UNL     1       3.754   1.732 -25.108  1.00  0.00     0.368 A 
ATOM      4  C   UNL     1       3.663   2.302 -26.381  1.00  0.00     0.162 A 
ATOM      5  C   UNL     1       4.276   3.529 -26.651  1.00  0.00     0.128 A 
ATOM      6  C   UNL     1       4.984   4.188 -25.643  1.00  0.00     0.093 A 
ATOM      7  C   UNL     1       5.090   3.638 -24.360  1.00  0.00     0.136 A 
ATOM      8  C   UNL     1       4.471   2.392 -24.081  1.00  0.00     0.125 A 
ATOM      9  C   UNL     1       4.536   1.760 -22.829  1.00  0.00     0.078 A 
ATOM     10  C   UNL     1       3.904   0.528 -22.632  1.00  0.00     0.223 A 
ENDROOT
BRANCH   1  11
ATOM     11  C   UNL     1       2.480  -1.341 -23.563  1.00  0.00     0.091 A 
ATOM     12  C   UNL     1       3.164  -2.521 -23.229  1.00  0.00     0.068 A 
ATOM     13  C   UNL     1       2.479  -3.733 -23.081  1.00  0.00     0.162 A 
ATOM     14  C   UNL     1       1.087  -1.381 -23.713  1.00  0.00     0.068 A 
ATOM     15  C   UNL     1       1.076  -3.770 -23.261  1.00  0.00     0.200 A 
ATOM     16  C   UNL     1       0.390  -2.588 -23.572  1.00  0.00     0.162 A 
BRANCH  13  17
ATOM     17  O   UNL     1       3.227  -4.865 -22.750  1.00  0.00    -0.504 OA
ATOM     18  H   UNL     1       4.231  -4.927 -22.842  1.00  0.00     0.293 HD
ENDBRANCH  13  17
BRANCH  15  19
ATOM     19  O   UNL     1       0.334  -4.947 -23.139  1.00  0.00    -0.502 OA
ATOM     20  H   UNL     1      -0.653  -4.975 -22.933  1.00  0.00     0.293 HD
ENDBRANCH  15  19
BRANCH  16  21
ATOM     21  O   UNL     1      -0.994  -2.620 -23.740  1.00  0.00    -0.504 OA
ATOM     22  H   UNL     1      -1.593  -3.148 -23.114  1.00  0.00     0.293 HD
ENDBRANCH  16  21
ENDBRANCH   1  11
BRANCH  10  23
ATOM     23  O   UNL     1       4.011  -0.124 -21.403  1.00  0.00    -0.500 OA
ATOM     24  H   UNL     1       4.906  -0.427 -21.036  1.00  0.00     0.294 HD
ENDBRANCH  10  23
BRANCH   5  25
ATOM     25  O   UNL     1       4.189   4.102 -27.916  1.00  0.00    -0.507 OA
ATOM     26  H   UNL     1       3.686   4.969 -28.073  1.00  0.00     0.293 HD
ENDBRANCH   5  25
BRANCH   7  27
ATOM     27  O   UNL     1       5.813   4.362 -23.407  1.00  0.00    -0.507 OA
ATOM     28  H   UNL     1       6.607   4.949 -23.618  1.00  0.00     0.293 HD
ENDBRANCH   7  27
TORSDOF 7
ENDMDL
MODEL 8
REMARK VINA RESULT:    -6.585      1.982      2.419
REMARK INTER + INTRA:          -8.499
REMARK INTER:                  -8.122
REMARK INTRA:                  -0.377
REMARK UNBOUND:                -0.374
REMARK SMILES Oc1cc(O)c2cc(O)c(-c3cc(O)c(O)c(O)c3)[o+]c2c1
REMARK SMILES IDX 10 1 20 2 21 3 22 4 2 5 3 6 4 7 6 8 7 9 8 10 11 11 12 12
REMARK SMILES IDX 13 13 19 14 15 15 17 16 14 17 16 19 18 21 9 23 1 25 5 27
REMARK H PARENT 14 18 16 20 18 22 9 24 1 26 5 28
REMARK Flexibility Score: inf
ROOT
ATOM      1  C   UNL     1       4.284   1.299 -24.137  1.00  0.00     0.402 A 
ATOM      2  O   UNL     1       3.617   0.666 -23.175  1.00  0.00    -0.202 OA
ATOM      3  C   UNL     1       3.485  -0.655 -23.127  1.00  0.00     0.368 A 
ATOM      4  C   UNL     1       2.763  -1.230 -22.078  1.00  0.00     0.162 A 
ATOM      5  C   UNL     1       2.605  -2.617 -22.004  1.00  0.00     0.128 A 
ATOM      6  C   UNL     1       3.173  -3.433 -22.986  1.00  0.00     0.093 A 
ATOM      7  C   UNL     1       3.900  -2.883 -24.047  1.00  0.00     0.136 A 
ATOM      8  C   UNL     1       4.065  -1.476 -24.125  1.00  0.00     0.125 A 
ATOM      9  C   UNL     1       4.790  -0.838 -25.145  1.00  0.00     0.078 A 
ATOM     10  C   UNL     1       4.913   0.555 -25.152  1.00  0.00     0.223 A 
ENDROOT
BRANCH   1  11
ATOM     11  C   UNL     1       4.352   2.777 -24.085  1.00  0.00     0.091 A 
ATOM     12  C   UNL     1       3.487   3.577 -24.849  1.00  0.00     0.068 A 
ATOM     13  C   UNL     1       3.544   4.974 -24.776  1.00  0.00     0.162 A 
ATOM     14  C   UNL     1       5.258   3.395 -23.213  1.00  0.00     0.068 A 
ATOM     15  C   UNL     1       4.480   5.590 -23.912  1.00  0.00     0.200 A 
ATOM     16  C   UNL     1       5.329   4.792 -23.132  1.00  0.00     0.162 A 
BRANCH  13  17
ATOM     17  O   UNL     1       2.654   5.703 -25.566  1.00  0.00    -0.504 OA
ATOM     18  H   UNL     1       1.755   5.357 -25.871  1.00  0.00     0.293 HD
ENDBRANCH  13  17
BRANCH  15  19
ATOM     19  O   UNL     1       4.597   6.978 -23.799  1.00  0.00    -0.502 OA
ATOM     20  H   UNL     1       5.469   7.461 -23.643  1.00  0.00     0.293 HD
ENDBRANCH  15  19
BRANCH  16  21
ATOM     21  O   UNL     1       6.245   5.398 -22.273  1.00  0.00    -0.504 OA
ATOM     22  H   UNL     1       6.281   6.405 -22.160  1.00  0.00     0.293 HD
ENDBRANCH  16  21
ENDBRANCH   1  11
BRANCH  10  23
ATOM     23  O   UNL     1       5.674   1.185 -26.136  1.00  0.00    -0.500 OA
ATOM     24  H   UNL     1       5.700   0.843 -27.090  1.00  0.00     0.294 HD
ENDBRANCH  10  23
BRANCH   5  25
ATOM     25  O   UNL     1       1.886  -3.195 -20.961  1.00  0.00    -0.507 OA
ATOM     26  H   UNL     1       1.786  -4.201 -20.881  1.00  0.00     0.293 HD
ENDBRANCH   5  25
BRANCH   7  27
ATOM     27  O   UNL     1       4.433  -3.768 -24.990  1.00  0.00    -0.507 OA
ATOM     28  H   UNL     1       3.933  -4.553 -25.382  1.00  0.00     0.293 HD
ENDBRANCH   7  27
TORSDOF 7
ENDMDL
MODEL 9
REMARK VINA RESULT:    -6.570      1.981      2.813
REMARK INTER + INTRA:          -8.481
REMARK INTER:                  -8.126
REMARK INTRA:                  -0.355
REMARK UNBOUND:                -0.374
REMARK SMILES Oc1cc(O)c2cc(O)c(-c3cc(O)c(O)c(O)c3)[o+]c2c1
REMARK SMILES IDX 10 1 20 2 21 3 22 4 2 5 3 6 4 7 6 8 7 9 8 10 11 11 12 12
REMARK SMILES IDX 13 13 19 14 15 15 17 16 14 17 16 19 18 21 9 23 1 25 5 27
REMARK H PARENT 14 18 16 20 18 22 9 24 1 26 5 28
REMARK Flexibility Score: inf
ROOT
ATOM      1  C   UNL     1       4.298   1.324 -24.071  1.00  0.00     0.402 A 
ATOM      2  O   UNL     1       3.622   0.676 -23.127  1.00  0.00    -0.202 OA
ATOM      3  C   UNL     1       3.493  -0.647 -23.099  1.00  0.00     0.368 A 
ATOM      4  C   UNL     1       2.759  -1.238 -22.067  1.00  0.00     0.162 A 
ATOM      5  C   UNL     1       2.604  -2.626 -22.015  1.00  0.00     0.128 A 
ATOM      6  C   UNL     1       3.187  -3.427 -23.000  1.00  0.00     0.093 A 
ATOM      7  C   UNL     1       3.926  -2.860 -24.045  1.00  0.00     0.136 A 
ATOM      8  C   UNL     1       4.088  -1.451 -24.101  1.00  0.00     0.125 A 
ATOM      9  C   UNL     1       4.823  -0.797 -25.102  1.00  0.00     0.078 A 
ATOM     10  C   UNL     1       4.942   0.596 -25.088  1.00  0.00     0.223 A 
ENDROOT
BRANCH   1  11
ATOM     11  C   UNL     1       4.362   2.801 -23.997  1.00  0.00     0.091 A 
ATOM     12  C   UNL     1       5.279   3.453 -23.157  1.00  0.00     0.068 A 
ATOM     13  C   UNL     1       5.347   4.851 -23.112  1.00  0.00     0.162 A 
ATOM     14  C   UNL     1       3.531   3.569 -24.825  1.00  0.00     0.068 A 
ATOM     15  C   UNL     1       4.486   5.619 -23.932  1.00  0.00     0.200 A 
ATOM     16  C   UNL     1       3.586   4.968 -24.787  1.00  0.00     0.162 A 
BRANCH  13  17
ATOM     17  O   UNL     1       6.282   5.428 -22.251  1.00  0.00    -0.504 OA
ATOM     18  H   UNL     1       6.048   6.083 -21.519  1.00  0.00     0.293 HD
ENDBRANCH  13  17
BRANCH  15  19
ATOM     19  O   UNL     1       4.494   7.016 -23.927  1.00  0.00    -0.502 OA
ATOM     20  H   UNL     1       3.677   7.586 -23.767  1.00  0.00     0.293 HD
ENDBRANCH  15  19
BRANCH  16  21
ATOM     21  O   UNL     1       2.744   5.724 -25.603  1.00  0.00    -0.504 OA
ATOM     22  H   UNL     1       1.989   5.297 -26.127  1.00  0.00     0.293 HD
ENDBRANCH  16  21
ENDBRANCH   1  11
BRANCH  10  23
ATOM     23  O   UNL     1       5.714   1.242 -26.054  1.00  0.00    -0.500 OA
ATOM     24  H   UNL     1       5.302   1.622 -26.899  1.00  0.00     0.294 HD
ENDBRANCH  10  23
BRANCH   5  25
ATOM     25  O   UNL     1       1.875  -3.221 -20.989  1.00  0.00    -0.507 OA
ATOM     26  H   UNL     1       0.861  -3.222 -20.991  1.00  0.00     0.293 HD
ENDBRANCH   5  25
BRANCH   7  27
ATOM     27  O   UNL     1       4.474  -3.730 -24.993  1.00  0.00    -0.507 OA
ATOM     28  H   UNL     1       5.311  -4.276 -24.849  1.00  0.00     0.293 HD
ENDBRANCH   7  27
TORSDOF 7
ENDMDL
