MODEL 1
REMARK VINA RESULT:    -5.484      0.000      0.000
REMARK INTER + INTRA:          -8.618
REMARK INTER:                  -8.370
REMARK INTRA:                  -0.248
REMARK UNBOUND:                -0.248
REMARK SMILES CC1=CCC[C@@H](C)C(=O)C[C@@H](C(C)C)C(=O)C1
REMARK SMILES IDX 8 1 9 2 6 3 7 4 5 5 4 6 3 7 2 8 1 9 10 11 11 12 15 13 16 14
REMARK SMILES IDX 17 15 12 17 13 18 14 19
REMARK H PARENT
REMARK Flexibility Score: 70.00
ROOT
ATOM      1  C   UNL     1     -12.770 -41.505  39.051  1.00  0.00     0.136 C 
ATOM      2  O   UNL     1     -12.853 -42.594  38.498  1.00  0.00    -0.299 OA
ENDROOT
BRANCH   1   3
ATOM      3  C   UNL     1     -11.929 -41.393  40.304  1.00  0.00     0.053 C 
ATOM      4  C   UNL     1     -11.171 -42.709  40.529  1.00  0.00     0.016 C 
BRANCH   3   5
ATOM      5  C   UNL     1     -12.824 -41.061  41.526  1.00  0.00     0.015 C 
BRANCH   5   6
ATOM      6  C   UNL     1     -12.379 -39.789  42.279  1.00  0.00     0.028 C 
BRANCH   6   7
ATOM      7  C   UNL     1     -13.413 -38.685  42.260  1.00  0.00    -0.028 C 
ATOM      8  C   UNL     1     -13.447 -37.606  41.434  1.00  0.00    -0.070 CG0
ATOM      9  C   UNL     1     -14.548 -36.599  41.664  1.00  0.00     0.039 C 
ATOM     10  G   UNL     1     -12.488 -37.370  40.272  1.00  0.00     0.000 G0
ENDBRANCH   6   7
ENDBRANCH   5   6
ENDBRANCH   3   5
ENDBRANCH   1   3
BRANCH   1  11
ATOM     11  C   UNL     1     -13.440 -40.320  38.391  1.00  0.00     0.087 C 
BRANCH  11  12
ATOM     12  C   UNL     1     -12.567 -39.048  38.185  1.00  0.00     0.066 C 
BRANCH  12  13
ATOM     13  C   UNL     1     -13.019 -37.787  38.933  1.00  0.00     0.140 C 
ATOM     14  O   UNL     1     -13.874 -37.085  38.414  1.00  0.00    -0.299 OA
BRANCH  13  15
ATOM     15  C   UNL     1     -12.482 -37.347  40.275  1.00  0.00     0.106 CG0
ATOM     16  G   UNL     1     -13.443 -37.617  41.428  1.00  0.00     0.000 G0
ENDBRANCH  13  15
ENDBRANCH  12  13
BRANCH  12  17
ATOM     17  C   UNL     1     -12.388 -38.779  36.651  1.00  0.00    -0.006 C 
ATOM     18  C   UNL     1     -11.153 -37.921  36.324  1.00  0.00     0.008 C 
ATOM     19  C   UNL     1     -12.366 -40.076  35.824  1.00  0.00     0.008 C 
ENDBRANCH  12  17
ENDBRANCH  11  12
ENDBRANCH   1  11
TORSDOF 1
ENDMDL
MODEL 2
REMARK VINA RESULT:    -5.385      0.854      1.460
REMARK INTER + INTRA:          -8.467
REMARK INTER:                  -8.454
REMARK INTRA:                  -0.013
REMARK UNBOUND:                -0.248
REMARK SMILES CC1=CCC[C@@H](C)C(=O)C[C@@H](C(C)C)C(=O)C1
REMARK SMILES IDX 8 1 9 2 6 3 7 4 5 5 4 6 3 7 2 8 1 9 10 11 11 12 15 13 16 14
REMARK SMILES IDX 17 15 12 17 13 18 14 19
REMARK H PARENT
REMARK Flexibility Score: 70.00
ROOT
ATOM      1  C   UNL     1     -12.887 -41.551  38.828  1.00  0.00     0.136 C 
ATOM      2  O   UNL     1     -13.017 -42.638  38.280  1.00  0.00    -0.299 OA
ENDROOT
BRANCH   1   3
ATOM      3  C   UNL     1     -12.051 -41.470  40.086  1.00  0.00     0.053 C 
ATOM      4  C   UNL     1     -11.287 -42.787  40.276  1.00  0.00     0.016 C 
BRANCH   3   5
ATOM      5  C   UNL     1     -12.952 -41.177  41.314  1.00  0.00     0.015 C 
BRANCH   5   6
ATOM      6  C   UNL     1     -12.469 -39.973  42.151  1.00  0.00     0.028 C 
BRANCH   6   7
ATOM      7  C   UNL     1     -11.296 -39.243  41.534  1.00  0.00    -0.028 C 
ATOM      8  C   UNL     1     -11.344 -38.188  40.679  1.00  0.00    -0.070 CG0
ATOM      9  C   UNL     1     -10.028 -37.680  40.140  1.00  0.00     0.039 C 
ATOM     10  G   UNL     1     -12.618 -37.459  40.267  1.00  0.00     0.000 G0
ENDBRANCH   6   7
ENDBRANCH   5   6
ENDBRANCH   3   5
ENDBRANCH   1   3
BRANCH   1  11
ATOM     11  C   UNL     1     -13.497 -40.340  38.155  1.00  0.00     0.087 C 
BRANCH  11  12
ATOM     12  C   UNL     1     -12.616 -39.057  38.091  1.00  0.00     0.066 C 
BRANCH  12  13
ATOM     13  C   UNL     1     -13.127 -37.845  38.880  1.00  0.00     0.140 C 
ATOM     14  O   UNL     1     -14.002 -37.157  38.376  1.00  0.00    -0.299 OA
BRANCH  13  15
ATOM     15  C   UNL     1     -12.625 -37.436  40.245  1.00  0.00     0.106 CG0
ATOM     16  G   UNL     1     -11.368 -38.185  40.675  1.00  0.00     0.000 G0
ENDBRANCH  13  15
ENDBRANCH  12  13
BRANCH  12  17
ATOM     17  C   UNL     1     -12.327 -38.695  36.594  1.00  0.00    -0.006 C 
ATOM     18  C   UNL     1     -10.961 -38.018  36.384  1.00  0.00     0.008 C 
ATOM     19  C   UNL     1     -12.466 -39.908  35.657  1.00  0.00     0.008 C 
ENDBRANCH  12  17
ENDBRANCH  11  12
ENDBRANCH   1  11
TORSDOF 1
ENDMDL
MODEL 3
REMARK VINA RESULT:    -5.256      2.269      5.920
REMARK INTER + INTRA:          -8.270
REMARK INTER:                  -7.989
REMARK INTRA:                  -0.281
REMARK UNBOUND:                -0.248
REMARK SMILES CC1=CCC[C@@H](C)C(=O)C[C@@H](C(C)C)C(=O)C1
REMARK SMILES IDX 8 1 9 2 6 3 7 4 5 5 4 6 3 7 2 8 1 9 10 11 11 12 15 13 16 14
REMARK SMILES IDX 17 15 12 17 13 18 14 19
REMARK H PARENT
REMARK Flexibility Score: 70.00
ROOT
ATOM      1  C   UNL     1     -14.188 -35.372  38.662  1.00  0.00     0.136 C 
ATOM      2  O   UNL     1     -15.007 -34.521  38.982  1.00  0.00    -0.299 OA
ENDROOT
BRANCH   1   3
ATOM      3  C   UNL     1     -12.915 -34.928  37.975  1.00  0.00     0.053 C 
ATOM      4  C   UNL     1     -12.769 -33.406  38.107  1.00  0.00     0.016 C 
BRANCH   3   5
ATOM      5  C   UNL     1     -12.933 -35.349  36.482  1.00  0.00     0.015 C 
BRANCH   5   6
ATOM      6  C   UNL     1     -11.740 -36.246  36.088  1.00  0.00     0.028 C 
BRANCH   6   7
ATOM      7  C   UNL     1     -12.140 -37.666  35.750  1.00  0.00    -0.028 C 
ATOM      8  C   UNL     1     -12.042 -38.759  36.551  1.00  0.00    -0.070 CG0
ATOM      9  C   UNL     1     -12.440 -40.086  35.953  1.00  0.00     0.039 C 
ATOM     10  G   UNL     1     -11.608 -38.730  38.012  1.00  0.00     0.000 G0
ENDBRANCH   6   7
ENDBRANCH   5   6
ENDBRANCH   3   5
ENDBRANCH   1   3
BRANCH   1  11
ATOM     11  C   UNL     1     -14.461 -36.806  39.060  1.00  0.00     0.087 C 
BRANCH  11  12
ATOM     12  C   UNL     1     -13.296 -37.575  39.750  1.00  0.00     0.066 C 
BRANCH  12  13
ATOM     13  C   UNL     1     -12.749 -38.794  38.997  1.00  0.00     0.140 C 
ATOM     14  O   UNL     1     -13.279 -39.878  39.195  1.00  0.00    -0.299 OA
BRANCH  13  15
ATOM     15  C   UNL     1     -11.597 -38.754  38.021  1.00  0.00     0.106 CG0
ATOM     16  G   UNL     1     -12.040 -38.758  36.562  1.00  0.00     0.000 G0
ENDBRANCH  13  15
ENDBRANCH  12  13
BRANCH  12  17
ATOM     17  C   UNL     1     -13.705 -37.936  41.219  1.00  0.00    -0.006 C 
ATOM     18  C   UNL     1     -12.500 -38.179  42.145  1.00  0.00     0.008 C 
ATOM     19  C   UNL     1     -14.648 -36.892  41.842  1.00  0.00     0.008 C 
ENDBRANCH  12  17
ENDBRANCH  11  12
ENDBRANCH   1  11
TORSDOF 1
ENDMDL
MODEL 4
REMARK VINA RESULT:    -5.222      1.660      2.470
REMARK INTER + INTRA:          -8.218
REMARK INTER:                  -8.194
REMARK INTRA:                  -0.024
REMARK UNBOUND:                -0.248
REMARK SMILES CC1=CCC[C@@H](C)C(=O)C[C@@H](C(C)C)C(=O)C1
REMARK SMILES IDX 8 1 9 2 6 3 7 4 5 5 4 6 3 7 2 8 1 9 10 11 11 12 15 13 16 14
REMARK SMILES IDX 17 15 12 17 13 18 14 19
REMARK H PARENT
REMARK Flexibility Score: 70.00
ROOT
ATOM      1  C   UNL     1     -13.269 -40.081  37.972  1.00  0.00     0.136 C 
ATOM      2  O   UNL     1     -13.161 -40.371  36.788  1.00  0.00    -0.299 OA
ENDROOT
BRANCH   1   3
ATOM      3  C   UNL     1     -12.811 -41.084  39.007  1.00  0.00     0.053 C 
ATOM      4  C   UNL     1     -12.551 -42.436  38.326  1.00  0.00     0.016 C 
BRANCH   3   5
ATOM      5  C   UNL     1     -13.876 -41.231  40.126  1.00  0.00     0.015 C 
BRANCH   5   6
ATOM      6  C   UNL     1     -13.317 -40.955  41.538  1.00  0.00     0.028 C 
BRANCH   6   7
ATOM      7  C   UNL     1     -11.925 -40.362  41.530  1.00  0.00    -0.028 C 
ATOM      8  C   UNL     1     -11.593 -39.047  41.615  1.00  0.00    -0.070 CG0
ATOM      9  C   UNL     1     -10.127 -38.701  41.508  1.00  0.00     0.039 C 
ATOM     10  G   UNL     1     -12.584 -37.914  41.855  1.00  0.00     0.000 G0
ENDBRANCH   6   7
ENDBRANCH   5   6
ENDBRANCH   3   5
ENDBRANCH   1   3
BRANCH   1  11
ATOM     11  C   UNL     1     -13.768 -38.695  38.322  1.00  0.00     0.087 C 
BRANCH  11  12
ATOM     12  C   UNL     1     -12.812 -37.799  39.163  1.00  0.00     0.066 C 
BRANCH  12  13
ATOM     13  C   UNL     1     -13.276 -37.463  40.586  1.00  0.00     0.140 C 
ATOM     14  O   UNL     1     -14.291 -36.796  40.718  1.00  0.00    -0.299 OA
BRANCH  13  15
ATOM     15  C   UNL     1     -12.565 -37.901  41.845  1.00  0.00     0.106 CG0
ATOM     16  G   UNL     1     -11.584 -39.046  41.618  1.00  0.00     0.000 G0
ENDBRANCH  13  15
ENDBRANCH  12  13
BRANCH  12  17
ATOM     17  C   UNL     1     -12.456 -36.507  38.349  1.00  0.00    -0.006 C 
ATOM     18  C   UNL     1     -10.942 -36.309  38.153  1.00  0.00     0.008 C 
ATOM     19  C   UNL     1     -13.177 -36.449  36.991  1.00  0.00     0.008 C 
ENDBRANCH  12  17
ENDBRANCH  11  12
ENDBRANCH   1  11
TORSDOF 1
ENDMDL
MODEL 5
REMARK VINA RESULT:    -5.131      1.855      2.406
REMARK INTER + INTRA:          -8.079
REMARK INTER:                  -7.859
REMARK INTRA:                  -0.220
REMARK UNBOUND:                -0.248
REMARK SMILES CC1=CCC[C@@H](C)C(=O)C[C@@H](C(C)C)C(=O)C1
REMARK SMILES IDX 8 1 9 2 6 3 7 4 5 5 4 6 3 7 2 8 1 9 10 11 11 12 15 13 16 14
REMARK SMILES IDX 17 15 12 17 13 18 14 19
REMARK H PARENT
REMARK Flexibility Score: 70.00
ROOT
ATOM      1  C   UNL     1     -13.329 -40.234  38.055  1.00  0.00     0.136 C 
ATOM      2  O   UNL     1     -13.869 -40.759  37.090  1.00  0.00    -0.299 OA
ENDROOT
BRANCH   1   3
ATOM      3  C   UNL     1     -12.670 -41.123  39.087  1.00  0.00     0.053 C 
ATOM      4  C   UNL     1     -12.403 -42.505  38.473  1.00  0.00     0.016 C 
BRANCH   3   5
ATOM      5  C   UNL     1     -13.568 -41.248  40.345  1.00  0.00     0.015 C 
BRANCH   5   6
ATOM      6  C   UNL     1     -13.405 -40.069  41.329  1.00  0.00     0.028 C 
BRANCH   6   7
ATOM      7  C   UNL     1     -11.965 -39.788  41.700  1.00  0.00    -0.028 C 
ATOM      8  C   UNL     1     -11.208 -38.731  41.306  1.00  0.00    -0.070 CG0
ATOM      9  C   UNL     1      -9.766 -38.715  41.752  1.00  0.00     0.039 C 
ATOM     10  G   UNL     1     -11.721 -37.548  40.492  1.00  0.00     0.000 G0
ENDBRANCH   6   7
ENDBRANCH   5   6
ENDBRANCH   3   5
ENDBRANCH   1   3
BRANCH   1  11
ATOM     11  C   UNL     1     -13.276 -38.723  38.105  1.00  0.00     0.087 C 
BRANCH  11  12
ATOM     12  C   UNL     1     -11.891 -38.063  37.842  1.00  0.00     0.066 C 
BRANCH  12  13
ATOM     13  C   UNL     1     -11.165 -37.500  39.071  1.00  0.00     0.140 C 
ATOM     14  O   UNL     1     -10.074 -36.976  38.905  1.00  0.00    -0.299 OA
BRANCH  13  15
ATOM     15  C   UNL     1     -11.704 -37.547  40.482  1.00  0.00     0.106 CG0
ATOM     16  G   UNL     1     -11.191 -38.736  41.285  1.00  0.00     0.000 G0
ENDBRANCH  13  15
ENDBRANCH  12  13
BRANCH  12  17
ATOM     17  C   UNL     1     -12.030 -36.989  36.709  1.00  0.00    -0.006 C 
ATOM     18  C   UNL     1     -11.775 -37.554  35.300  1.00  0.00     0.008 C 
ATOM     19  C   UNL     1     -13.385 -36.262  36.749  1.00  0.00     0.008 C 
ENDBRANCH  12  17
ENDBRANCH  11  12
ENDBRANCH   1  11
TORSDOF 1
ENDMDL
MODEL 6
REMARK VINA RESULT:    -5.104      2.180      5.350
REMARK INTER + INTRA:          -8.038
REMARK INTER:                  -7.917
REMARK INTRA:                  -0.121
REMARK UNBOUND:                -0.248
REMARK SMILES CC1=CCC[C@@H](C)C(=O)C[C@@H](C(C)C)C(=O)C1
REMARK SMILES IDX 8 1 9 2 6 3 7 4 5 5 4 6 3 7 2 8 1 9 10 11 11 12 15 13 16 14
REMARK SMILES IDX 17 15 12 17 13 18 14 19
REMARK H PARENT
REMARK Flexibility Score: 70.00
ROOT
ATOM      1  C   UNL     1     -13.772 -36.730  39.495  1.00  0.00     0.136 C 
ATOM      2  O   UNL     1     -14.866 -37.156  39.841  1.00  0.00    -0.299 OA
ENDROOT
BRANCH   1   3
ATOM      3  C   UNL     1     -13.722 -35.539  38.564  1.00  0.00     0.053 C 
ATOM      4  C   UNL     1     -14.615 -34.420  39.119  1.00  0.00     0.016 C 
BRANCH   3   5
ATOM      5  C   UNL     1     -14.179 -35.948  37.139  1.00  0.00     0.015 C 
BRANCH   5   6
ATOM      6  C   UNL     1     -13.044 -35.890  36.095  1.00  0.00     0.028 C 
BRANCH   6   7
ATOM      7  C   UNL     1     -11.663 -35.822  36.710  1.00  0.00    -0.028 C 
ATOM      8  C   UNL     1     -10.900 -36.865  37.130  1.00  0.00    -0.070 CG0
ATOM      9  C   UNL     1      -9.580 -36.532  37.783  1.00  0.00     0.039 C 
ATOM     10  G   UNL     1     -11.260 -38.335  36.946  1.00  0.00     0.000 G0
ENDBRANCH   6   7
ENDBRANCH   5   6
ENDBRANCH   3   5
ENDBRANCH   1   3
BRANCH   1  11
ATOM     11  C   UNL     1     -12.538 -37.365  40.098  1.00  0.00     0.087 C 
BRANCH  11  12
ATOM     12  C   UNL     1     -12.084 -38.725  39.491  1.00  0.00     0.066 C 
BRANCH  12  13
ATOM     13  C   UNL     1     -12.235 -38.872  37.971  1.00  0.00     0.140 C 
ATOM     14  O   UNL     1     -13.222 -39.452  37.544  1.00  0.00    -0.299 OA
BRANCH  13  15
ATOM     15  C   UNL     1     -11.245 -38.349  36.956  1.00  0.00     0.106 CG0
ATOM     16  G   UNL     1     -10.915 -36.872  37.141  1.00  0.00     0.000 G0
ENDBRANCH  13  15
ENDBRANCH  12  13
BRANCH  12  17
ATOM     17  C   UNL     1     -12.782 -39.900  40.259  1.00  0.00    -0.006 C 
ATOM     18  C   UNL     1     -12.027 -41.236  40.142  1.00  0.00     0.008 C 
ATOM     19  C   UNL     1     -13.039 -39.566  41.738  1.00  0.00     0.008 C 
ENDBRANCH  12  17
ENDBRANCH  11  12
ENDBRANCH   1  11
TORSDOF 1
ENDMDL
MODEL 7
REMARK VINA RESULT:    -4.959      2.477      5.431
REMARK INTER + INTRA:          -7.816
REMARK INTER:                  -7.621
REMARK INTRA:                  -0.195
REMARK UNBOUND:                -0.248
REMARK SMILES CC1=CCC[C@@H](C)C(=O)C[C@@H](C(C)C)C(=O)C1
REMARK SMILES IDX 8 1 9 2 6 3 7 4 5 5 4 6 3 7 2 8 1 9 10 11 11 12 15 13 16 14
REMARK SMILES IDX 17 15 12 17 13 18 14 19
REMARK H PARENT
REMARK Flexibility Score: 70.00
ROOT
ATOM      1  C   UNL     1     -14.405 -35.436  38.553  1.00  0.00     0.136 C 
ATOM      2  O   UNL     1     -14.963 -34.471  39.061  1.00  0.00    -0.299 OA
ENDROOT
BRANCH   1   3
ATOM      3  C   UNL     1     -13.437 -35.195  37.416  1.00  0.00     0.053 C 
ATOM      4  C   UNL     1     -13.399 -36.434  36.509  1.00  0.00     0.016 C 
BRANCH   3   5
ATOM      5  C   UNL     1     -12.023 -34.877  37.968  1.00  0.00     0.015 C 
BRANCH   5   6
ATOM      6  C   UNL     1     -10.940 -35.857  37.468  1.00  0.00     0.028 C 
BRANCH   6   7
ATOM      7  C   UNL     1     -10.209 -36.568  38.586  1.00  0.00    -0.028 C 
ATOM      8  C   UNL     1     -10.496 -37.790  39.107  1.00  0.00    -0.070 CG0
ATOM      9  C   UNL     1      -9.660 -38.252  40.275  1.00  0.00     0.039 C 
ATOM     10  G   UNL     1     -11.563 -38.736  38.568  1.00  0.00     0.000 G0
ENDBRANCH   6   7
ENDBRANCH   5   6
ENDBRANCH   3   5
ENDBRANCH   1   3
BRANCH   1  11
ATOM     11  C   UNL     1     -14.652 -36.799  39.161  1.00  0.00     0.087 C 
BRANCH  11  12
ATOM     12  C   UNL     1     -13.468 -37.441  39.944  1.00  0.00     0.066 C 
BRANCH  12  13
ATOM     13  C   UNL     1     -12.861 -38.710  39.333  1.00  0.00     0.140 C 
ATOM     14  O   UNL     1     -13.468 -39.762  39.470  1.00  0.00    -0.299 OA
BRANCH  13  15
ATOM     15  C   UNL     1     -11.559 -38.756  38.568  1.00  0.00     0.106 CG0
ATOM     16  G   UNL     1     -10.508 -37.793  39.107  1.00  0.00     0.000 G0
ENDBRANCH  13  15
ENDBRANCH  12  13
BRANCH  12  17
ATOM     17  C   UNL     1     -13.888 -37.660  41.438  1.00  0.00    -0.006 C 
ATOM     18  C   UNL     1     -12.692 -37.697  42.406  1.00  0.00     0.008 C 
ATOM     19  C   UNL     1     -14.923 -36.628  41.917  1.00  0.00     0.008 C 
ENDBRANCH  12  17
ENDBRANCH  11  12
ENDBRANCH   1  11
TORSDOF 1
ENDMDL
MODEL 8
REMARK VINA RESULT:    -4.942      2.240      3.083
REMARK INTER + INTRA:          -7.791
REMARK INTER:                  -7.560
REMARK INTRA:                  -0.231
REMARK UNBOUND:                -0.248
REMARK SMILES CC1=CCC[C@@H](C)C(=O)C[C@@H](C(C)C)C(=O)C1
REMARK SMILES IDX 8 1 9 2 6 3 7 4 5 5 4 6 3 7 2 8 1 9 10 11 11 12 15 13 16 14
REMARK SMILES IDX 17 15 12 17 13 18 14 19
REMARK H PARENT
REMARK Flexibility Score: 70.00
ROOT
ATOM      1  C   UNL     1     -13.059 -39.242  38.410  1.00  0.00     0.136 C 
ATOM      2  O   UNL     1     -13.729 -39.070  37.400  1.00  0.00    -0.299 OA
ENDROOT
BRANCH   1   3
ATOM      3  C   UNL     1     -12.845 -40.656  38.904  1.00  0.00     0.053 C 
ATOM      4  C   UNL     1     -13.178 -41.645  37.778  1.00  0.00     0.016 C 
BRANCH   3   5
ATOM      5  C   UNL     1     -13.725 -40.930  40.152  1.00  0.00     0.015 C 
BRANCH   5   6
ATOM      6  C   UNL     1     -12.902 -41.213  41.427  1.00  0.00     0.028 C 
BRANCH   6   7
ATOM      7  C   UNL     1     -12.584 -39.968  42.226  1.00  0.00    -0.028 C 
ATOM      8  C   UNL     1     -11.459 -39.209  42.150  1.00  0.00    -0.070 CG0
ATOM      9  C   UNL     1     -11.345 -38.052  43.113  1.00  0.00     0.039 C 
ATOM     10  G   UNL     1     -10.338 -39.415  41.137  1.00  0.00     0.000 G0
ENDBRANCH   6   7
ENDBRANCH   5   6
ENDBRANCH   3   5
ENDBRANCH   1   3
BRANCH   1  11
ATOM     11  C   UNL     1     -12.409 -38.032  39.045  1.00  0.00     0.087 C 
BRANCH  11  12
ATOM     12  C   UNL     1     -10.857 -37.940  38.950  1.00  0.00     0.066 C 
BRANCH  12  13
ATOM     13  C   UNL     1     -10.082 -38.226  40.242  1.00  0.00     0.140 C 
ATOM     14  O   UNL     1      -9.206 -37.440  40.574  1.00  0.00    -0.299 OA
BRANCH  13  15
ATOM     15  C   UNL     1     -10.322 -39.416  41.142  1.00  0.00     0.106 CG0
ATOM     16  G   UNL     1     -11.458 -39.201  42.136  1.00  0.00     0.000 G0
ENDBRANCH  13  15
ENDBRANCH  12  13
BRANCH  12  17
ATOM     17  C   UNL     1     -10.453 -36.562  38.323  1.00  0.00    -0.006 C 
ATOM     18  C   UNL     1      -9.463 -36.693  37.152  1.00  0.00     0.008 C 
ATOM     19  C   UNL     1     -11.673 -35.729  37.893  1.00  0.00     0.008 C 
ENDBRANCH  12  17
ENDBRANCH  11  12
ENDBRANCH   1  11
TORSDOF 1
ENDMDL
MODEL 9
REMARK VINA RESULT:    -4.888      2.216      4.003
REMARK INTER + INTRA:          -7.709
REMARK INTER:                  -7.413
REMARK INTRA:                  -0.295
REMARK UNBOUND:                -0.248
REMARK SMILES CC1=CCC[C@@H](C)C(=O)C[C@@H](C(C)C)C(=O)C1
REMARK SMILES IDX 8 1 9 2 6 3 7 4 5 5 4 6 3 7 2 8 1 9 10 11 11 12 15 13 16 14
REMARK SMILES IDX 17 15 12 17 13 18 14 19
REMARK H PARENT
REMARK Flexibility Score: 70.00
ROOT
ATOM      1  C   UNL     1     -11.177 -38.431  40.751  1.00  0.00     0.136 C 
ATOM      2  O   UNL     1     -10.123 -39.028  40.577  1.00  0.00    -0.299 OA
ENDROOT
BRANCH   1   3
ATOM      3  C   UNL     1     -11.889 -38.592  42.077  1.00  0.00     0.053 C 
ATOM      4  C   UNL     1     -10.958 -38.145  43.213  1.00  0.00     0.016 C 
BRANCH   3   5
ATOM      5  C   UNL     1     -12.328 -40.066  42.277  1.00  0.00     0.015 C 
BRANCH   5   6
ATOM      6  C   UNL     1     -13.416 -40.518  41.279  1.00  0.00     0.028 C 
BRANCH   6   7
ATOM      7  C   UNL     1     -12.897 -41.443  40.200  1.00  0.00    -0.028 C 
ATOM      8  C   UNL     1     -13.132 -41.360  38.865  1.00  0.00    -0.070 CG0
ATOM      9  C   UNL     1     -12.560 -42.455  37.997  1.00  0.00     0.039 C 
ATOM     10  G   UNL     1     -13.887 -40.224  38.184  1.00  0.00     0.000 G0
ENDBRANCH   6   7
ENDBRANCH   5   6
ENDBRANCH   3   5
ENDBRANCH   1   3
BRANCH   1  11
ATOM     11  C   UNL     1     -11.652 -37.495  39.661  1.00  0.00     0.087 C 
BRANCH  11  12
ATOM     12  C   UNL     1     -13.037 -37.811  39.022  1.00  0.00     0.066 C 
BRANCH  12  13
ATOM     13  C   UNL     1     -13.067 -38.961  38.008  1.00  0.00     0.140 C 
ATOM     14  O   UNL     1     -12.392 -38.854  36.995  1.00  0.00    -0.299 OA
BRANCH  13  15
ATOM     15  C   UNL     1     -13.877 -40.226  38.170  1.00  0.00     0.106 CG0
ATOM     16  G   UNL     1     -13.113 -41.348  38.863  1.00  0.00     0.000 G0
ENDBRANCH  13  15
ENDBRANCH  12  13
BRANCH  12  17
ATOM     17  C   UNL     1     -13.650 -36.497  38.428  1.00  0.00    -0.006 C 
ATOM     18  C   UNL     1     -14.726 -35.866  39.329  1.00  0.00     0.008 C 
ATOM     19  C   UNL     1     -12.577 -35.452  38.075  1.00  0.00     0.008 C 
ENDBRANCH  12  17
ENDBRANCH  11  12
ENDBRANCH   1  11
TORSDOF 1
ENDMDL
