MODEL 1
REMARK VINA RESULT:    -4.090      0.000      0.000
REMARK INTER + INTRA:          -5.012
REMARK INTER:                  -4.927
REMARK INTRA:                  -0.085
REMARK UNBOUND:                -0.085
REMARK SMILES OCCc1ccc(O)c(O)c1
REMARK SMILES IDX 3 1 4 2 5 3 6 4 7 5 11 6 9 7 8 8 10 10 2 12 1 13
REMARK H PARENT 8 9 10 11 1 14
REMARK Flexibility Score: inf
ROOT
ATOM      1  C   UNL     1      69.730  40.793  21.976  1.00  0.00     0.064 C 
ENDROOT
BRANCH   1   2
ATOM      2  C   UNL     1      71.050  40.087  21.799  1.00  0.00    -0.042 A 
ATOM      3  C   UNL     1      71.252  39.222  20.716  1.00  0.00     0.008 A 
ATOM      4  C   UNL     1      72.486  38.592  20.540  1.00  0.00     0.050 A 
ATOM      5  C   UNL     1      73.538  38.819  21.435  1.00  0.00     0.157 A 
ATOM      6  C   UNL     1      72.104  40.328  22.693  1.00  0.00     0.054 A 
ATOM      7  C   UNL     1      73.345  39.701  22.525  1.00  0.00     0.157 A 
BRANCH   5   8
ATOM      8  O   UNL     1      74.745  38.156  21.205  1.00  0.00    -0.504 OA
ATOM      9  H   UNL     1      74.813  37.196  20.898  1.00  0.00     0.293 HD
ENDBRANCH   5   8
BRANCH   7  10
ATOM     10  O   UNL     1      74.349  39.982  23.454  1.00  0.00    -0.504 OA
ATOM     11  H   UNL     1      75.302  40.205  23.206  1.00  0.00     0.293 HD
ENDBRANCH   7  10
ENDBRANCH   1   2
BRANCH   1  12
ATOM     12  C   UNL     1      69.093  41.125  20.627  1.00  0.00     0.161 C 
BRANCH  12  13
ATOM     13  O   UNL     1      67.741  40.759  20.628  1.00  0.00    -0.396 OA
ATOM     14  H   UNL     1      67.707  39.831  20.979  1.00  0.00     0.210 HD
ENDBRANCH  12  13
ENDBRANCH   1  12
TORSDOF 5
ENDMDL
MODEL 2
REMARK VINA RESULT:    -3.965      2.136      4.639
REMARK INTER + INTRA:          -4.862
REMARK INTER:                  -4.796
REMARK INTRA:                  -0.066
REMARK UNBOUND:                -0.085
REMARK SMILES OCCc1ccc(O)c(O)c1
REMARK SMILES IDX 3 1 4 2 5 3 6 4 7 5 11 6 9 7 8 8 10 10 2 12 1 13
REMARK H PARENT 8 9 10 11 1 14
REMARK Flexibility Score: inf
ROOT
ATOM      1  C   UNL     1      74.415  38.039  18.666  1.00  0.00     0.064 C 
ENDROOT
BRANCH   1   2
ATOM      2  C   UNL     1      73.633  38.613  19.819  1.00  0.00    -0.042 A 
ATOM      3  C   UNL     1      72.257  38.845  19.697  1.00  0.00     0.008 A 
ATOM      4  C   UNL     1      71.530  39.351  20.777  1.00  0.00     0.050 A 
ATOM      5  C   UNL     1      72.161  39.625  21.996  1.00  0.00     0.157 A 
ATOM      6  C   UNL     1      74.268  38.875  21.042  1.00  0.00     0.054 A 
ATOM      7  C   UNL     1      73.548  39.382  22.131  1.00  0.00     0.157 A 
BRANCH   5   8
ATOM      8  O   UNL     1      71.378  40.132  23.035  1.00  0.00    -0.504 OA
ATOM      9  H   UNL     1      70.715  39.583  23.563  1.00  0.00     0.293 HD
ENDBRANCH   5   8
BRANCH   7  10
ATOM     10  O   UNL     1      74.245  39.625  23.317  1.00  0.00    -0.504 OA
ATOM     11  H   UNL     1      75.186  39.987  23.355  1.00  0.00     0.293 HD
ENDBRANCH   7  10
ENDBRANCH   1   2
BRANCH   1  12
ATOM     12  C   UNL     1      75.665  38.869  18.375  1.00  0.00     0.161 C 
BRANCH  12  13
ATOM     13  O   UNL     1      76.684  38.048  17.875  1.00  0.00    -0.396 OA
ATOM     14  H   UNL     1      77.389  38.660  17.535  1.00  0.00     0.210 HD
ENDBRANCH  12  13
ENDBRANCH   1  12
TORSDOF 5
ENDMDL
MODEL 3
REMARK VINA RESULT:    -3.905      0.852      1.955
REMARK INTER + INTRA:          -4.790
REMARK INTER:                  -4.734
REMARK INTRA:                  -0.056
REMARK UNBOUND:                -0.085
REMARK SMILES OCCc1ccc(O)c(O)c1
REMARK SMILES IDX 3 1 4 2 5 3 6 4 7 5 11 6 9 7 8 8 10 10 2 12 1 13
REMARK H PARENT 8 9 10 11 1 14
REMARK Flexibility Score: inf
ROOT
ATOM      1  C   UNL     1      69.576  40.532  22.051  1.00  0.00     0.064 C 
ENDROOT
BRANCH   1   2
ATOM      2  C   UNL     1      71.000  40.054  21.930  1.00  0.00    -0.042 A 
ATOM      3  C   UNL     1      72.050  40.812  22.466  1.00  0.00     0.008 A 
ATOM      4  C   UNL     1      73.366  40.353  22.377  1.00  0.00     0.050 A 
ATOM      5  C   UNL     1      73.655  39.130  21.760  1.00  0.00     0.157 A 
ATOM      6  C   UNL     1      71.283  38.823  21.321  1.00  0.00     0.054 A 
ATOM      7  C   UNL     1      72.599  38.353  21.227  1.00  0.00     0.157 A 
BRANCH   5   8
ATOM      8  O   UNL     1      74.991  38.730  21.702  1.00  0.00    -0.504 OA
ATOM      9  H   UNL     1      75.359  38.086  21.016  1.00  0.00     0.293 HD
ENDBRANCH   5   8
BRANCH   7  10
ATOM     10  O   UNL     1      72.809  37.121  20.604  1.00  0.00    -0.504 OA
ATOM     11  H   UNL     1      73.113  37.018  19.646  1.00  0.00     0.293 HD
ENDBRANCH   7  10
ENDBRANCH   1   2
BRANCH   1  12
ATOM     12  C   UNL     1      69.076  41.125  20.734  1.00  0.00     0.161 C 
BRANCH  12  13
ATOM     13  O   UNL     1      67.712  40.848  20.567  1.00  0.00    -0.396 OA
ATOM     14  H   UNL     1      67.571  39.933  20.926  1.00  0.00     0.210 HD
ENDBRANCH  12  13
ENDBRANCH   1  12
TORSDOF 5
ENDMDL
MODEL 4
REMARK VINA RESULT:    -3.898      1.255      4.920
REMARK INTER + INTRA:          -4.781
REMARK INTER:                  -4.701
REMARK INTRA:                  -0.080
REMARK UNBOUND:                -0.085
REMARK SMILES OCCc1ccc(O)c(O)c1
REMARK SMILES IDX 3 1 4 2 5 3 6 4 7 5 11 6 9 7 8 8 10 10 2 12 1 13
REMARK H PARENT 8 9 10 11 1 14
REMARK Flexibility Score: inf
ROOT
ATOM      1  C   UNL     1      73.450  39.302  21.892  1.00  0.00     0.064 C 
ENDROOT
BRANCH   1   2
ATOM      2  C   UNL     1      72.039  39.759  21.628  1.00  0.00    -0.042 A 
ATOM      3  C   UNL     1      71.175  40.045  22.694  1.00  0.00     0.008 A 
ATOM      4  C   UNL     1      69.876  40.495  22.445  1.00  0.00     0.050 A 
ATOM      5  C   UNL     1      69.422  40.675  21.134  1.00  0.00     0.157 A 
ATOM      6  C   UNL     1      71.592  39.948  20.312  1.00  0.00     0.054 A 
ATOM      7  C   UNL     1      70.292  40.400  20.052  1.00  0.00     0.157 A 
BRANCH   5   8
ATOM      8  O   UNL     1      68.112  41.125  20.953  1.00  0.00    -0.504 OA
ATOM      9  H   UNL     1      67.387  40.587  20.501  1.00  0.00     0.293 HD
ENDBRANCH   5   8
BRANCH   7  10
ATOM     10  O   UNL     1      69.912  40.562  18.718  1.00  0.00    -0.504 OA
ATOM     11  H   UNL     1      69.317  41.307  18.387  1.00  0.00     0.293 HD
ENDBRANCH   7  10
ENDBRANCH   1   2
BRANCH   1  12
ATOM     12  C   UNL     1      74.220  40.329  22.722  1.00  0.00     0.161 C 
BRANCH  12  13
ATOM     13  O   UNL     1      74.805  39.710  23.834  1.00  0.00    -0.396 OA
ATOM     14  H   UNL     1      75.774  39.922  23.788  1.00  0.00     0.210 HD
ENDBRANCH  12  13
ENDBRANCH   1  12
TORSDOF 5
ENDMDL
MODEL 5
REMARK VINA RESULT:    -3.889      3.000      4.222
REMARK INTER + INTRA:          -4.770
REMARK INTER:                  -4.706
REMARK INTRA:                  -0.064
REMARK UNBOUND:                -0.085
REMARK SMILES OCCc1ccc(O)c(O)c1
REMARK SMILES IDX 3 1 4 2 5 3 6 4 7 5 11 6 9 7 8 8 10 10 2 12 1 13
REMARK H PARENT 8 9 10 11 1 14
REMARK Flexibility Score: inf
ROOT
ATOM      1  C   UNL     1      73.855  37.768  19.113  1.00  0.00     0.064 C 
ENDROOT
BRANCH   1   2
ATOM      2  C   UNL     1      74.252  38.610  20.299  1.00  0.00    -0.042 A 
ATOM      3  C   UNL     1      75.585  39.001  20.475  1.00  0.00     0.008 A 
ATOM      4  C   UNL     1      75.945  39.804  21.560  1.00  0.00     0.050 A 
ATOM      5  C   UNL     1      74.982  40.236  22.479  1.00  0.00     0.157 A 
ATOM      6  C   UNL     1      73.280  39.049  21.210  1.00  0.00     0.054 A 
ATOM      7  C   UNL     1      73.631  39.855  22.301  1.00  0.00     0.157 A 
BRANCH   5   8
ATOM      8  O   UNL     1      75.407  41.035  23.542  1.00  0.00    -0.504 OA
ATOM      9  H   UNL     1      74.814  41.692  24.028  1.00  0.00     0.293 HD
ENDBRANCH   5   8
BRANCH   7  10
ATOM     10  O   UNL     1      72.614  40.253  23.172  1.00  0.00    -0.504 OA
ATOM     11  H   UNL     1      72.775  40.728  24.048  1.00  0.00     0.293 HD
ENDBRANCH   7  10
ENDBRANCH   1   2
BRANCH   1  12
ATOM     12  C   UNL     1      72.633  36.905  19.429  1.00  0.00     0.161 C 
BRANCH  12  13
ATOM     13  O   UNL     1      72.711  35.688  18.740  1.00  0.00    -0.396 OA
ATOM     14  H   UNL     1      73.003  35.913  17.818  1.00  0.00     0.210 HD
ENDBRANCH  12  13
ENDBRANCH   1  12
TORSDOF 5
ENDMDL
MODEL 6
REMARK VINA RESULT:    -3.821      3.187      5.177
REMARK INTER + INTRA:          -4.688
REMARK INTER:                  -4.605
REMARK INTRA:                  -0.084
REMARK UNBOUND:                -0.085
REMARK SMILES OCCc1ccc(O)c(O)c1
REMARK SMILES IDX 3 1 4 2 5 3 6 4 7 5 11 6 9 7 8 8 10 10 2 12 1 13
REMARK H PARENT 8 9 10 11 1 14
REMARK Flexibility Score: inf
ROOT
ATOM      1  C   UNL     1      75.898  40.863  23.310  1.00  0.00     0.064 C 
ENDROOT
BRANCH   1   2
ATOM      2  C   UNL     1      75.240  40.019  22.249  1.00  0.00    -0.042 A 
ATOM      3  C   UNL     1      73.905  39.618  22.389  1.00  0.00     0.008 A 
ATOM      4  C   UNL     1      73.290  38.859  21.390  1.00  0.00     0.050 A 
ATOM      5  C   UNL     1      73.992  38.498  20.235  1.00  0.00     0.157 A 
ATOM      6  C   UNL     1      75.945  39.669  21.088  1.00  0.00     0.054 A 
ATOM      7  C   UNL     1      75.336  38.909  20.080  1.00  0.00     0.157 A 
BRANCH   5   8
ATOM      8  O   UNL     1      73.320  37.737  19.276  1.00  0.00    -0.504 OA
ATOM      9  H   UNL     1      73.472  36.749  19.130  1.00  0.00     0.293 HD
ENDBRANCH   5   8
BRANCH   7  10
ATOM     10  O   UNL     1      76.098  38.592  18.953  1.00  0.00    -0.504 OA
ATOM     11  H   UNL     1      75.741  38.607  18.009  1.00  0.00     0.293 HD
ENDBRANCH   7  10
ENDBRANCH   1   2
BRANCH   1  12
ATOM     12  C   UNL     1      76.738  40.007  24.258  1.00  0.00     0.161 C 
BRANCH  12  13
ATOM     13  O   UNL     1      75.980  39.637  25.376  1.00  0.00    -0.396 OA
ATOM     14  H   UNL     1      75.652  38.718  25.194  1.00  0.00     0.210 HD
ENDBRANCH  12  13
ENDBRANCH   1  12
TORSDOF 5
ENDMDL
MODEL 7
REMARK VINA RESULT:    -3.807      2.560      3.769
REMARK INTER + INTRA:          -4.672
REMARK INTER:                  -4.603
REMARK INTRA:                  -0.069
REMARK UNBOUND:                -0.085
REMARK SMILES OCCc1ccc(O)c(O)c1
REMARK SMILES IDX 3 1 4 2 5 3 6 4 7 5 11 6 9 7 8 8 10 10 2 12 1 13
REMARK H PARENT 8 9 10 11 1 14
REMARK Flexibility Score: inf
ROOT
ATOM      1  C   UNL     1      72.451  39.387  22.033  1.00  0.00     0.064 C 
ENDROOT
BRANCH   1   2
ATOM      2  C   UNL     1      73.772  39.747  21.405  1.00  0.00    -0.042 A 
ATOM      3  C   UNL     1      74.530  40.812  21.909  1.00  0.00     0.008 A 
ATOM      4  C   UNL     1      75.768  41.125  21.342  1.00  0.00     0.050 A 
ATOM      5  C   UNL     1      76.272  40.378  20.271  1.00  0.00     0.157 A 
ATOM      6  C   UNL     1      74.277  38.988  20.339  1.00  0.00     0.054 A 
ATOM      7  C   UNL     1      75.518  39.294  19.763  1.00  0.00     0.157 A 
BRANCH   5   8
ATOM      8  O   UNL     1      77.513  40.745  19.748  1.00  0.00    -0.504 OA
ATOM      9  H   UNL     1      78.098  41.472  20.135  1.00  0.00     0.293 HD
ENDBRANCH   5   8
BRANCH   7  10
ATOM     10  O   UNL     1      75.957  38.500  18.702  1.00  0.00    -0.504 OA
ATOM     11  H   UNL     1      75.864  37.495  18.673  1.00  0.00     0.293 HD
ENDBRANCH   7  10
ENDBRANCH   1   2
BRANCH   1  12
ATOM     12  C   UNL     1      71.642  40.637  22.380  1.00  0.00     0.161 C 
BRANCH  12  13
ATOM     13  O   UNL     1      70.765  40.366  23.438  1.00  0.00    -0.396 OA
ATOM     14  H   UNL     1      70.652  39.380  23.456  1.00  0.00     0.210 HD
ENDBRANCH  12  13
ENDBRANCH   1  12
TORSDOF 5
ENDMDL
MODEL 8
REMARK VINA RESULT:    -3.750      2.415      3.119
REMARK INTER + INTRA:          -4.602
REMARK INTER:                  -4.530
REMARK INTRA:                  -0.072
REMARK UNBOUND:                -0.085
REMARK SMILES OCCc1ccc(O)c(O)c1
REMARK SMILES IDX 3 1 4 2 5 3 6 4 7 5 11 6 9 7 8 8 10 10 2 12 1 13
REMARK H PARENT 8 9 10 11 1 14
REMARK Flexibility Score: inf
ROOT
ATOM      1  C   UNL     1      72.728  40.704  22.343  1.00  0.00     0.064 C 
ENDROOT
BRANCH   1   2
ATOM      2  C   UNL     1      73.685  40.064  21.372  1.00  0.00    -0.042 A 
ATOM      3  C   UNL     1      73.290  38.952  20.616  1.00  0.00     0.008 A 
ATOM      4  C   UNL     1      74.171  38.378  19.696  1.00  0.00     0.050 A 
ATOM      5  C   UNL     1      75.453  38.907  19.509  1.00  0.00     0.157 A 
ATOM      6  C   UNL     1      74.965  40.605  21.181  1.00  0.00     0.054 A 
ATOM      7  C   UNL     1      75.855  40.037  20.260  1.00  0.00     0.157 A 
BRANCH   5   8
ATOM      8  O   UNL     1      76.286  38.286  18.577  1.00  0.00    -0.504 OA
ATOM      9  H   UNL     1      76.095  38.248  17.586  1.00  0.00     0.293 HD
ENDBRANCH   5   8
BRANCH   7  10
ATOM     10  O   UNL     1      77.115  40.624  20.124  1.00  0.00    -0.504 OA
ATOM     11  H   UNL     1      77.850  40.550  20.813  1.00  0.00     0.293 HD
ENDBRANCH   7  10
ENDBRANCH   1   2
BRANCH   1  12
ATOM     12  C   UNL     1      71.348  40.050  22.276  1.00  0.00     0.161 C 
BRANCH  12  13
ATOM     13  O   UNL     1      70.598  40.387  23.410  1.00  0.00    -0.396 OA
ATOM     14  H   UNL     1      71.248  40.458  24.158  1.00  0.00     0.210 HD
ENDBRANCH  12  13
ENDBRANCH   1  12
TORSDOF 5
ENDMDL
MODEL 9
REMARK VINA RESULT:    -2.918      3.239      4.666
REMARK INTER + INTRA:          -3.601
REMARK INTER:                  -3.512
REMARK INTRA:                  -0.088
REMARK UNBOUND:                -0.085
REMARK SMILES OCCc1ccc(O)c(O)c1
REMARK SMILES IDX 3 1 4 2 5 3 6 4 7 5 11 6 9 7 8 8 10 10 2 12 1 13
REMARK H PARENT 8 9 10 11 1 14
REMARK Flexibility Score: inf
ROOT
ATOM      1  C   UNL     1      74.981  40.095  21.461  1.00  0.00     0.064 C 
ENDROOT
BRANCH   1   2
ATOM      2  C   UNL     1      74.461  39.041  20.518  1.00  0.00    -0.042 A 
ATOM      3  C   UNL     1      75.059  38.854  19.265  1.00  0.00     0.008 A 
ATOM      4  C   UNL     1      74.592  37.858  18.404  1.00  0.00     0.050 A 
ATOM      5  C   UNL     1      73.530  37.028  18.782  1.00  0.00     0.157 A 
ATOM      6  C   UNL     1      73.404  38.205  20.907  1.00  0.00     0.054 A 
ATOM      7  C   UNL     1      72.929  37.203  20.051  1.00  0.00     0.157 A 
BRANCH   5   8
ATOM      8  O   UNL     1      73.110  36.054  17.875  1.00  0.00    -0.504 OA
ATOM      9  H   UNL     1      73.706  35.639  17.173  1.00  0.00     0.293 HD
ENDBRANCH   5   8
BRANCH   7  10
ATOM     10  O   UNL     1      71.870  36.410  20.500  1.00  0.00    -0.504 OA
ATOM     11  H   UNL     1      71.132  36.064  19.903  1.00  0.00     0.293 HD
ENDBRANCH   7  10
ENDBRANCH   1   2
BRANCH   1  12
ATOM     12  C   UNL     1      74.134  40.170  22.731  1.00  0.00     0.161 C 
BRANCH  12  13
ATOM     13  O   UNL     1      74.837  39.627  23.814  1.00  0.00    -0.396 OA
ATOM     14  H   UNL     1      75.661  39.226  23.433  1.00  0.00     0.210 HD
ENDBRANCH  12  13
ENDBRANCH   1  12
TORSDOF 5
ENDMDL
