MODEL 1
REMARK VINA RESULT:    -5.227      0.000      0.000
REMARK INTER + INTRA:          -6.815
REMARK INTER:                  -6.296
REMARK INTRA:                  -0.518
REMARK UNBOUND:                -0.518
REMARK SMILES CCCCc1oc(O)c2ccccc12
REMARK SMILES IDX 4 1 5 2 7 3 6 4 9 5 14 6 10 7 13 8 11 9 12 10 8 11 3 13 2 14
REMARK SMILES IDX 1 15
REMARK H PARENT 8 12
REMARK Flexibility Score: inf
ROOT
ATOM      1  C   UNL     1       9.018 -16.052  -4.612  1.00  0.00     0.076 C 
ENDROOT
BRANCH   1   2
ATOM      2  C   UNL     1       7.933 -15.476  -5.470  1.00  0.00     0.116 A 
ATOM      3  C   UNL     1       6.863 -14.884  -7.231  1.00  0.00     0.290 A 
ATOM      4  O   UNL     1       7.982 -15.421  -6.789  1.00  0.00    -0.430 OA
ATOM      5  C   UNL     1       6.042 -14.577  -6.166  1.00  0.00     0.066 A 
ATOM      6  C   UNL     1       6.724 -14.956  -5.041  1.00  0.00     0.027 A 
ATOM      7  C   UNL     1       4.769 -14.009  -6.102  1.00  0.00     0.016 A 
ATOM      8  C   UNL     1       6.181 -14.801  -3.766  1.00  0.00     0.012 A 
ATOM      9  C   UNL     1       4.196 -13.837  -4.828  1.00  0.00     0.001 A 
ATOM     10  C   UNL     1       4.898 -14.231  -3.666  1.00  0.00     0.001 A 
BRANCH   3  11
ATOM     11  O   UNL     1       6.583 -14.676  -8.579  1.00  0.00    -0.480 OA
ATOM     12  H   UNL     1       5.630 -14.581  -8.909  1.00  0.00     0.297 HD
ENDBRANCH   3  11
ENDBRANCH   1   2
BRANCH   1  13
ATOM     13  C   UNL     1      10.275 -15.179  -4.680  1.00  0.00     0.008 C 
BRANCH  13  14
ATOM     14  C   UNL     1      10.088 -13.886  -3.878  1.00  0.00    -0.003 C 
ATOM     15  C   UNL     1       9.810 -14.184  -2.408  1.00  0.00     0.004 C 
ENDBRANCH  13  14
ENDBRANCH   1  13
TORSDOF 4
ENDMDL
MODEL 2
REMARK VINA RESULT:    -5.212      2.033      4.677
REMARK INTER + INTRA:          -6.797
REMARK INTER:                  -6.271
REMARK INTRA:                  -0.526
REMARK UNBOUND:                -0.518
REMARK SMILES CCCCc1oc(O)c2ccccc12
REMARK SMILES IDX 4 1 5 2 7 3 6 4 9 5 14 6 10 7 13 8 11 9 12 10 8 11 3 13 2 14
REMARK SMILES IDX 1 15
REMARK H PARENT 8 12
REMARK Flexibility Score: inf
ROOT
ATOM      1  C   UNL     1       6.252 -14.035  -3.879  1.00  0.00     0.076 C 
ENDROOT
BRANCH   1   2
ATOM      2  C   UNL     1       7.563 -14.519  -4.419  1.00  0.00     0.116 A 
ATOM      3  C   UNL     1       9.512 -15.412  -4.465  1.00  0.00     0.290 A 
ATOM      4  O   UNL     1       8.505 -15.080  -3.681  1.00  0.00    -0.430 OA
ATOM      5  C   UNL     1       9.224 -15.061  -5.767  1.00  0.00     0.066 A 
ATOM      6  C   UNL     1       7.978 -14.492  -5.739  1.00  0.00     0.027 A 
ATOM      7  C   UNL     1       9.944 -15.201  -6.953  1.00  0.00     0.016 A 
ATOM      8  C   UNL     1       7.357 -14.025  -6.897  1.00  0.00     0.012 A 
ATOM      9  C   UNL     1       9.345 -14.736  -8.139  1.00  0.00     0.001 A 
ATOM     10  C   UNL     1       8.058 -14.152  -8.111  1.00  0.00     0.001 A 
BRANCH   3  11
ATOM     11  O   UNL     1      10.677 -16.026  -4.011  1.00  0.00    -0.480 OA
ATOM     12  H   UNL     1      11.385 -16.351  -4.659  1.00  0.00     0.297 HD
ENDBRANCH   3  11
ENDBRANCH   1   2
BRANCH   1  13
ATOM     13  C   UNL     1       5.296 -15.211  -3.661  1.00  0.00     0.008 C 
BRANCH  13  14
ATOM     14  C   UNL     1       4.523 -15.535  -4.945  1.00  0.00    -0.003 C 
ATOM     15  C   UNL     1       3.855 -14.288  -5.516  1.00  0.00     0.004 C 
ENDBRANCH  13  14
ENDBRANCH   1  13
TORSDOF 4
ENDMDL
MODEL 3
REMARK VINA RESULT:    -5.053      2.598      4.110
REMARK INTER + INTRA:          -6.605
REMARK INTER:                  -6.077
REMARK INTRA:                  -0.528
REMARK UNBOUND:                -0.518
REMARK SMILES CCCCc1oc(O)c2ccccc12
REMARK SMILES IDX 4 1 5 2 7 3 6 4 9 5 14 6 10 7 13 8 11 9 12 10 8 11 3 13 2 14
REMARK SMILES IDX 1 15
REMARK H PARENT 8 12
REMARK Flexibility Score: inf
ROOT
ATOM      1  C   UNL     1      10.884 -14.724  -6.615  1.00  0.00     0.076 C 
ENDROOT
BRANCH   1   2
ATOM      2  C   UNL     1      10.071 -14.595  -5.363  1.00  0.00     0.116 A 
ATOM      3  C   UNL     1       9.579 -14.174  -3.319  1.00  0.00     0.290 A 
ATOM      4  O   UNL     1      10.560 -14.205  -4.199  1.00  0.00    -0.430 OA
ATOM      5  C   UNL     1       8.399 -14.554  -3.923  1.00  0.00     0.066 A 
ATOM      6  C   UNL     1       8.712 -14.821  -5.229  1.00  0.00     0.027 A 
ATOM      7  C   UNL     1       7.098 -14.676  -3.436  1.00  0.00     0.016 A 
ATOM      8  C   UNL     1       7.744 -15.226  -6.148  1.00  0.00     0.012 A 
ATOM      9  C   UNL     1       6.099 -15.087  -4.339  1.00  0.00     0.001 A 
ATOM     10  C   UNL     1       6.420 -15.360  -5.688  1.00  0.00     0.001 A 
BRANCH   3  11
ATOM     11  O   UNL     1       9.746 -13.806  -1.986  1.00  0.00    -0.480 OA
ATOM     12  H   UNL     1      10.543 -14.127  -1.449  1.00  0.00     0.297 HD
ENDBRANCH   3  11
ENDBRANCH   1   2
BRANCH   1  13
ATOM     13  C   UNL     1      10.839 -13.421  -7.419  1.00  0.00     0.008 C 
BRANCH  13  14
ATOM     14  C   UNL     1       9.994 -13.589  -8.687  1.00  0.00    -0.003 C 
ATOM     15  C   UNL     1      10.011 -15.035  -9.174  1.00  0.00     0.004 C 
ENDBRANCH  13  14
ENDBRANCH   1  13
TORSDOF 4
ENDMDL
MODEL 4
REMARK VINA RESULT:    -4.906     10.965     12.101
REMARK INTER + INTRA:          -6.429
REMARK INTER:                  -6.190
REMARK INTRA:                  -0.238
REMARK UNBOUND:                -0.518
REMARK SMILES CCCCc1oc(O)c2ccccc12
REMARK SMILES IDX 4 1 5 2 7 3 6 4 9 5 14 6 10 7 13 8 11 9 12 10 8 11 3 13 2 14
REMARK SMILES IDX 1 15
REMARK H PARENT 8 12
REMARK Flexibility Score: inf
ROOT
ATOM      1  C   UNL     1       2.419 -22.748   2.161  1.00  0.00     0.076 C 
ENDROOT
BRANCH   1   2
ATOM      2  C   UNL     1       2.190 -23.703   1.029  1.00  0.00     0.116 A 
ATOM      3  C   UNL     1       1.693 -25.515  -0.004  1.00  0.00     0.290 A 
ATOM      4  O   UNL     1       1.836 -24.966   1.186  1.00  0.00    -0.430 OA
ATOM      5  C   UNL     1       1.957 -24.580  -0.983  1.00  0.00     0.066 A 
ATOM      6  C   UNL     1       2.273 -23.421  -0.324  1.00  0.00     0.027 A 
ATOM      7  C   UNL     1       1.938 -24.654  -2.375  1.00  0.00     0.016 A 
ATOM      8  C   UNL     1       2.589 -22.249  -1.010  1.00  0.00     0.012 A 
ATOM      9  C   UNL     1       2.256 -23.488  -3.096  1.00  0.00     0.001 A 
ATOM     10  C   UNL     1       2.579 -22.291  -2.417  1.00  0.00     0.001 A 
BRANCH   3  11
ATOM     11  O   UNL     1       1.326 -26.843  -0.206  1.00  0.00    -0.480 OA
ATOM     12  H   UNL     1       1.480 -27.300  -1.096  1.00  0.00     0.297 HD
ENDBRANCH   3  11
ENDBRANCH   1   2
BRANCH   1  13
ATOM     13  C   UNL     1       1.184 -21.869   2.378  1.00  0.00     0.008 C 
BRANCH  13  14
ATOM     14  C   UNL     1       1.320 -21.040   3.660  1.00  0.00    -0.003 C 
ATOM     15  C   UNL     1       1.003 -19.570   3.403  1.00  0.00     0.004 C 
ENDBRANCH  13  14
ENDBRANCH   1  13
TORSDOF 4
ENDMDL
MODEL 5
REMARK VINA RESULT:    -4.873      1.333      4.160
REMARK INTER + INTRA:          -6.388
REMARK INTER:                  -5.942
REMARK INTRA:                  -0.446
REMARK UNBOUND:                -0.518
REMARK SMILES CCCCc1oc(O)c2ccccc12
REMARK SMILES IDX 4 1 5 2 7 3 6 4 9 5 14 6 10 7 13 8 11 9 12 10 8 11 3 13 2 14
REMARK SMILES IDX 1 15
REMARK H PARENT 8 12
REMARK Flexibility Score: inf
ROOT
ATOM      1  C   UNL     1       5.369 -14.210  -5.770  1.00  0.00     0.076 C 
ENDROOT
BRANCH   1   2
ATOM      2  C   UNL     1       6.833 -14.428  -6.001  1.00  0.00     0.116 A 
ATOM      3  C   UNL     1       8.667 -14.837  -7.033  1.00  0.00     0.290 A 
ATOM      4  O   UNL     1       7.359 -14.746  -7.170  1.00  0.00    -0.430 OA
ATOM      5  C   UNL     1       9.019 -14.564  -5.728  1.00  0.00     0.066 A 
ATOM      6  C   UNL     1       7.848 -14.301  -5.068  1.00  0.00     0.027 A 
ATOM      7  C   UNL     1      10.255 -14.521  -5.083  1.00  0.00     0.016 A 
ATOM      8  C   UNL     1       7.826 -13.970  -3.713  1.00  0.00     0.012 A 
ATOM      9  C   UNL     1      10.265 -14.193  -3.715  1.00  0.00     0.001 A 
ATOM     10  C   UNL     1       9.058 -13.919  -3.033  1.00  0.00     0.001 A 
BRANCH   3  11
ATOM     11  O   UNL     1       9.534 -15.159  -8.074  1.00  0.00    -0.480 OA
ATOM     12  H   UNL     1       9.673 -14.529  -8.855  1.00  0.00     0.297 HD
ENDBRANCH   3  11
ENDBRANCH   1   2
BRANCH   1  13
ATOM     13  C   UNL     1       4.710 -15.495  -5.259  1.00  0.00     0.008 C 
BRANCH  13  14
ATOM     14  C   UNL     1       4.408 -15.397  -3.760  1.00  0.00    -0.003 C 
ATOM     15  C   UNL     1       3.522 -14.193  -3.453  1.00  0.00     0.004 C 
ENDBRANCH  13  14
ENDBRANCH   1  13
TORSDOF 4
ENDMDL
MODEL 6
REMARK VINA RESULT:    -4.794      2.187      3.963
REMARK INTER + INTRA:          -6.293
REMARK INTER:                  -5.772
REMARK INTRA:                  -0.521
REMARK UNBOUND:                -0.518
REMARK SMILES CCCCc1oc(O)c2ccccc12
REMARK SMILES IDX 4 1 5 2 7 3 6 4 9 5 14 6 10 7 13 8 11 9 12 10 8 11 3 13 2 14
REMARK SMILES IDX 1 15
REMARK H PARENT 8 12
REMARK Flexibility Score: inf
ROOT
ATOM      1  C   UNL     1       8.203 -15.690  -4.831  1.00  0.00     0.076 C 
ENDROOT
BRANCH   1   2
ATOM      2  C   UNL     1       8.211 -15.208  -6.250  1.00  0.00     0.116 A 
ATOM      3  C   UNL     1       7.483 -14.648  -8.187  1.00  0.00     0.290 A 
ATOM      4  O   UNL     1       7.134 -15.135  -7.013  1.00  0.00    -0.430 OA
ATOM      5  C   UNL     1       8.836 -14.385  -8.199  1.00  0.00     0.066 A 
ATOM      6  C   UNL     1       9.302 -14.741  -6.961  1.00  0.00     0.027 A 
ATOM      7  C   UNL     1       9.678 -13.864  -9.182  1.00  0.00     0.016 A 
ATOM      8  C   UNL     1      10.645 -14.597  -6.613  1.00  0.00     0.012 A 
ATOM      9  C   UNL     1      11.039 -13.711  -8.861  1.00  0.00     0.001 A 
ATOM     10  C   UNL     1      11.521 -14.075  -7.583  1.00  0.00     0.001 A 
BRANCH   3  11
ATOM     11  O   UNL     1       6.590 -14.440  -9.235  1.00  0.00    -0.480 OA
ATOM     12  H   UNL     1       5.986 -15.183  -9.565  1.00  0.00     0.297 HD
ENDBRANCH   3  11
ENDBRANCH   1   2
BRANCH   1  13
ATOM     13  C   UNL     1       7.809 -14.555  -3.882  1.00  0.00     0.008 C 
BRANCH  13  14
ATOM     14  C   UNL     1       9.052 -13.872  -3.298  1.00  0.00    -0.003 C 
ATOM     15  C   UNL     1      10.067 -14.900  -2.810  1.00  0.00     0.004 C 
ENDBRANCH  13  14
ENDBRANCH   1  13
TORSDOF 4
ENDMDL
MODEL 7
REMARK VINA RESULT:    -4.659      2.180      4.755
REMARK INTER + INTRA:          -6.131
REMARK INTER:                  -5.697
REMARK INTRA:                  -0.434
REMARK UNBOUND:                -0.518
REMARK SMILES CCCCc1oc(O)c2ccccc12
REMARK SMILES IDX 4 1 5 2 7 3 6 4 9 5 14 6 10 7 13 8 11 9 12 10 8 11 3 13 2 14
REMARK SMILES IDX 1 15
REMARK H PARENT 8 12
REMARK Flexibility Score: inf
ROOT
ATOM      1  C   UNL     1       6.823 -13.258  -7.429  1.00  0.00     0.076 C 
ENDROOT
BRANCH   1   2
ATOM      2  C   UNL     1       7.067 -13.729  -6.027  1.00  0.00     0.116 A 
ATOM      3  C   UNL     1       6.661 -14.427  -4.041  1.00  0.00     0.290 A 
ATOM      4  O   UNL     1       6.108 -14.021  -5.167  1.00  0.00    -0.430 OA
ATOM      5  C   UNL     1       8.034 -14.406  -4.163  1.00  0.00     0.066 A 
ATOM      6  C   UNL     1       8.295 -13.962  -5.432  1.00  0.00     0.027 A 
ATOM      7  C   UNL     1       9.056 -14.743  -3.276  1.00  0.00     0.016 A 
ATOM      8  C   UNL     1       9.598 -13.827  -5.910  1.00  0.00     0.012 A 
ATOM      9  C   UNL     1      10.382 -14.614  -3.728  1.00  0.00     0.001 A 
ATOM     10  C   UNL     1      10.652 -14.158  -5.039  1.00  0.00     0.001 A 
BRANCH   3  11
ATOM     11  O   UNL     1       5.936 -14.814  -2.917  1.00  0.00    -0.480 OA
ATOM     12  H   UNL     1       5.663 -14.141  -2.211  1.00  0.00     0.297 HD
ENDBRANCH   3  11
ENDBRANCH   1   2
BRANCH   1  13
ATOM     13  C   UNL     1       7.172 -14.360  -8.433  1.00  0.00     0.008 C 
BRANCH  13  14
ATOM     14  C   UNL     1       8.191 -13.860  -9.464  1.00  0.00    -0.003 C 
ATOM     15  C   UNL     1       9.421 -14.761  -9.505  1.00  0.00     0.004 C 
ENDBRANCH  13  14
ENDBRANCH   1  13
TORSDOF 4
ENDMDL
MODEL 8
REMARK VINA RESULT:    -4.643      2.359      3.880
REMARK INTER + INTRA:          -6.111
REMARK INTER:                  -5.588
REMARK INTRA:                  -0.523
REMARK UNBOUND:                -0.518
REMARK SMILES CCCCc1oc(O)c2ccccc12
REMARK SMILES IDX 4 1 5 2 7 3 6 4 9 5 14 6 10 7 13 8 11 9 12 10 8 11 3 13 2 14
REMARK SMILES IDX 1 15
REMARK H PARENT 8 12
REMARK Flexibility Score: inf
ROOT
ATOM      1  C   UNL     1       9.106 -13.870  -8.638  1.00  0.00     0.076 C 
ENDROOT
BRANCH   1   2
ATOM      2  C   UNL     1       8.284 -14.342  -7.478  1.00  0.00     0.116 A 
ATOM      3  C   UNL     1       6.672 -15.248  -6.392  1.00  0.00     0.290 A 
ATOM      4  O   UNL     1       7.112 -14.940  -7.596  1.00  0.00    -0.430 OA
ATOM      5  C   UNL     1       7.588 -14.842  -5.444  1.00  0.00     0.066 A 
ATOM      6  C   UNL     1       8.619 -14.265  -6.137  1.00  0.00     0.027 A 
ATOM      7  C   UNL     1       7.598 -14.940  -4.053  1.00  0.00     0.016 A 
ATOM      8  C   UNL     1       9.740 -13.747  -5.489  1.00  0.00     0.012 A 
ATOM      9  C   UNL     1       8.714 -14.423  -3.371  1.00  0.00     0.001 A 
ATOM     10  C   UNL     1       9.780 -13.830  -4.085  1.00  0.00     0.001 A 
BRANCH   3  11
ATOM     11  O   UNL     1       5.460 -15.889  -6.151  1.00  0.00    -0.480 OA
ATOM     12  H   UNL     1       4.894 -16.245  -6.912  1.00  0.00     0.297 HD
ENDBRANCH   3  11
ENDBRANCH   1   2
BRANCH   1  13
ATOM     13  C   UNL     1       9.863 -15.041  -9.270  1.00  0.00     0.008 C 
BRANCH  13  14
ATOM     14  C   UNL     1      11.259 -15.189  -8.652  1.00  0.00    -0.003 C 
ATOM     15  C   UNL     1      11.916 -13.829  -8.443  1.00  0.00     0.004 C 
ENDBRANCH  13  14
ENDBRANCH   1  13
TORSDOF 4
ENDMDL
