MODEL 1
REMARK VINA RESULT:    -4.909      0.000      0.000
REMARK INTER + INTRA:         -10.807
REMARK INTER:                  -9.214
REMARK INTRA:                  -1.593
REMARK UNBOUND:                -1.593
REMARK SMILES O=C([O-])CCCCCCCCCCCCCCC(=O)[O-]
REMARK SMILES IDX 10 1 9 2 8 3 7 4 6 5 5 6 4 7 2 8 1 9 3 10 11 11 12 12 13 13
REMARK SMILES IDX 14 14 15 15 16 16 17 17 18 18 19 19 20 20
REMARK H PARENT
REMARK Flexibility Score: inf
ROOT
ATOM      1  C   UNL     1     -11.970 -28.287 -33.871  1.00  0.00     0.000 C 
ENDROOT
BRANCH   1   2
ATOM      2  C   UNL     1     -13.114 -27.962 -32.896  1.00  0.00     0.000 C 
BRANCH   2   3
ATOM      3  C   UNL     1     -13.008 -28.736 -31.571  1.00  0.00     0.000 C 
BRANCH   3   4
ATOM      4  C   UNL     1     -12.400 -27.887 -30.439  1.00  0.00     0.000 C 
BRANCH   4   5
ATOM      5  C   UNL     1     -10.870 -27.734 -30.512  1.00  0.00     0.000 C 
BRANCH   5   6
ATOM      6  C   UNL     1     -10.419 -26.265 -30.437  1.00  0.00     0.006 C 
BRANCH   6   7
ATOM      7  C   UNL     1     -10.397 -25.594 -31.817  1.00  0.00     0.053 C 
BRANCH   7   8
ATOM      8  C   UNL     1     -11.363 -24.452 -31.900  1.00  0.00     0.041 C 
ATOM      9  O   UNL     1     -12.602 -24.674 -31.959  1.00  0.00    -0.550 OA
ATOM     10  O   UNL     1     -10.895 -23.145 -31.936  1.00  0.00    -0.550 OA
ENDBRANCH   7   8
ENDBRANCH   6   7
ENDBRANCH   5   6
ENDBRANCH   4   5
ENDBRANCH   3   4
ENDBRANCH   2   3
ENDBRANCH   1   2
BRANCH   1  11
ATOM     11  C   UNL     1     -11.907 -27.339 -35.088  1.00  0.00     0.000 C 
BRANCH  11  12
ATOM     12  C   UNL     1     -13.302 -26.846 -35.511  1.00  0.00     0.000 C 
BRANCH  12  13
ATOM     13  C   UNL     1     -13.267 -25.464 -36.182  1.00  0.00     0.000 C 
BRANCH  13  14
ATOM     14  C   UNL     1     -12.320 -24.484 -35.470  1.00  0.00     0.000 C 
BRANCH  14  15
ATOM     15  C   UNL     1     -12.670 -23.032 -35.822  1.00  0.00     0.000 C 
BRANCH  15  16
ATOM     16  C   UNL     1     -12.999 -22.225 -34.562  1.00  0.00     0.006 C 
BRANCH  16  17
ATOM     17  C   UNL     1     -13.384 -20.785 -34.917  1.00  0.00     0.053 C 
BRANCH  17  18
ATOM     18  C   UNL     1     -12.225 -20.069 -35.532  1.00  0.00     0.041 C 
ATOM     19  O   UNL     1     -12.370 -19.440 -36.614  1.00  0.00    -0.550 OA
ATOM     20  O   UNL     1     -10.972 -20.134 -34.937  1.00  0.00    -0.550 OA
ENDBRANCH  17  18
ENDBRANCH  16  17
ENDBRANCH  15  16
ENDBRANCH  14  15
ENDBRANCH  13  14
ENDBRANCH  12  13
ENDBRANCH  11  12
ENDBRANCH   1  11
TORSDOF 15
ENDMDL
MODEL 2
REMARK VINA RESULT:    -4.894      1.967      3.753
REMARK INTER + INTRA:         -10.779
REMARK INTER:                  -8.968
REMARK INTRA:                  -1.810
REMARK UNBOUND:                -1.593
REMARK SMILES O=C([O-])CCCCCCCCCCCCCCC(=O)[O-]
REMARK SMILES IDX 10 1 9 2 8 3 7 4 6 5 5 6 4 7 2 8 1 9 3 10 11 11 12 12 13 13
REMARK SMILES IDX 14 14 15 15 16 16 17 17 18 18 19 19 20 20
REMARK H PARENT
REMARK Flexibility Score: inf
ROOT
ATOM      1  C   UNL     1     -10.946 -26.864 -30.361  1.00  0.00     0.000 C 
ENDROOT
BRANCH   1   2
ATOM      2  C   UNL     1     -11.405 -28.227 -30.904  1.00  0.00     0.000 C 
BRANCH   2   3
ATOM      3  C   UNL     1     -12.898 -28.251 -31.272  1.00  0.00     0.000 C 
BRANCH   3   4
ATOM      4  C   UNL     1     -13.136 -28.110 -32.787  1.00  0.00     0.000 C 
BRANCH   4   5
ATOM      5  C   UNL     1     -11.944 -28.546 -33.660  1.00  0.00     0.000 C 
BRANCH   5   6
ATOM      6  C   UNL     1     -11.644 -27.547 -34.791  1.00  0.00     0.006 C 
BRANCH   6   7
ATOM      7  C   UNL     1     -12.464 -26.257 -34.657  1.00  0.00     0.053 C 
BRANCH   7   8
ATOM      8  C   UNL     1     -13.436 -26.092 -35.786  1.00  0.00     0.041 C 
ATOM      9  O   UNL     1     -13.267 -25.182 -36.639  1.00  0.00    -0.550 OA
ATOM     10  O   UNL     1     -14.541 -26.929 -35.881  1.00  0.00    -0.550 OA
ENDBRANCH   7   8
ENDBRANCH   6   7
ENDBRANCH   5   6
ENDBRANCH   4   5
ENDBRANCH   3   4
ENDBRANCH   2   3
ENDBRANCH   1   2
BRANCH   1  11
ATOM     11  C   UNL     1     -10.002 -26.102 -31.317  1.00  0.00     0.000 C 
BRANCH  11  12
ATOM     12  C   UNL     1     -10.443 -24.644 -31.526  1.00  0.00     0.000 C 
BRANCH  12  13
ATOM     13  C   UNL     1     -11.963 -24.500 -31.699  1.00  0.00     0.000 C 
BRANCH  13  14
ATOM     14  C   UNL     1     -12.346 -23.361 -32.656  1.00  0.00     0.000 C 
BRANCH  14  15
ATOM     15  C   UNL     1     -11.529 -22.097 -32.357  1.00  0.00     0.000 C 
BRANCH  15  16
ATOM     16  C   UNL     1     -11.654 -21.078 -33.496  1.00  0.00     0.006 C 
BRANCH  16  17
ATOM     17  C   UNL     1     -12.524 -21.627 -34.631  1.00  0.00     0.053 C 
BRANCH  17  18
ATOM     18  C   UNL     1     -13.459 -20.574 -35.132  1.00  0.00     0.041 C 
ATOM     19  O   UNL     1     -14.587 -20.420 -34.594  1.00  0.00    -0.550 OA
ATOM     20  O   UNL     1     -13.105 -19.793 -36.225  1.00  0.00    -0.550 OA
ENDBRANCH  17  18
ENDBRANCH  16  17
ENDBRANCH  15  16
ENDBRANCH  14  15
ENDBRANCH  13  14
ENDBRANCH  12  13
ENDBRANCH  11  12
ENDBRANCH   1  11
TORSDOF 15
ENDMDL
MODEL 3
REMARK VINA RESULT:    -4.850      1.360      5.466
REMARK INTER + INTRA:         -10.695
REMARK INTER:                  -9.173
REMARK INTRA:                  -1.522
REMARK UNBOUND:                -1.593
REMARK SMILES O=C([O-])CCCCCCCCCCCCCCC(=O)[O-]
REMARK SMILES IDX 10 1 9 2 8 3 7 4 6 5 5 6 4 7 2 8 1 9 3 10 11 11 12 12 13 13
REMARK SMILES IDX 14 14 15 15 16 16 17 17 18 18 19 19 20 20
REMARK H PARENT
REMARK Flexibility Score: inf
ROOT
ATOM      1  C   UNL     1     -11.733 -27.731 -34.660  1.00  0.00     0.000 C 
ENDROOT
BRANCH   1   2
ATOM      2  C   UNL     1     -13.023 -27.638 -35.490  1.00  0.00     0.000 C 
BRANCH   2   3
ATOM      3  C   UNL     1     -13.552 -26.198 -35.614  1.00  0.00     0.000 C 
BRANCH   3   4
ATOM      4  C   UNL     1     -12.496 -25.146 -35.226  1.00  0.00     0.000 C 
BRANCH   4   5
ATOM      5  C   UNL     1     -12.682 -23.778 -35.908  1.00  0.00     0.000 C 
BRANCH   5   6
ATOM      6  C   UNL     1     -12.803 -22.626 -34.895  1.00  0.00     0.006 C 
BRANCH   6   7
ATOM      7  C   UNL     1     -12.366 -21.281 -35.493  1.00  0.00     0.053 C 
BRANCH   7   8
ATOM      8  C   UNL     1     -13.479 -20.279 -35.491  1.00  0.00     0.041 C 
ATOM      9  O   UNL     1     -13.418 -19.263 -36.233  1.00  0.00    -0.550 OA
ATOM     10  O   UNL     1     -14.573 -20.455 -34.653  1.00  0.00    -0.550 OA
ENDBRANCH   7   8
ENDBRANCH   6   7
ENDBRANCH   5   6
ENDBRANCH   4   5
ENDBRANCH   3   4
ENDBRANCH   2   3
ENDBRANCH   1   2
BRANCH   1  11
ATOM     11  C   UNL     1     -11.859 -28.643 -33.421  1.00  0.00     0.000 C 
BRANCH  11  12
ATOM     12  C   UNL     1     -13.059 -28.258 -32.538  1.00  0.00     0.000 C 
BRANCH  12  13
ATOM     13  C   UNL     1     -12.829 -28.570 -31.052  1.00  0.00     0.000 C 
BRANCH  13  14
ATOM     14  C   UNL     1     -13.303 -27.438 -30.128  1.00  0.00     0.000 C 
BRANCH  14  15
ATOM     15  C   UNL     1     -13.592 -26.162 -30.929  1.00  0.00     0.000 C 
BRANCH  15  16
ATOM     16  C   UNL     1     -12.839 -24.962 -30.344  1.00  0.00     0.006 C 
BRANCH  16  17
ATOM     17  C   UNL     1     -12.179 -24.134 -31.451  1.00  0.00     0.053 C 
BRANCH  17  18
ATOM     18  C   UNL     1     -10.741 -24.515 -31.605  1.00  0.00     0.041 C 
ATOM     19  O   UNL     1     -10.429 -25.596 -32.171  1.00  0.00    -0.550 OA
ATOM     20  O   UNL     1      -9.746 -23.700 -31.081  1.00  0.00    -0.550 OA
ENDBRANCH  17  18
ENDBRANCH  16  17
ENDBRANCH  15  16
ENDBRANCH  14  15
ENDBRANCH  13  14
ENDBRANCH  12  13
ENDBRANCH  11  12
ENDBRANCH   1  11
TORSDOF 15
ENDMDL
MODEL 4
REMARK VINA RESULT:    -4.778      1.630      5.253
REMARK INTER + INTRA:         -10.561
REMARK INTER:                  -8.578
REMARK INTRA:                  -1.984
REMARK UNBOUND:                -1.593
REMARK SMILES O=C([O-])CCCCCCCCCCCCCCC(=O)[O-]
REMARK SMILES IDX 10 1 9 2 8 3 7 4 6 5 5 6 4 7 2 8 1 9 3 10 11 11 12 12 13 13
REMARK SMILES IDX 14 14 15 15 16 16 17 17 18 18 19 19 20 20
REMARK H PARENT
REMARK Flexibility Score: inf
ROOT
ATOM      1  C   UNL     1     -11.203 -26.301 -30.118  1.00  0.00     0.000 C 
ENDROOT
BRANCH   1   2
ATOM      2  C   UNL     1     -10.185 -25.612 -31.041  1.00  0.00     0.000 C 
BRANCH   2   3
ATOM      3  C   UNL     1     -10.769 -25.264 -32.421  1.00  0.00     0.000 C 
BRANCH   3   4
ATOM      4  C   UNL     1     -12.067 -24.441 -32.322  1.00  0.00     0.000 C 
BRANCH   4   5
ATOM      5  C   UNL     1     -11.912 -22.961 -32.720  1.00  0.00     0.000 C 
BRANCH   5   6
ATOM      6  C   UNL     1     -12.604 -22.633 -34.054  1.00  0.00     0.006 C 
BRANCH   6   7
ATOM      7  C   UNL     1     -12.773 -21.122 -34.263  1.00  0.00     0.053 C 
BRANCH   7   8
ATOM      8  C   UNL     1     -11.507 -20.478 -34.739  1.00  0.00     0.041 C 
ATOM      9  O   UNL     1     -11.164 -20.573 -35.947  1.00  0.00    -0.550 OA
ATOM     10  O   UNL     1     -10.695 -19.793 -33.844  1.00  0.00    -0.550 OA
ENDBRANCH   7   8
ENDBRANCH   6   7
ENDBRANCH   5   6
ENDBRANCH   4   5
ENDBRANCH   3   4
ENDBRANCH   2   3
ENDBRANCH   1   2
BRANCH   1  11
ATOM     11  C   UNL     1     -10.932 -27.808 -29.915  1.00  0.00     0.000 C 
BRANCH  11  12
ATOM     12  C   UNL     1     -11.978 -28.684 -30.626  1.00  0.00     0.000 C 
BRANCH  12  13
ATOM     13  C   UNL     1     -13.174 -27.876 -31.151  1.00  0.00     0.000 C 
BRANCH  13  14
ATOM     14  C   UNL     1     -13.337 -27.981 -32.675  1.00  0.00     0.000 C 
BRANCH  14  15
ATOM     15  C   UNL     1     -12.017 -28.390 -33.341  1.00  0.00     0.000 C 
BRANCH  15  16
ATOM     16  C   UNL     1     -12.029 -28.059 -34.837  1.00  0.00     0.006 C 
BRANCH  16  17
ATOM     17  C   UNL     1     -13.193 -27.126 -35.184  1.00  0.00     0.053 C 
BRANCH  17  18
ATOM     18  C   UNL     1     -12.687 -25.868 -35.815  1.00  0.00     0.041 C 
ATOM     19  O   UNL     1     -13.479 -25.102 -36.425  1.00  0.00    -0.550 OA
ATOM     20  O   UNL     1     -11.332 -25.564 -35.772  1.00  0.00    -0.550 OA
ENDBRANCH  17  18
ENDBRANCH  16  17
ENDBRANCH  15  16
ENDBRANCH  14  15
ENDBRANCH  13  14
ENDBRANCH  12  13
ENDBRANCH  11  12
ENDBRANCH   1  11
TORSDOF 15
ENDMDL
MODEL 5
REMARK VINA RESULT:    -4.683      1.283      5.523
REMARK INTER + INTRA:         -10.382
REMARK INTER:                  -8.664
REMARK INTRA:                  -1.718
REMARK UNBOUND:                -1.593
REMARK SMILES O=C([O-])CCCCCCCCCCCCCCC(=O)[O-]
REMARK SMILES IDX 10 1 9 2 8 3 7 4 6 5 5 6 4 7 2 8 1 9 3 10 11 11 12 12 13 13
REMARK SMILES IDX 14 14 15 15 16 16 17 17 18 18 19 19 20 20
REMARK H PARENT
REMARK Flexibility Score: inf
ROOT
ATOM      1  C   UNL     1     -11.155 -26.365 -34.945  1.00  0.00     0.000 C 
ENDROOT
BRANCH   1   2
ATOM      2  C   UNL     1     -11.933 -25.402 -35.857  1.00  0.00     0.000 C 
BRANCH   2   3
ATOM      3  C   UNL     1     -12.674 -24.305 -35.073  1.00  0.00     0.000 C 
BRANCH   3   4
ATOM      4  C   UNL     1     -12.665 -22.949 -35.803  1.00  0.00     0.000 C 
BRANCH   4   5
ATOM      5  C   UNL     1     -13.023 -21.746 -34.911  1.00  0.00     0.000 C 
BRANCH   5   6
ATOM      6  C   UNL     1     -13.187 -20.443 -35.714  1.00  0.00     0.006 C 
BRANCH   6   7
ATOM      7  C   UNL     1     -12.321 -19.306 -35.156  1.00  0.00     0.053 C 
BRANCH   7   8
ATOM      8  C   UNL     1     -10.917 -19.751 -34.886  1.00  0.00     0.041 C 
ATOM      9  O   UNL     1     -10.465 -19.743 -33.710  1.00  0.00    -0.550 OA
ATOM     10  O   UNL     1     -10.100 -20.154 -35.935  1.00  0.00    -0.550 OA
ENDBRANCH   7   8
ENDBRANCH   6   7
ENDBRANCH   5   6
ENDBRANCH   4   5
ENDBRANCH   3   4
ENDBRANCH   2   3
ENDBRANCH   1   2
BRANCH   1  11
ATOM     11  C   UNL     1     -11.658 -27.823 -35.013  1.00  0.00     0.000 C 
BRANCH  11  12
ATOM     12  C   UNL     1     -13.192 -27.910 -34.928  1.00  0.00     0.000 C 
BRANCH  12  13
ATOM     13  C   UNL     1     -13.733 -27.540 -33.538  1.00  0.00     0.000 C 
BRANCH  13  14
ATOM     14  C   UNL     1     -13.012 -28.284 -32.404  1.00  0.00     0.000 C 
BRANCH  14  15
ATOM     15  C   UNL     1     -12.640 -27.323 -31.267  1.00  0.00     0.000 C 
BRANCH  15  16
ATOM     16  C   UNL     1     -12.807 -25.863 -31.704  1.00  0.00     0.006 C 
BRANCH  16  17
ATOM     17  C   UNL     1     -11.498 -25.086 -31.535  1.00  0.00     0.053 C 
BRANCH  17  18
ATOM     18  C   UNL     1     -11.775 -23.638 -31.288  1.00  0.00     0.041 C 
ATOM     19  O   UNL     1     -11.297 -22.760 -32.054  1.00  0.00    -0.550 OA
ATOM     20  O   UNL     1     -12.523 -23.252 -30.182  1.00  0.00    -0.550 OA
ENDBRANCH  17  18
ENDBRANCH  16  17
ENDBRANCH  15  16
ENDBRANCH  14  15
ENDBRANCH  13  14
ENDBRANCH  12  13
ENDBRANCH  11  12
ENDBRANCH   1  11
TORSDOF 15
ENDMDL
MODEL 6
REMARK VINA RESULT:    -4.650      1.675      2.604
REMARK INTER + INTRA:         -10.321
REMARK INTER:                  -8.585
REMARK INTRA:                  -1.737
REMARK UNBOUND:                -1.593
REMARK SMILES O=C([O-])CCCCCCCCCCCCCCC(=O)[O-]
REMARK SMILES IDX 10 1 9 2 8 3 7 4 6 5 5 6 4 7 2 8 1 9 3 10 11 11 12 12 13 13
REMARK SMILES IDX 14 14 15 15 16 16 17 17 18 18 19 19 20 20
REMARK H PARENT
REMARK Flexibility Score: inf
ROOT
ATOM      1  C   UNL     1     -13.154 -27.754 -32.631  1.00  0.00     0.000 C 
ENDROOT
BRANCH   1   2
ATOM      2  C   UNL     1     -12.591 -27.227 -31.301  1.00  0.00     0.000 C 
BRANCH   2   3
ATOM      3  C   UNL     1     -11.109 -27.583 -31.096  1.00  0.00     0.000 C 
BRANCH   3   4
ATOM      4  C   UNL     1     -10.189 -26.351 -31.178  1.00  0.00     0.000 C 
BRANCH   4   5
ATOM      5  C   UNL     1     -10.687 -25.250 -32.132  1.00  0.00     0.000 C 
BRANCH   5   6
ATOM      6  C   UNL     1     -10.794 -23.877 -31.445  1.00  0.00     0.006 C 
BRANCH   6   7
ATOM      7  C   UNL     1      -9.907 -23.784 -30.196  1.00  0.00     0.053 C 
BRANCH   7   8
ATOM      8  C   UNL     1      -8.768 -22.830 -30.388  1.00  0.00     0.041 C 
ATOM      9  O   UNL     1      -8.988 -21.649 -30.766  1.00  0.00    -0.550 OA
ATOM     10  O   UNL     1      -7.462 -23.252 -30.171  1.00  0.00    -0.550 OA
ENDBRANCH   7   8
ENDBRANCH   6   7
ENDBRANCH   5   6
ENDBRANCH   4   5
ENDBRANCH   3   4
ENDBRANCH   2   3
ENDBRANCH   1   2
BRANCH   1  11
ATOM     11  C   UNL     1     -12.121 -28.535 -33.473  1.00  0.00     0.000 C 
BRANCH  11  12
ATOM     12  C   UNL     1     -11.918 -27.909 -34.864  1.00  0.00     0.000 C 
BRANCH  12  13
ATOM     13  C   UNL     1     -13.241 -27.654 -35.602  1.00  0.00     0.000 C 
BRANCH  13  14
ATOM     14  C   UNL     1     -13.474 -26.165 -35.903  1.00  0.00     0.000 C 
BRANCH  14  15
ATOM     15  C   UNL     1     -12.229 -25.336 -35.564  1.00  0.00     0.000 C 
BRANCH  15  16
ATOM     16  C   UNL     1     -12.609 -24.046 -34.828  1.00  0.00     0.006 C 
BRANCH  16  17
ATOM     17  C   UNL     1     -12.587 -22.845 -35.777  1.00  0.00     0.053 C 
BRANCH  17  18
ATOM     18  C   UNL     1     -12.914 -21.587 -35.039  1.00  0.00     0.041 C 
ATOM     19  O   UNL     1     -13.514 -20.646 -35.624  1.00  0.00    -0.550 OA
ATOM     20  O   UNL     1     -12.515 -21.431 -33.718  1.00  0.00    -0.550 OA
ENDBRANCH  17  18
ENDBRANCH  16  17
ENDBRANCH  15  16
ENDBRANCH  14  15
ENDBRANCH  13  14
ENDBRANCH  12  13
ENDBRANCH  11  12
ENDBRANCH   1  11
TORSDOF 15
ENDMDL
MODEL 7
REMARK VINA RESULT:    -4.640      1.247      1.762
REMARK INTER + INTRA:         -10.301
REMARK INTER:                  -8.409
REMARK INTRA:                  -1.892
REMARK UNBOUND:                -1.593
REMARK SMILES O=C([O-])CCCCCCCCCCCCCCC(=O)[O-]
REMARK SMILES IDX 10 1 9 2 8 3 7 4 6 5 5 6 4 7 2 8 1 9 3 10 11 11 12 12 13 13
REMARK SMILES IDX 14 14 15 15 16 16 17 17 18 18 19 19 20 20
REMARK H PARENT
REMARK Flexibility Score: inf
ROOT
ATOM      1  C   UNL     1     -12.632 -28.255 -33.200  1.00  0.00     0.000 C 
ENDROOT
BRANCH   1   2
ATOM      2  C   UNL     1     -12.989 -28.623 -31.751  1.00  0.00     0.000 C 
BRANCH   2   3
ATOM      3  C   UNL     1     -12.234 -27.771 -30.715  1.00  0.00     0.000 C 
BRANCH   3   4
ATOM      4  C   UNL     1     -13.148 -26.752 -30.009  1.00  0.00     0.000 C 
BRANCH   4   5
ATOM      5  C   UNL     1     -12.740 -25.282 -30.218  1.00  0.00     0.000 C 
BRANCH   5   6
ATOM      6  C   UNL     1     -12.494 -24.943 -31.698  1.00  0.00     0.006 C 
BRANCH   6   7
ATOM      7  C   UNL     1     -11.000 -24.800 -32.020  1.00  0.00     0.053 C 
BRANCH   7   8
ATOM      8  C   UNL     1     -10.374 -23.659 -31.278  1.00  0.00     0.041 C 
ATOM      9  O   UNL     1      -9.342 -23.846 -30.581  1.00  0.00    -0.550 OA
ATOM     10  O   UNL     1     -10.945 -22.393 -31.337  1.00  0.00    -0.550 OA
ENDBRANCH   7   8
ENDBRANCH   6   7
ENDBRANCH   5   6
ENDBRANCH   4   5
ENDBRANCH   3   4
ENDBRANCH   2   3
ENDBRANCH   1   2
BRANCH   1  11
ATOM     11  C   UNL     1     -13.828 -27.712 -34.013  1.00  0.00     0.000 C 
BRANCH  11  12
ATOM     12  C   UNL     1     -13.375 -26.817 -35.180  1.00  0.00     0.000 C 
BRANCH  12  13
ATOM     13  C   UNL     1     -11.880 -26.471 -35.119  1.00  0.00     0.000 C 
BRANCH  13  14
ATOM     14  C   UNL     1     -11.538 -25.182 -35.882  1.00  0.00     0.000 C 
BRANCH  14  15
ATOM     15  C   UNL     1     -12.746 -24.237 -35.930  1.00  0.00     0.000 C 
BRANCH  15  16
ATOM     16  C   UNL     1     -12.623 -23.132 -34.876  1.00  0.00     0.006 C 
BRANCH  16  17
ATOM     17  C   UNL     1     -12.891 -21.755 -35.490  1.00  0.00     0.053 C 
BRANCH  17  18
ATOM     18  C   UNL     1     -11.809 -20.793 -35.116  1.00  0.00     0.041 C 
ATOM     19  O   UNL     1     -10.936 -20.461 -35.961  1.00  0.00    -0.550 OA
ATOM     20  O   UNL     1     -11.735 -20.300 -33.819  1.00  0.00    -0.550 OA
ENDBRANCH  17  18
ENDBRANCH  16  17
ENDBRANCH  15  16
ENDBRANCH  14  15
ENDBRANCH  13  14
ENDBRANCH  12  13
ENDBRANCH  11  12
ENDBRANCH   1  11
TORSDOF 15
ENDMDL
MODEL 8
REMARK VINA RESULT:    -4.613      1.873      3.587
REMARK INTER + INTRA:         -10.252
REMARK INTER:                  -8.818
REMARK INTRA:                  -1.434
REMARK UNBOUND:                -1.593
REMARK SMILES O=C([O-])CCCCCCCCCCCCCCC(=O)[O-]
REMARK SMILES IDX 10 1 9 2 8 3 7 4 6 5 5 6 4 7 2 8 1 9 3 10 11 11 12 12 13 13
REMARK SMILES IDX 14 14 15 15 16 16 17 17 18 18 19 19 20 20
REMARK H PARENT
REMARK Flexibility Score: inf
ROOT
ATOM      1  C   UNL     1     -10.370 -24.541 -31.374  1.00  0.00     0.000 C 
ENDROOT
BRANCH   1   2
ATOM      2  C   UNL     1     -10.107 -26.056 -31.391  1.00  0.00     0.000 C 
BRANCH   2   3
ATOM      3  C   UNL     1     -11.056 -26.838 -30.467  1.00  0.00     0.000 C 
BRANCH   3   4
ATOM      4  C   UNL     1     -11.655 -28.081 -31.151  1.00  0.00     0.000 C 
BRANCH   4   5
ATOM      5  C   UNL     1     -12.648 -27.765 -32.284  1.00  0.00     0.000 C 
BRANCH   5   6
ATOM      6  C   UNL     1     -12.211 -28.359 -33.635  1.00  0.00     0.006 C 
BRANCH   6   7
ATOM      7  C   UNL     1     -12.012 -27.278 -34.706  1.00  0.00     0.053 C 
BRANCH   7   8
ATOM      8  C   UNL     1     -13.286 -26.968 -35.432  1.00  0.00     0.041 C 
ATOM      9  O   UNL     1     -14.223 -27.808 -35.453  1.00  0.00    -0.550 OA
ATOM     10  O   UNL     1     -13.427 -25.761 -36.106  1.00  0.00    -0.550 OA
ENDBRANCH   7   8
ENDBRANCH   6   7
ENDBRANCH   5   6
ENDBRANCH   4   5
ENDBRANCH   3   4
ENDBRANCH   2   3
ENDBRANCH   1   2
BRANCH   1  11
ATOM     11  C   UNL     1     -11.865 -24.172 -31.489  1.00  0.00     0.000 C 
BRANCH  11  12
ATOM     12  C   UNL     1     -12.325 -24.067 -32.953  1.00  0.00     0.000 C 
BRANCH  12  13
ATOM     13  C   UNL     1     -12.256 -22.632 -33.498  1.00  0.00     0.000 C 
BRANCH  13  14
ATOM     14  C   UNL     1     -13.079 -22.445 -34.782  1.00  0.00     0.000 C 
BRANCH  14  15
ATOM     15  C   UNL     1     -12.327 -21.569 -35.792  1.00  0.00     0.000 C 
BRANCH  15  16
ATOM     16  C   UNL     1     -12.743 -20.099 -35.664  1.00  0.00     0.006 C 
BRANCH  16  17
ATOM     17  C   UNL     1     -11.718 -19.178 -36.331  1.00  0.00     0.053 C 
BRANCH  17  18
ATOM     18  C   UNL     1     -10.351 -19.426 -35.779  1.00  0.00     0.041 C 
ATOM     19  O   UNL     1     -10.124 -19.260 -34.551  1.00  0.00    -0.550 OA
ATOM     20  O   UNL     1      -9.315 -19.794 -36.627  1.00  0.00    -0.550 OA
ENDBRANCH  17  18
ENDBRANCH  16  17
ENDBRANCH  15  16
ENDBRANCH  14  15
ENDBRANCH  13  14
ENDBRANCH  12  13
ENDBRANCH  11  12
ENDBRANCH   1  11
TORSDOF 15
ENDMDL
MODEL 9
REMARK VINA RESULT:    -4.606      1.818      6.013
REMARK INTER + INTRA:         -10.239
REMARK INTER:                  -8.551
REMARK INTRA:                  -1.688
REMARK UNBOUND:                -1.593
REMARK SMILES O=C([O-])CCCCCCCCCCCCCCC(=O)[O-]
REMARK SMILES IDX 10 1 9 2 8 3 7 4 6 5 5 6 4 7 2 8 1 9 3 10 11 11 12 12 13 13
REMARK SMILES IDX 14 14 15 15 16 16 17 17 18 18 19 19 20 20
REMARK H PARENT
REMARK Flexibility Score: inf
ROOT
ATOM      1  C   UNL     1     -11.884 -24.280 -31.976  1.00  0.00     0.000 C 
ENDROOT
BRANCH   1   2
ATOM      2  C   UNL     1     -11.367 -22.840 -31.825  1.00  0.00     0.000 C 
BRANCH   2   3
ATOM      3  C   UNL     1     -11.867 -21.905 -32.939  1.00  0.00     0.000 C 
BRANCH   3   4
ATOM      4  C   UNL     1     -12.632 -22.659 -34.043  1.00  0.00     0.000 C 
BRANCH   4   5
ATOM      5  C   UNL     1     -12.815 -21.860 -35.347  1.00  0.00     0.000 C 
BRANCH   5   6
ATOM      6  C   UNL     1     -12.661 -20.343 -35.136  1.00  0.00     0.006 C 
BRANCH   6   7
ATOM      7  C   UNL     1     -11.715 -19.709 -36.165  1.00  0.00     0.053 C 
BRANCH   7   8
ATOM      8  C   UNL     1     -10.292 -19.717 -35.697  1.00  0.00     0.041 C 
ATOM      9  O   UNL     1      -9.377 -20.130 -36.458  1.00  0.00    -0.550 OA
ATOM     10  O   UNL     1      -9.979 -19.292 -34.412  1.00  0.00    -0.550 OA
ENDBRANCH   7   8
ENDBRANCH   6   7
ENDBRANCH   5   6
ENDBRANCH   4   5
ENDBRANCH   3   4
ENDBRANCH   2   3
ENDBRANCH   1   2
BRANCH   1  11
ATOM     11  C   UNL     1     -10.765 -25.318 -32.210  1.00  0.00     0.000 C 
BRANCH  11  12
ATOM     12  C   UNL     1     -11.139 -26.705 -31.661  1.00  0.00     0.000 C 
BRANCH  12  13
ATOM     13  C   UNL     1     -12.650 -26.868 -31.434  1.00  0.00     0.000 C 
BRANCH  13  14
ATOM     14  C   UNL     1     -13.308 -27.797 -32.467  1.00  0.00     0.000 C 
BRANCH  14  15
ATOM     15  C   UNL     1     -12.259 -28.394 -33.414  1.00  0.00     0.000 C 
BRANCH  15  16
ATOM     16  C   UNL     1     -12.629 -28.137 -34.879  1.00  0.00     0.006 C 
BRANCH  16  17
ATOM     17  C   UNL     1     -13.457 -26.856 -35.019  1.00  0.00     0.053 C 
BRANCH  17  18
ATOM     18  C   UNL     1     -12.707 -25.830 -35.808  1.00  0.00     0.041 C 
ATOM     19  O   UNL     1     -11.470 -25.672 -35.629  1.00  0.00    -0.550 OA
ATOM     20  O   UNL     1     -13.382 -25.014 -36.706  1.00  0.00    -0.550 OA
ENDBRANCH  17  18
ENDBRANCH  16  17
ENDBRANCH  15  16
ENDBRANCH  14  15
ENDBRANCH  13  14
ENDBRANCH  12  13
ENDBRANCH  11  12
ENDBRANCH   1  11
TORSDOF 15
ENDMDL
