MODEL 1
REMARK VINA RESULT:    -4.779      0.000      0.000
REMARK INTER + INTRA:          -6.634
REMARK INTER:                  -6.455
REMARK INTRA:                  -0.178
REMARK UNBOUND:                -0.178
REMARK SMILES [NH3+]CCCC[C@@H]([NH3+])C(=O)[O-]
REMARK SMILES IDX 4 1 3 2 2 3 1 4 5 8 6 9 7 10 8 14 9 15 10 16
REMARK H PARENT 1 5 1 6 1 7 7 11 7 12 7 13
REMARK Flexibility Score: inf
ROOT
ATOM      1  C   UNL     1       3.011  41.159  11.778  1.00  0.00     0.012 C 
ENDROOT
BRANCH   1   2
ATOM      2  C   UNL     1       4.358  40.674  12.333  1.00  0.00     0.061 C 
BRANCH   2   3
ATOM      3  C   UNL     1       4.291  39.236  12.874  1.00  0.00     0.258 C 
BRANCH   3   4
ATOM      4  N   UNL     1       5.144  39.045  14.048  1.00  0.00    -0.358 N 
ATOM      5  H   UNL     1       5.983  38.487  13.772  1.00  0.00     0.344 HD
ATOM      6  H   UNL     1       4.627  38.528  14.796  1.00  0.00     0.344 HD
ATOM      7  H   UNL     1       5.471  39.969  14.413  1.00  0.00     0.344 HD
ENDBRANCH   3   4
ENDBRANCH   2   3
ENDBRANCH   1   2
BRANCH   1   8
ATOM      8  C   UNL     1       3.215  42.278  10.745  1.00  0.00     0.072 C 
BRANCH   8   9
ATOM      9  C   UNL     1       2.740  43.656  11.259  1.00  0.00     0.227 C 
BRANCH   9  10
ATOM     10  N   UNL     1       1.841  43.528  12.415  1.00  0.00    -0.350 N 
ATOM     11  H   UNL     1       0.921  43.135  12.107  1.00  0.00     0.345 HD
ATOM     12  H   UNL     1       2.247  42.866  13.114  1.00  0.00     0.345 HD
ATOM     13  H   UNL     1       1.681  44.457  12.867  1.00  0.00     0.345 HD
ENDBRANCH   9  10
BRANCH   9  14
ATOM     14  C   UNL     1       3.934  44.500  11.622  1.00  0.00     0.099 C 
ATOM     15  O   UNL     1       4.673  44.178  12.590  1.00  0.00    -0.544 OA
ATOM     16  O   UNL     1       4.239  45.630  10.872  1.00  0.00    -0.544 OA
ENDBRANCH   9  14
ENDBRANCH   8   9
ENDBRANCH   1   8
TORSDOF 7
ENDMDL
MODEL 2
REMARK VINA RESULT:    -4.646      1.787      2.038
REMARK INTER + INTRA:          -6.454
REMARK INTER:                  -6.355
REMARK INTRA:                  -0.098
REMARK UNBOUND:                -0.178
REMARK SMILES [NH3+]CCCC[C@@H]([NH3+])C(=O)[O-]
REMARK SMILES IDX 4 1 3 2 2 3 1 4 5 8 6 9 7 10 8 14 9 15 10 16
REMARK H PARENT 1 5 1 6 1 7 7 11 7 12 7 13
REMARK Flexibility Score: inf
ROOT
ATOM      1  C   UNL     1       4.048  41.239  12.054  1.00  0.00     0.012 C 
ENDROOT
BRANCH   1   2
ATOM      2  C   UNL     1       3.281  39.954  12.399  1.00  0.00     0.061 C 
BRANCH   2   3
ATOM      3  C   UNL     1       4.216  38.788  12.764  1.00  0.00     0.258 C 
BRANCH   3   4
ATOM      4  N   UNL     1       5.066  39.100  13.914  1.00  0.00    -0.358 N 
ATOM      5  H   UNL     1       5.958  38.560  13.834  1.00  0.00     0.344 HD
ATOM      6  H   UNL     1       4.589  38.829  14.805  1.00  0.00     0.344 HD
ATOM      7  H   UNL     1       5.299  40.119  13.928  1.00  0.00     0.344 HD
ENDBRANCH   3   4
ENDBRANCH   2   3
ENDBRANCH   1   2
BRANCH   1   8
ATOM      8  C   UNL     1       3.183  42.182  11.206  1.00  0.00     0.072 C 
BRANCH   8   9
ATOM      9  C   UNL     1       3.755  43.617  11.138  1.00  0.00     0.227 C 
BRANCH   9  10
ATOM     10  N   UNL     1       5.023  43.733  11.872  1.00  0.00    -0.350 N 
ATOM     11  H   UNL     1       5.597  42.869  11.729  1.00  0.00     0.345 HD
ATOM     12  H   UNL     1       5.576  44.541  11.507  1.00  0.00     0.345 HD
ATOM     13  H   UNL     1       4.851  43.864  12.895  1.00  0.00     0.345 HD
ENDBRANCH   9  10
BRANCH   9  14
ATOM     14  C   UNL     1       3.948  44.017   9.699  1.00  0.00     0.099 C 
ATOM     15  O   UNL     1       4.305  45.188   9.404  1.00  0.00    -0.544 OA
ATOM     16  O   UNL     1       3.754  43.084   8.687  1.00  0.00    -0.544 OA
ENDBRANCH   9  14
ENDBRANCH   8   9
ENDBRANCH   1   8
TORSDOF 7
ENDMDL
MODEL 3
REMARK VINA RESULT:    -4.491      3.833      6.244
REMARK INTER + INTRA:          -6.245
REMARK INTER:                  -6.132
REMARK INTRA:                  -0.113
REMARK UNBOUND:                -0.178
REMARK SMILES [NH3+]CCCC[C@@H]([NH3+])C(=O)[O-]
REMARK SMILES IDX 4 1 3 2 2 3 1 4 5 8 6 9 7 10 8 14 9 15 10 16
REMARK H PARENT 1 5 1 6 1 7 7 11 7 12 7 13
REMARK Flexibility Score: inf
ROOT
ATOM      1  C   UNL     1       4.874  46.665   9.365  1.00  0.00     0.012 C 
ENDROOT
BRANCH   1   2
ATOM      2  C   UNL     1       6.189  47.437   9.548  1.00  0.00     0.061 C 
BRANCH   2   3
ATOM      3  C   UNL     1       6.179  48.800   8.835  1.00  0.00     0.258 C 
BRANCH   3   4
ATOM      4  N   UNL     1       5.002  48.968   7.981  1.00  0.00    -0.358 N 
ATOM      5  H   UNL     1       4.143  48.928   8.575  1.00  0.00     0.344 HD
ATOM      6  H   UNL     1       4.955  48.203   7.269  1.00  0.00     0.344 HD
ATOM      7  H   UNL     1       5.029  49.898   7.505  1.00  0.00     0.344 HD
ENDBRANCH   3   4
ENDBRANCH   2   3
ENDBRANCH   1   2
BRANCH   1   8
ATOM      8  C   UNL     1       4.464  45.965  10.670  1.00  0.00     0.072 C 
BRANCH   8   9
ATOM      9  C   UNL     1       3.796  44.592  10.425  1.00  0.00     0.227 C 
BRANCH   9  10
ATOM     10  N   UNL     1       4.172  44.028   9.121  1.00  0.00    -0.350 N 
ATOM     11  H   UNL     1       4.999  44.542   8.736  1.00  0.00     0.345 HD
ATOM     12  H   UNL     1       4.448  43.026   9.229  1.00  0.00     0.345 HD
ATOM     13  H   UNL     1       3.380  44.100   8.442  1.00  0.00     0.345 HD
ENDBRANCH   9  10
BRANCH   9  14
ATOM     14  C   UNL     1       4.174  43.642  11.530  1.00  0.00     0.099 C 
ATOM     15  O   UNL     1       4.750  44.064  12.567  1.00  0.00    -0.544 OA
ATOM     16  O   UNL     1       3.867  42.291  11.419  1.00  0.00    -0.544 OA
ENDBRANCH   9  14
ENDBRANCH   8   9
ENDBRANCH   1   8
TORSDOF 7
ENDMDL
MODEL 4
REMARK VINA RESULT:    -4.336      3.694      5.645
REMARK INTER + INTRA:          -6.035
REMARK INTER:                  -5.936
REMARK INTRA:                  -0.100
REMARK UNBOUND:                -0.178
REMARK SMILES [NH3+]CCCC[C@@H]([NH3+])C(=O)[O-]
REMARK SMILES IDX 4 1 3 2 2 3 1 4 5 8 6 9 7 10 8 14 9 15 10 16
REMARK H PARENT 1 5 1 6 1 7 7 11 7 12 7 13
REMARK Flexibility Score: inf
ROOT
ATOM      1  C   UNL     1       4.518  45.944  10.329  1.00  0.00     0.012 C 
ENDROOT
BRANCH   1   2
ATOM      2  C   UNL     1       4.973  46.823   9.155  1.00  0.00     0.061 C 
BRANCH   2   3
ATOM      3  C   UNL     1       6.053  47.839   9.562  1.00  0.00     0.258 C 
BRANCH   3   4
ATOM      4  N   UNL     1       7.294  47.660   8.807  1.00  0.00    -0.358 N 
ATOM      5  H   UNL     1       7.182  48.089   7.862  1.00  0.00     0.344 HD
ATOM      6  H   UNL     1       7.508  46.642   8.692  1.00  0.00     0.344 HD
ATOM      7  H   UNL     1       8.087  48.139   9.292  1.00  0.00     0.344 HD
ENDBRANCH   3   4
ENDBRANCH   2   3
ENDBRANCH   1   2
BRANCH   1   8
ATOM      8  C   UNL     1       3.768  44.701   9.825  1.00  0.00     0.072 C 
BRANCH   8   9
ATOM      9  C   UNL     1       4.166  43.416  10.586  1.00  0.00     0.227 C 
BRANCH   9  10
ATOM     10  N   UNL     1       4.963  43.716  11.784  1.00  0.00    -0.350 N 
ATOM     11  H   UNL     1       5.748  43.029  11.869  1.00  0.00     0.345 HD
ATOM     12  H   UNL     1       5.386  44.668  11.705  1.00  0.00     0.345 HD
ATOM     13  H   UNL     1       4.372  43.667  12.646  1.00  0.00     0.345 HD
ENDBRANCH   9  10
BRANCH   9  14
ATOM     14  C   UNL     1       2.926  42.649  10.966  1.00  0.00     0.099 C 
ATOM     15  O   UNL     1       2.993  41.422  11.239  1.00  0.00    -0.544 OA
ATOM     16  O   UNL     1       1.701  43.302  11.039  1.00  0.00    -0.544 OA
ENDBRANCH   9  14
ENDBRANCH   8   9
ENDBRANCH   1   8
TORSDOF 7
ENDMDL
MODEL 5
REMARK VINA RESULT:    -4.332      3.558      5.812
REMARK INTER + INTRA:          -6.030
REMARK INTER:                  -5.911
REMARK INTRA:                  -0.119
REMARK UNBOUND:                -0.178
REMARK SMILES [NH3+]CCCC[C@@H]([NH3+])C(=O)[O-]
REMARK SMILES IDX 4 1 3 2 2 3 1 4 5 8 6 9 7 10 8 14 9 15 10 16
REMARK H PARENT 1 5 1 6 1 7 7 11 7 12 7 13
REMARK Flexibility Score: inf
ROOT
ATOM      1  C   UNL     1       4.149  45.862  10.448  1.00  0.00     0.012 C 
ENDROOT
BRANCH   1   2
ATOM      2  C   UNL     1       4.849  46.732   9.394  1.00  0.00     0.061 C 
BRANCH   2   3
ATOM      3  C   UNL     1       3.855  47.439   8.457  1.00  0.00     0.258 C 
BRANCH   3   4
ATOM      4  N   UNL     1       4.466  48.569   7.754  1.00  0.00    -0.358 N 
ATOM      5  H   UNL     1       3.807  48.906   7.017  1.00  0.00     0.344 HD
ATOM      6  H   UNL     1       5.360  48.275   7.296  1.00  0.00     0.344 HD
ATOM      7  H   UNL     1       4.646  49.356   8.418  1.00  0.00     0.344 HD
ENDBRANCH   3   4
ENDBRANCH   2   3
ENDBRANCH   1   2
BRANCH   1   8
ATOM      8  C   UNL     1       3.671  44.537   9.834  1.00  0.00     0.072 C 
BRANCH   8   9
ATOM      9  C   UNL     1       4.156  43.303  10.628  1.00  0.00     0.227 C 
BRANCH   9  10
ATOM     10  N   UNL     1       4.988  43.687  11.778  1.00  0.00    -0.350 N 
ATOM     11  H   UNL     1       4.736  43.103  12.610  1.00  0.00     0.345 HD
ATOM     12  H   UNL     1       5.996  43.512  11.566  1.00  0.00     0.345 HD
ATOM     13  H   UNL     1       4.853  44.696  12.015  1.00  0.00     0.345 HD
ENDBRANCH   9  10
BRANCH   9  14
ATOM     14  C   UNL     1       2.969  42.501  11.092  1.00  0.00     0.099 C 
ATOM     15  O   UNL     1       3.099  41.287  11.400  1.00  0.00    -0.544 OA
ATOM     16  O   UNL     1       1.723  43.107  11.203  1.00  0.00    -0.544 OA
ENDBRANCH   9  14
ENDBRANCH   8   9
ENDBRANCH   1   8
TORSDOF 7
ENDMDL
MODEL 6
REMARK VINA RESULT:    -4.261      2.290      2.581
REMARK INTER + INTRA:          -5.934
REMARK INTER:                  -5.836
REMARK INTRA:                  -0.098
REMARK UNBOUND:                -0.178
REMARK SMILES [NH3+]CCCC[C@@H]([NH3+])C(=O)[O-]
REMARK SMILES IDX 4 1 3 2 2 3 1 4 5 8 6 9 7 10 8 14 9 15 10 16
REMARK H PARENT 1 5 1 6 1 7 7 11 7 12 7 13
REMARK Flexibility Score: inf
ROOT
ATOM      1  C   UNL     1       2.916  41.482  11.809  1.00  0.00     0.012 C 
ENDROOT
BRANCH   1   2
ATOM      2  C   UNL     1       4.239  40.828  12.232  1.00  0.00     0.061 C 
BRANCH   2   3
ATOM      3  C   UNL     1       4.036  39.436  12.855  1.00  0.00     0.258 C 
BRANCH   3   4
ATOM      4  N   UNL     1       5.059  39.123  13.855  1.00  0.00    -0.358 N 
ATOM      5  H   UNL     1       5.944  38.862  13.365  1.00  0.00     0.344 HD
ATOM      6  H   UNL     1       4.755  38.318  14.450  1.00  0.00     0.344 HD
ATOM      7  H   UNL     1       5.250  39.958  14.454  1.00  0.00     0.344 HD
ENDBRANCH   3   4
ENDBRANCH   2   3
ENDBRANCH   1   2
BRANCH   1   8
ATOM      8  C   UNL     1       2.977  41.944  10.345  1.00  0.00     0.072 C 
BRANCH   8   9
ATOM      9  C   UNL     1       2.980  43.483  10.205  1.00  0.00     0.227 C 
BRANCH   9  10
ATOM     10  N   UNL     1       3.913  43.935   9.163  1.00  0.00    -0.350 N 
ATOM     11  H   UNL     1       4.657  44.537   9.589  1.00  0.00     0.345 HD
ATOM     12  H   UNL     1       4.388  43.113   8.725  1.00  0.00     0.345 HD
ATOM     13  H   UNL     1       3.412  44.482   8.426  1.00  0.00     0.345 HD
ENDBRANCH   9  10
BRANCH   9  14
ATOM     14  C   UNL     1       1.587  43.966   9.899  1.00  0.00     0.099 C 
ATOM     15  O   UNL     1       1.149  43.946   8.719  1.00  0.00    -0.544 OA
ATOM     16  O   UNL     1       0.768  44.417  10.927  1.00  0.00    -0.544 OA
ENDBRANCH   9  14
ENDBRANCH   8   9
ENDBRANCH   1   8
TORSDOF 7
ENDMDL
MODEL 7
REMARK VINA RESULT:    -4.230      1.683      2.040
REMARK INTER + INTRA:          -5.892
REMARK INTER:                  -5.721
REMARK INTRA:                  -0.171
REMARK UNBOUND:                -0.178
REMARK SMILES [NH3+]CCCC[C@@H]([NH3+])C(=O)[O-]
REMARK SMILES IDX 4 1 3 2 2 3 1 4 5 8 6 9 7 10 8 14 9 15 10 16
REMARK H PARENT 1 5 1 6 1 7 7 11 7 12 7 13
REMARK Flexibility Score: inf
ROOT
ATOM      1  C   UNL     1       2.119  42.097  11.759  1.00  0.00     0.012 C 
ENDROOT
BRANCH   1   2
ATOM      2  C   UNL     1       3.304  41.121  11.729  1.00  0.00     0.061 C 
BRANCH   2   3
ATOM      3  C   UNL     1       3.048  39.856  12.567  1.00  0.00     0.258 C 
BRANCH   3   4
ATOM      4  N   UNL     1       3.836  38.714  12.099  1.00  0.00    -0.358 N 
ATOM      5  H   UNL     1       4.160  38.163  12.926  1.00  0.00     0.344 HD
ATOM      6  H   UNL     1       4.674  39.042  11.565  1.00  0.00     0.344 HD
ATOM      7  H   UNL     1       3.251  38.090  11.498  1.00  0.00     0.344 HD
ENDBRANCH   3   4
ENDBRANCH   2   3
ENDBRANCH   1   2
BRANCH   1   8
ATOM      8  C   UNL     1       2.352  43.270  10.794  1.00  0.00     0.072 C 
BRANCH   8   9
ATOM      9  C   UNL     1       3.849  43.504  10.490  1.00  0.00     0.227 C 
BRANCH   9  10
ATOM     10  N   UNL     1       4.070  43.870   9.084  1.00  0.00    -0.350 N 
ATOM     11  H   UNL     1       4.669  43.149   8.618  1.00  0.00     0.345 HD
ATOM     12  H   UNL     1       3.159  43.899   8.572  1.00  0.00     0.345 HD
ATOM     13  H   UNL     1       4.539  44.802   9.011  1.00  0.00     0.345 HD
ENDBRANCH   9  10
BRANCH   9  14
ATOM     14  C   UNL     1       4.387  44.578  11.397  1.00  0.00     0.099 C 
ATOM     15  O   UNL     1       4.450  45.774  11.005  1.00  0.00    -0.544 OA
ATOM     16  O   UNL     1       4.799  44.257  12.685  1.00  0.00    -0.544 OA
ENDBRANCH   9  14
ENDBRANCH   8   9
ENDBRANCH   1   8
TORSDOF 7
ENDMDL
MODEL 8
REMARK VINA RESULT:    -4.206      2.520      3.477
REMARK INTER + INTRA:          -5.859
REMARK INTER:                  -5.355
REMARK INTRA:                  -0.505
REMARK UNBOUND:                -0.178
REMARK SMILES [NH3+]CCCC[C@@H]([NH3+])C(=O)[O-]
REMARK SMILES IDX 4 1 3 2 2 3 1 4 5 8 6 9 7 10 8 14 9 15 10 16
REMARK H PARENT 1 5 1 6 1 7 7 11 7 12 7 13
REMARK Flexibility Score: inf
ROOT
ATOM      1  C   UNL     1       1.717  43.855   9.291  1.00  0.00     0.012 C 
ENDROOT
BRANCH   1   2
ATOM      2  C   UNL     1       2.734  42.727   9.513  1.00  0.00     0.061 C 
BRANCH   2   3
ATOM      3  C   UNL     1       2.937  42.399  11.003  1.00  0.00     0.258 C 
BRANCH   3   4
ATOM      4  N   UNL     1       4.339  42.516  11.409  1.00  0.00    -0.358 N 
ATOM      5  H   UNL     1       4.920  42.724  10.567  1.00  0.00     0.344 HD
ATOM      6  H   UNL     1       4.672  41.620  11.835  1.00  0.00     0.344 HD
ATOM      7  H   UNL     1       4.455  43.301  12.090  1.00  0.00     0.344 HD
ENDBRANCH   3   4
ENDBRANCH   2   3
ENDBRANCH   1   2
BRANCH   1   8
ATOM      8  C   UNL     1       2.018  45.052  10.207  1.00  0.00     0.072 C 
BRANCH   8   9
ATOM      9  C   UNL     1       2.856  46.144   9.503  1.00  0.00     0.227 C 
BRANCH   9  10
ATOM     10  N   UNL     1       2.288  47.484   9.706  1.00  0.00    -0.350 N 
ATOM     11  H   UNL     1       2.575  47.854  10.642  1.00  0.00     0.345 HD
ATOM     12  H   UNL     1       2.653  48.143   8.983  1.00  0.00     0.345 HD
ATOM     13  H   UNL     1       1.243  47.456   9.656  1.00  0.00     0.345 HD
ENDBRANCH   9  10
BRANCH   9  14
ATOM     14  C   UNL     1       4.273  46.099  10.011  1.00  0.00     0.099 C 
ATOM     15  O   UNL     1       4.546  45.517  11.095  1.00  0.00    -0.544 OA
ATOM     16  O   UNL     1       5.295  46.684   9.272  1.00  0.00    -0.544 OA
ENDBRANCH   9  14
ENDBRANCH   8   9
ENDBRANCH   1   8
TORSDOF 7
ENDMDL
MODEL 9
REMARK VINA RESULT:    -4.199      3.915      5.275
REMARK INTER + INTRA:          -5.850
REMARK INTER:                  -5.742
REMARK INTRA:                  -0.108
REMARK UNBOUND:                -0.178
REMARK SMILES [NH3+]CCCC[C@@H]([NH3+])C(=O)[O-]
REMARK SMILES IDX 4 1 3 2 2 3 1 4 5 8 6 9 7 10 8 14 9 15 10 16
REMARK H PARENT 1 5 1 6 1 7 7 11 7 12 7 13
REMARK Flexibility Score: inf
ROOT
ATOM      1  C   UNL     1       3.606  45.658  10.225  1.00  0.00     0.012 C 
ENDROOT
BRANCH   1   2
ATOM      2  C   UNL     1       3.702  44.387  11.082  1.00  0.00     0.061 C 
BRANCH   2   3
ATOM      3  C   UNL     1       4.021  43.135  10.247  1.00  0.00     0.258 C 
BRANCH   3   4
ATOM      4  N   UNL     1       3.846  43.367   8.812  1.00  0.00    -0.358 N 
ATOM      5  H   UNL     1       2.866  43.685   8.637  1.00  0.00     0.344 HD
ATOM      6  H   UNL     1       4.013  42.484   8.276  1.00  0.00     0.344 HD
ATOM      7  H   UNL     1       4.498  44.115   8.483  1.00  0.00     0.344 HD
ENDBRANCH   3   4
ENDBRANCH   2   3
ENDBRANCH   1   2
BRANCH   1   8
ATOM      8  C   UNL     1       4.909  46.469  10.300  1.00  0.00     0.072 C 
BRANCH   8   9
ATOM      9  C   UNL     1       5.239  47.190   8.973  1.00  0.00     0.227 C 
BRANCH   9  10
ATOM     10  N   UNL     1       4.122  48.028   8.514  1.00  0.00    -0.350 N 
ATOM     11  H   UNL     1       4.085  48.910   9.078  1.00  0.00     0.345 HD
ATOM     12  H   UNL     1       4.263  48.299   7.515  1.00  0.00     0.345 HD
ATOM     13  H   UNL     1       3.212  47.521   8.613  1.00  0.00     0.345 HD
ENDBRANCH   9  10
BRANCH   9  14
ATOM     14  C   UNL     1       6.479  48.027   9.147  1.00  0.00     0.099 C 
ATOM     15  O   UNL     1       6.455  49.262   8.903  1.00  0.00    -0.544 OA
ATOM     16  O   UNL     1       7.654  47.440   9.601  1.00  0.00    -0.544 OA
ENDBRANCH   9  14
ENDBRANCH   8   9
ENDBRANCH   1   8
TORSDOF 7
ENDMDL
