MODEL 1
REMARK VINA RESULT:    -4.619      0.000      0.000
REMARK INTER + INTRA:          -4.985
REMARK INTER:                  -4.889
REMARK INTRA:                  -0.096
REMARK UNBOUND:                -0.096
REMARK SMILES C=C(C)[C@@H]1CC=C(C)C(=O)C1
REMARK SMILES IDX 8 1 7 2 6 3 5 4 4 5 11 6 9 7 10 8 2 9 1 10 3 11
REMARK H PARENT
REMARK Flexibility Score: inf
ROOT
ATOM      1  C   UNL     1      12.441 115.755  17.751  1.00  0.00     0.048 C 
ATOM      2  C   UNL     1      11.255 116.489  18.314  1.00  0.00    -0.012 C 
ATOM      3  C   UNL     1      10.749 116.138  19.509  1.00  0.00    -0.019 C 
ATOM      4  C   UNL     1       9.615 116.893  20.151  1.00  0.00     0.036 C 
ATOM      5  C   UNL     1       8.683 117.506  19.088  1.00  0.00     0.025 C 
ATOM      6  C   UNL     1       9.490 118.381  18.110  1.00  0.00     0.089 C 
ATOM      7  C   UNL     1      10.662 117.619  17.557  1.00  0.00     0.158 C 
ATOM      8  O   UNL     1      11.166 117.979  16.460  1.00  0.00    -0.295 OA
ENDROOT
BRANCH   5   9
ATOM      9  C   UNL     1       7.538 118.284  19.725  1.00  0.00    -0.077 C 
ATOM     10  C   UNL     1       7.516 118.541  21.043  1.00  0.00     0.008 C 
ATOM     11  C   UNL     1       6.399 118.781  18.873  1.00  0.00     0.039 C 
ENDBRANCH   5   9
TORSDOF 1
ENDMDL
MODEL 2
REMARK VINA RESULT:    -4.601      2.039      4.554
REMARK INTER + INTRA:          -4.966
REMARK INTER:                  -4.871
REMARK INTRA:                  -0.095
REMARK UNBOUND:                -0.096
REMARK SMILES C=C(C)[C@@H]1CC=C(C)C(=O)C1
REMARK SMILES IDX 8 1 7 2 6 3 5 4 4 5 11 6 9 7 10 8 2 9 1 10 3 11
REMARK H PARENT
REMARK Flexibility Score: inf
ROOT
ATOM      1  C   UNL     1       7.088 120.037  21.937  1.00  0.00     0.048 C 
ATOM      2  C   UNL     1       7.837 119.382  20.809  1.00  0.00    -0.012 C 
ATOM      3  C   UNL     1       7.582 118.103  20.482  1.00  0.00    -0.019 C 
ATOM      4  C   UNL     1       8.247 117.430  19.310  1.00  0.00     0.036 C 
ATOM      5  C   UNL     1       9.655 118.005  19.063  1.00  0.00     0.025 C 
ATOM      6  C   UNL     1       9.586 119.535  18.897  1.00  0.00     0.089 C 
ATOM      7  C   UNL     1       8.840 120.161  20.042  1.00  0.00     0.158 C 
ATOM      8  O   UNL     1       9.044 121.374  20.318  1.00  0.00    -0.295 OA
ENDROOT
BRANCH   5   9
ATOM      9  C   UNL     1      10.334 117.340  17.873  1.00  0.00    -0.077 C 
ATOM     10  C   UNL     1      10.304 117.898  16.650  1.00  0.00     0.008 C 
ATOM     11  C   UNL     1      11.058 116.030  18.051  1.00  0.00     0.039 C 
ENDBRANCH   5   9
TORSDOF 1
ENDMDL
MODEL 3
REMARK VINA RESULT:    -4.545      2.346      4.835
REMARK INTER + INTRA:          -4.906
REMARK INTER:                  -4.813
REMARK INTRA:                  -0.093
REMARK UNBOUND:                -0.096
REMARK SMILES C=C(C)[C@@H]1CC=C(C)C(=O)C1
REMARK SMILES IDX 8 1 7 2 6 3 5 4 4 5 11 6 9 7 10 8 2 9 1 10 3 11
REMARK H PARENT
REMARK Flexibility Score: inf
ROOT
ATOM      1  C   UNL     1       7.100 120.132  21.975  1.00  0.00     0.048 C 
ATOM      2  C   UNL     1       7.989 119.446  20.975  1.00  0.00    -0.012 C 
ATOM      3  C   UNL     1       8.576 120.156  19.996  1.00  0.00    -0.019 C 
ATOM      4  C   UNL     1       9.538 119.529  19.021  1.00  0.00     0.036 C 
ATOM      5  C   UNL     1       9.196 118.046  18.777  1.00  0.00     0.025 C 
ATOM      6  C   UNL     1       9.139 117.284  20.114  1.00  0.00     0.089 C 
ATOM      7  C   UNL     1       8.236 117.987  21.089  1.00  0.00     0.158 C 
ATOM      8  O   UNL     1       7.724 117.332  22.036  1.00  0.00    -0.295 OA
ENDROOT
BRANCH   5   9
ATOM      9  C   UNL     1      10.169 117.398  17.801  1.00  0.00    -0.077 C 
ATOM     10  C   UNL     1      10.343 117.883  16.560  1.00  0.00     0.008 C 
ATOM     11  C   UNL     1      10.961 116.185  18.219  1.00  0.00     0.039 C 
ENDBRANCH   5   9
TORSDOF 1
ENDMDL
MODEL 4
REMARK VINA RESULT:    -4.523      2.087      3.084
REMARK INTER + INTRA:          -4.884
REMARK INTER:                  -4.790
REMARK INTRA:                  -0.094
REMARK UNBOUND:                -0.096
REMARK SMILES C=C(C)[C@@H]1CC=C(C)C(=O)C1
REMARK SMILES IDX 8 1 7 2 6 3 5 4 4 5 11 6 9 7 10 8 2 9 1 10 3 11
REMARK H PARENT
REMARK Flexibility Score: inf
ROOT
ATOM      1  C   UNL     1       9.764 117.655  16.848  1.00  0.00     0.048 C 
ATOM      2  C   UNL     1       9.340 117.817  18.282  1.00  0.00    -0.012 C 
ATOM      3  C   UNL     1      10.262 118.015  19.239  1.00  0.00    -0.019 C 
ATOM      4  C   UNL     1       9.881 118.263  20.676  1.00  0.00     0.036 C 
ATOM      5  C   UNL     1       8.563 117.550  21.034  1.00  0.00     0.025 C 
ATOM      6  C   UNL     1       7.449 117.963  20.054  1.00  0.00     0.089 C 
ATOM      7  C   UNL     1       7.898 117.782  18.631  1.00  0.00     0.158 C 
ATOM      8  O   UNL     1       7.032 117.644  17.726  1.00  0.00    -0.295 OA
ENDROOT
BRANCH   5   9
ATOM      9  C   UNL     1       8.161 117.802  22.481  1.00  0.00    -0.077 C 
ATOM     10  C   UNL     1       7.439 118.881  22.828  1.00  0.00     0.008 C 
ATOM     11  C   UNL     1       8.574 116.833  23.559  1.00  0.00     0.039 C 
ENDBRANCH   5   9
TORSDOF 1
ENDMDL
MODEL 5
REMARK VINA RESULT:    -4.505      1.563      2.429
REMARK INTER + INTRA:          -4.865
REMARK INTER:                  -4.769
REMARK INTRA:                  -0.096
REMARK UNBOUND:                -0.096
REMARK SMILES C=C(C)[C@@H]1CC=C(C)C(=O)C1
REMARK SMILES IDX 8 1 7 2 6 3 5 4 4 5 11 6 9 7 10 8 2 9 1 10 3 11
REMARK H PARENT
REMARK Flexibility Score: inf
ROOT
ATOM      1  C   UNL     1      13.431 117.149  17.077  1.00  0.00     0.048 C 
ATOM      2  C   UNL     1      12.001 117.203  17.537  1.00  0.00    -0.012 C 
ATOM      3  C   UNL     1      11.094 117.912  16.843  1.00  0.00    -0.019 C 
ATOM      4  C   UNL     1       9.635 117.931  17.218  1.00  0.00     0.036 C 
ATOM      5  C   UNL     1       9.449 117.750  18.737  1.00  0.00     0.025 C 
ATOM      6  C   UNL     1      10.160 116.469  19.214  1.00  0.00     0.089 C 
ATOM      7  C   UNL     1      11.589 116.449  18.747  1.00  0.00     0.158 C 
ATOM      8  O   UNL     1      12.428 115.745  19.369  1.00  0.00    -0.295 OA
ENDROOT
BRANCH   5   9
ATOM      9  C   UNL     1       7.977 117.754  19.127  1.00  0.00    -0.077 C 
ATOM     10  C   UNL     1       7.009 117.595  18.209  1.00  0.00     0.008 C 
ATOM     11  C   UNL     1       7.580 117.940  20.570  1.00  0.00     0.039 C 
ENDBRANCH   5   9
TORSDOF 1
ENDMDL
MODEL 6
REMARK VINA RESULT:    -4.384      1.658      2.899
REMARK INTER + INTRA:          -4.736
REMARK INTER:                  -4.645
REMARK INTRA:                  -0.092
REMARK UNBOUND:                -0.096
REMARK SMILES C=C(C)[C@@H]1CC=C(C)C(=O)C1
REMARK SMILES IDX 8 1 7 2 6 3 5 4 4 5 11 6 9 7 10 8 2 9 1 10 3 11
REMARK H PARENT
REMARK Flexibility Score: inf
ROOT
ATOM      1  C   UNL     1      10.017 117.656  16.725  1.00  0.00     0.048 C 
ATOM      2  C   UNL     1       9.527 117.562  18.144  1.00  0.00    -0.012 C 
ATOM      3  C   UNL     1       8.297 118.000  18.463  1.00  0.00    -0.019 C 
ATOM      4  C   UNL     1       7.732 117.854  19.852  1.00  0.00     0.036 C 
ATOM      5  C   UNL     1       8.847 117.898  20.914  1.00  0.00     0.025 C 
ATOM      6  C   UNL     1       9.921 116.838  20.605  1.00  0.00     0.089 C 
ATOM      7  C   UNL     1      10.397 116.962  19.184  1.00  0.00     0.158 C 
ATOM      8  O   UNL     1      11.531 116.507  18.874  1.00  0.00    -0.295 OA
ENDROOT
BRANCH   5   9
ATOM      9  C   UNL     1       8.290 117.739  22.322  1.00  0.00    -0.077 C 
ATOM     10  C   UNL     1       7.539 118.699  22.889  1.00  0.00     0.008 C 
ATOM     11  C   UNL     1       8.576 116.486  23.110  1.00  0.00     0.039 C 
ENDBRANCH   5   9
TORSDOF 1
ENDMDL
MODEL 7
REMARK VINA RESULT:    -4.379      5.811      7.566
REMARK INTER + INTRA:          -4.731
REMARK INTER:                  -4.634
REMARK INTRA:                  -0.096
REMARK UNBOUND:                -0.096
REMARK SMILES C=C(C)[C@@H]1CC=C(C)C(=O)C1
REMARK SMILES IDX 8 1 7 2 6 3 5 4 4 5 11 6 9 7 10 8 2 9 1 10 3 11
REMARK H PARENT
REMARK Flexibility Score: inf
ROOT
ATOM      1  C   UNL     1      14.572 107.996  20.030  1.00  0.00     0.048 C 
ATOM      2  C   UNL     1      13.965 109.353  19.804  1.00  0.00    -0.012 C 
ATOM      3  C   UNL     1      13.142 109.885  20.724  1.00  0.00    -0.019 C 
ATOM      4  C   UNL     1      12.574 111.273  20.581  1.00  0.00     0.036 C 
ATOM      5  C   UNL     1      12.393 111.651  19.098  1.00  0.00     0.025 C 
ATOM      6  C   UNL     1      13.721 111.481  18.337  1.00  0.00     0.089 C 
ATOM      7  C   UNL     1      14.299 110.113  18.574  1.00  0.00     0.158 C 
ATOM      8  O   UNL     1      15.109 109.634  17.736  1.00  0.00    -0.295 OA
ENDROOT
BRANCH   5   9
ATOM      9  C   UNL     1      11.830 113.057  18.940  1.00  0.00    -0.077 C 
ATOM     10  C   UNL     1      11.468 113.789  20.007  1.00  0.00     0.008 C 
ATOM     11  C   UNL     1      11.670 113.655  17.565  1.00  0.00     0.039 C 
ENDBRANCH   5   9
TORSDOF 1
ENDMDL
MODEL 8
REMARK VINA RESULT:    -4.341      2.185      4.710
REMARK INTER + INTRA:          -4.690
REMARK INTER:                  -4.594
REMARK INTRA:                  -0.096
REMARK UNBOUND:                -0.096
REMARK SMILES C=C(C)[C@@H]1CC=C(C)C(=O)C1
REMARK SMILES IDX 8 1 7 2 6 3 5 4 4 5 11 6 9 7 10 8 2 9 1 10 3 11
REMARK H PARENT
REMARK Flexibility Score: inf
ROOT
ATOM      1  C   UNL     1       9.057 119.719  19.099  1.00  0.00     0.048 C 
ATOM      2  C   UNL     1       9.828 118.433  18.981  1.00  0.00    -0.012 C 
ATOM      3  C   UNL     1      10.552 118.178  17.877  1.00  0.00    -0.019 C 
ATOM      4  C   UNL     1      11.404 116.942  17.747  1.00  0.00     0.036 C 
ATOM      5  C   UNL     1      10.805 115.768  18.544  1.00  0.00     0.025 C 
ATOM      6  C   UNL     1      10.586 116.175  20.013  1.00  0.00     0.089 C 
ATOM      7  C   UNL     1       9.806 117.458  20.099  1.00  0.00     0.158 C 
ATOM      8  O   UNL     1       9.167 117.719  21.153  1.00  0.00    -0.295 OA
ENDROOT
BRANCH   5   9
ATOM      9  C   UNL     1      11.664 114.515  18.430  1.00  0.00    -0.077 C 
ATOM     10  C   UNL     1      12.820 114.520  17.745  1.00  0.00     0.008 C 
ATOM     11  C   UNL     1      11.224 113.235  19.094  1.00  0.00     0.039 C 
ENDBRANCH   5   9
TORSDOF 1
ENDMDL
MODEL 9
REMARK VINA RESULT:    -4.317      5.060      7.684
REMARK INTER + INTRA:          -4.666
REMARK INTER:                  -4.568
REMARK INTRA:                  -0.098
REMARK UNBOUND:                -0.096
REMARK SMILES C=C(C)[C@@H]1CC=C(C)C(=O)C1
REMARK SMILES IDX 8 1 7 2 6 3 5 4 4 5 11 6 9 7 10 8 2 9 1 10 3 11
REMARK H PARENT
REMARK Flexibility Score: inf
ROOT
ATOM      1  C   UNL     1      11.169 114.849  19.265  1.00  0.00     0.048 C 
ATOM      2  C   UNL     1      11.721 113.454  19.380  1.00  0.00    -0.012 C 
ATOM      3  C   UNL     1      11.809 112.861  20.583  1.00  0.00    -0.019 C 
ATOM      4  C   UNL     1      12.279 111.438  20.740  1.00  0.00     0.036 C 
ATOM      5  C   UNL     1      13.285 111.059  19.636  1.00  0.00     0.025 C 
ATOM      6  C   UNL     1      12.678 111.325  18.246  1.00  0.00     0.089 C 
ATOM      7  C   UNL     1      12.144 112.727  18.157  1.00  0.00     0.158 C 
ATOM      8  O   UNL     1      12.016 113.266  17.026  1.00  0.00    -0.295 OA
ENDROOT
BRANCH   5   9
ATOM      9  C   UNL     1      13.758 109.618  19.777  1.00  0.00    -0.077 C 
ATOM     10  C   UNL     1      14.405 108.994  18.778  1.00  0.00     0.008 C 
ATOM     11  C   UNL     1      13.504 108.862  21.056  1.00  0.00     0.039 C 
ENDBRANCH   5   9
TORSDOF 1
ENDMDL
