MODEL 1
REMARK VINA RESULT:    -5.058      0.000      0.000
REMARK INTER + INTRA:         -17.859
REMARK INTER:                 -13.336
REMARK INTRA:                  -4.523
REMARK UNBOUND:                -4.523
REMARK SMILES CCCCCCCCCCCCCCCCCCCCCCCCCCCCCC(=O)[O-]
REMARK SMILES IDX 16 1 17 2 18 3 19 4 20 5 21 6 22 7 23 8 24 9 25 10 26 11
REMARK SMILES IDX 27 12 28 13 29 14 30 15 31 16 32 17 15 18 14 19 13 20 12 21
REMARK SMILES IDX 11 22 10 23 9 24 8 25 7 26 6 27 5 28 4 29 3 30 2 31 1 32
REMARK H PARENT
REMARK Flexibility Score: inf
ROOT
ATOM      1  C   UNL     1     -47.290 -49.246  15.706  1.00  0.00     0.000 C 
ENDROOT
BRANCH   1   2
ATOM      2  C   UNL     1     -47.650 -47.756  15.846  1.00  0.00     0.000 C 
BRANCH   2   3
ATOM      3  C   UNL     1     -47.971 -47.355  17.296  1.00  0.00     0.000 C 
BRANCH   3   4
ATOM      4  C   UNL     1     -47.178 -48.184  18.321  1.00  0.00     0.000 C 
BRANCH   4   5
ATOM      5  C   UNL     1     -47.752 -48.058  19.741  1.00  0.00     0.000 C 
BRANCH   5   6
ATOM      6  C   UNL     1     -49.172 -47.471  19.754  1.00  0.00     0.000 C 
BRANCH   6   7
ATOM      7  C   UNL     1     -49.806 -47.470  21.152  1.00  0.00     0.000 C 
BRANCH   7   8
ATOM      8  C   UNL     1     -48.907 -48.210  22.155  1.00  0.00     0.000 C 
BRANCH   8   9
ATOM      9  C   UNL     1     -49.646 -49.327  22.909  1.00  0.00     0.000 C 
BRANCH   9  10
ATOM     10  C   UNL     1     -50.023 -48.923  24.346  1.00  0.00     0.000 C 
BRANCH  10  11
ATOM     11  C   UNL     1     -49.055 -49.508  25.397  1.00  0.00     0.000 C 
BRANCH  11  12
ATOM     12  C   UNL     1     -47.583 -49.114  25.179  1.00  0.00     0.000 C 
BRANCH  12  13
ATOM     13  C   UNL     1     -46.687 -50.309  24.828  1.00  0.00     0.006 C 
BRANCH  13  14
ATOM     14  C   UNL     1     -45.365 -50.248  25.601  1.00  0.00     0.053 C 
BRANCH  14  15
ATOM     15  C   UNL     1     -44.362 -49.397  24.884  1.00  0.00     0.041 C 
ATOM     16  O   UNL     1     -44.186 -48.196  25.228  1.00  0.00    -0.550 OA
ATOM     17  O   UNL     1     -43.586 -49.939  23.866  1.00  0.00    -0.550 OA
ENDBRANCH  14  15
ENDBRANCH  13  14
ENDBRANCH  12  13
ENDBRANCH  11  12
ENDBRANCH  10  11
ENDBRANCH   9  10
ENDBRANCH   8   9
ENDBRANCH   7   8
ENDBRANCH   6   7
ENDBRANCH   5   6
ENDBRANCH   4   5
ENDBRANCH   3   4
ENDBRANCH   2   3
ENDBRANCH   1   2
BRANCH   1  18
ATOM     18  C   UNL     1     -48.375 -50.124  15.051  1.00  0.00     0.000 C 
BRANCH  18  19
ATOM     19  C   UNL     1     -48.777 -51.379  15.849  1.00  0.00     0.000 C 
BRANCH  19  20
ATOM     20  C   UNL     1     -47.919 -51.585  17.108  1.00  0.00     0.000 C 
BRANCH  20  21
ATOM     21  C   UNL     1     -48.728 -51.475  18.415  1.00  0.00     0.000 C 
BRANCH  21  22
ATOM     22  C   UNL     1     -50.052 -50.695  18.303  1.00  0.00     0.000 C 
BRANCH  22  23
ATOM     23  C   UNL     1     -50.859 -50.688  19.611  1.00  0.00     0.000 C 
BRANCH  23  24
ATOM     24  C   UNL     1     -52.318 -50.284  19.356  1.00  0.00    -0.000 C 
BRANCH  24  25
ATOM     25  C   UNL     1     -52.776 -49.110  20.242  1.00  0.00    -0.000 C 
BRANCH  25  26
ATOM     26  C   UNL     1     -53.291 -49.515  21.637  1.00  0.00    -0.000 C 
BRANCH  26  27
ATOM     27  C   UNL     1     -53.228 -48.402  22.705  1.00  0.00    -0.000 C 
BRANCH  27  28
ATOM     28  C   UNL     1     -53.323 -46.965  22.154  1.00  0.00    -0.000 C 
BRANCH  28  29
ATOM     29  C   UNL     1     -54.738 -46.357  22.161  1.00  0.00    -0.000 C 
BRANCH  29  30
ATOM     30  C   UNL     1     -55.516 -46.506  20.839  1.00  0.00    -0.000 C 
BRANCH  30  31
ATOM     31  C   UNL     1     -56.870 -47.232  20.992  1.00  0.00    -0.003 C 
ATOM     32  C   UNL     1     -56.711 -48.743  21.166  1.00  0.00     0.004 C 
ENDBRANCH  30  31
ENDBRANCH  29  30
ENDBRANCH  28  29
ENDBRANCH  27  28
ENDBRANCH  26  27
ENDBRANCH  25  26
ENDBRANCH  24  25
ENDBRANCH  23  24
ENDBRANCH  22  23
ENDBRANCH  21  22
ENDBRANCH  20  21
ENDBRANCH  19  20
ENDBRANCH  18  19
ENDBRANCH   1  18
TORSDOF 28
ENDMDL
MODEL 2
REMARK VINA RESULT:    -4.974      5.180     11.029
REMARK INTER + INTRA:         -17.639
REMARK INTER:                 -13.242
REMARK INTRA:                  -4.397
REMARK UNBOUND:                -4.523
REMARK SMILES CCCCCCCCCCCCCCCCCCCCCCCCCCCCCC(=O)[O-]
REMARK SMILES IDX 16 1 17 2 18 3 19 4 20 5 21 6 22 7 23 8 24 9 25 10 26 11
REMARK SMILES IDX 27 12 28 13 29 14 30 15 31 16 32 17 15 18 14 19 13 20 12 21
REMARK SMILES IDX 11 22 10 23 9 24 8 25 7 26 6 27 5 28 4 29 3 30 2 31 1 32
REMARK H PARENT
REMARK Flexibility Score: inf
ROOT
ATOM      1  C   UNL     1     -44.452 -50.214  25.282  1.00  0.00     0.000 C 
ENDROOT
BRANCH   1   2
ATOM      2  C   UNL     1     -43.640 -49.425  24.240  1.00  0.00     0.000 C 
BRANCH   2   3
ATOM      3  C   UNL     1     -44.455 -48.304  23.573  1.00  0.00     0.000 C 
BRANCH   3   4
ATOM      4  C   UNL     1     -44.363 -46.976  24.344  1.00  0.00     0.000 C 
BRANCH   4   5
ATOM      5  C   UNL     1     -45.746 -46.445  24.758  1.00  0.00     0.000 C 
BRANCH   5   6
ATOM      6  C   UNL     1     -46.897 -47.272  24.164  1.00  0.00     0.000 C 
BRANCH   6   7
ATOM      7  C   UNL     1     -47.711 -48.017  25.232  1.00  0.00     0.000 C 
BRANCH   7   8
ATOM      8  C   UNL     1     -48.073 -49.430  24.750  1.00  0.00     0.000 C 
BRANCH   8   9
ATOM      9  C   UNL     1     -49.551 -49.780  24.984  1.00  0.00     0.000 C 
BRANCH   9  10
ATOM     10  C   UNL     1     -50.373 -49.780  23.683  1.00  0.00     0.000 C 
BRANCH  10  11
ATOM     11  C   UNL     1     -51.086 -48.432  23.435  1.00  0.00     0.000 C 
BRANCH  11  12
ATOM     12  C   UNL     1     -52.599 -48.563  23.186  1.00  0.00     0.000 C 
BRANCH  12  13
ATOM     13  C   UNL     1     -53.000 -48.233  21.741  1.00  0.00     0.006 C 
BRANCH  13  14
ATOM     14  C   UNL     1     -54.356 -47.520  21.699  1.00  0.00     0.053 C 
BRANCH  14  15
ATOM     15  C   UNL     1     -55.287 -48.191  20.736  1.00  0.00     0.041 C 
ATOM     16  O   UNL     1     -54.893 -48.487  19.575  1.00  0.00    -0.550 OA
ATOM     17  O   UNL     1     -56.574 -48.534  21.131  1.00  0.00    -0.550 OA
ENDBRANCH  14  15
ENDBRANCH  13  14
ENDBRANCH  12  13
ENDBRANCH  11  12
ENDBRANCH  10  11
ENDBRANCH   9  10
ENDBRANCH   8   9
ENDBRANCH   7   8
ENDBRANCH   6   7
ENDBRANCH   5   6
ENDBRANCH   4   5
ENDBRANCH   3   4
ENDBRANCH   2   3
ENDBRANCH   1   2
BRANCH   1  18
ATOM     18  C   UNL     1     -44.000 -50.028  26.744  1.00  0.00     0.000 C 
BRANCH  18  19
ATOM     19  C   UNL     1     -45.081 -49.496  27.705  1.00  0.00     0.000 C 
BRANCH  19  20
ATOM     20  C   UNL     1     -45.055 -47.965  27.842  1.00  0.00     0.000 C 
BRANCH  20  21
ATOM     21  C   UNL     1     -43.799 -47.445  28.567  1.00  0.00     0.000 C 
BRANCH  21  22
ATOM     22  C   UNL     1     -42.925 -46.472  27.752  1.00  0.00     0.000 C 
BRANCH  22  23
ATOM     23  C   UNL     1     -41.810 -47.179  26.966  1.00  0.00     0.000 C 
BRANCH  23  24
ATOM     24  C   UNL     1     -40.671 -47.615  27.898  1.00  0.00    -0.000 C 
BRANCH  24  25
ATOM     25  C   UNL     1     -40.684 -49.127  28.190  1.00  0.00    -0.000 C 
BRANCH  25  26
ATOM     26  C   UNL     1     -40.998 -49.502  29.651  1.00  0.00    -0.000 C 
BRANCH  26  27
ATOM     27  C   UNL     1     -41.911 -50.733  29.828  1.00  0.00    -0.000 C 
BRANCH  27  28
ATOM     28  C   UNL     1     -42.813 -50.701  31.078  1.00  0.00    -0.000 C 
BRANCH  28  29
ATOM     29  C   UNL     1     -44.272 -51.134  30.842  1.00  0.00    -0.000 C 
BRANCH  29  30
ATOM     30  C   UNL     1     -45.335 -50.131  31.331  1.00  0.00    -0.000 C 
BRANCH  30  31
ATOM     31  C   UNL     1     -46.519 -50.791  32.069  1.00  0.00    -0.003 C 
ATOM     32  C   UNL     1     -46.277 -52.271  32.368  1.00  0.00     0.004 C 
ENDBRANCH  30  31
ENDBRANCH  29  30
ENDBRANCH  28  29
ENDBRANCH  27  28
ENDBRANCH  26  27
ENDBRANCH  25  26
ENDBRANCH  24  25
ENDBRANCH  23  24
ENDBRANCH  22  23
ENDBRANCH  21  22
ENDBRANCH  20  21
ENDBRANCH  19  20
ENDBRANCH  18  19
ENDBRANCH   1  18
TORSDOF 28
ENDMDL
MODEL 3
REMARK VINA RESULT:    -4.967      4.140     10.664
REMARK INTER + INTRA:         -17.620
REMARK INTER:                 -12.841
REMARK INTRA:                  -4.778
REMARK UNBOUND:                -4.523
REMARK SMILES CCCCCCCCCCCCCCCCCCCCCCCCCCCCCC(=O)[O-]
REMARK SMILES IDX 16 1 17 2 18 3 19 4 20 5 21 6 22 7 23 8 24 9 25 10 26 11
REMARK SMILES IDX 27 12 28 13 29 14 30 15 31 16 32 17 15 18 14 19 13 20 12 21
REMARK SMILES IDX 11 22 10 23 9 24 8 25 7 26 6 27 5 28 4 29 3 30 2 31 1 32
REMARK H PARENT
REMARK Flexibility Score: inf
ROOT
ATOM      1  C   UNL     1     -44.834 -50.092  25.962  1.00  0.00     0.000 C 
ENDROOT
BRANCH   1   2
ATOM      2  C   UNL     1     -43.712 -49.843  24.938  1.00  0.00     0.000 C 
BRANCH   2   3
ATOM      3  C   UNL     1     -44.128 -48.865  23.826  1.00  0.00     0.000 C 
BRANCH   3   4
ATOM      4  C   UNL     1     -44.449 -47.463  24.371  1.00  0.00     0.000 C 
BRANCH   4   5
ATOM      5  C   UNL     1     -45.909 -47.057  24.110  1.00  0.00     0.000 C 
BRANCH   5   6
ATOM      6  C   UNL     1     -46.729 -46.939  25.405  1.00  0.00     0.000 C 
BRANCH   6   7
ATOM      7  C   UNL     1     -48.028 -47.757  25.366  1.00  0.00     0.000 C 
BRANCH   7   8
ATOM      8  C   UNL     1     -47.965 -48.822  24.260  1.00  0.00     0.000 C 
BRANCH   8   9
ATOM      9  C   UNL     1     -49.114 -49.839  24.346  1.00  0.00     0.000 C 
BRANCH   9  10
ATOM     10  C   UNL     1     -49.837 -50.029  23.000  1.00  0.00     0.000 C 
BRANCH  10  11
ATOM     11  C   UNL     1     -50.234 -48.687  22.348  1.00  0.00     0.000 C 
BRANCH  11  12
ATOM     12  C   UNL     1     -50.075 -48.665  20.817  1.00  0.00     0.000 C 
BRANCH  12  13
ATOM     13  C   UNL     1     -49.265 -49.853  20.281  1.00  0.00     0.006 C 
BRANCH  13  14
ATOM     14  C   UNL     1     -49.455 -50.007  18.768  1.00  0.00     0.053 C 
BRANCH  14  15
ATOM     15  C   UNL     1     -48.227 -50.578  18.128  1.00  0.00     0.041 C 
ATOM     16  O   UNL     1     -47.262 -49.825  17.821  1.00  0.00    -0.550 OA
ATOM     17  O   UNL     1     -48.124 -51.947  17.911  1.00  0.00    -0.550 OA
ENDBRANCH  14  15
ENDBRANCH  13  14
ENDBRANCH  12  13
ENDBRANCH  11  12
ENDBRANCH  10  11
ENDBRANCH   9  10
ENDBRANCH   8   9
ENDBRANCH   7   8
ENDBRANCH   6   7
ENDBRANCH   5   6
ENDBRANCH   4   5
ENDBRANCH   3   4
ENDBRANCH   2   3
ENDBRANCH   1   2
BRANCH   1  18
ATOM     18  C   UNL     1     -44.446 -49.841  27.434  1.00  0.00     0.000 C 
BRANCH  18  19
ATOM     19  C   UNL     1     -45.257 -48.745  28.150  1.00  0.00     0.000 C 
BRANCH  19  20
ATOM     20  C   UNL     1     -44.367 -47.662  28.782  1.00  0.00     0.000 C 
BRANCH  20  21
ATOM     21  C   UNL     1     -43.616 -46.814  27.738  1.00  0.00     0.000 C 
BRANCH  21  22
ATOM     22  C   UNL     1     -42.079 -46.837  27.855  1.00  0.00     0.000 C 
BRANCH  22  23
ATOM     23  C   UNL     1     -41.414 -47.805  26.864  1.00  0.00     0.000 C 
BRANCH  23  24
ATOM     24  C   UNL     1     -40.617 -48.890  27.603  1.00  0.00    -0.000 C 
BRANCH  24  25
ATOM     25  C   UNL     1     -40.889 -48.901  29.119  1.00  0.00    -0.000 C 
BRANCH  25  26
ATOM     26  C   UNL     1     -41.546 -50.191  29.649  1.00  0.00    -0.000 C 
BRANCH  26  27
ATOM     27  C   UNL     1     -42.616 -49.978  30.740  1.00  0.00    -0.000 C 
BRANCH  27  28
ATOM     28  C   UNL     1     -42.697 -51.095  31.799  1.00  0.00    -0.000 C 
BRANCH  28  29
ATOM     29  C   UNL     1     -44.111 -51.386  32.334  1.00  0.00    -0.000 C 
BRANCH  29  30
ATOM     30  C   UNL     1     -45.233 -51.311  31.280  1.00  0.00    -0.000 C 
BRANCH  30  31
ATOM     31  C   UNL     1     -46.579 -50.801  31.837  1.00  0.00    -0.003 C 
ATOM     32  C   UNL     1     -46.868 -49.352  31.444  1.00  0.00     0.004 C 
ENDBRANCH  30  31
ENDBRANCH  29  30
ENDBRANCH  28  29
ENDBRANCH  27  28
ENDBRANCH  26  27
ENDBRANCH  25  26
ENDBRANCH  24  25
ENDBRANCH  23  24
ENDBRANCH  22  23
ENDBRANCH  21  22
ENDBRANCH  20  21
ENDBRANCH  19  20
ENDBRANCH  18  19
ENDBRANCH   1  18
TORSDOF 28
ENDMDL
MODEL 4
REMARK VINA RESULT:    -4.961      4.290      8.302
REMARK INTER + INTRA:         -17.606
REMARK INTER:                 -12.024
REMARK INTRA:                  -5.581
REMARK UNBOUND:                -4.523
REMARK SMILES CCCCCCCCCCCCCCCCCCCCCCCCCCCCCC(=O)[O-]
REMARK SMILES IDX 16 1 17 2 18 3 19 4 20 5 21 6 22 7 23 8 24 9 25 10 26 11
REMARK SMILES IDX 27 12 28 13 29 14 30 15 31 16 32 17 15 18 14 19 13 20 12 21
REMARK SMILES IDX 11 22 10 23 9 24 8 25 7 26 6 27 5 28 4 29 3 30 2 31 1 32
REMARK H PARENT
REMARK Flexibility Score: inf
ROOT
ATOM      1  C   UNL     1     -44.176 -50.195  26.288  1.00  0.00     0.000 C 
ENDROOT
BRANCH   1   2
ATOM      2  C   UNL     1     -44.776 -49.777  27.642  1.00  0.00     0.000 C 
BRANCH   2   3
ATOM      3  C   UNL     1     -45.310 -48.334  27.637  1.00  0.00     0.000 C 
BRANCH   3   4
ATOM      4  C   UNL     1     -44.437 -47.385  28.475  1.00  0.00     0.000 C 
BRANCH   4   5
ATOM      5  C   UNL     1     -44.028 -46.126  27.693  1.00  0.00     0.000 C 
BRANCH   5   6
ATOM      6  C   UNL     1     -42.516 -46.061  27.426  1.00  0.00     0.000 C 
BRANCH   6   7
ATOM      7  C   UNL     1     -42.068 -46.999  26.296  1.00  0.00     0.000 C 
BRANCH   7   8
ATOM      8  C   UNL     1     -41.220 -48.153  26.853  1.00  0.00     0.000 C 
BRANCH   8   9
ATOM      9  C   UNL     1     -40.259 -47.704  27.965  1.00  0.00     0.000 C 
BRANCH   9  10
ATOM     10  C   UNL     1     -40.256 -48.664  29.168  1.00  0.00     0.000 C 
BRANCH  10  11
ATOM     11  C   UNL     1     -41.494 -49.586  29.192  1.00  0.00     0.000 C 
BRANCH  11  12
ATOM     12  C   UNL     1     -42.247 -49.587  30.534  1.00  0.00     0.000 C 
BRANCH  12  13
ATOM     13  C   UNL     1     -42.643 -50.995  30.999  1.00  0.00     0.006 C 
BRANCH  13  14
ATOM     14  C   UNL     1     -44.166 -51.165  30.995  1.00  0.00     0.053 C 
BRANCH  14  15
ATOM     15  C   UNL     1     -44.668 -51.549  32.353  1.00  0.00     0.041 C 
ATOM     16  O   UNL     1     -45.905 -51.681  32.558  1.00  0.00    -0.550 OA
ATOM     17  O   UNL     1     -43.771 -51.808  33.383  1.00  0.00    -0.550 OA
ENDBRANCH  14  15
ENDBRANCH  13  14
ENDBRANCH  12  13
ENDBRANCH  11  12
ENDBRANCH  10  11
ENDBRANCH   9  10
ENDBRANCH   8   9
ENDBRANCH   7   8
ENDBRANCH   6   7
ENDBRANCH   5   6
ENDBRANCH   4   5
ENDBRANCH   3   4
ENDBRANCH   2   3
ENDBRANCH   1   2
BRANCH   1  18
ATOM     18  C   UNL     1     -45.015 -49.812  25.053  1.00  0.00     0.000 C 
BRANCH  18  19
ATOM     19  C   UNL     1     -44.354 -48.804  24.094  1.00  0.00     0.000 C 
BRANCH  19  20
ATOM     20  C   UNL     1     -45.142 -47.488  23.977  1.00  0.00     0.000 C 
BRANCH  20  21
ATOM     21  C   UNL     1     -46.587 -47.691  23.483  1.00  0.00     0.000 C 
BRANCH  21  22
ATOM     22  C   UNL     1     -47.596 -46.623  23.946  1.00  0.00     0.000 C 
BRANCH  22  23
ATOM     23  C   UNL     1     -48.245 -46.954  25.300  1.00  0.00     0.000 C 
BRANCH  23  24
ATOM     24  C   UNL     1     -48.344 -48.473  25.506  1.00  0.00    -0.000 C 
BRANCH  24  25
ATOM     25  C   UNL     1     -49.695 -49.051  25.044  1.00  0.00    -0.000 C 
BRANCH  25  26
ATOM     26  C   UNL     1     -49.604 -50.065  23.887  1.00  0.00    -0.000 C 
BRANCH  26  27
ATOM     27  C   UNL     1     -50.383 -49.674  22.614  1.00  0.00    -0.000 C 
BRANCH  27  28
ATOM     28  C   UNL     1     -49.655 -48.683  21.684  1.00  0.00    -0.000 C 
BRANCH  28  29
ATOM     29  C   UNL     1     -50.408 -47.366  21.417  1.00  0.00    -0.000 C 
BRANCH  29  30
ATOM     30  C   UNL     1     -51.638 -47.127  22.315  1.00  0.00    -0.000 C 
BRANCH  30  31
ATOM     31  C   UNL     1     -51.387 -46.121  23.459  1.00  0.00    -0.003 C 
ATOM     32  C   UNL     1     -52.202 -46.441  24.713  1.00  0.00     0.004 C 
ENDBRANCH  30  31
ENDBRANCH  29  30
ENDBRANCH  28  29
ENDBRANCH  27  28
ENDBRANCH  26  27
ENDBRANCH  25  26
ENDBRANCH  24  25
ENDBRANCH  23  24
ENDBRANCH  22  23
ENDBRANCH  21  22
ENDBRANCH  20  21
ENDBRANCH  19  20
ENDBRANCH  18  19
ENDBRANCH   1  18
TORSDOF 28
ENDMDL
MODEL 5
REMARK VINA RESULT:    -4.950      4.252      8.572
REMARK INTER + INTRA:         -17.575
REMARK INTER:                 -12.438
REMARK INTRA:                  -5.137
REMARK UNBOUND:                -4.523
REMARK SMILES CCCCCCCCCCCCCCCCCCCCCCCCCCCCCC(=O)[O-]
REMARK SMILES IDX 16 1 17 2 18 3 19 4 20 5 21 6 22 7 23 8 24 9 25 10 26 11
REMARK SMILES IDX 27 12 28 13 29 14 30 15 31 16 32 17 15 18 14 19 13 20 12 21
REMARK SMILES IDX 11 22 10 23 9 24 8 25 7 26 6 27 5 28 4 29 3 30 2 31 1 32
REMARK H PARENT
REMARK Flexibility Score: inf
ROOT
ATOM      1  C   UNL     1     -44.261 -50.008  26.979  1.00  0.00     0.000 C 
ENDROOT
BRANCH   1   2
ATOM      2  C   UNL     1     -45.124 -48.993  27.747  1.00  0.00     0.000 C 
BRANCH   2   3
ATOM      3  C   UNL     1     -44.290 -48.054  28.637  1.00  0.00     0.000 C 
BRANCH   3   4
ATOM      4  C   UNL     1     -44.028 -46.694  27.966  1.00  0.00     0.000 C 
BRANCH   4   5
ATOM      5  C   UNL     1     -42.639 -46.626  27.312  1.00  0.00     0.000 C 
BRANCH   5   6
ATOM      6  C   UNL     1     -41.552 -47.304  28.162  1.00  0.00     0.000 C 
BRANCH   6   7
ATOM      7  C   UNL     1     -40.976 -48.565  27.500  1.00  0.00     0.000 C 
BRANCH   7   8
ATOM      8  C   UNL     1     -40.922 -49.727  28.505  1.00  0.00     0.000 C 
BRANCH   8   9
ATOM      9  C   UNL     1     -41.023 -49.258  29.965  1.00  0.00     0.000 C 
BRANCH   9  10
ATOM     10  C   UNL     1     -41.935 -50.161  30.815  1.00  0.00     0.000 C 
BRANCH  10  11
ATOM     11  C   UNL     1     -42.658 -51.232  29.970  1.00  0.00     0.000 C 
BRANCH  11  12
ATOM     12  C   UNL     1     -44.126 -51.459  30.373  1.00  0.00     0.000 C 
BRANCH  12  13
ATOM     13  C   UNL     1     -44.458 -50.910  31.768  1.00  0.00     0.006 C 
BRANCH  13  14
ATOM     14  C   UNL     1     -45.715 -50.035  31.727  1.00  0.00     0.053 C 
BRANCH  14  15
ATOM     15  C   UNL     1     -46.383 -49.992  33.068  1.00  0.00     0.041 C 
ATOM     16  O   UNL     1     -47.219 -49.084  33.331  1.00  0.00    -0.550 OA
ATOM     17  O   UNL     1     -46.120 -50.977  34.012  1.00  0.00    -0.550 OA
ENDBRANCH  14  15
ENDBRANCH  13  14
ENDBRANCH  12  13
ENDBRANCH  11  12
ENDBRANCH  10  11
ENDBRANCH   9  10
ENDBRANCH   8   9
ENDBRANCH   7   8
ENDBRANCH   6   7
ENDBRANCH   5   6
ENDBRANCH   4   5
ENDBRANCH   3   4
ENDBRANCH   2   3
ENDBRANCH   1   2
BRANCH   1  18
ATOM     18  C   UNL     1     -44.450 -50.003  25.448  1.00  0.00     0.000 C 
BRANCH  18  19
ATOM     19  C   UNL     1     -43.572 -48.998  24.679  1.00  0.00     0.000 C 
BRANCH  19  20
ATOM     20  C   UNL     1     -44.336 -47.727  24.274  1.00  0.00     0.000 C 
BRANCH  20  21
ATOM     21  C   UNL     1     -45.834 -47.978  24.021  1.00  0.00     0.000 C 
BRANCH  21  22
ATOM     22  C   UNL     1     -46.796 -47.188  24.929  1.00  0.00     0.000 C 
BRANCH  22  23
ATOM     23  C   UNL     1     -47.909 -48.059  25.531  1.00  0.00     0.000 C 
BRANCH  23  24
ATOM     24  C   UNL     1     -47.936 -49.448  24.877  1.00  0.00    -0.000 C 
BRANCH  24  25
ATOM     25  C   UNL     1     -49.363 -49.934  24.564  1.00  0.00    -0.000 C 
BRANCH  25  26
ATOM     26  C   UNL     1     -50.180 -48.998  23.653  1.00  0.00    -0.000 C 
BRANCH  26  27
ATOM     27  C   UNL     1     -49.488 -48.605  22.331  1.00  0.00    -0.000 C 
BRANCH  27  28
ATOM     28  C   UNL     1     -49.700 -49.593  21.166  1.00  0.00    -0.000 C 
BRANCH  28  29
ATOM     29  C   UNL     1     -51.113 -50.196  21.072  1.00  0.00    -0.000 C 
BRANCH  29  30
ATOM     30  C   UNL     1     -52.136 -49.337  20.302  1.00  0.00    -0.000 C 
BRANCH  30  31
ATOM     31  C   UNL     1     -52.980 -48.414  21.207  1.00  0.00    -0.003 C 
ATOM     32  C   UNL     1     -54.166 -49.139  21.845  1.00  0.00     0.004 C 
ENDBRANCH  30  31
ENDBRANCH  29  30
ENDBRANCH  28  29
ENDBRANCH  27  28
ENDBRANCH  26  27
ENDBRANCH  25  26
ENDBRANCH  24  25
ENDBRANCH  23  24
ENDBRANCH  22  23
ENDBRANCH  21  22
ENDBRANCH  20  21
ENDBRANCH  19  20
ENDBRANCH  18  19
ENDBRANCH   1  18
TORSDOF 28
ENDMDL
MODEL 6
REMARK VINA RESULT:    -4.946      3.982     10.435
REMARK INTER + INTRA:         -17.565
REMARK INTER:                 -13.427
REMARK INTRA:                  -4.138
REMARK UNBOUND:                -4.523
REMARK SMILES CCCCCCCCCCCCCCCCCCCCCCCCCCCCCC(=O)[O-]
REMARK SMILES IDX 16 1 17 2 18 3 19 4 20 5 21 6 22 7 23 8 24 9 25 10 26 11
REMARK SMILES IDX 27 12 28 13 29 14 30 15 31 16 32 17 15 18 14 19 13 20 12 21
REMARK SMILES IDX 11 22 10 23 9 24 8 25 7 26 6 27 5 28 4 29 3 30 2 31 1 32
REMARK H PARENT
REMARK Flexibility Score: inf
ROOT
ATOM      1  C   UNL     1     -47.352 -50.173  24.741  1.00  0.00     0.000 C 
ENDROOT
BRANCH   1   2
ATOM      2  C   UNL     1     -48.389 -49.382  23.925  1.00  0.00     0.000 C 
BRANCH   2   3
ATOM      3  C   UNL     1     -49.799 -49.991  24.002  1.00  0.00     0.000 C 
BRANCH   3   4
ATOM      4  C   UNL     1     -50.720 -49.215  24.959  1.00  0.00     0.000 C 
BRANCH   4   5
ATOM      5  C   UNL     1     -50.245 -47.769  25.179  1.00  0.00     0.000 C 
BRANCH   5   6
ATOM      6  C   UNL     1     -51.300 -46.732  24.760  1.00  0.00     0.000 C 
BRANCH   6   7
ATOM      7  C   UNL     1     -52.658 -47.364  24.422  1.00  0.00     0.000 C 
BRANCH   7   8
ATOM      8  C   UNL     1     -53.387 -46.540  23.348  1.00  0.00     0.000 C 
BRANCH   8   9
ATOM      9  C   UNL     1     -53.666 -47.342  22.068  1.00  0.00     0.000 C 
BRANCH   9  10
ATOM     10  C   UNL     1     -52.944 -48.702  22.052  1.00  0.00     0.000 C 
BRANCH  10  11
ATOM     11  C   UNL     1     -51.831 -48.768  20.983  1.00  0.00     0.000 C 
BRANCH  11  12
ATOM     12  C   UNL     1     -50.704 -47.740  21.191  1.00  0.00     0.000 C 
BRANCH  12  13
ATOM     13  C   UNL     1     -49.427 -48.085  20.412  1.00  0.00     0.006 C 
BRANCH  13  14
ATOM     14  C   UNL     1     -49.279 -49.601  20.247  1.00  0.00     0.053 C 
BRANCH  14  15
ATOM     15  C   UNL     1     -48.915 -49.955  18.837  1.00  0.00     0.041 C 
ATOM     16  O   UNL     1     -49.808 -50.324  18.026  1.00  0.00    -0.550 OA
ATOM     17  O   UNL     1     -47.601 -49.834  18.402  1.00  0.00    -0.550 OA
ENDBRANCH  14  15
ENDBRANCH  13  14
ENDBRANCH  12  13
ENDBRANCH  11  12
ENDBRANCH  10  11
ENDBRANCH   9  10
ENDBRANCH   8   9
ENDBRANCH   7   8
ENDBRANCH   6   7
ENDBRANCH   5   6
ENDBRANCH   4   5
ENDBRANCH   3   4
ENDBRANCH   2   3
ENDBRANCH   1   2
BRANCH   1  18
ATOM     18  C   UNL     1     -46.257 -49.321  25.413  1.00  0.00     0.000 C 
BRANCH  18  19
ATOM     19  C   UNL     1     -44.926 -50.049  25.678  1.00  0.00     0.000 C 
BRANCH  19  20
ATOM     20  C   UNL     1     -44.504 -50.002  27.157  1.00  0.00     0.000 C 
BRANCH  20  21
ATOM     21  C   UNL     1     -45.168 -48.851  27.937  1.00  0.00     0.000 C 
BRANCH  21  22
ATOM     22  C   UNL     1     -44.196 -47.914  28.680  1.00  0.00     0.000 C 
BRANCH  22  23
ATOM     23  C   UNL     1     -42.978 -47.515  27.832  1.00  0.00     0.000 C 
BRANCH  23  24
ATOM     24  C   UNL     1     -41.668 -47.911  28.530  1.00  0.00    -0.000 C 
BRANCH  24  25
ATOM     25  C   UNL     1     -41.152 -49.294  28.091  1.00  0.00    -0.000 C 
BRANCH  25  26
ATOM     26  C   UNL     1     -41.386 -50.425  29.110  1.00  0.00    -0.000 C 
BRANCH  26  27
ATOM     27  C   UNL     1     -41.566 -49.961  30.571  1.00  0.00    -0.000 C 
BRANCH  27  28
ATOM     28  C   UNL     1     -42.497 -50.845  31.425  1.00  0.00    -0.000 C 
BRANCH  28  29
ATOM     29  C   UNL     1     -44.000 -50.548  31.270  1.00  0.00    -0.000 C 
BRANCH  29  30
ATOM     30  C   UNL     1     -44.827 -51.691  30.647  1.00  0.00    -0.000 C 
BRANCH  30  31
ATOM     31  C   UNL     1     -45.838 -52.330  31.623  1.00  0.00    -0.003 C 
ATOM     32  C   UNL     1     -45.397 -52.221  33.083  1.00  0.00     0.004 C 
ENDBRANCH  30  31
ENDBRANCH  29  30
ENDBRANCH  28  29
ENDBRANCH  27  28
ENDBRANCH  26  27
ENDBRANCH  25  26
ENDBRANCH  24  25
ENDBRANCH  23  24
ENDBRANCH  22  23
ENDBRANCH  21  22
ENDBRANCH  20  21
ENDBRANCH  19  20
ENDBRANCH  18  19
ENDBRANCH   1  18
TORSDOF 28
ENDMDL
MODEL 7
REMARK VINA RESULT:    -4.938      4.278      8.863
REMARK INTER + INTRA:         -17.544
REMARK INTER:                 -12.521
REMARK INTRA:                  -5.023
REMARK UNBOUND:                -4.523
REMARK SMILES CCCCCCCCCCCCCCCCCCCCCCCCCCCCCC(=O)[O-]
REMARK SMILES IDX 16 1 17 2 18 3 19 4 20 5 21 6 22 7 23 8 24 9 25 10 26 11
REMARK SMILES IDX 27 12 28 13 29 14 30 15 31 16 32 17 15 18 14 19 13 20 12 21
REMARK SMILES IDX 11 22 10 23 9 24 8 25 7 26 6 27 5 28 4 29 3 30 2 31 1 32
REMARK H PARENT
REMARK Flexibility Score: inf
ROOT
ATOM      1  C   UNL     1     -45.221 -48.828  27.459  1.00  0.00     0.000 C 
ENDROOT
BRANCH   1   2
ATOM      2  C   UNL     1     -44.512 -47.904  28.464  1.00  0.00     0.000 C 
BRANCH   2   3
ATOM      3  C   UNL     1     -44.226 -46.506  27.889  1.00  0.00     0.000 C 
BRANCH   3   4
ATOM      4  C   UNL     1     -42.886 -46.447  27.136  1.00  0.00     0.000 C 
BRANCH   4   5
ATOM      5  C   UNL     1     -41.736 -47.073  27.942  1.00  0.00     0.000 C 
BRANCH   5   6
ATOM      6  C   UNL     1     -41.105 -48.281  27.231  1.00  0.00     0.000 C 
BRANCH   6   7
ATOM      7  C   UNL     1     -40.674 -49.388  28.204  1.00  0.00     0.000 C 
BRANCH   7   8
ATOM      8  C   UNL     1     -40.369 -48.802  29.591  1.00  0.00     0.000 C 
BRANCH   8   9
ATOM      9  C   UNL     1     -40.987 -49.623  30.734  1.00  0.00     0.000 C 
BRANCH   9  10
ATOM     10  C   UNL     1     -42.040 -50.630  30.237  1.00  0.00     0.000 C 
BRANCH  10  11
ATOM     11  C   UNL     1     -43.449 -50.337  30.799  1.00  0.00     0.000 C 
BRANCH  11  12
ATOM     12  C   UNL     1     -44.526 -51.333  30.333  1.00  0.00     0.000 C 
BRANCH  12  13
ATOM     13  C   UNL     1     -45.458 -51.783  31.467  1.00  0.00     0.006 C 
BRANCH  13  14
ATOM     14  C   UNL     1     -45.508 -50.735  32.583  1.00  0.00     0.053 C 
BRANCH  14  15
ATOM     15  C   UNL     1     -46.714 -49.857  32.442  1.00  0.00     0.041 C 
ATOM     16  O   UNL     1     -47.300 -49.758  31.330  1.00  0.00    -0.550 OA
ATOM     17  O   UNL     1     -47.222 -49.184  33.547  1.00  0.00    -0.550 OA
ENDBRANCH  14  15
ENDBRANCH  13  14
ENDBRANCH  12  13
ENDBRANCH  11  12
ENDBRANCH  10  11
ENDBRANCH   9  10
ENDBRANCH   8   9
ENDBRANCH   7   8
ENDBRANCH   6   7
ENDBRANCH   5   6
ENDBRANCH   4   5
ENDBRANCH   3   4
ENDBRANCH   2   3
ENDBRANCH   1   2
BRANCH   1  18
ATOM     18  C   UNL     1     -44.359 -49.982  26.907  1.00  0.00     0.000 C 
BRANCH  18  19
ATOM     19  C   UNL     1     -44.386 -50.151  25.377  1.00  0.00     0.000 C 
BRANCH  19  20
ATOM     20  C   UNL     1     -43.711 -48.984  24.636  1.00  0.00     0.000 C 
BRANCH  20  21
ATOM     21  C   UNL     1     -44.680 -48.208  23.723  1.00  0.00     0.000 C 
BRANCH  21  22
ATOM     22  C   UNL     1     -45.271 -46.923  24.334  1.00  0.00     0.000 C 
BRANCH  22  23
ATOM     23  C   UNL     1     -46.807 -46.915  24.350  1.00  0.00     0.000 C 
BRANCH  23  24
ATOM     24  C   UNL     1     -47.369 -48.292  23.970  1.00  0.00    -0.000 C 
BRANCH  24  25
ATOM     25  C   UNL     1     -48.061 -49.001  25.149  1.00  0.00    -0.000 C 
BRANCH  25  26
ATOM     26  C   UNL     1     -49.041 -50.121  24.747  1.00  0.00    -0.000 C 
BRANCH  26  27
ATOM     27  C   UNL     1     -50.531 -49.800  24.983  1.00  0.00    -0.000 C 
BRANCH  27  28
ATOM     28  C   UNL     1     -50.987 -48.415  24.480  1.00  0.00    -0.000 C 
BRANCH  28  29
ATOM     29  C   UNL     1     -51.821 -48.434  23.186  1.00  0.00    -0.000 C 
BRANCH  29  30
ATOM     30  C   UNL     1     -51.163 -47.736  21.979  1.00  0.00    -0.000 C 
BRANCH  30  31
ATOM     31  C   UNL     1     -50.111 -48.603  21.256  1.00  0.00    -0.003 C 
ATOM     32  C   UNL     1     -48.912 -47.789  20.766  1.00  0.00     0.004 C 
ENDBRANCH  30  31
ENDBRANCH  29  30
ENDBRANCH  28  29
ENDBRANCH  27  28
ENDBRANCH  26  27
ENDBRANCH  25  26
ENDBRANCH  24  25
ENDBRANCH  23  24
ENDBRANCH  22  23
ENDBRANCH  21  22
ENDBRANCH  20  21
ENDBRANCH  19  20
ENDBRANCH  18  19
ENDBRANCH   1  18
TORSDOF 28
ENDMDL
MODEL 8
REMARK VINA RESULT:    -4.933      4.033      8.178
REMARK INTER + INTRA:         -17.532
REMARK INTER:                 -12.241
REMARK INTRA:                  -5.291
REMARK UNBOUND:                -4.523
REMARK SMILES CCCCCCCCCCCCCCCCCCCCCCCCCCCCCC(=O)[O-]
REMARK SMILES IDX 16 1 17 2 18 3 19 4 20 5 21 6 22 7 23 8 24 9 25 10 26 11
REMARK SMILES IDX 27 12 28 13 29 14 30 15 31 16 32 17 15 18 14 19 13 20 12 21
REMARK SMILES IDX 11 22 10 23 9 24 8 25 7 26 6 27 5 28 4 29 3 30 2 31 1 32
REMARK H PARENT
REMARK Flexibility Score: inf
ROOT
ATOM      1  C   UNL     1     -44.044 -50.020  26.565  1.00  0.00     0.000 C 
ENDROOT
BRANCH   1   2
ATOM      2  C   UNL     1     -44.933 -49.326  27.612  1.00  0.00     0.000 C 
BRANCH   2   3
ATOM      3  C   UNL     1     -45.032 -47.805  27.396  1.00  0.00     0.000 C 
BRANCH   3   4
ATOM      4  C   UNL     1     -44.212 -47.014  28.428  1.00  0.00     0.000 C 
BRANCH   4   5
ATOM      5  C   UNL     1     -43.136 -46.136  27.769  1.00  0.00     0.000 C 
BRANCH   5   6
ATOM      6  C   UNL     1     -42.969 -46.434  26.270  1.00  0.00     0.000 C 
BRANCH   6   7
ATOM      7  C   UNL     1     -41.645 -47.142  25.946  1.00  0.00     0.000 C 
BRANCH   7   8
ATOM      8  C   UNL     1     -40.785 -47.287  27.211  1.00  0.00     0.000 C 
BRANCH   8   9
ATOM      9  C   UNL     1     -40.656 -48.745  27.680  1.00  0.00     0.000 C 
BRANCH   9  10
ATOM     10  C   UNL     1     -40.942 -48.910  29.184  1.00  0.00     0.000 C 
BRANCH  10  11
ATOM     11  C   UNL     1     -41.773 -50.176  29.491  1.00  0.00     0.000 C 
BRANCH  11  12
ATOM     12  C   UNL     1     -42.818 -49.982  30.604  1.00  0.00     0.000 C 
BRANCH  12  13
ATOM     13  C   UNL     1     -43.862 -51.106  30.650  1.00  0.00     0.006 C 
BRANCH  13  14
ATOM     14  C   UNL     1     -45.207 -50.584  31.164  1.00  0.00     0.053 C 
BRANCH  14  15
ATOM     15  C   UNL     1     -45.546 -51.188  32.493  1.00  0.00     0.041 C 
ATOM     16  O   UNL     1     -45.914 -50.451  33.449  1.00  0.00    -0.550 OA
ATOM     17  O   UNL     1     -45.501 -52.566  32.667  1.00  0.00    -0.550 OA
ENDBRANCH  14  15
ENDBRANCH  13  14
ENDBRANCH  12  13
ENDBRANCH  11  12
ENDBRANCH  10  11
ENDBRANCH   9  10
ENDBRANCH   8   9
ENDBRANCH   7   8
ENDBRANCH   6   7
ENDBRANCH   5   6
ENDBRANCH   4   5
ENDBRANCH   3   4
ENDBRANCH   2   3
ENDBRANCH   1   2
BRANCH   1  18
ATOM     18  C   UNL     1     -44.651 -50.119  25.151  1.00  0.00     0.000 C 
BRANCH  18  19
ATOM     19  C   UNL     1     -43.887 -49.357  24.052  1.00  0.00     0.000 C 
BRANCH  19  20
ATOM     20  C   UNL     1     -44.641 -48.113  23.553  1.00  0.00     0.000 C 
BRANCH  20  21
ATOM     21  C   UNL     1     -46.145 -48.146  23.885  1.00  0.00     0.000 C 
BRANCH  21  22
ATOM     22  C   UNL     1     -46.807 -46.768  24.071  1.00  0.00     0.000 C 
BRANCH  22  23
ATOM     23  C   UNL     1     -48.132 -46.627  23.305  1.00  0.00     0.000 C 
BRANCH  23  24
ATOM     24  C   UNL     1     -48.154 -47.542  22.072  1.00  0.00    -0.000 C 
BRANCH  24  25
ATOM     25  C   UNL     1     -49.313 -47.220  21.110  1.00  0.00    -0.000 C 
BRANCH  25  26
ATOM     26  C   UNL     1     -50.222 -48.416  20.768  1.00  0.00    -0.000 C 
BRANCH  26  27
ATOM     27  C   UNL     1     -51.571 -48.447  21.517  1.00  0.00    -0.000 C 
BRANCH  27  28
ATOM     28  C   UNL     1     -51.885 -47.184  22.344  1.00  0.00    -0.000 C 
BRANCH  28  29
ATOM     29  C   UNL     1     -52.010 -47.413  23.862  1.00  0.00    -0.000 C 
BRANCH  29  30
ATOM     30  C   UNL     1     -51.788 -48.868  24.320  1.00  0.00    -0.000 C 
BRANCH  30  31
ATOM     31  C   UNL     1     -50.439 -49.096  25.036  1.00  0.00    -0.003 C 
ATOM     32  C   UNL     1     -49.524 -50.058  24.277  1.00  0.00     0.004 C 
ENDBRANCH  30  31
ENDBRANCH  29  30
ENDBRANCH  28  29
ENDBRANCH  27  28
ENDBRANCH  26  27
ENDBRANCH  25  26
ENDBRANCH  24  25
ENDBRANCH  23  24
ENDBRANCH  22  23
ENDBRANCH  21  22
ENDBRANCH  20  21
ENDBRANCH  19  20
ENDBRANCH  18  19
ENDBRANCH   1  18
TORSDOF 28
ENDMDL
MODEL 9
REMARK VINA RESULT:    -4.893      3.989      7.961
REMARK INTER + INTRA:         -17.425
REMARK INTER:                 -12.444
REMARK INTRA:                  -4.981
REMARK UNBOUND:                -4.523
REMARK SMILES CCCCCCCCCCCCCCCCCCCCCCCCCCCCCC(=O)[O-]
REMARK SMILES IDX 16 1 17 2 18 3 19 4 20 5 21 6 22 7 23 8 24 9 25 10 26 11
REMARK SMILES IDX 27 12 28 13 29 14 30 15 31 16 32 17 15 18 14 19 13 20 12 21
REMARK SMILES IDX 11 22 10 23 9 24 8 25 7 26 6 27 5 28 4 29 3 30 2 31 1 32
REMARK H PARENT
REMARK Flexibility Score: inf
ROOT
ATOM      1  C   UNL     1     -43.916 -49.010  24.373  1.00  0.00     0.000 C 
ENDROOT
BRANCH   1   2
ATOM      2  C   UNL     1     -44.569 -50.050  25.300  1.00  0.00     0.000 C 
BRANCH   2   3
ATOM      3  C   UNL     1     -44.115 -49.912  26.763  1.00  0.00     0.000 C 
BRANCH   3   4
ATOM      4  C   UNL     1     -45.028 -48.974  27.571  1.00  0.00     0.000 C 
BRANCH   4   5
ATOM      5  C   UNL     1     -44.232 -47.912  28.347  1.00  0.00     0.000 C 
BRANCH   5   6
ATOM      6  C   UNL     1     -44.149 -46.573  27.597  1.00  0.00     0.000 C 
BRANCH   6   7
ATOM      7  C   UNL     1     -42.712 -46.043  27.477  1.00  0.00     0.000 C 
BRANCH   7   8
ATOM      8  C   UNL     1     -41.821 -47.054  26.738  1.00  0.00     0.000 C 
BRANCH   8   9
ATOM      9  C   UNL     1     -40.577 -47.454  27.545  1.00  0.00     0.000 C 
BRANCH   9  10
ATOM     10  C   UNL     1     -40.567 -48.947  27.917  1.00  0.00     0.000 C 
BRANCH  10  11
ATOM     11  C   UNL     1     -40.973 -49.192  29.387  1.00  0.00     0.000 C 
BRANCH  11  12
ATOM     12  C   UNL     1     -41.757 -50.498  29.610  1.00  0.00     0.000 C 
BRANCH  12  13
ATOM     13  C   UNL     1     -42.864 -50.361  30.664  1.00  0.00     0.006 C 
BRANCH  13  14
ATOM     14  C   UNL     1     -42.498 -51.122  31.943  1.00  0.00     0.053 C 
BRANCH  14  15
ATOM     15  C   UNL     1     -43.727 -51.502  32.712  1.00  0.00     0.041 C 
ATOM     16  O   UNL     1     -44.849 -51.535  32.138  1.00  0.00    -0.550 OA
ATOM     17  O   UNL     1     -43.630 -51.865  34.050  1.00  0.00    -0.550 OA
ENDBRANCH  14  15
ENDBRANCH  13  14
ENDBRANCH  12  13
ENDBRANCH  11  12
ENDBRANCH  10  11
ENDBRANCH   9  10
ENDBRANCH   8   9
ENDBRANCH   7   8
ENDBRANCH   6   7
ENDBRANCH   5   6
ENDBRANCH   4   5
ENDBRANCH   3   4
ENDBRANCH   2   3
ENDBRANCH   1   2
BRANCH   1  18
ATOM     18  C   UNL     1     -44.720 -47.708  24.179  1.00  0.00     0.000 C 
BRANCH  18  19
ATOM     19  C   UNL     1     -46.134 -47.888  23.595  1.00  0.00     0.000 C 
BRANCH  19  20
ATOM     20  C   UNL     1     -47.244 -47.551  24.605  1.00  0.00     0.000 C 
BRANCH  20  21
ATOM     21  C   UNL     1     -47.943 -48.801  25.171  1.00  0.00     0.000 C 
BRANCH  21  22
ATOM     22  C   UNL     1     -48.253 -49.905  24.141  1.00  0.00     0.000 C 
BRANCH  22  23
ATOM     23  C   UNL     1     -49.754 -50.209  24.017  1.00  0.00     0.000 C 
BRANCH  23  24
ATOM     24  C   UNL     1     -50.567 -49.390  25.030  1.00  0.00    -0.000 C 
BRANCH  24  25
ATOM     25  C   UNL     1     -51.742 -48.634  24.381  1.00  0.00    -0.000 C 
BRANCH  25  26
ATOM     26  C   UNL     1     -51.332 -47.556  23.360  1.00  0.00    -0.000 C 
BRANCH  26  27
ATOM     27  C   UNL     1     -52.225 -47.472  22.104  1.00  0.00    -0.000 C 
BRANCH  27  28
ATOM     28  C   UNL     1     -52.685 -48.832  21.541  1.00  0.00    -0.000 C 
BRANCH  28  29
ATOM     29  C   UNL     1     -51.560 -49.717  20.973  1.00  0.00    -0.000 C 
BRANCH  29  30
ATOM     30  C   UNL     1     -50.697 -49.051  19.883  1.00  0.00    -0.000 C 
BRANCH  30  31
ATOM     31  C   UNL     1     -49.189 -49.032  20.210  1.00  0.00    -0.003 C 
ATOM     32  C   UNL     1     -48.741 -47.716  20.848  1.00  0.00     0.004 C 
ENDBRANCH  30  31
ENDBRANCH  29  30
ENDBRANCH  28  29
ENDBRANCH  27  28
ENDBRANCH  26  27
ENDBRANCH  25  26
ENDBRANCH  24  25
ENDBRANCH  23  24
ENDBRANCH  22  23
ENDBRANCH  21  22
ENDBRANCH  20  21
ENDBRANCH  19  20
ENDBRANCH  18  19
ENDBRANCH   1  18
TORSDOF 28
ENDMDL
