MODEL 1
REMARK VINA RESULT:    -5.953      0.000      0.000
REMARK INTER + INTRA:          -5.953
REMARK INTER:                  -5.953
REMARK INTRA:                   0.000
REMARK UNBOUND:                 0.000
REMARK SMILES C=C1CCC[C@]2(C)CC(=O)C(=C(C)C)C[C@@H]12
REMARK SMILES IDX 13 1 12 2 11 3 15 4 16 5 2 6 1 7 3 8 4 9 5 10 6 11 8 12 9 13
REMARK SMILES IDX 10 14 7 15 14 16
REMARK H PARENT
REMARK Flexibility Score: inf
ROOT
ATOM      1  C   UNL     1      20.765 -20.008  23.204  1.00  0.00     0.039 C 
ATOM      2  C   UNL     1      19.599 -19.312  22.539  1.00  0.00    -0.070 C 
ATOM      3  C   UNL     1      18.305 -19.635  22.833  1.00  0.00    -0.006 C 
ATOM      4  C   UNL     1      17.142 -18.884  22.201  1.00  0.00     0.047 C 
ATOM      5  C   UNL     1      15.894 -18.827  23.118  1.00  0.00     0.025 C 
ATOM      6  C   UNL     1      14.680 -18.118  22.518  1.00  0.00    -0.073 C 
ATOM      7  C   UNL     1      14.653 -17.579  21.284  1.00  0.00     0.008 C 
ATOM      8  C   UNL     1      13.469 -17.996  23.414  1.00  0.00     0.031 C 
ATOM      9  C   UNL     1      13.072 -19.369  23.963  1.00  0.00     0.005 C 
ATOM     10  C   UNL     1      14.266 -20.088  24.613  1.00  0.00     0.008 C 
ATOM     11  C   UNL     1      15.486 -20.235  23.653  1.00  0.00    -0.018 C 
ATOM     12  C   UNL     1      16.669 -20.818  24.465  1.00  0.00     0.088 C 
ATOM     13  C   UNL     1      17.951 -20.810  23.683  1.00  0.00     0.159 C 
ATOM     14  O   UNL     1      18.704 -21.819  23.751  1.00  0.00    -0.295 OA
ATOM     15  C   UNL     1      15.125 -21.211  22.499  1.00  0.00     0.012 C 
ATOM     16  C   UNL     1      19.929 -18.210  21.558  1.00  0.00     0.039 C 
ENDROOT
TORSDOF 0
ENDMDL
MODEL 2
REMARK VINA RESULT:    -5.874      7.149      8.887
REMARK INTER + INTRA:          -5.874
REMARK INTER:                  -5.874
REMARK INTRA:                   0.000
REMARK UNBOUND:                 0.000
REMARK SMILES C=C1CCC[C@]2(C)CC(=O)C(=C(C)C)C[C@@H]12
REMARK SMILES IDX 13 1 12 2 11 3 15 4 16 5 2 6 1 7 3 8 4 9 5 10 6 11 8 12 9 13
REMARK SMILES IDX 10 14 7 15 14 16
REMARK H PARENT
REMARK Flexibility Score: inf
ROOT
ATOM      1  C   UNL     1       8.409 -22.501  20.880  1.00  0.00     0.039 C 
ATOM      2  C   UNL     1       9.232 -21.323  21.350  1.00  0.00    -0.070 C 
ATOM      3  C   UNL     1       8.692 -20.323  22.107  1.00  0.00    -0.006 C 
ATOM      4  C   UNL     1       9.548 -19.174  22.623  1.00  0.00     0.047 C 
ATOM      5  C   UNL     1       9.039 -18.604  23.970  1.00  0.00     0.025 C 
ATOM      6  C   UNL     1       9.838 -17.421  24.517  1.00  0.00    -0.073 C 
ATOM      7  C   UNL     1      10.904 -16.879  23.899  1.00  0.00     0.008 C 
ATOM      8  C   UNL     1       9.400 -16.885  25.860  1.00  0.00     0.031 C 
ATOM      9  C   UNL     1       7.904 -16.558  25.841  1.00  0.00     0.005 C 
ATOM     10  C   UNL     1       7.070 -17.748  25.335  1.00  0.00     0.008 C 
ATOM     11  C   UNL     1       7.518 -18.256  23.931  1.00  0.00    -0.018 C 
ATOM     12  C   UNL     1       6.723 -19.545  23.609  1.00  0.00     0.088 C 
ATOM     13  C   UNL     1       7.225 -20.225  22.368  1.00  0.00     0.159 C 
ATOM     14  O   UNL     1       6.384 -20.692  21.554  1.00  0.00    -0.295 OA
ATOM     15  C   UNL     1       7.200 -17.175  22.861  1.00  0.00     0.012 C 
ATOM     16  C   UNL     1      10.697 -21.320  20.975  1.00  0.00     0.039 C 
ENDROOT
TORSDOF 0
ENDMDL
MODEL 3
REMARK VINA RESULT:    -5.744      8.712      9.493
REMARK INTER + INTRA:          -5.744
REMARK INTER:                  -5.744
REMARK INTRA:                   0.000
REMARK UNBOUND:                 0.000
REMARK SMILES C=C1CCC[C@]2(C)CC(=O)C(=C(C)C)C[C@@H]12
REMARK SMILES IDX 13 1 12 2 11 3 15 4 16 5 2 6 1 7 3 8 4 9 5 10 6 11 8 12 9 13
REMARK SMILES IDX 10 14 7 15 14 16
REMARK H PARENT
REMARK Flexibility Score: inf
ROOT
ATOM      1  C   UNL     1       8.143 -20.465  19.743  1.00  0.00     0.039 C 
ATOM      2  C   UNL     1       7.829 -19.028  20.091  1.00  0.00    -0.070 C 
ATOM      3  C   UNL     1       7.802 -18.590  21.385  1.00  0.00    -0.006 C 
ATOM      4  C   UNL     1       7.544 -17.127  21.717  1.00  0.00     0.047 C 
ATOM      5  C   UNL     1       8.247 -16.674  23.020  1.00  0.00     0.025 C 
ATOM      6  C   UNL     1       7.991 -15.222  23.425  1.00  0.00    -0.073 C 
ATOM      7  C   UNL     1       7.210 -14.371  22.733  1.00  0.00     0.008 C 
ATOM      8  C   UNL     1       8.714 -14.737  24.660  1.00  0.00     0.031 C 
ATOM      9  C   UNL     1       8.446 -15.677  25.838  1.00  0.00     0.005 C 
ATOM     10  C   UNL     1       8.738 -17.142  25.473  1.00  0.00     0.008 C 
ATOM     11  C   UNL     1       7.949 -17.628  24.219  1.00  0.00    -0.018 C 
ATOM     12  C   UNL     1       8.449 -19.048  23.857  1.00  0.00     0.088 C 
ATOM     13  C   UNL     1       7.896 -19.526  22.544  1.00  0.00     0.159 C 
ATOM     14  O   UNL     1       7.505 -20.720  22.454  1.00  0.00    -0.295 OA
ATOM     15  C   UNL     1       6.432 -17.686  24.549  1.00  0.00     0.012 C 
ATOM     16  C   UNL     1       7.584 -18.082  18.938  1.00  0.00     0.039 C 
ENDROOT
TORSDOF 0
ENDMDL
MODEL 4
REMARK VINA RESULT:    -5.622      2.223      3.668
REMARK INTER + INTRA:          -5.622
REMARK INTER:                  -5.622
REMARK INTRA:                   0.000
REMARK UNBOUND:                 0.000
REMARK SMILES C=C1CCC[C@]2(C)CC(=O)C(=C(C)C)C[C@@H]12
REMARK SMILES IDX 13 1 12 2 11 3 15 4 16 5 2 6 1 7 3 8 4 9 5 10 6 11 8 12 9 13
REMARK SMILES IDX 10 14 7 15 14 16
REMARK H PARENT
REMARK Flexibility Score: inf
ROOT
ATOM      1  C   UNL     1      17.227 -19.903  23.129  1.00  0.00     0.039 C 
ATOM      2  C   UNL     1      16.239 -19.037  22.379  1.00  0.00    -0.070 C 
ATOM      3  C   UNL     1      15.013 -18.729  22.897  1.00  0.00    -0.006 C 
ATOM      4  C   UNL     1      14.054 -17.807  22.158  1.00  0.00     0.047 C 
ATOM      5  C   UNL     1      13.138 -17.002  23.113  1.00  0.00     0.025 C 
ATOM      6  C   UNL     1      12.126 -16.087  22.424  1.00  0.00    -0.073 C 
ATOM      7  C   UNL     1      12.000 -15.970  21.088  1.00  0.00     0.008 C 
ATOM      8  C   UNL     1      11.261 -15.245  23.333  1.00  0.00     0.031 C 
ATOM      9  C   UNL     1      10.566 -16.127  24.374  1.00  0.00     0.005 C 
ATOM     10  C   UNL     1      11.568 -17.028  25.116  1.00  0.00     0.008 C 
ATOM     11  C   UNL     1      12.419 -17.914  24.156  1.00  0.00    -0.018 C 
ATOM     12  C   UNL     1      13.493 -18.643  25.000  1.00  0.00     0.088 C 
ATOM     13  C   UNL     1      14.492 -19.366  24.143  1.00  0.00     0.159 C 
ATOM     14  O   UNL     1      14.863 -20.519  24.492  1.00  0.00    -0.295 OA
ATOM     15  C   UNL     1      11.503 -18.965  23.470  1.00  0.00     0.012 C 
ATOM     16  C   UNL     1      16.684 -18.493  21.041  1.00  0.00     0.039 C 
ENDROOT
TORSDOF 0
ENDMDL
MODEL 5
REMARK VINA RESULT:    -5.608      8.094     10.103
REMARK INTER + INTRA:          -5.608
REMARK INTER:                  -5.608
REMARK INTRA:                   0.000
REMARK UNBOUND:                 0.000
REMARK SMILES C=C1CCC[C@]2(C)CC(=O)C(=C(C)C)C[C@@H]12
REMARK SMILES IDX 13 1 12 2 11 3 15 4 16 5 2 6 1 7 3 8 4 9 5 10 6 11 8 12 9 13
REMARK SMILES IDX 10 14 7 15 14 16
REMARK H PARENT
REMARK Flexibility Score: inf
ROOT
ATOM      1  C   UNL     1       6.230 -14.632  21.040  1.00  0.00     0.039 C 
ATOM      2  C   UNL     1       7.045 -15.596  20.207  1.00  0.00    -0.070 C 
ATOM      3  C   UNL     1       7.377 -16.840  20.663  1.00  0.00    -0.006 C 
ATOM      4  C   UNL     1       8.145 -17.821  19.789  1.00  0.00     0.047 C 
ATOM      5  C   UNL     1       7.800 -19.299  20.098  1.00  0.00     0.025 C 
ATOM      6  C   UNL     1       8.572 -20.331  19.278  1.00  0.00    -0.073 C 
ATOM      7  C   UNL     1       9.500 -20.020  18.352  1.00  0.00     0.008 C 
ATOM      8  C   UNL     1       8.212 -21.779  19.516  1.00  0.00     0.031 C 
ATOM      9  C   UNL     1       8.295 -22.109  21.009  1.00  0.00     0.005 C 
ATOM     10  C   UNL     1       7.490 -21.111  21.858  1.00  0.00     0.008 C 
ATOM     11  C   UNL     1       7.910 -19.629  21.620  1.00  0.00    -0.018 C 
ATOM     12  C   UNL     1       6.926 -18.719  22.396  1.00  0.00     0.088 C 
ATOM     13  C   UNL     1       7.121 -17.266  22.071  1.00  0.00     0.159 C 
ATOM     14  O   UNL     1       7.079 -16.428  23.011  1.00  0.00    -0.295 OA
ATOM     15  C   UNL     1       9.350 -19.404  22.158  1.00  0.00     0.012 C 
ATOM     16  C   UNL     1       7.446 -15.134  18.825  1.00  0.00     0.039 C 
ENDROOT
TORSDOF 0
ENDMDL
MODEL 6
REMARK VINA RESULT:    -5.594      5.755      8.414
REMARK INTER + INTRA:          -5.594
REMARK INTER:                  -5.594
REMARK INTRA:                   0.000
REMARK UNBOUND:                 0.000
REMARK SMILES C=C1CCC[C@]2(C)CC(=O)C(=C(C)C)C[C@@H]12
REMARK SMILES IDX 13 1 12 2 11 3 15 4 16 5 2 6 1 7 3 8 4 9 5 10 6 11 8 12 9 13
REMARK SMILES IDX 10 14 7 15 14 16
REMARK H PARENT
REMARK Flexibility Score: inf
ROOT
ATOM      1  C   UNL     1      12.743 -17.747  25.148  1.00  0.00     0.039 C 
ATOM      2  C   UNL     1      11.713 -18.119  24.105  1.00  0.00    -0.070 C 
ATOM      3  C   UNL     1      10.558 -17.408  23.948  1.00  0.00    -0.006 C 
ATOM      4  C   UNL     1       9.560 -17.759  22.853  1.00  0.00     0.047 C 
ATOM      5  C   UNL     1       8.774 -16.526  22.340  1.00  0.00     0.025 C 
ATOM      6  C   UNL     1       7.728 -16.825  21.266  1.00  0.00    -0.073 C 
ATOM      7  C   UNL     1       7.470 -18.056  20.784  1.00  0.00     0.008 C 
ATOM      8  C   UNL     1       6.989 -15.632  20.705  1.00  0.00     0.031 C 
ATOM      9  C   UNL     1       6.374 -14.805  21.838  1.00  0.00     0.005 C 
ATOM     10  C   UNL     1       7.416 -14.451  22.912  1.00  0.00     0.008 C 
ATOM     11  C   UNL     1       8.135 -15.703  23.502  1.00  0.00    -0.018 C 
ATOM     12  C   UNL     1       9.264 -15.212  24.441  1.00  0.00     0.088 C 
ATOM     13  C   UNL     1      10.145 -16.337  24.903  1.00  0.00     0.159 C 
ATOM     14  O   UNL     1      10.511 -16.360  26.108  1.00  0.00    -0.295 OA
ATOM     15  C   UNL     1       7.119 -16.549  24.319  1.00  0.00     0.012 C 
ATOM     16  C   UNL     1      12.038 -19.296  23.214  1.00  0.00     0.039 C 
ENDROOT
TORSDOF 0
ENDMDL
MODEL 7
REMARK VINA RESULT:    -5.552      6.119      8.069
REMARK INTER + INTRA:          -5.552
REMARK INTER:                  -5.552
REMARK INTRA:                   0.000
REMARK UNBOUND:                 0.000
REMARK SMILES C=C1CCC[C@]2(C)CC(=O)C(=C(C)C)C[C@@H]12
REMARK SMILES IDX 13 1 12 2 11 3 15 4 16 5 2 6 1 7 3 8 4 9 5 10 6 11 8 12 9 13
REMARK SMILES IDX 10 14 7 15 14 16
REMARK H PARENT
REMARK Flexibility Score: inf
ROOT
ATOM      1  C   UNL     1      10.778 -21.528  21.210  1.00  0.00     0.039 C 
ATOM      2  C   UNL     1       9.562 -20.778  21.704  1.00  0.00    -0.070 C 
ATOM      3  C   UNL     1       9.672 -19.656  22.476  1.00  0.00    -0.006 C 
ATOM      4  C   UNL     1       8.439 -18.878  22.915  1.00  0.00     0.047 C 
ATOM      5  C   UNL     1       8.717 -17.364  23.093  1.00  0.00     0.025 C 
ATOM      6  C   UNL     1       7.524 -16.537  23.572  1.00  0.00    -0.073 C 
ATOM      7  C   UNL     1       6.308 -17.051  23.842  1.00  0.00     0.008 C 
ATOM      8  C   UNL     1       7.751 -15.049  23.695  1.00  0.00     0.031 C 
ATOM      9  C   UNL     1       8.981 -14.767  24.562  1.00  0.00     0.005 C 
ATOM     10  C   UNL     1      10.210 -15.553  24.075  1.00  0.00     0.008 C 
ATOM     11  C   UNL     1       9.961 -17.090  23.995  1.00  0.00    -0.018 C 
ATOM     12  C   UNL     1      11.201 -17.745  23.341  1.00  0.00     0.088 C 
ATOM     13  C   UNL     1      10.979 -19.199  23.034  1.00  0.00     0.159 C 
ATOM     14  O   UNL     1      11.909 -20.014  23.273  1.00  0.00    -0.295 OA
ATOM     15  C   UNL     1       9.773 -17.661  25.428  1.00  0.00     0.012 C 
ATOM     16  C   UNL     1       8.212 -21.305  21.274  1.00  0.00     0.039 C 
ENDROOT
TORSDOF 0
ENDMDL
MODEL 8
REMARK VINA RESULT:    -5.549      6.003      8.229
REMARK INTER + INTRA:          -5.549
REMARK INTER:                  -5.549
REMARK INTRA:                   0.000
REMARK UNBOUND:                 0.000
REMARK SMILES C=C1CCC[C@]2(C)CC(=O)C(=C(C)C)C[C@@H]12
REMARK SMILES IDX 13 1 12 2 11 3 15 4 16 5 2 6 1 7 3 8 4 9 5 10 6 11 8 12 9 13
REMARK SMILES IDX 10 14 7 15 14 16
REMARK H PARENT
REMARK Flexibility Score: inf
ROOT
ATOM      1  C   UNL     1      19.785 -21.721  23.747  1.00  0.00     0.039 C 
ATOM      2  C   UNL     1      19.040 -23.035  23.685  1.00  0.00    -0.070 C 
ATOM      3  C   UNL     1      19.586 -24.195  24.156  1.00  0.00    -0.006 C 
ATOM      4  C   UNL     1      18.799 -25.499  24.142  1.00  0.00     0.047 C 
ATOM      5  C   UNL     1      19.195 -26.452  25.297  1.00  0.00     0.025 C 
ATOM      6  C   UNL     1      18.465 -27.795  25.310  1.00  0.00    -0.073 C 
ATOM      7  C   UNL     1      17.548 -28.165  24.396  1.00  0.00     0.008 C 
ATOM      8  C   UNL     1      18.788 -28.719  26.461  1.00  0.00     0.031 C 
ATOM      9  C   UNL     1      20.301 -28.929  26.566  1.00  0.00     0.005 C 
ATOM     10  C   UNL     1      21.060 -27.592  26.600  1.00  0.00     0.008 C 
ATOM     11  C   UNL     1      20.737 -26.675  25.381  1.00  0.00    -0.018 C 
ATOM     12  C   UNL     1      21.424 -25.307  25.612  1.00  0.00     0.088 C 
ATOM     13  C   UNL     1      21.010 -24.286  24.592  1.00  0.00     0.159 C 
ATOM     14  O   UNL     1      21.892 -23.526  24.108  1.00  0.00    -0.295 OA
ATOM     15  C   UNL     1      21.299 -27.320  24.083  1.00  0.00     0.012 C 
ATOM     16  C   UNL     1      17.642 -23.002  23.111  1.00  0.00     0.039 C 
ENDROOT
TORSDOF 0
ENDMDL
MODEL 9
REMARK VINA RESULT:    -5.488      5.707      7.514
REMARK INTER + INTRA:          -5.488
REMARK INTER:                  -5.488
REMARK INTRA:                   0.000
REMARK UNBOUND:                 0.000
REMARK SMILES C=C1CCC[C@]2(C)CC(=O)C(=C(C)C)C[C@@H]12
REMARK SMILES IDX 13 1 12 2 11 3 15 4 16 5 2 6 1 7 3 8 4 9 5 10 6 11 8 12 9 13
REMARK SMILES IDX 10 14 7 15 14 16
REMARK H PARENT
REMARK Flexibility Score: inf
ROOT
ATOM      1  C   UNL     1      13.862 -15.219  22.894  1.00  0.00     0.039 C 
ATOM      2  C   UNL     1      12.565 -15.531  22.181  1.00  0.00    -0.070 C 
ATOM      3  C   UNL     1      11.492 -16.060  22.839  1.00  0.00    -0.006 C 
ATOM      4  C   UNL     1      10.173 -16.312  22.121  1.00  0.00     0.047 C 
ATOM      5  C   UNL     1       8.945 -16.183  23.057  1.00  0.00     0.025 C 
ATOM      6  C   UNL     1       7.595 -16.465  22.399  1.00  0.00    -0.073 C 
ATOM      7  C   UNL     1       7.443 -16.814  21.106  1.00  0.00     0.008 C 
ATOM      8  C   UNL     1       6.376 -16.287  23.273  1.00  0.00     0.031 C 
ATOM      9  C   UNL     1       6.524 -17.099  24.564  1.00  0.00     0.005 C 
ATOM     10  C   UNL     1       7.856 -16.802  25.272  1.00  0.00     0.008 C 
ATOM     11  C   UNL     1       9.098 -17.031  24.358  1.00  0.00    -0.018 C 
ATOM     12  C   UNL     1      10.354 -16.544  25.122  1.00  0.00     0.088 C 
ATOM     13  C   UNL     1      11.578 -16.536  24.252  1.00  0.00     0.159 C 
ATOM     14  O   UNL     1      12.665 -16.950  24.737  1.00  0.00    -0.295 OA
ATOM     15  C   UNL     1       9.242 -18.547  24.047  1.00  0.00     0.012 C 
ATOM     16  C   UNL     1      12.496 -15.194  20.709  1.00  0.00     0.039 C 
ENDROOT
TORSDOF 0
ENDMDL
