MODEL 1
REMARK VINA RESULT:    -4.355      0.000      0.000
REMARK INTER + INTRA:          -5.788
REMARK INTER:                  -5.628
REMARK INTRA:                  -0.160
REMARK UNBOUND:                -0.160
REMARK SMILES CCCCCCC(=O)[O-]
REMARK SMILES IDX 5 1 6 2 7 3 8 4 9 5 4 6 3 7 2 8 1 9
REMARK H PARENT
REMARK Flexibility Score: inf
ROOT
ATOM      1  C   UNL     1      13.826   3.326  56.324  1.00  0.00     0.006 C 
ENDROOT
BRANCH   1   2
ATOM      2  C   UNL     1      12.558   3.904  55.676  1.00  0.00     0.053 C 
BRANCH   2   3
ATOM      3  C   UNL     1      11.529   4.280  56.696  1.00  0.00     0.041 C 
ATOM      4  O   UNL     1      11.675   3.938  57.900  1.00  0.00    -0.550 OA
ATOM      5  O   UNL     1      10.391   4.978  56.313  1.00  0.00    -0.550 OA
ENDBRANCH   2   3
ENDBRANCH   1   2
BRANCH   1   6
ATOM      6  C   UNL     1      15.132   3.639  55.566  1.00  0.00     0.000 C 
BRANCH   6   7
ATOM      7  C   UNL     1      16.152   2.487  55.523  1.00  0.00    -0.000 C 
BRANCH   7   8
ATOM      8  C   UNL     1      15.690   1.250  56.306  1.00  0.00    -0.003 C 
ATOM      9  C   UNL     1      16.512   0.021  55.928  1.00  0.00     0.004 C 
ENDBRANCH   7   8
ENDBRANCH   6   7
ENDBRANCH   1   6
TORSDOF 5
ENDMDL
MODEL 2
REMARK VINA RESULT:    -4.172      3.585      4.732
REMARK INTER + INTRA:          -5.551
REMARK INTER:                  -5.112
REMARK INTRA:                  -0.439
REMARK UNBOUND:                -0.160
REMARK SMILES CCCCCCC(=O)[O-]
REMARK SMILES IDX 5 1 6 2 7 3 8 4 9 5 4 6 3 7 2 8 1 9
REMARK H PARENT
REMARK Flexibility Score: inf
ROOT
ATOM      1  C   UNL     1       9.984   4.222  55.266  1.00  0.00     0.006 C 
ENDROOT
BRANCH   1   2
ATOM      2  C   UNL     1       9.540   5.510  55.977  1.00  0.00     0.053 C 
BRANCH   2   3
ATOM      3  C   UNL     1       9.830   6.730  55.159  1.00  0.00     0.041 C 
ATOM      4  O   UNL     1       9.069   7.052  54.208  1.00  0.00    -0.550 OA
ATOM      5  O   UNL     1      10.960   7.493  55.425  1.00  0.00    -0.550 OA
ENDBRANCH   2   3
ENDBRANCH   1   2
BRANCH   1   6
ATOM      6  C   UNL     1      11.404   3.745  55.632  1.00  0.00     0.000 C 
BRANCH   6   7
ATOM      7  C   UNL     1      12.508   4.168  54.646  1.00  0.00    -0.000 C 
BRANCH   7   8
ATOM      8  C   UNL     1      12.004   4.287  53.201  1.00  0.00    -0.003 C 
ATOM      9  C   UNL     1      12.257   5.686  52.644  1.00  0.00     0.004 C 
ENDBRANCH   7   8
ENDBRANCH   6   7
ENDBRANCH   1   6
TORSDOF 5
ENDMDL
MODEL 3
REMARK VINA RESULT:    -4.139      3.339      5.586
REMARK INTER + INTRA:          -5.508
REMARK INTER:                  -5.055
REMARK INTRA:                  -0.454
REMARK UNBOUND:                -0.160
REMARK SMILES CCCCCCC(=O)[O-]
REMARK SMILES IDX 5 1 6 2 7 3 8 4 9 5 4 6 3 7 2 8 1 9
REMARK H PARENT
REMARK Flexibility Score: inf
ROOT
ATOM      1  C   UNL     1       9.559   4.063  55.298  1.00  0.00     0.006 C 
ENDROOT
BRANCH   1   2
ATOM      2  C   UNL     1      10.765   3.608  54.462  1.00  0.00     0.053 C 
BRANCH   2   3
ATOM      3  C   UNL     1      12.038   3.642  55.250  1.00  0.00     0.041 C 
ATOM      4  O   UNL     1      13.023   4.310  54.837  1.00  0.00    -0.550 OA
ATOM      5  O   UNL     1      12.148   2.909  56.425  1.00  0.00    -0.550 OA
ENDBRANCH   2   3
ENDBRANCH   1   2
BRANCH   1   6
ATOM      6  C   UNL     1       9.718   5.450  55.952  1.00  0.00     0.000 C 
BRANCH   6   7
ATOM      7  C   UNL     1       9.729   6.636  54.970  1.00  0.00    -0.000 C 
BRANCH   7   8
ATOM      8  C   UNL     1      11.082   7.359  54.921  1.00  0.00    -0.003 C 
ATOM      9  C   UNL     1      11.669   7.332  53.513  1.00  0.00     0.004 C 
ENDBRANCH   7   8
ENDBRANCH   6   7
ENDBRANCH   1   6
TORSDOF 5
ENDMDL
MODEL 4
REMARK VINA RESULT:    -4.103     13.921     15.951
REMARK INTER + INTRA:          -5.462
REMARK INTER:                  -5.098
REMARK INTRA:                  -0.364
REMARK UNBOUND:                -0.160
REMARK SMILES CCCCCCC(=O)[O-]
REMARK SMILES IDX 5 1 6 2 7 3 8 4 9 5 4 6 3 7 2 8 1 9
REMARK H PARENT
REMARK Flexibility Score: inf
ROOT
ATOM      1  C   UNL     1      24.547  -9.631  55.042  1.00  0.00     0.006 C 
ENDROOT
BRANCH   1   2
ATOM      2  C   UNL     1      25.647  -8.593  55.314  1.00  0.00     0.053 C 
BRANCH   2   3
ATOM      3  C   UNL     1      25.650  -8.142  56.742  1.00  0.00     0.041 C 
ATOM      4  O   UNL     1      24.769  -7.343  57.157  1.00  0.00    -0.550 OA
ATOM      5  O   UNL     1      26.646  -8.578  57.607  1.00  0.00    -0.550 OA
ENDBRANCH   2   3
ENDBRANCH   1   2
BRANCH   1   6
ATOM      6  C   UNL     1      23.271  -9.057  54.394  1.00  0.00     0.000 C 
BRANCH   6   7
ATOM      7  C   UNL     1      23.389  -7.606  53.896  1.00  0.00    -0.000 C 
BRANCH   7   8
ATOM      8  C   UNL     1      22.230  -6.716  54.368  1.00  0.00    -0.003 C 
ATOM      9  C   UNL     1      21.440  -7.390  55.486  1.00  0.00     0.004 C 
ENDBRANCH   7   8
ENDBRANCH   6   7
ENDBRANCH   1   6
TORSDOF 5
ENDMDL
MODEL 5
REMARK VINA RESULT:    -4.085      4.189      6.144
REMARK INTER + INTRA:          -5.438
REMARK INTER:                  -5.028
REMARK INTRA:                  -0.410
REMARK UNBOUND:                -0.160
REMARK SMILES CCCCCCC(=O)[O-]
REMARK SMILES IDX 5 1 6 2 7 3 8 4 9 5 4 6 3 7 2 8 1 9
REMARK H PARENT
REMARK Flexibility Score: inf
ROOT
ATOM      1  C   UNL     1      11.731   7.062  53.452  1.00  0.00     0.006 C 
ENDROOT
BRANCH   1   2
ATOM      2  C   UNL     1      12.182   5.807  52.688  1.00  0.00     0.053 C 
BRANCH   2   3
ATOM      3  C   UNL     1      12.258   4.606  53.580  1.00  0.00     0.041 C 
ATOM      4  O   UNL     1      11.500   3.619  53.381  1.00  0.00    -0.550 OA
ATOM      5  O   UNL     1      13.141   4.590  54.651  1.00  0.00    -0.550 OA
ENDBRANCH   2   3
ENDBRANCH   1   2
BRANCH   1   6
ATOM      6  C   UNL     1      10.300   7.532  53.123  1.00  0.00     0.000 C 
BRANCH   6   7
ATOM      7  C   UNL     1       9.201   6.958  54.035  1.00  0.00    -0.000 C 
BRANCH   7   8
ATOM      8  C   UNL     1       9.685   6.705  55.469  1.00  0.00    -0.003 C 
ATOM      9  C   UNL     1       9.434   5.259  55.887  1.00  0.00     0.004 C 
ENDBRANCH   7   8
ENDBRANCH   6   7
ENDBRANCH   1   6
TORSDOF 5
ENDMDL
MODEL 6
REMARK VINA RESULT:    -4.073      4.044      5.005
REMARK INTER + INTRA:          -5.423
REMARK INTER:                  -5.042
REMARK INTRA:                  -0.381
REMARK UNBOUND:                -0.160
REMARK SMILES CCCCCCC(=O)[O-]
REMARK SMILES IDX 5 1 6 2 7 3 8 4 9 5 4 6 3 7 2 8 1 9
REMARK H PARENT
REMARK Flexibility Score: inf
ROOT
ATOM      1  C   UNL     1       9.459   5.424  55.451  1.00  0.00     0.006 C 
ENDROOT
BRANCH   1   2
ATOM      2  C   UNL     1       9.420   6.955  55.330  1.00  0.00     0.053 C 
BRANCH   2   3
ATOM      3  C   UNL     1      10.632   7.493  54.635  1.00  0.00     0.041 C 
ATOM      4  O   UNL     1      10.771   7.342  53.392  1.00  0.00    -0.550 OA
ATOM      5  O   UNL     1      11.627   8.132  55.365  1.00  0.00    -0.550 OA
ENDBRANCH   2   3
ENDBRANCH   1   2
BRANCH   1   6
ATOM      6  C   UNL     1      10.626   4.878  56.298  1.00  0.00     0.000 C 
BRANCH   6   7
ATOM      7  C   UNL     1      11.444   3.755  55.634  1.00  0.00    -0.000 C 
BRANCH   7   8
ATOM      8  C   UNL     1      11.030   3.495  54.179  1.00  0.00    -0.003 C 
ATOM      9  C   UNL     1      12.039   4.096  53.204  1.00  0.00     0.004 C 
ENDBRANCH   7   8
ENDBRANCH   6   7
ENDBRANCH   1   6
TORSDOF 5
ENDMDL
MODEL 7
REMARK VINA RESULT:    -4.067      2.487      4.983
REMARK INTER + INTRA:          -5.416
REMARK INTER:                  -5.092
REMARK INTRA:                  -0.324
REMARK UNBOUND:                -0.160
REMARK SMILES CCCCCCC(=O)[O-]
REMARK SMILES IDX 5 1 6 2 7 3 8 4 9 5 4 6 3 7 2 8 1 9
REMARK H PARENT
REMARK Flexibility Score: inf
ROOT
ATOM      1  C   UNL     1      12.450   4.447  55.220  1.00  0.00     0.006 C 
ENDROOT
BRANCH   1   2
ATOM      2  C   UNL     1      13.408   3.555  56.025  1.00  0.00     0.053 C 
BRANCH   2   3
ATOM      3  C   UNL     1      12.730   2.926  57.203  1.00  0.00     0.041 C 
ATOM      4  O   UNL     1      12.889   1.700  57.446  1.00  0.00    -0.550 OA
ATOM      5  O   UNL     1      11.895   3.685  58.012  1.00  0.00    -0.550 OA
ENDBRANCH   2   3
ENDBRANCH   1   2
BRANCH   1   6
ATOM      6  C   UNL     1      11.339   3.683  54.471  1.00  0.00     0.000 C 
BRANCH   6   7
ATOM      7  C   UNL     1       9.908   3.969  54.961  1.00  0.00    -0.000 C 
BRANCH   7   8
ATOM      8  C   UNL     1       9.794   5.288  55.737  1.00  0.00    -0.003 C 
ATOM      9  C   UNL     1       9.433   6.444  54.808  1.00  0.00     0.004 C 
ENDBRANCH   7   8
ENDBRANCH   6   7
ENDBRANCH   1   6
TORSDOF 5
ENDMDL
MODEL 8
REMARK VINA RESULT:    -4.044      3.306      5.441
REMARK INTER + INTRA:          -5.385
REMARK INTER:                  -4.924
REMARK INTRA:                  -0.461
REMARK UNBOUND:                -0.160
REMARK SMILES CCCCCCC(=O)[O-]
REMARK SMILES IDX 5 1 6 2 7 3 8 4 9 5 4 6 3 7 2 8 1 9
REMARK H PARENT
REMARK Flexibility Score: inf
ROOT
ATOM      1  C   UNL     1      12.043   4.186  53.033  1.00  0.00     0.006 C 
ENDROOT
BRANCH   1   2
ATOM      2  C   UNL     1      11.267   3.654  54.248  1.00  0.00     0.053 C 
BRANCH   2   3
ATOM      3  C   UNL     1      11.966   3.957  55.537  1.00  0.00     0.041 C 
ATOM      4  O   UNL     1      11.407   4.675  56.409  1.00  0.00    -0.550 OA
ATOM      5  O   UNL     1      13.249   3.476  55.762  1.00  0.00    -0.550 OA
ENDBRANCH   2   3
ENDBRANCH   1   2
BRANCH   1   6
ATOM      6  C   UNL     1      12.415   5.680  53.115  1.00  0.00     0.000 C 
BRANCH   6   7
ATOM      7  C   UNL     1      11.247   6.655  52.882  1.00  0.00    -0.000 C 
BRANCH   7   8
ATOM      8  C   UNL     1      10.815   7.386  54.161  1.00  0.00    -0.003 C 
ATOM      9  C   UNL     1       9.405   6.979  54.577  1.00  0.00     0.004 C 
ENDBRANCH   7   8
ENDBRANCH   6   7
ENDBRANCH   1   6
TORSDOF 5
ENDMDL
MODEL 9
REMARK VINA RESULT:    -4.032      4.355      5.314
REMARK INTER + INTRA:          -5.371
REMARK INTER:                  -4.983
REMARK INTRA:                  -0.388
REMARK UNBOUND:                -0.160
REMARK SMILES CCCCCCC(=O)[O-]
REMARK SMILES IDX 5 1 6 2 7 3 8 4 9 5 4 6 3 7 2 8 1 9
REMARK H PARENT
REMARK Flexibility Score: inf
ROOT
ATOM      1  C   UNL     1      12.470   5.265  53.426  1.00  0.00     0.006 C 
ENDROOT
BRANCH   1   2
ATOM      2  C   UNL     1      11.764   6.366  52.619  1.00  0.00     0.053 C 
BRANCH   2   3
ATOM      3  C   UNL     1      11.014   7.315  53.501  1.00  0.00     0.041 C 
ATOM      4  O   UNL     1      11.623   7.976  54.384  1.00  0.00    -0.550 OA
ATOM      5  O   UNL     1       9.638   7.444  53.373  1.00  0.00    -0.550 OA
ENDBRANCH   2   3
ENDBRANCH   1   2
BRANCH   1   6
ATOM      6  C   UNL     1      11.764   3.894  53.393  1.00  0.00     0.000 C 
BRANCH   6   7
ATOM      7  C   UNL     1      11.134   3.453  54.725  1.00  0.00    -0.000 C 
BRANCH   7   8
ATOM      8  C   UNL     1       9.707   3.986  54.917  1.00  0.00    -0.003 C 
ATOM      9  C   UNL     1       9.663   5.066  55.994  1.00  0.00     0.004 C 
ENDBRANCH   7   8
ENDBRANCH   6   7
ENDBRANCH   1   6
TORSDOF 5
ENDMDL
