MODEL 1
REMARK VINA RESULT:    -6.045      0.000      0.000
REMARK INTER + INTRA:          -9.990
REMARK INTER:                  -9.403
REMARK INTRA:                  -0.587
REMARK UNBOUND:                -0.587
REMARK SMILES COc1cc(CNC(=O)CCCCC=CC(C)C)ccc1O
REMARK SMILES IDX 11 1 12 2 13 3 14 4 15 5 16 6 17 7 18 8 10 9 8 10 9 11 7 12
REMARK SMILES IDX 6 14 5 15 4 16 19 17 3 18 20 19 21 20 2 21 1 22 22 23
REMARK H PARENT 7 13 22 24
REMARK Flexibility Score: inf
ROOT
ATOM      1  C   UNL     1      -2.395  47.147  79.256  1.00  0.00     0.010 C 
ENDROOT
BRANCH   1   2
ATOM      2  C   UNL     1      -1.157  47.742  78.553  1.00  0.00     0.005 C 
BRANCH   2   3
ATOM      3  C   UNL     1      -0.614  46.885  77.398  1.00  0.00     0.027 C 
BRANCH   3   4
ATOM      4  C   UNL     1      -1.355  45.581  77.277  1.00  0.00    -0.031 C 
ATOM      5  C   UNL     1      -1.993  45.235  76.146  1.00  0.00    -0.028 C 
BRANCH   5   6
ATOM      6  C   UNL     1      -2.798  43.961  76.019  1.00  0.00     0.005 C 
ATOM      7  C   UNL     1      -3.646  43.958  74.742  1.00  0.00     0.012 C 
ATOM      8  C   UNL     1      -1.894  42.724  76.090  1.00  0.00     0.012 C 
ENDBRANCH   5   6
ENDBRANCH   3   4
ENDBRANCH   2   3
ENDBRANCH   1   2
BRANCH   1   9
ATOM      9  C   UNL     1      -2.184  46.828  80.745  1.00  0.00     0.100 C 
BRANCH   9  10
ATOM     10  C   UNL     1      -2.647  47.950  81.628  1.00  0.00     0.220 C 
ATOM     11  O   UNL     1      -3.587  48.694  81.239  1.00  0.00    -0.275 OA
ATOM     12  N   UNL     1      -2.048  48.151  82.916  1.00  0.00    -0.352 N 
ATOM     13  H   UNL     1      -1.292  47.504  83.234  1.00  0.00     0.163 HD
BRANCH  12  14
ATOM     14  C   UNL     1      -2.469  49.220  83.818  1.00  0.00     0.151 C 
BRANCH  14  15
ATOM     15  C   UNL     1      -1.685  49.156  85.101  1.00  0.00    -0.025 A 
ATOM     16  C   UNL     1      -2.336  49.227  86.342  1.00  0.00     0.056 A 
ATOM     17  C   UNL     1      -0.286  49.060  85.061  1.00  0.00     0.009 A 
ATOM     18  C   UNL     1      -1.596  49.193  87.541  1.00  0.00     0.160 A 
ATOM     19  C   UNL     1       0.451  49.024  86.245  1.00  0.00     0.050 A 
ATOM     20  C   UNL     1      -0.199  49.090  87.484  1.00  0.00     0.157 A 
BRANCH  18  21
ATOM     21  O   UNL     1      -2.210  49.261  88.802  1.00  0.00    -0.493 OA
ATOM     22  C   UNL     1      -3.348  50.063  89.101  1.00  0.00     0.278 C 
ENDBRANCH  18  21
BRANCH  20  23
ATOM     23  O   UNL     1       0.539  49.055  88.666  1.00  0.00    -0.504 OA
ATOM     24  H   UNL     1       0.406  49.746  89.396  1.00  0.00     0.293 HD
ENDBRANCH  20  23
ENDBRANCH  14  15
ENDBRANCH  12  14
ENDBRANCH   9  10
ENDBRANCH   1   9
TORSDOF 10
ENDMDL
MODEL 2
REMARK VINA RESULT:    -5.974      3.750      7.508
REMARK INTER + INTRA:          -9.878
REMARK INTER:                  -8.504
REMARK INTRA:                  -1.374
REMARK UNBOUND:                -0.587
REMARK SMILES COc1cc(CNC(=O)CCCCC=CC(C)C)ccc1O
REMARK SMILES IDX 11 1 12 2 13 3 14 4 15 5 16 6 17 7 18 8 10 9 8 10 9 11 7 12
REMARK SMILES IDX 6 14 5 15 4 16 19 17 3 18 20 19 21 20 2 21 1 22 22 23
REMARK H PARENT 7 13 22 24
REMARK Flexibility Score: inf
ROOT
ATOM      1  C   UNL     1      -3.219  47.743  81.380  1.00  0.00     0.010 C 
ENDROOT
BRANCH   1   2
ATOM      2  C   UNL     1      -3.366  48.438  82.750  1.00  0.00     0.005 C 
BRANCH   2   3
ATOM      3  C   UNL     1      -2.191  49.356  83.122  1.00  0.00     0.027 C 
BRANCH   3   4
ATOM      4  C   UNL     1      -1.630  49.017  84.476  1.00  0.00    -0.031 C 
ATOM      5  C   UNL     1      -0.582  49.683  84.992  1.00  0.00    -0.028 C 
BRANCH   5   6
ATOM      6  C   UNL     1       0.041  49.322  86.321  1.00  0.00     0.005 C 
ATOM      7  C   UNL     1       1.092  50.354  86.747  1.00  0.00     0.012 C 
ATOM      8  C   UNL     1      -1.029  49.138  87.404  1.00  0.00     0.012 C 
ENDBRANCH   5   6
ENDBRANCH   3   4
ENDBRANCH   2   3
ENDBRANCH   1   2
BRANCH   1   9
ATOM      9  C   UNL     1      -1.922  48.088  80.632  1.00  0.00     0.100 C 
BRANCH   9  10
ATOM     10  C   UNL     1      -0.958  46.938  80.625  1.00  0.00     0.220 C 
ATOM     11  O   UNL     1      -0.772  46.293  79.558  1.00  0.00    -0.275 OA
ATOM     12  N   UNL     1      -0.228  46.599  81.813  1.00  0.00    -0.352 N 
ATOM     13  H   UNL     1      -0.371  47.166  82.679  1.00  0.00     0.163 HD
BRANCH  12  14
ATOM     14  C   UNL     1       0.731  45.498  81.857  1.00  0.00     0.151 C 
BRANCH  14  15
ATOM     15  C   UNL     1       1.214  45.286  83.267  1.00  0.00    -0.025 A 
ATOM     16  C   UNL     1       2.273  44.405  83.535  1.00  0.00     0.056 A 
ATOM     17  C   UNL     1       0.581  45.947  84.329  1.00  0.00     0.009 A 
ATOM     18  C   UNL     1       2.707  44.190  84.859  1.00  0.00     0.160 A 
ATOM     19  C   UNL     1       1.007  45.739  85.642  1.00  0.00     0.050 A 
ATOM     20  C   UNL     1       2.067  44.863  85.910  1.00  0.00     0.157 A 
BRANCH  18  21
ATOM     21  O   UNL     1       3.762  43.318  85.168  1.00  0.00    -0.493 OA
ATOM     22  C   UNL     1       4.710  42.832  84.223  1.00  0.00     0.278 C 
ENDBRANCH  18  21
BRANCH  20  23
ATOM     23  O   UNL     1       2.491  44.655  87.221  1.00  0.00    -0.504 OA
ATOM     24  H   UNL     1       1.998  45.060  88.009  1.00  0.00     0.293 HD
ENDBRANCH  20  23
ENDBRANCH  14  15
ENDBRANCH  12  14
ENDBRANCH   9  10
ENDBRANCH   1   9
TORSDOF 10
ENDMDL
MODEL 3
REMARK VINA RESULT:    -5.918      2.202      4.489
REMARK INTER + INTRA:          -9.792
REMARK INTER:                  -8.153
REMARK INTRA:                  -1.639
REMARK UNBOUND:                -0.587
REMARK SMILES COc1cc(CNC(=O)CCCCC=CC(C)C)ccc1O
REMARK SMILES IDX 11 1 12 2 13 3 14 4 15 5 16 6 17 7 18 8 10 9 8 10 9 11 7 12
REMARK SMILES IDX 6 14 5 15 4 16 19 17 3 18 20 19 21 20 2 21 1 22 22 23
REMARK H PARENT 7 13 22 24
REMARK Flexibility Score: inf
ROOT
ATOM      1  C   UNL     1      -1.586  46.062  78.873  1.00  0.00     0.010 C 
ENDROOT
BRANCH   1   2
ATOM      2  C   UNL     1      -0.739  45.067  79.694  1.00  0.00     0.005 C 
BRANCH   2   3
ATOM      3  C   UNL     1       0.326  45.728  80.583  1.00  0.00     0.027 C 
BRANCH   3   4
ATOM      4  C   UNL     1      -0.054  45.672  82.038  1.00  0.00    -0.031 C 
ATOM      5  C   UNL     1       0.624  46.363  82.971  1.00  0.00    -0.028 C 
BRANCH   5   6
ATOM      6  C   UNL     1       0.303  46.275  84.446  1.00  0.00     0.005 C 
ATOM      7  C   UNL     1      -1.113  45.737  84.680  1.00  0.00     0.012 C 
ATOM      8  C   UNL     1       1.348  45.437  85.193  1.00  0.00     0.012 C 
ENDBRANCH   5   6
ENDBRANCH   3   4
ENDBRANCH   2   3
ENDBRANCH   1   2
BRANCH   1   9
ATOM      9  C   UNL     1      -1.117  47.522  78.970  1.00  0.00     0.100 C 
BRANCH   9  10
ATOM     10  C   UNL     1      -2.031  48.347  79.829  1.00  0.00     0.220 C 
ATOM     11  O   UNL     1      -2.913  49.063  79.283  1.00  0.00    -0.275 OA
ATOM     12  N   UNL     1      -1.925  48.293  81.259  1.00  0.00    -0.352 N 
ATOM     13  H   UNL     1      -1.209  47.668  81.694  1.00  0.00     0.163 HD
BRANCH  12  14
ATOM     14  C   UNL     1      -2.796  49.066  82.140  1.00  0.00     0.151 C 
BRANCH  14  15
ATOM     15  C   UNL     1      -2.138  49.263  83.479  1.00  0.00    -0.025 A 
ATOM     16  C   UNL     1      -2.824  48.955  84.665  1.00  0.00     0.056 A 
ATOM     17  C   UNL     1      -0.842  49.791  83.550  1.00  0.00     0.009 A 
ATOM     18  C   UNL     1      -2.213  49.164  85.918  1.00  0.00     0.160 A 
ATOM     19  C   UNL     1      -0.233  50.000  84.788  1.00  0.00     0.050 A 
ATOM     20  C   UNL     1      -0.914  49.688  85.971  1.00  0.00     0.157 A 
BRANCH  18  21
ATOM     21  O   UNL     1      -2.865  48.869  87.126  1.00  0.00    -0.493 OA
ATOM     22  C   UNL     1      -3.712  49.774  87.828  1.00  0.00     0.278 C 
ENDBRANCH  18  21
BRANCH  20  23
ATOM     23  O   UNL     1      -0.305  49.897  87.208  1.00  0.00    -0.504 OA
ATOM     24  H   UNL     1       0.139  49.140  87.715  1.00  0.00     0.293 HD
ENDBRANCH  20  23
ENDBRANCH  14  15
ENDBRANCH  12  14
ENDBRANCH   9  10
ENDBRANCH   1   9
TORSDOF 10
ENDMDL
MODEL 4
REMARK VINA RESULT:    -5.901      5.644      8.150
REMARK INTER + INTRA:          -9.765
REMARK INTER:                  -8.799
REMARK INTRA:                  -0.966
REMARK UNBOUND:                -0.587
REMARK SMILES COc1cc(CNC(=O)CCCCC=CC(C)C)ccc1O
REMARK SMILES IDX 11 1 12 2 13 3 14 4 15 5 16 6 17 7 18 8 10 9 8 10 9 11 7 12
REMARK SMILES IDX 6 14 5 15 4 16 19 17 3 18 20 19 21 20 2 21 1 22 22 23
REMARK H PARENT 7 13 22 24
REMARK Flexibility Score: inf
ROOT
ATOM      1  C   UNL     1       0.406  48.047  85.793  1.00  0.00     0.010 C 
ENDROOT
BRANCH   1   2
ATOM      2  C   UNL     1      -0.531  49.267  85.909  1.00  0.00     0.005 C 
BRANCH   2   3
ATOM      3  C   UNL     1      -0.369  50.299  84.781  1.00  0.00     0.027 C 
BRANCH   3   4
ATOM      4  C   UNL     1      -1.043  49.847  83.514  1.00  0.00    -0.031 C 
ATOM      5  C   UNL     1      -2.301  49.372  83.516  1.00  0.00    -0.028 C 
BRANCH   5   6
ATOM      6  C   UNL     1      -2.979  48.853  82.268  1.00  0.00     0.005 C 
ATOM      7  C   UNL     1      -1.961  48.542  81.165  1.00  0.00     0.012 C 
ATOM      8  C   UNL     1      -3.853  47.632  82.579  1.00  0.00     0.012 C 
ENDBRANCH   5   6
ENDBRANCH   3   4
ENDBRANCH   2   3
ENDBRANCH   1   2
BRANCH   1   9
ATOM      9  C   UNL     1      -0.289  46.758  85.325  1.00  0.00     0.100 C 
BRANCH   9  10
ATOM     10  C   UNL     1       0.390  46.160  84.127  1.00  0.00     0.220 C 
ATOM     11  O   UNL     1       0.339  46.764  83.022  1.00  0.00    -0.275 OA
ATOM     12  N   UNL     1       1.121  44.932  84.248  1.00  0.00    -0.352 N 
ATOM     13  H   UNL     1       1.180  44.463  85.180  1.00  0.00     0.163 HD
BRANCH  12  14
ATOM     14  C   UNL     1       1.809  44.314  83.117  1.00  0.00     0.151 C 
BRANCH  14  15
ATOM     15  C   UNL     1       2.922  43.426  83.608  1.00  0.00    -0.025 A 
ATOM     16  C   UNL     1       3.969  43.953  84.380  1.00  0.00     0.056 A 
ATOM     17  C   UNL     1       2.934  42.068  83.264  1.00  0.00     0.009 A 
ATOM     18  C   UNL     1       5.022  43.124  84.816  1.00  0.00     0.160 A 
ATOM     19  C   UNL     1       3.974  41.242  83.694  1.00  0.00     0.050 A 
ATOM     20  C   UNL     1       5.017  41.766  84.469  1.00  0.00     0.157 A 
BRANCH  18  21
ATOM     21  O   UNL     1       6.088  43.613  85.589  1.00  0.00    -0.493 OA
ATOM     22  C   UNL     1       7.192  44.344  85.068  1.00  0.00     0.278 C 
ENDBRANCH  18  21
BRANCH  20  23
ATOM     23  O   UNL     1       6.056  40.941  84.898  1.00  0.00    -0.504 OA
ATOM     24  H   UNL     1       6.706  41.237  85.616  1.00  0.00     0.293 HD
ENDBRANCH  20  23
ENDBRANCH  14  15
ENDBRANCH  12  14
ENDBRANCH   9  10
ENDBRANCH   1   9
TORSDOF 10
ENDMDL
MODEL 5
REMARK VINA RESULT:    -5.893      2.491      5.106
REMARK INTER + INTRA:          -9.752
REMARK INTER:                  -7.994
REMARK INTRA:                  -1.757
REMARK UNBOUND:                -0.587
REMARK SMILES COc1cc(CNC(=O)CCCCC=CC(C)C)ccc1O
REMARK SMILES IDX 11 1 12 2 13 3 14 4 15 5 16 6 17 7 18 8 10 9 8 10 9 11 7 12
REMARK SMILES IDX 6 14 5 15 4 16 19 17 3 18 20 19 21 20 2 21 1 22 22 23
REMARK H PARENT 7 13 22 24
REMARK Flexibility Score: inf
ROOT
ATOM      1  C   UNL     1      -0.482  46.367  79.299  1.00  0.00     0.010 C 
ENDROOT
BRANCH   1   2
ATOM      2  C   UNL     1      -0.104  45.308  80.356  1.00  0.00     0.005 C 
BRANCH   2   3
ATOM      3  C   UNL     1       0.994  45.754  81.334  1.00  0.00     0.027 C 
BRANCH   3   4
ATOM      4  C   UNL     1       0.611  45.476  82.763  1.00  0.00    -0.031 C 
ATOM      5  C   UNL     1       0.305  46.468  83.617  1.00  0.00    -0.028 C 
BRANCH   5   6
ATOM      6  C   UNL     1      -0.021  46.221  85.072  1.00  0.00     0.005 C 
ATOM      7  C   UNL     1      -0.974  45.031  85.238  1.00  0.00     0.012 C 
ATOM      8  C   UNL     1       1.254  46.033  85.903  1.00  0.00     0.012 C 
ENDBRANCH   5   6
ENDBRANCH   3   4
ENDBRANCH   2   3
ENDBRANCH   1   2
BRANCH   1   9
ATOM      9  C   UNL     1      -1.991  46.626  79.175  1.00  0.00     0.100 C 
BRANCH   9  10
ATOM     10  C   UNL     1      -2.414  47.846  79.940  1.00  0.00     0.220 C 
ATOM     11  O   UNL     1      -3.063  48.752  79.350  1.00  0.00    -0.275 OA
ATOM     12  N   UNL     1      -2.113  47.964  81.337  1.00  0.00    -0.352 N 
ATOM     13  H   UNL     1      -1.603  47.189  81.817  1.00  0.00     0.163 HD
BRANCH  12  14
ATOM     14  C   UNL     1      -2.512  49.125  82.130  1.00  0.00     0.151 C 
BRANCH  14  15
ATOM     15  C   UNL     1      -2.789  48.712  83.551  1.00  0.00    -0.025 A 
ATOM     16  C   UNL     1      -2.099  49.311  84.617  1.00  0.00     0.056 A 
ATOM     17  C   UNL     1      -3.719  47.697  83.815  1.00  0.00     0.009 A 
ATOM     18  C   UNL     1      -2.343  48.904  85.945  1.00  0.00     0.160 A 
ATOM     19  C   UNL     1      -3.966  47.292  85.127  1.00  0.00     0.050 A 
ATOM     20  C   UNL     1      -3.281  47.892  86.192  1.00  0.00     0.157 A 
BRANCH  18  21
ATOM     21  O   UNL     1      -1.674  49.477  87.037  1.00  0.00    -0.493 OA
ATOM     22  C   UNL     1      -0.365  49.114  87.462  1.00  0.00     0.278 C 
ENDBRANCH  18  21
BRANCH  20  23
ATOM     23  O   UNL     1      -3.528  47.486  87.503  1.00  0.00    -0.504 OA
ATOM     24  H   UNL     1      -3.304  48.080  88.293  1.00  0.00     0.293 HD
ENDBRANCH  20  23
ENDBRANCH  14  15
ENDBRANCH  12  14
ENDBRANCH   9  10
ENDBRANCH   1   9
TORSDOF 10
ENDMDL
MODEL 6
REMARK VINA RESULT:    -5.867      3.063      4.870
REMARK INTER + INTRA:          -9.712
REMARK INTER:                  -8.516
REMARK INTRA:                  -1.196
REMARK UNBOUND:                -0.587
REMARK SMILES COc1cc(CNC(=O)CCCCC=CC(C)C)ccc1O
REMARK SMILES IDX 11 1 12 2 13 3 14 4 15 5 16 6 17 7 18 8 10 9 8 10 9 11 7 12
REMARK SMILES IDX 6 14 5 15 4 16 19 17 3 18 20 19 21 20 2 21 1 22 22 23
REMARK H PARENT 7 13 22 24
REMARK Flexibility Score: inf
ROOT
ATOM      1  C   UNL     1      -0.545  45.970  79.313  1.00  0.00     0.010 C 
ENDROOT
BRANCH   1   2
ATOM      2  C   UNL     1       0.636  45.783  80.288  1.00  0.00     0.005 C 
BRANCH   2   3
ATOM      3  C   UNL     1       0.243  45.194  81.651  1.00  0.00     0.027 C 
BRANCH   3   4
ATOM      4  C   UNL     1       1.374  45.280  82.640  1.00  0.00    -0.031 C 
ATOM      5  C   UNL     1       2.042  44.185  83.044  1.00  0.00    -0.028 C 
BRANCH   5   6
ATOM      6  C   UNL     1       3.139  44.236  84.083  1.00  0.00     0.005 C 
ATOM      7  C   UNL     1       2.583  44.587  85.469  1.00  0.00     0.012 C 
ATOM      8  C   UNL     1       3.932  42.924  84.117  1.00  0.00     0.012 C 
ENDBRANCH   5   6
ENDBRANCH   3   4
ENDBRANCH   2   3
ENDBRANCH   1   2
BRANCH   1   9
ATOM      9  C   UNL     1      -1.130  47.391  79.293  1.00  0.00     0.100 C 
BRANCH   9  10
ATOM     10  C   UNL     1      -2.097  47.613  80.420  1.00  0.00     0.220 C 
ATOM     11  O   UNL     1      -3.169  46.952  80.453  1.00  0.00    -0.275 OA
ATOM     12  N   UNL     1      -1.786  48.543  81.467  1.00  0.00    -0.352 N 
ATOM     13  H   UNL     1      -0.877  49.058  81.439  1.00  0.00     0.163 HD
BRANCH  12  14
ATOM     14  C   UNL     1      -2.686  48.788  82.591  1.00  0.00     0.151 C 
BRANCH  14  15
ATOM     15  C   UNL     1      -1.937  48.667  83.891  1.00  0.00    -0.025 A 
ATOM     16  C   UNL     1      -2.504  49.133  85.088  1.00  0.00     0.056 A 
ATOM     17  C   UNL     1      -0.648  48.118  83.907  1.00  0.00     0.009 A 
ATOM     18  C   UNL     1      -1.789  49.042  86.300  1.00  0.00     0.160 A 
ATOM     19  C   UNL     1       0.063  48.024  85.104  1.00  0.00     0.050 A 
ATOM     20  C   UNL     1      -0.504  48.484  86.300  1.00  0.00     0.157 A 
BRANCH  18  21
ATOM     21  O   UNL     1      -2.321  49.497  87.517  1.00  0.00    -0.493 OA
ATOM     22  C   UNL     1      -3.348  48.833  88.247  1.00  0.00     0.278 C 
ENDBRANCH  18  21
BRANCH  20  23
ATOM     23  O   UNL     1       0.208  48.391  87.495  1.00  0.00    -0.504 OA
ATOM     24  H   UNL     1       1.165  48.714  87.569  1.00  0.00     0.293 HD
ENDBRANCH  20  23
ENDBRANCH  14  15
ENDBRANCH  12  14
ENDBRANCH   9  10
ENDBRANCH   1   9
TORSDOF 10
ENDMDL
MODEL 7
REMARK VINA RESULT:    -5.848      3.487      6.599
REMARK INTER + INTRA:          -9.682
REMARK INTER:                  -8.183
REMARK INTRA:                  -1.499
REMARK UNBOUND:                -0.587
REMARK SMILES COc1cc(CNC(=O)CCCCC=CC(C)C)ccc1O
REMARK SMILES IDX 11 1 12 2 13 3 14 4 15 5 16 6 17 7 18 8 10 9 8 10 9 11 7 12
REMARK SMILES IDX 6 14 5 15 4 16 19 17 3 18 20 19 21 20 2 21 1 22 22 23
REMARK H PARENT 7 13 22 24
REMARK Flexibility Score: inf
ROOT
ATOM      1  C   UNL     1      -1.874  48.591  79.330  1.00  0.00     0.010 C 
ENDROOT
BRANCH   1   2
ATOM      2  C   UNL     1      -3.328  48.152  79.603  1.00  0.00     0.005 C 
BRANCH   2   3
ATOM      3  C   UNL     1      -3.737  48.207  81.083  1.00  0.00     0.027 C 
BRANCH   3   4
ATOM      4  C   UNL     1      -2.837  49.116  81.875  1.00  0.00    -0.031 C 
ATOM      5  C   UNL     1      -2.589  48.902  83.179  1.00  0.00    -0.028 C 
BRANCH   5   6
ATOM      6  C   UNL     1      -1.740  49.835  84.012  1.00  0.00     0.005 C 
ATOM      7  C   UNL     1      -1.804  49.472  85.500  1.00  0.00     0.012 C 
ATOM      8  C   UNL     1      -0.292  49.867  83.508  1.00  0.00     0.012 C 
ENDBRANCH   5   6
ENDBRANCH   3   4
ENDBRANCH   2   3
ENDBRANCH   1   2
BRANCH   1   9
ATOM      9  C   UNL     1      -1.078  47.624  78.439  1.00  0.00     0.100 C 
BRANCH   9  10
ATOM     10  C   UNL     1      -0.853  46.301  79.111  1.00  0.00     0.220 C 
ATOM     11  O   UNL     1      -1.480  45.286  78.704  1.00  0.00    -0.275 OA
ATOM     12  N   UNL     1       0.093  46.186  80.183  1.00  0.00    -0.352 N 
ATOM     13  H   UNL     1       0.627  47.032  80.485  1.00  0.00     0.163 HD
BRANCH  12  14
ATOM     14  C   UNL     1       0.358  44.921  80.863  1.00  0.00     0.151 C 
BRANCH  14  15
ATOM     15  C   UNL     1       0.664  45.166  82.316  1.00  0.00    -0.025 A 
ATOM     16  C   UNL     1       1.720  44.491  82.949  1.00  0.00     0.056 A 
ATOM     17  C   UNL     1      -0.132  46.049  83.058  1.00  0.00     0.009 A 
ATOM     18  C   UNL     1       1.987  44.704  84.316  1.00  0.00     0.160 A 
ATOM     19  C   UNL     1       0.129  46.265  84.412  1.00  0.00     0.050 A 
ATOM     20  C   UNL     1       1.186  45.595  85.043  1.00  0.00     0.157 A 
BRANCH  18  21
ATOM     21  O   UNL     1       3.033  44.048  84.985  1.00  0.00    -0.493 OA
ATOM     22  C   UNL     1       4.216  43.567  84.355  1.00  0.00     0.278 C 
ENDBRANCH  18  21
BRANCH  20  23
ATOM     23  O   UNL     1       1.445  45.810  86.395  1.00  0.00    -0.504 OA
ATOM     24  H   UNL     1       2.306  46.244  86.708  1.00  0.00     0.293 HD
ENDBRANCH  20  23
ENDBRANCH  14  15
ENDBRANCH  12  14
ENDBRANCH   9  10
ENDBRANCH   1   9
TORSDOF 10
ENDMDL
MODEL 8
REMARK VINA RESULT:    -5.846      4.225      7.956
REMARK INTER + INTRA:          -9.679
REMARK INTER:                  -8.722
REMARK INTRA:                  -0.958
REMARK UNBOUND:                -0.587
REMARK SMILES COc1cc(CNC(=O)CCCCC=CC(C)C)ccc1O
REMARK SMILES IDX 11 1 12 2 13 3 14 4 15 5 16 6 17 7 18 8 10 9 8 10 9 11 7 12
REMARK SMILES IDX 6 14 5 15 4 16 19 17 3 18 20 19 21 20 2 21 1 22 22 23
REMARK H PARENT 7 13 22 24
REMARK Flexibility Score: inf
ROOT
ATOM      1  C   UNL     1       0.754  45.749  85.602  1.00  0.00     0.010 C 
ENDROOT
BRANCH   1   2
ATOM      2  C   UNL     1       0.437  45.284  84.166  1.00  0.00     0.005 C 
BRANCH   2   3
ATOM      3  C   UNL     1       1.664  44.810  83.370  1.00  0.00     0.027 C 
BRANCH   3   4
ATOM      4  C   UNL     1       2.669  44.126  84.256  1.00  0.00    -0.031 C 
ATOM      5  C   UNL     1       3.931  43.902  83.849  1.00  0.00    -0.028 C 
BRANCH   5   6
ATOM      6  C   UNL     1       4.943  43.161  84.694  1.00  0.00     0.005 C 
ATOM      7  C   UNL     1       4.933  41.658  84.391  1.00  0.00     0.012 C 
ATOM      8  C   UNL     1       6.347  43.754  84.526  1.00  0.00     0.012 C 
ENDBRANCH   5   6
ENDBRANCH   3   4
ENDBRANCH   2   3
ENDBRANCH   1   2
BRANCH   1   9
ATOM      9  C   UNL     1       0.717  47.273  85.796  1.00  0.00     0.100 C 
BRANCH   9  10
ATOM     10  C   UNL     1      -0.557  47.872  85.277  1.00  0.00     0.220 C 
ATOM     11  O   UNL     1      -1.635  47.665  85.897  1.00  0.00    -0.275 OA
ATOM     12  N   UNL     1      -0.542  48.701  84.106  1.00  0.00    -0.352 N 
ATOM     13  H   UNL     1       0.367  48.888  83.625  1.00  0.00     0.163 HD
BRANCH  12  14
ATOM     14  C   UNL     1      -1.751  49.318  83.566  1.00  0.00     0.151 C 
BRANCH  14  15
ATOM     15  C   UNL     1      -2.121  48.675  82.256  1.00  0.00    -0.025 A 
ATOM     16  C   UNL     1      -1.176  47.932  81.531  1.00  0.00     0.056 A 
ATOM     17  C   UNL     1      -3.411  48.847  81.734  1.00  0.00     0.009 A 
ATOM     18  C   UNL     1      -1.520  47.353  80.293  1.00  0.00     0.160 A 
ATOM     19  C   UNL     1      -3.757  48.275  80.509  1.00  0.00     0.050 A 
ATOM     20  C   UNL     1      -2.815  47.529  79.788  1.00  0.00     0.157 A 
BRANCH  18  21
ATOM     21  O   UNL     1      -0.603  46.604  79.539  1.00  0.00    -0.493 OA
ATOM     22  C   UNL     1       0.255  45.603  80.076  1.00  0.00     0.278 C 
ENDBRANCH  18  21
BRANCH  20  23
ATOM     23  O   UNL     1      -3.161  46.958  78.564  1.00  0.00    -0.504 OA
ATOM     24  H   UNL     1      -3.862  46.229  78.497  1.00  0.00     0.293 HD
ENDBRANCH  20  23
ENDBRANCH  14  15
ENDBRANCH  12  14
ENDBRANCH   9  10
ENDBRANCH   1   9
TORSDOF 10
ENDMDL
MODEL 9
REMARK VINA RESULT:    -5.833      4.042      7.345
REMARK INTER + INTRA:          -9.660
REMARK INTER:                  -8.212
REMARK INTRA:                  -1.448
REMARK UNBOUND:                -0.587
REMARK SMILES COc1cc(CNC(=O)CCCCC=CC(C)C)ccc1O
REMARK SMILES IDX 11 1 12 2 13 3 14 4 15 5 16 6 17 7 18 8 10 9 8 10 9 11 7 12
REMARK SMILES IDX 6 14 5 15 4 16 19 17 3 18 20 19 21 20 2 21 1 22 22 23
REMARK H PARENT 7 13 22 24
REMARK Flexibility Score: inf
ROOT
ATOM      1  C   UNL     1      -3.294  48.548  79.256  1.00  0.00     0.010 C 
ENDROOT
BRANCH   1   2
ATOM      2  C   UNL     1      -3.812  49.108  80.597  1.00  0.00     0.005 C 
BRANCH   2   3
ATOM      3  C   UNL     1      -3.562  48.189  81.804  1.00  0.00     0.027 C 
BRANCH   3   4
ATOM      4  C   UNL     1      -2.661  48.838  82.818  1.00  0.00    -0.031 C 
ATOM      5  C   UNL     1      -1.322  48.754  82.728  1.00  0.00    -0.028 C 
BRANCH   5   6
ATOM      6  C   UNL     1      -0.395  49.343  83.767  1.00  0.00     0.005 C 
ATOM      7  C   UNL     1      -0.927  50.679  84.299  1.00  0.00     0.012 C 
ATOM      8  C   UNL     1      -0.139  48.352  84.909  1.00  0.00     0.012 C 
ENDBRANCH   5   6
ENDBRANCH   3   4
ENDBRANCH   2   3
ENDBRANCH   1   2
BRANCH   1   9
ATOM      9  C   UNL     1      -1.789  48.756  79.022  1.00  0.00     0.100 C 
BRANCH   9  10
ATOM     10  C   UNL     1      -1.073  47.456  78.800  1.00  0.00     0.220 C 
ATOM     11  O   UNL     1      -0.292  47.341  77.817  1.00  0.00    -0.275 OA
ATOM     12  N   UNL     1      -1.248  46.367  79.716  1.00  0.00    -0.352 N 
ATOM     13  H   UNL     1      -1.875  46.492  80.543  1.00  0.00     0.163 HD
BRANCH  12  14
ATOM     14  C   UNL     1      -0.566  45.086  79.552  1.00  0.00     0.151 C 
BRANCH  14  15
ATOM     15  C   UNL     1       0.221  44.754  80.792  1.00  0.00    -0.025 A 
ATOM     16  C   UNL     1       0.457  43.418  81.153  1.00  0.00     0.056 A 
ATOM     17  C   UNL     1       0.694  45.784  81.615  1.00  0.00     0.009 A 
ATOM     18  C   UNL     1       1.172  43.110  82.327  1.00  0.00     0.160 A 
ATOM     19  C   UNL     1       1.405  45.486  82.779  1.00  0.00     0.050 A 
ATOM     20  C   UNL     1       1.645  44.153  83.137  1.00  0.00     0.157 A 
BRANCH  18  21
ATOM     21  O   UNL     1       1.429  41.788  82.722  1.00  0.00    -0.493 OA
ATOM     22  C   UNL     1       2.548  41.020  82.291  1.00  0.00     0.278 C 
ENDBRANCH  18  21
BRANCH  20  23
ATOM     23  O   UNL     1       2.354  43.855  84.300  1.00  0.00    -0.504 OA
ATOM     24  H   UNL     1       3.365  43.911  84.334  1.00  0.00     0.293 HD
ENDBRANCH  20  23
ENDBRANCH  14  15
ENDBRANCH  12  14
ENDBRANCH   9  10
ENDBRANCH   1   9
TORSDOF 10
ENDMDL
