MODEL 1
REMARK VINA RESULT:    -7.470      0.000      0.000
REMARK INTER + INTRA:          -8.794
REMARK INTER:                  -8.780
REMARK INTRA:                  -0.014
REMARK UNBOUND:                -0.014
REMARK SMILES O=c1c(O)c(-c2ccc(O)cc2)oc2cc(O)cc(O)c12
REMARK SMILES IDX 5 1 3 2 2 3 1 4 21 5 19 6 18 7 16 8 15 9 14 10 13 11 6 12
REMARK SMILES IDX 7 13 8 14 9 15 12 16 11 17 10 18 4 20 20 22 17 24
REMARK H PARENT 10 19 4 21 20 23 17 25
REMARK Flexibility Score: inf
ROOT
ATOM      1  C   UNL     1       2.687  -5.610  24.081  1.00  0.00     0.180 A 
ATOM      2  C   UNL     1       1.472  -4.936  24.297  1.00  0.00     0.208 A 
ATOM      3  C   UNL     1       0.936  -4.152  23.264  1.00  0.00     0.238 A 
ATOM      4  O   UNL     1      -0.124  -3.508  23.481  1.00  0.00    -0.285 OA
ATOM      5  C   UNL     1       1.611  -4.065  22.022  1.00  0.00     0.111 A 
ATOM      6  C   UNL     1       1.138  -3.332  20.892  1.00  0.00     0.134 A 
ATOM      7  C   UNL     1       1.952  -3.208  19.759  1.00  0.00     0.093 A 
ATOM      8  C   UNL     1       3.191  -3.843  19.689  1.00  0.00     0.123 A 
ATOM      9  C   UNL     1       3.638  -4.611  20.766  1.00  0.00     0.094 A 
ATOM     10  C   UNL     1       2.864  -4.724  21.924  1.00  0.00     0.146 A 
ATOM     11  O   UNL     1       3.329  -5.455  22.929  1.00  0.00    -0.452 OA
ENDROOT
BRANCH   1  12
ATOM     12  C   UNL     1       3.303  -6.475  25.113  1.00  0.00     0.021 A 
ATOM     13  C   UNL     1       4.662  -6.313  25.431  1.00  0.00     0.016 A 
ATOM     14  C   UNL     1       5.269  -7.133  26.387  1.00  0.00     0.047 A 
ATOM     15  C   UNL     1       4.528  -8.137  27.024  1.00  0.00     0.115 A 
ATOM     16  C   UNL     1       2.572  -7.498  25.744  1.00  0.00     0.016 A 
ATOM     17  C   UNL     1       3.181  -8.318  26.699  1.00  0.00     0.047 A 
BRANCH  15  18
ATOM     18  O   UNL     1       5.123  -8.960  27.979  1.00  0.00    -0.508 OA
ATOM     19  H   UNL     1       5.132  -9.968  27.877  1.00  0.00     0.293 HD
ENDBRANCH  15  18
ENDBRANCH   1  12
BRANCH   2  20
ATOM     20  O   UNL     1       0.833  -5.019  25.537  1.00  0.00    -0.502 OA
ATOM     21  H   UNL     1      -0.160  -4.860  25.648  1.00  0.00     0.293 HD
ENDBRANCH   2  20
BRANCH   6  22
ATOM     22  O   UNL     1      -0.125  -2.736  20.821  1.00  0.00    -0.507 OA
ATOM     23  H   UNL     1      -0.587  -2.277  21.591  1.00  0.00     0.293 HD
ENDBRANCH   6  22
BRANCH   8  24
ATOM     24  O   UNL     1       3.968  -3.711  18.541  1.00  0.00    -0.508 OA
ATOM     25  H   UNL     1       3.871  -2.913  17.925  1.00  0.00     0.293 HD
ENDBRANCH   8  24
TORSDOF 5
ENDMDL
MODEL 2
REMARK VINA RESULT:    -7.401      1.755      1.831
REMARK INTER + INTRA:          -8.713
REMARK INTER:                  -8.451
REMARK INTRA:                  -0.263
REMARK UNBOUND:                -0.014
REMARK SMILES O=c1c(O)c(-c2ccc(O)cc2)oc2cc(O)cc(O)c12
REMARK SMILES IDX 5 1 3 2 2 3 1 4 21 5 19 6 18 7 16 8 15 9 14 10 13 11 6 12
REMARK SMILES IDX 7 13 8 14 9 15 12 16 11 17 10 18 4 20 20 22 17 24
REMARK H PARENT 10 19 4 21 20 23 17 25
REMARK Flexibility Score: inf
ROOT
ATOM      1  C   UNL     1       2.863  -4.595  24.297  1.00  0.00     0.180 A 
ATOM      2  C   UNL     1       2.695  -3.327  24.881  1.00  0.00     0.208 A 
ATOM      3  C   UNL     1       2.245  -2.264  24.082  1.00  0.00     0.238 A 
ATOM      4  O   UNL     1       2.148  -1.120  24.596  1.00  0.00    -0.285 OA
ATOM      5  C   UNL     1       1.951  -2.486  22.715  1.00  0.00     0.111 A 
ATOM      6  C   UNL     1       1.450  -1.491  21.821  1.00  0.00     0.134 A 
ATOM      7  C   UNL     1       1.320  -1.789  20.459  1.00  0.00     0.093 A 
ATOM      8  C   UNL     1       1.610  -3.061  19.969  1.00  0.00     0.123 A 
ATOM      9  C   UNL     1       2.044  -4.059  20.843  1.00  0.00     0.094 A 
ATOM     10  C   UNL     1       2.218  -3.782  22.202  1.00  0.00     0.146 A 
ATOM     11  O   UNL     1       2.643  -4.755  22.998  1.00  0.00    -0.452 OA
ENDROOT
BRANCH   1  12
ATOM     12  C   UNL     1       3.311  -5.770  25.081  1.00  0.00     0.021 A 
ATOM     13  C   UNL     1       4.682  -5.956  25.326  1.00  0.00     0.016 A 
ATOM     14  C   UNL     1       5.128  -7.070  26.043  1.00  0.00     0.047 A 
ATOM     15  C   UNL     1       4.210  -8.019  26.511  1.00  0.00     0.115 A 
ATOM     16  C   UNL     1       2.398  -6.738  25.537  1.00  0.00     0.016 A 
ATOM     17  C   UNL     1       2.847  -7.851  26.254  1.00  0.00     0.047 A 
BRANCH  15  18
ATOM     18  O   UNL     1       4.644  -9.133  27.228  1.00  0.00    -0.508 OA
ATOM     19  H   UNL     1       5.620  -9.402  27.250  1.00  0.00     0.293 HD
ENDBRANCH  15  18
ENDBRANCH   1  12
BRANCH   2  20
ATOM     20  O   UNL     1       3.011  -3.125  26.227  1.00  0.00    -0.502 OA
ATOM     21  H   UNL     1       3.749  -3.638  26.696  1.00  0.00     0.293 HD
ENDBRANCH   2  20
BRANCH   6  22
ATOM     22  O   UNL     1       1.043  -0.216  22.224  1.00  0.00    -0.507 OA
ATOM     23  H   UNL     1       0.512   0.425  21.652  1.00  0.00     0.293 HD
ENDBRANCH   6  22
BRANCH   8  24
ATOM     24  O   UNL     1       1.454  -3.326  18.610  1.00  0.00    -0.508 OA
ATOM     25  H   UNL     1       0.830  -2.778  18.032  1.00  0.00     0.293 HD
ENDBRANCH   8  24
TORSDOF 5
ENDMDL
MODEL 3
REMARK VINA RESULT:    -7.302      1.867      3.375
REMARK INTER + INTRA:          -8.597
REMARK INTER:                  -8.323
REMARK INTRA:                  -0.274
REMARK UNBOUND:                -0.014
REMARK SMILES O=c1c(O)c(-c2ccc(O)cc2)oc2cc(O)cc(O)c12
REMARK SMILES IDX 5 1 3 2 2 3 1 4 21 5 19 6 18 7 16 8 15 9 14 10 13 11 6 12
REMARK SMILES IDX 7 13 8 14 9 15 12 16 11 17 10 18 4 20 20 22 17 24
REMARK H PARENT 10 19 4 21 20 23 17 25
REMARK Flexibility Score: inf
ROOT
ATOM      1  C   UNL     1       2.992  -4.953  23.890  1.00  0.00     0.180 A 
ATOM      2  C   UNL     1       3.181  -5.021  22.499  1.00  0.00     0.208 A 
ATOM      3  C   UNL     1       2.751  -3.949  21.701  1.00  0.00     0.238 A 
ATOM      4  O   UNL     1       2.874  -4.039  20.451  1.00  0.00    -0.285 OA
ATOM      5  C   UNL     1       2.154  -2.816  22.304  1.00  0.00     0.111 A 
ATOM      6  C   UNL     1       1.718  -1.656  21.596  1.00  0.00     0.134 A 
ATOM      7  C   UNL     1       1.022  -0.651  22.278  1.00  0.00     0.093 A 
ATOM      8  C   UNL     1       0.803  -0.732  23.653  1.00  0.00     0.123 A 
ATOM      9  C   UNL     1       1.276  -1.835  24.366  1.00  0.00     0.094 A 
ATOM     10  C   UNL     1       1.943  -2.871  23.706  1.00  0.00     0.146 A 
ATOM     11  O   UNL     1       2.368  -3.906  24.419  1.00  0.00    -0.452 OA
ENDROOT
BRANCH   1  12
ATOM     12  C   UNL     1       3.440  -6.032  24.801  1.00  0.00     0.021 A 
ATOM     13  C   UNL     1       2.496  -6.932  25.324  1.00  0.00     0.016 A 
ATOM     14  C   UNL     1       2.894  -7.944  26.203  1.00  0.00     0.047 A 
ATOM     15  C   UNL     1       4.238  -8.060  26.580  1.00  0.00     0.115 A 
ATOM     16  C   UNL     1       4.784  -6.143  25.200  1.00  0.00     0.016 A 
ATOM     17  C   UNL     1       5.179  -7.156  26.079  1.00  0.00     0.047 A 
BRANCH  15  18
ATOM     18  O   UNL     1       4.646  -9.065  27.455  1.00  0.00    -0.508 OA
ATOM     19  H   UNL     1       4.671  -8.918  28.457  1.00  0.00     0.293 HD
ENDBRANCH  15  18
ENDBRANCH   1  12
BRANCH   2  20
ATOM     20  O   UNL     1       3.753  -6.158  21.922  1.00  0.00    -0.502 OA
ATOM     21  H   UNL     1       4.123  -6.921  22.476  1.00  0.00     0.293 HD
ENDBRANCH   2  20
BRANCH   6  22
ATOM     22  O   UNL     1       1.967  -1.431  20.238  1.00  0.00    -0.507 OA
ATOM     23  H   UNL     1       2.777  -1.767  19.739  1.00  0.00     0.293 HD
ENDBRANCH   6  22
BRANCH   8  24
ATOM     24  O   UNL     1       0.120   0.293  24.302  1.00  0.00    -0.508 OA
ATOM     25  H   UNL     1      -0.809   0.577  24.014  1.00  0.00     0.293 HD
ENDBRANCH   8  24
TORSDOF 5
ENDMDL
MODEL 4
REMARK VINA RESULT:    -7.290      3.650      8.218
REMARK INTER + INTRA:          -8.583
REMARK INTER:                  -8.334
REMARK INTRA:                  -0.248
REMARK UNBOUND:                -0.014
REMARK SMILES O=c1c(O)c(-c2ccc(O)cc2)oc2cc(O)cc(O)c12
REMARK SMILES IDX 5 1 3 2 2 3 1 4 21 5 19 6 18 7 16 8 15 9 14 10 13 11 6 12
REMARK SMILES IDX 7 13 8 14 9 15 12 16 11 17 10 18 4 20 20 22 17 24
REMARK H PARENT 10 19 4 21 20 23 17 25
REMARK Flexibility Score: inf
ROOT
ATOM      1  C   UNL     1       2.746  -0.820  20.766  1.00  0.00     0.180 A 
ATOM      2  C   UNL     1       3.557  -1.889  20.351  1.00  0.00     0.208 A 
ATOM      3  C   UNL     1       3.442  -3.126  21.005  1.00  0.00     0.238 A 
ATOM      4  O   UNL     1       4.208  -4.065  20.665  1.00  0.00    -0.285 OA
ATOM      5  C   UNL     1       2.505  -3.283  22.054  1.00  0.00     0.111 A 
ATOM      6  C   UNL     1       2.274  -4.502  22.761  1.00  0.00     0.134 A 
ATOM      7  C   UNL     1       1.417  -4.508  23.868  1.00  0.00     0.093 A 
ATOM      8  C   UNL     1       0.732  -3.357  24.255  1.00  0.00     0.123 A 
ATOM      9  C   UNL     1       0.904  -2.173  23.536  1.00  0.00     0.094 A 
ATOM     10  C   UNL     1       1.781  -2.127  22.448  1.00  0.00     0.146 A 
ATOM     11  O   UNL     1       1.924  -0.979  21.797  1.00  0.00    -0.452 OA
ENDROOT
BRANCH   1  12
ATOM     12  C   UNL     1       2.793   0.507  20.109  1.00  0.00     0.021 A 
ATOM     13  C   UNL     1       3.384   1.591  20.781  1.00  0.00     0.016 A 
ATOM     14  C   UNL     1       3.420   2.857  20.189  1.00  0.00     0.047 A 
ATOM     15  C   UNL     1       2.851   3.058  18.925  1.00  0.00     0.115 A 
ATOM     16  C   UNL     1       2.206   0.723  18.849  1.00  0.00     0.016 A 
ATOM     17  C   UNL     1       2.243   1.990  18.260  1.00  0.00     0.047 A 
BRANCH  15  18
ATOM     18  O   UNL     1       2.881   4.316  18.325  1.00  0.00    -0.508 OA
ATOM     19  H   UNL     1       3.201   5.135  18.827  1.00  0.00     0.293 HD
ENDBRANCH  15  18
ENDBRANCH   1  12
BRANCH   2  20
ATOM     20  O   UNL     1       4.491  -1.707  19.327  1.00  0.00    -0.502 OA
ATOM     21  H   UNL     1       5.015  -0.848  19.215  1.00  0.00     0.293 HD
ENDBRANCH   2  20
BRANCH   6  22
ATOM     22  O   UNL     1       2.836  -5.730  22.400  1.00  0.00    -0.507 OA
ATOM     23  H   UNL     1       3.807  -5.975  22.519  1.00  0.00     0.293 HD
ENDBRANCH   6  22
BRANCH   8  24
ATOM     24  O   UNL     1      -0.125  -3.402  25.352  1.00  0.00    -0.508 OA
ATOM     25  H   UNL     1      -0.615  -2.577  25.676  1.00  0.00     0.293 HD
ENDBRANCH   8  24
TORSDOF 5
ENDMDL
MODEL 5
REMARK VINA RESULT:    -7.279      1.918      6.752
REMARK INTER + INTRA:          -8.569
REMARK INTER:                  -8.318
REMARK INTRA:                  -0.251
REMARK UNBOUND:                -0.014
REMARK SMILES O=c1c(O)c(-c2ccc(O)cc2)oc2cc(O)cc(O)c12
REMARK SMILES IDX 5 1 3 2 2 3 1 4 21 5 19 6 18 7 16 8 15 9 14 10 13 11 6 12
REMARK SMILES IDX 7 13 8 14 9 15 12 16 11 17 10 18 4 20 20 22 17 24
REMARK H PARENT 10 19 4 21 20 23 17 25
REMARK Flexibility Score: inf
ROOT
ATOM      1  C   UNL     1       1.652  -4.578  24.526  1.00  0.00     0.180 A 
ATOM      2  C   UNL     1       1.307  -3.790  25.637  1.00  0.00     0.208 A 
ATOM      3  C   UNL     1       1.609  -4.259  26.925  1.00  0.00     0.238 A 
ATOM      4  O   UNL     1       1.250  -3.575  27.919  1.00  0.00    -0.285 OA
ATOM      5  C   UNL     1       2.265  -5.504  27.086  1.00  0.00     0.111 A 
ATOM      6  C   UNL     1       2.655  -6.059  28.342  1.00  0.00     0.134 A 
ATOM      7  C   UNL     1       3.180  -7.356  28.391  1.00  0.00     0.093 A 
ATOM      8  C   UNL     1       3.390  -8.093  27.226  1.00  0.00     0.123 A 
ATOM      9  C   UNL     1       3.068  -7.537  25.987  1.00  0.00     0.094 A 
ATOM     10  C   UNL     1       2.509  -6.258  25.909  1.00  0.00     0.146 A 
ATOM     11  O   UNL     1       2.207  -5.771  24.712  1.00  0.00    -0.452 OA
ENDROOT
BRANCH   1  12
ATOM     12  C   UNL     1       1.389  -4.139  23.136  1.00  0.00     0.021 A 
ATOM     13  C   UNL     1       2.429  -3.569  22.382  1.00  0.00     0.016 A 
ATOM     14  C   UNL     1       2.198  -3.128  21.076  1.00  0.00     0.047 A 
ATOM     15  C   UNL     1       0.919  -3.236  20.514  1.00  0.00     0.115 A 
ATOM     16  C   UNL     1       0.104  -4.226  22.571  1.00  0.00     0.016 A 
ATOM     17  C   UNL     1      -0.125  -3.783  21.264  1.00  0.00     0.047 A 
BRANCH  15  18
ATOM     18  O   UNL     1       0.677  -2.799  19.213  1.00  0.00    -0.508 OA
ATOM     19  H   UNL     1       1.422  -2.727  18.530  1.00  0.00     0.293 HD
ENDBRANCH  15  18
ENDBRANCH   1  12
BRANCH   2  20
ATOM     20  O   UNL     1       0.641  -2.574  25.458  1.00  0.00    -0.502 OA
ATOM     21  H   UNL     1       1.110  -1.680  25.532  1.00  0.00     0.293 HD
ENDBRANCH   2  20
BRANCH   6  22
ATOM     22  O   UNL     1       2.574  -5.372  29.557  1.00  0.00    -0.507 OA
ATOM     23  H   UNL     1       1.793  -4.801  29.843  1.00  0.00     0.293 HD
ENDBRANCH   6  22
BRANCH   8  24
ATOM     24  O   UNL     1       3.929  -9.374  27.310  1.00  0.00    -0.508 OA
ATOM     25  H   UNL     1       4.915  -9.523  27.491  1.00  0.00     0.293 HD
ENDBRANCH   8  24
TORSDOF 5
ENDMDL
MODEL 6
REMARK VINA RESULT:    -7.173      3.756      7.826
REMARK INTER + INTRA:          -8.444
REMARK INTER:                  -8.235
REMARK INTRA:                  -0.209
REMARK UNBOUND:                -0.014
REMARK SMILES O=c1c(O)c(-c2ccc(O)cc2)oc2cc(O)cc(O)c12
REMARK SMILES IDX 5 1 3 2 2 3 1 4 21 5 19 6 18 7 16 8 15 9 14 10 13 11 6 12
REMARK SMILES IDX 7 13 8 14 9 15 12 16 11 17 10 18 4 20 20 22 17 24
REMARK H PARENT 10 19 4 21 20 23 17 25
REMARK Flexibility Score: inf
ROOT
ATOM      1  C   UNL     1       2.811  -0.764  20.433  1.00  0.00     0.180 A 
ATOM      2  C   UNL     1       2.019  -1.133  21.534  1.00  0.00     0.208 A 
ATOM      3  C   UNL     1       2.047  -2.465  21.976  1.00  0.00     0.238 A 
ATOM      4  O   UNL     1       1.295  -2.803  22.927  1.00  0.00    -0.285 OA
ATOM      5  C   UNL     1       2.879  -3.407  21.323  1.00  0.00     0.111 A 
ATOM      6  C   UNL     1       3.016  -4.774  21.711  1.00  0.00     0.134 A 
ATOM      7  C   UNL     1       3.766  -5.646  20.913  1.00  0.00     0.093 A 
ATOM      8  C   UNL     1       4.437  -5.190  19.780  1.00  0.00     0.123 A 
ATOM      9  C   UNL     1       4.358  -3.842  19.424  1.00  0.00     0.094 A 
ATOM     10  C   UNL     1       3.587  -2.955  20.180  1.00  0.00     0.146 A 
ATOM     11  O   UNL     1       3.530  -1.684  19.801  1.00  0.00    -0.452 OA
ENDROOT
BRANCH   1  12
ATOM     12  C   UNL     1       2.854   0.627  19.925  1.00  0.00     0.021 A 
ATOM     13  C   UNL     1       2.327   0.916  18.654  1.00  0.00     0.016 A 
ATOM     14  C   UNL     1       2.376   2.217  18.145  1.00  0.00     0.047 A 
ATOM     15  C   UNL     1       2.968   3.242  18.894  1.00  0.00     0.115 A 
ATOM     16  C   UNL     1       3.464   1.659  20.661  1.00  0.00     0.016 A 
ATOM     17  C   UNL     1       3.513   2.959  20.149  1.00  0.00     0.047 A 
BRANCH  15  18
ATOM     18  O   UNL     1       3.023   4.543  18.397  1.00  0.00    -0.508 OA
ATOM     19  H   UNL     1       3.619   4.786  17.614  1.00  0.00     0.293 HD
ENDBRANCH  15  18
ENDBRANCH   1  12
BRANCH   2  20
ATOM     20  O   UNL     1       1.189  -0.193  22.150  1.00  0.00    -0.502 OA
ATOM     21  H   UNL     1       0.207  -0.366  22.324  1.00  0.00     0.293 HD
ENDBRANCH   2  20
BRANCH   6  22
ATOM     22  O   UNL     1       2.464  -5.313  22.877  1.00  0.00    -0.507 OA
ATOM     23  H   UNL     1       1.519  -5.656  22.960  1.00  0.00     0.293 HD
ENDBRANCH   6  22
BRANCH   8  24
ATOM     24  O   UNL     1       5.187  -6.082  19.018  1.00  0.00    -0.508 OA
ATOM     25  H   UNL     1       6.180  -6.205  19.172  1.00  0.00     0.293 HD
ENDBRANCH   8  24
TORSDOF 5
ENDMDL
MODEL 7
REMARK VINA RESULT:    -7.143     12.681     14.927
REMARK INTER + INTRA:          -8.410
REMARK INTER:                  -8.480
REMARK INTRA:                   0.070
REMARK UNBOUND:                -0.014
REMARK SMILES O=c1c(O)c(-c2ccc(O)cc2)oc2cc(O)cc(O)c12
REMARK SMILES IDX 5 1 3 2 2 3 1 4 21 5 19 6 18 7 16 8 15 9 14 10 13 11 6 12
REMARK SMILES IDX 7 13 8 14 9 15 12 16 11 17 10 18 4 20 20 22 17 24
REMARK H PARENT 10 19 4 21 20 23 17 25
REMARK Flexibility Score: inf
ROOT
ATOM      1  C   UNL     1      16.276  -4.364  28.589  1.00  0.00     0.180 A 
ATOM      2  C   UNL     1      17.018  -4.048  27.438  1.00  0.00     0.208 A 
ATOM      3  C   UNL     1      16.855  -4.834  26.286  1.00  0.00     0.238 A 
ATOM      4  O   UNL     1      17.561  -4.581  25.275  1.00  0.00    -0.285 OA
ATOM      5  C   UNL     1      15.941  -5.916  26.294  1.00  0.00     0.111 A 
ATOM      6  C   UNL     1      15.666  -6.754  25.172  1.00  0.00     0.134 A 
ATOM      7  C   UNL     1      14.842  -7.874  25.332  1.00  0.00     0.093 A 
ATOM      8  C   UNL     1      14.230  -8.150  26.554  1.00  0.00     0.123 A 
ATOM      9  C   UNL     1      14.444  -7.304  27.643  1.00  0.00     0.094 A 
ATOM     10  C   UNL     1      15.291  -6.198  27.524  1.00  0.00     0.146 A 
ATOM     11  O   UNL     1      15.476  -5.424  28.586  1.00  0.00    -0.452 OA
ENDROOT
BRANCH   1  12
ATOM     12  C   UNL     1      16.375  -3.567  29.834  1.00  0.00     0.021 A 
ATOM     13  C   UNL     1      16.434  -4.225  31.074  1.00  0.00     0.016 A 
ATOM     14  C   UNL     1      16.506  -3.492  32.262  1.00  0.00     0.047 A 
ATOM     15  C   UNL     1      16.502  -2.092  32.226  1.00  0.00     0.115 A 
ATOM     16  C   UNL     1      16.352  -2.161  29.807  1.00  0.00     0.016 A 
ATOM     17  C   UNL     1      16.422  -1.430  30.998  1.00  0.00     0.047 A 
BRANCH  15  18
ATOM     18  O   UNL     1      16.573  -1.351  33.404  1.00  0.00    -0.508 OA
ATOM     19  H   UNL     1      15.752  -1.182  33.974  1.00  0.00     0.293 HD
ENDBRANCH  15  18
ENDBRANCH   1  12
BRANCH   2  20
ATOM     20  O   UNL     1      17.931  -2.990  27.458  1.00  0.00    -0.502 OA
ATOM     21  H   UNL     1      18.838  -3.046  27.011  1.00  0.00     0.293 HD
ENDBRANCH   2  20
BRANCH   6  22
ATOM     22  O   UNL     1      16.152  -6.516  23.883  1.00  0.00    -0.507 OA
ATOM     23  H   UNL     1      17.102  -6.684  23.587  1.00  0.00     0.293 HD
ENDBRANCH   6  22
BRANCH   8  24
ATOM     24  O   UNL     1      13.403  -9.264  26.673  1.00  0.00    -0.508 OA
ATOM     25  H   UNL     1      12.481  -9.198  27.088  1.00  0.00     0.293 HD
ENDBRANCH   8  24
TORSDOF 5
ENDMDL
MODEL 8
REMARK VINA RESULT:    -7.142     11.916     13.918
REMARK INTER + INTRA:          -8.408
REMARK INTER:                  -8.196
REMARK INTRA:                  -0.212
REMARK UNBOUND:                -0.014
REMARK SMILES O=c1c(O)c(-c2ccc(O)cc2)oc2cc(O)cc(O)c12
REMARK SMILES IDX 5 1 3 2 2 3 1 4 21 5 19 6 18 7 16 8 15 9 14 10 13 11 6 12
REMARK SMILES IDX 7 13 8 14 9 15 12 16 11 17 10 18 4 20 20 22 17 24
REMARK H PARENT 10 19 4 21 20 23 17 25
REMARK Flexibility Score: inf
ROOT
ATOM      1  C   UNL     1      16.422  -6.534  23.341  1.00  0.00     0.180 A 
ATOM      2  C   UNL     1      17.398  -6.041  22.458  1.00  0.00     0.208 A 
ATOM      3  C   UNL     1      17.136  -6.050  21.079  1.00  0.00     0.238 A 
ATOM      4  O   UNL     1      18.035  -5.657  20.290  1.00  0.00    -0.285 OA
ATOM      5  C   UNL     1      15.895  -6.535  20.601  1.00  0.00     0.111 A 
ATOM      6  C   UNL     1      15.506  -6.554  19.228  1.00  0.00     0.134 A 
ATOM      7  C   UNL     1      14.309  -7.178  18.857  1.00  0.00     0.093 A 
ATOM      8  C   UNL     1      13.455  -7.725  19.814  1.00  0.00     0.123 A 
ATOM      9  C   UNL     1      13.797  -7.660  21.166  1.00  0.00     0.094 A 
ATOM     10  C   UNL     1      15.003  -7.076  21.563  1.00  0.00     0.146 A 
ATOM     11  O   UNL     1      15.295  -7.044  22.857  1.00  0.00    -0.452 OA
ENDROOT
BRANCH   1  12
ATOM     12  C   UNL     1      16.615  -6.534  24.809  1.00  0.00     0.021 A 
ATOM     13  C   UNL     1      15.957  -5.572  25.595  1.00  0.00     0.016 A 
ATOM     14  C   UNL     1      16.143  -5.540  26.980  1.00  0.00     0.047 A 
ATOM     15  C   UNL     1      17.001  -6.460  27.595  1.00  0.00     0.115 A 
ATOM     16  C   UNL     1      17.490  -7.441  25.433  1.00  0.00     0.016 A 
ATOM     17  C   UNL     1      17.675  -7.407  26.819  1.00  0.00     0.047 A 
BRANCH  15  18
ATOM     18  O   UNL     1      17.194  -6.439  28.975  1.00  0.00    -0.508 OA
ATOM     19  H   UNL     1      16.582  -6.946  29.604  1.00  0.00     0.293 HD
ENDBRANCH  15  18
ENDBRANCH   1  12
BRANCH   2  20
ATOM     20  O   UNL     1      18.625  -5.586  22.950  1.00  0.00    -0.502 OA
ATOM     21  H   UNL     1      19.509  -5.984  22.658  1.00  0.00     0.293 HD
ENDBRANCH   2  20
BRANCH   6  22
ATOM     22  O   UNL     1      16.241  -5.954  18.200  1.00  0.00    -0.507 OA
ATOM     23  H   UNL     1      16.576  -6.433  17.378  1.00  0.00     0.293 HD
ENDBRANCH   6  22
BRANCH   8  24
ATOM     24  O   UNL     1      12.264  -8.324  19.411  1.00  0.00    -0.508 OA
ATOM     25  H   UNL     1      12.119  -9.323  19.493  1.00  0.00     0.293 HD
ENDBRANCH   8  24
TORSDOF 5
ENDMDL
MODEL 9
REMARK VINA RESULT:    -7.103     12.309     13.792
REMARK INTER + INTRA:          -8.362
REMARK INTER:                  -8.276
REMARK INTRA:                  -0.086
REMARK UNBOUND:                -0.014
REMARK SMILES O=c1c(O)c(-c2ccc(O)cc2)oc2cc(O)cc(O)c12
REMARK SMILES IDX 5 1 3 2 2 3 1 4 21 5 19 6 18 7 16 8 15 9 14 10 13 11 6 12
REMARK SMILES IDX 7 13 8 14 9 15 12 16 11 17 10 18 4 20 20 22 17 24
REMARK H PARENT 10 19 4 21 20 23 17 25
REMARK Flexibility Score: inf
ROOT
ATOM      1  C   UNL     1      14.931  -4.986  28.767  1.00  0.00     0.180 A 
ATOM      2  C   UNL     1      14.213  -6.063  29.312  1.00  0.00     0.208 A 
ATOM      3  C   UNL     1      13.855  -7.134  28.478  1.00  0.00     0.238 A 
ATOM      4  O   UNL     1      13.166  -8.072  28.959  1.00  0.00    -0.285 OA
ATOM      5  C   UNL     1      14.234  -7.122  27.114  1.00  0.00     0.111 A 
ATOM      6  C   UNL     1      13.960  -8.173  26.187  1.00  0.00     0.134 A 
ATOM      7  C   UNL     1      14.267  -7.996  24.832  1.00  0.00     0.093 A 
ATOM      8  C   UNL     1      14.895  -6.836  24.381  1.00  0.00     0.123 A 
ATOM      9  C   UNL     1      15.222  -5.827  25.289  1.00  0.00     0.094 A 
ATOM     10  C   UNL     1      14.896  -5.959  26.641  1.00  0.00     0.146 A 
ATOM     11  O   UNL     1      15.214  -4.972  27.469  1.00  0.00    -0.452 OA
ENDROOT
BRANCH   1  12
ATOM     12  C   UNL     1      15.366  -3.832  29.588  1.00  0.00     0.021 A 
ATOM     13  C   UNL     1      15.008  -2.530  29.197  1.00  0.00     0.016 A 
ATOM     14  C   UNL     1      15.425  -1.426  29.945  1.00  0.00     0.047 A 
ATOM     15  C   UNL     1      16.219  -1.608  31.085  1.00  0.00     0.115 A 
ATOM     16  C   UNL     1      16.179  -4.004  30.722  1.00  0.00     0.016 A 
ATOM     17  C   UNL     1      16.596  -2.897  31.469  1.00  0.00     0.047 A 
BRANCH  15  18
ATOM     18  O   UNL     1      16.642  -0.514  31.839  1.00  0.00    -0.508 OA
ATOM     19  H   UNL     1      17.203  -0.632  32.674  1.00  0.00     0.293 HD
ENDBRANCH  15  18
ENDBRANCH   1  12
BRANCH   2  20
ATOM     20  O   UNL     1      13.830  -6.045  30.656  1.00  0.00    -0.502 OA
ATOM     21  H   UNL     1      13.129  -5.408  31.014  1.00  0.00     0.293 HD
ENDBRANCH   2  20
BRANCH   6  22
ATOM     22  O   UNL     1      13.418  -9.410  26.548  1.00  0.00    -0.507 OA
ATOM     23  H   UNL     1      13.864 -10.075  27.162  1.00  0.00     0.293 HD
ENDBRANCH   6  22
BRANCH   8  24
ATOM     24  O   UNL     1      15.200  -6.700  23.029  1.00  0.00    -0.508 OA
ATOM     25  H   UNL     1      16.155  -6.595  22.709  1.00  0.00     0.293 HD
ENDBRANCH   8  24
TORSDOF 5
ENDMDL
