MODEL 1
REMARK VINA RESULT:    -3.763      0.000      0.000
REMARK INTER + INTRA:          -4.733
REMARK INTER:                  -4.643
REMARK INTRA:                  -0.090
REMARK UNBOUND:                -0.090
REMARK SMILES CCCCCC(=O)[O-]
REMARK SMILES IDX 4 1 5 2 6 3 7 4 8 5 3 6 2 7 1 8
REMARK H PARENT
REMARK Flexibility Score: inf
ROOT
ATOM      1  C   UNL     1      13.470 -58.720 -32.251  1.00  0.00     0.006 C 
ENDROOT
BRANCH   1   2
ATOM      2  C   UNL     1      13.122 -57.897 -31.005  1.00  0.00     0.053 C 
BRANCH   2   3
ATOM      3  C   UNL     1      13.396 -56.445 -31.245  1.00  0.00     0.041 C 
ATOM      4  O   UNL     1      13.523 -55.656 -30.273  1.00  0.00    -0.550 OA
ATOM      5  O   UNL     1      13.560 -55.974 -32.541  1.00  0.00    -0.550 OA
ENDBRANCH   2   3
ENDBRANCH   1   2
BRANCH   1   6
ATOM      6  C   UNL     1      13.432 -60.234 -31.990  1.00  0.00     0.000 C 
BRANCH   6   7
ATOM      7  C   UNL     1      14.717 -60.752 -31.328  1.00  0.00    -0.003 C 
ATOM      8  C   UNL     1      14.471 -61.125 -29.868  1.00  0.00     0.004 C 
ENDBRANCH   6   7
ENDBRANCH   1   6
TORSDOF 4
ENDMDL
MODEL 2
REMARK VINA RESULT:    -3.697      9.736     11.315
REMARK INTER + INTRA:          -4.651
REMARK INTER:                  -4.585
REMARK INTRA:                  -0.066
REMARK UNBOUND:                -0.090
REMARK SMILES CCCCCC(=O)[O-]
REMARK SMILES IDX 4 1 5 2 6 3 7 4 8 5 3 6 2 7 1 8
REMARK H PARENT
REMARK Flexibility Score: inf
ROOT
ATOM      1  C   UNL     1      19.124 -49.195 -31.713  1.00  0.00     0.006 C 
ENDROOT
BRANCH   1   2
ATOM      2  C   UNL     1      20.176 -49.805 -32.647  1.00  0.00     0.053 C 
BRANCH   2   3
ATOM      3  C   UNL     1      20.269 -51.283 -32.434  1.00  0.00     0.041 C 
ATOM      4  O   UNL     1      21.270 -51.777 -31.851  1.00  0.00    -0.550 OA
ATOM      5  O   UNL     1      19.228 -52.110 -32.837  1.00  0.00    -0.550 OA
ENDBRANCH   2   3
ENDBRANCH   1   2
BRANCH   1   6
ATOM      6  C   UNL     1      19.192 -47.660 -31.668  1.00  0.00     0.000 C 
BRANCH   6   7
ATOM      7  C   UNL     1      18.750 -47.088 -30.313  1.00  0.00    -0.003 C 
ATOM      8  C   UNL     1      17.458 -47.746 -29.835  1.00  0.00     0.004 C 
ENDBRANCH   6   7
ENDBRANCH   1   6
TORSDOF 4
ENDMDL
MODEL 3
REMARK VINA RESULT:    -3.680      2.897      4.444
REMARK INTER + INTRA:          -4.631
REMARK INTER:                  -4.543
REMARK INTRA:                  -0.088
REMARK UNBOUND:                -0.090
REMARK SMILES CCCCCC(=O)[O-]
REMARK SMILES IDX 4 1 5 2 6 3 7 4 8 5 3 6 2 7 1 8
REMARK H PARENT
REMARK Flexibility Score: inf
ROOT
ATOM      1  C   UNL     1      13.092 -58.827 -30.792  1.00  0.00     0.006 C 
ENDROOT
BRANCH   1   2
ATOM      2  C   UNL     1      12.724 -60.101 -31.563  1.00  0.00     0.053 C 
BRANCH   2   3
ATOM      3  C   UNL     1      13.898 -60.593 -32.349  1.00  0.00     0.041 C 
ATOM      4  O   UNL     1      13.905 -60.496 -33.604  1.00  0.00    -0.550 OA
ATOM      5  O   UNL     1      15.006 -61.113 -31.692  1.00  0.00    -0.550 OA
ENDBRANCH   2   3
ENDBRANCH   1   2
BRANCH   1   6
ATOM      6  C   UNL     1      13.080 -57.574 -31.682  1.00  0.00     0.000 C 
BRANCH   6   7
ATOM      7  C   UNL     1      13.400 -56.291 -30.901  1.00  0.00    -0.003 C 
ATOM      8  C   UNL     1      14.022 -55.235 -31.811  1.00  0.00     0.004 C 
ENDBRANCH   6   7
ENDBRANCH   1   6
TORSDOF 4
ENDMDL
MODEL 4
REMARK VINA RESULT:    -3.675     14.813     15.823
REMARK INTER + INTRA:          -4.624
REMARK INTER:                  -4.543
REMARK INTRA:                  -0.081
REMARK UNBOUND:                -0.090
REMARK SMILES CCCCCC(=O)[O-]
REMARK SMILES IDX 4 1 5 2 6 3 7 4 8 5 3 6 2 7 1 8
REMARK H PARENT
REMARK Flexibility Score: inf
ROOT
ATOM      1  C   UNL     1      17.378 -46.215 -21.901  1.00  0.00     0.006 C 
ENDROOT
BRANCH   1   2
ATOM      2  C   UNL     1      16.692 -45.387 -22.995  1.00  0.00     0.053 C 
BRANCH   2   3
ATOM      3  C   UNL     1      16.520 -43.969 -22.546  1.00  0.00     0.041 C 
ATOM      4  O   UNL     1      17.298 -43.479 -21.685  1.00  0.00    -0.550 OA
ATOM      5  O   UNL     1      15.532 -43.176 -23.113  1.00  0.00    -0.550 OA
ENDBRANCH   2   3
ENDBRANCH   1   2
BRANCH   1   6
ATOM      6  C   UNL     1      16.939 -47.688 -21.913  1.00  0.00     0.000 C 
BRANCH   6   7
ATOM      7  C   UNL     1      15.445 -47.863 -21.606  1.00  0.00    -0.003 C 
ATOM      8  C   UNL     1      15.186 -49.174 -20.868  1.00  0.00     0.004 C 
ENDBRANCH   6   7
ENDBRANCH   1   6
TORSDOF 4
ENDMDL
MODEL 5
REMARK VINA RESULT:    -3.653     14.171     15.270
REMARK INTER + INTRA:          -4.597
REMARK INTER:                  -4.520
REMARK INTRA:                  -0.077
REMARK UNBOUND:                -0.090
REMARK SMILES CCCCCC(=O)[O-]
REMARK SMILES IDX 4 1 5 2 6 3 7 4 8 5 3 6 2 7 1 8
REMARK H PARENT
REMARK Flexibility Score: inf
ROOT
ATOM      1  C   UNL     1      17.083 -46.136 -21.848  1.00  0.00     0.006 C 
ENDROOT
BRANCH   1   2
ATOM      2  C   UNL     1      16.498 -45.331 -23.015  1.00  0.00     0.053 C 
BRANCH   2   3
ATOM      3  C   UNL     1      17.582 -44.922 -23.962  1.00  0.00     0.041 C 
ATOM      4  O   UNL     1      17.641 -45.428 -25.113  1.00  0.00    -0.550 OA
ATOM      5  O   UNL     1      18.499 -43.947 -23.589  1.00  0.00    -0.550 OA
ENDBRANCH   2   3
ENDBRANCH   1   2
BRANCH   1   6
ATOM      6  C   UNL     1      16.770 -47.638 -21.951  1.00  0.00     0.000 C 
BRANCH   6   7
ATOM      7  C   UNL     1      15.334 -47.973 -21.523  1.00  0.00    -0.003 C 
ATOM      8  C   UNL     1      15.271 -49.332 -20.829  1.00  0.00     0.004 C 
ENDBRANCH   6   7
ENDBRANCH   1   6
TORSDOF 4
ENDMDL
MODEL 6
REMARK VINA RESULT:    -3.624      9.924     11.202
REMARK INTER + INTRA:          -4.561
REMARK INTER:                  -4.493
REMARK INTRA:                  -0.068
REMARK UNBOUND:                -0.090
REMARK SMILES CCCCCC(=O)[O-]
REMARK SMILES IDX 4 1 5 2 6 3 7 4 8 5 3 6 2 7 1 8
REMARK H PARENT
REMARK Flexibility Score: inf
ROOT
ATOM      1  C   UNL     1      19.797 -50.812 -32.501  1.00  0.00     0.006 C 
ENDROOT
BRANCH   1   2
ATOM      2  C   UNL     1      20.961 -51.790 -32.301  1.00  0.00     0.053 C 
BRANCH   2   3
ATOM      3  C   UNL     1      21.334 -52.429 -33.602  1.00  0.00     0.041 C 
ATOM      4  O   UNL     1      21.972 -51.776 -34.469  1.00  0.00    -0.550 OA
ATOM      5  O   UNL     1      21.018 -53.761 -33.837  1.00  0.00    -0.550 OA
ENDBRANCH   2   3
ENDBRANCH   1   2
BRANCH   1   6
ATOM      6  C   UNL     1      20.171 -49.365 -32.142  1.00  0.00     0.000 C 
BRANCH   6   7
ATOM      7  C   UNL     1      19.028 -48.614 -31.443  1.00  0.00    -0.003 C 
ATOM      8  C   UNL     1      19.035 -47.134 -31.816  1.00  0.00     0.004 C 
ENDBRANCH   6   7
ENDBRANCH   1   6
TORSDOF 4
ENDMDL
MODEL 7
REMARK VINA RESULT:    -3.624      8.824     10.395
REMARK INTER + INTRA:          -4.561
REMARK INTER:                  -4.502
REMARK INTRA:                  -0.058
REMARK UNBOUND:                -0.090
REMARK SMILES CCCCCC(=O)[O-]
REMARK SMILES IDX 4 1 5 2 6 3 7 4 8 5 3 6 2 7 1 8
REMARK H PARENT
REMARK Flexibility Score: inf
ROOT
ATOM      1  C   UNL     1      20.969 -51.899 -32.429  1.00  0.00     0.006 C 
ENDROOT
BRANCH   1   2
ATOM      2  C   UNL     1      21.346 -52.497 -33.789  1.00  0.00     0.053 C 
BRANCH   2   3
ATOM      3  C   UNL     1      20.872 -53.913 -33.886  1.00  0.00     0.041 C 
ATOM      4  O   UNL     1      21.567 -54.774 -34.486  1.00  0.00    -0.550 OA
ATOM      5  O   UNL     1      19.685 -54.291 -33.272  1.00  0.00    -0.550 OA
ENDBRANCH   2   3
ENDBRANCH   1   2
BRANCH   1   6
ATOM      6  C   UNL     1      19.795 -50.911 -32.522  1.00  0.00     0.000 C 
BRANCH   6   7
ATOM      7  C   UNL     1      20.203 -49.472 -32.175  1.00  0.00    -0.003 C 
ATOM      8  C   UNL     1      19.039 -48.706 -31.553  1.00  0.00     0.004 C 
ENDBRANCH   6   7
ENDBRANCH   1   6
TORSDOF 4
ENDMDL
MODEL 8
REMARK VINA RESULT:    -3.620     11.291     12.581
REMARK INTER + INTRA:          -4.556
REMARK INTER:                  -4.461
REMARK INTRA:                  -0.094
REMARK UNBOUND:                -0.090
REMARK SMILES CCCCCC(=O)[O-]
REMARK SMILES IDX 4 1 5 2 6 3 7 4 8 5 3 6 2 7 1 8
REMARK H PARENT
REMARK Flexibility Score: inf
ROOT
ATOM      1  C   UNL     1      17.803 -47.995 -30.261  1.00  0.00     0.006 C 
ENDROOT
BRANCH   1   2
ATOM      2  C   UNL     1      19.132 -47.563 -30.893  1.00  0.00     0.053 C 
BRANCH   2   3
ATOM      3  C   UNL     1      19.500 -48.483 -32.015  1.00  0.00     0.041 C 
ATOM      4  O   UNL     1      20.015 -48.024 -33.068  1.00  0.00    -0.550 OA
ATOM      5  O   UNL     1      19.317 -49.853 -31.878  1.00  0.00    -0.550 OA
ENDBRANCH   2   3
ENDBRANCH   1   2
BRANCH   1   6
ATOM      6  C   UNL     1      17.104 -46.849 -29.512  1.00  0.00     0.000 C 
BRANCH   6   7
ATOM      7  C   UNL     1      18.090 -45.789 -29.001  1.00  0.00    -0.003 C 
ATOM      8  C   UNL     1      17.707 -45.312 -27.602  1.00  0.00     0.004 C 
ENDBRANCH   6   7
ENDBRANCH   1   6
TORSDOF 4
ENDMDL
