MODEL 1
REMARK VINA RESULT:    -2.997      0.000      0.000
REMARK INTER + INTRA:          -3.560
REMARK INTER:                  -3.348
REMARK INTRA:                  -0.212
REMARK UNBOUND:                -0.212
REMARK SMILES CC(C)c1ccc(C(=O)[O-])cc1
REMARK SMILES IDX 7 1 6 2 11 3 5 4 12 5 4 6 8 7 9 8 10 9 2 10 1 11 3 12
REMARK H PARENT
REMARK Flexibility Score: inf
ROOT
ATOM      1  C   UNL     1      20.761   8.133   6.669  1.00  0.00    -0.003 A 
ATOM      2  C   UNL     1      21.707   7.931   5.649  1.00  0.00     0.010 A 
ATOM      3  C   UNL     1      20.514   7.095   7.583  1.00  0.00     0.010 A 
ATOM      4  C   UNL     1      22.391   6.716   5.546  1.00  0.00     0.004 A 
ATOM      5  C   UNL     1      21.197   5.881   7.480  1.00  0.00     0.004 A 
ATOM      6  C   UNL     1      22.144   5.677   6.459  1.00  0.00    -0.045 A 
ENDROOT
BRANCH   1   7
ATOM      7  C   UNL     1      20.036   9.417   6.781  1.00  0.00     0.071 C 
ATOM      8  O   UNL     1      20.510  10.365   7.462  1.00  0.00    -0.545 OA
ATOM      9  O   UNL     1      18.817   9.597   6.135  1.00  0.00    -0.545 OA
ENDBRANCH   1   7
BRANCH   6  10
ATOM     10  C   UNL     1      22.894   4.364   6.335  1.00  0.00     0.013 C 
ATOM     11  C   UNL     1      23.269   4.077   4.876  1.00  0.00     0.012 C 
ATOM     12  C   UNL     1      22.086   3.207   6.934  1.00  0.00     0.012 C 
ENDBRANCH   6  10
TORSDOF 2
ENDMDL
MODEL 2
REMARK VINA RESULT:    -2.932      0.029      1.398
REMARK INTER + INTRA:          -3.487
REMARK INTER:                  -3.274
REMARK INTRA:                  -0.212
REMARK UNBOUND:                -0.212
REMARK SMILES CC(C)c1ccc(C(=O)[O-])cc1
REMARK SMILES IDX 7 1 6 2 11 3 5 4 12 5 4 6 8 7 9 8 10 9 2 10 1 11 3 12
REMARK H PARENT
REMARK Flexibility Score: inf
ROOT
ATOM      1  C   UNL     1      20.753   8.149   6.661  1.00  0.00    -0.003 A 
ATOM      2  C   UNL     1      20.523   7.113   7.583  1.00  0.00     0.010 A 
ATOM      3  C   UNL     1      21.684   7.947   5.629  1.00  0.00     0.010 A 
ATOM      4  C   UNL     1      21.210   5.901   7.474  1.00  0.00     0.004 A 
ATOM      5  C   UNL     1      22.371   6.735   5.520  1.00  0.00     0.004 A 
ATOM      6  C   UNL     1      22.142   5.697   6.443  1.00  0.00    -0.045 A 
ENDROOT
BRANCH   1   7
ATOM      7  C   UNL     1      20.028   9.433   6.773  1.00  0.00     0.071 C 
ATOM      8  O   UNL     1      20.491  10.373   7.473  1.00  0.00    -0.545 OA
ATOM      9  O   UNL     1      18.821   9.622   6.106  1.00  0.00    -0.545 OA
ENDBRANCH   1   7
BRANCH   6  10
ATOM     10  C   UNL     1      22.880   4.376   6.336  1.00  0.00     0.013 C 
ATOM     11  C   UNL     1      23.241   4.061   4.879  1.00  0.00     0.012 C 
ATOM     12  C   UNL     1      22.067   3.236   6.961  1.00  0.00     0.012 C 
ENDBRANCH   6  10
TORSDOF 2
ENDMDL
MODEL 3
REMARK VINA RESULT:    -2.534      3.050      5.231
REMARK INTER + INTRA:          -3.042
REMARK INTER:                  -2.834
REMARK INTRA:                  -0.209
REMARK UNBOUND:                -0.212
REMARK SMILES CC(C)c1ccc(C(=O)[O-])cc1
REMARK SMILES IDX 7 1 6 2 11 3 5 4 12 5 4 6 8 7 9 8 10 9 2 10 1 11 3 12
REMARK H PARENT
REMARK Flexibility Score: inf
ROOT
ATOM      1  C   UNL     1      21.878   5.531   6.410  1.00  0.00    -0.003 A 
ATOM      2  C   UNL     1      21.225   5.809   7.623  1.00  0.00     0.010 A 
ATOM      3  C   UNL     1      21.857   6.496   5.388  1.00  0.00     0.010 A 
ATOM      4  C   UNL     1      20.566   7.027   7.810  1.00  0.00     0.004 A 
ATOM      5  C   UNL     1      21.197   7.713   5.576  1.00  0.00     0.004 A 
ATOM      6  C   UNL     1      20.542   7.993   6.791  1.00  0.00    -0.045 A 
ENDROOT
BRANCH   1   7
ATOM      7  C   UNL     1      22.577   4.244   6.207  1.00  0.00     0.071 C 
ATOM      8  O   UNL     1      23.247   4.035   5.160  1.00  0.00    -0.545 OA
ATOM      9  O   UNL     1      22.507   3.243   7.171  1.00  0.00    -0.545 OA
ENDBRANCH   1   7
BRANCH   6  10
ATOM     10  C   UNL     1      19.823   9.311   7.009  1.00  0.00     0.013 C 
ATOM     11  C   UNL     1      18.872   9.619   5.846  1.00  0.00     0.012 C 
ATOM     12  C   UNL     1      20.819  10.456   7.226  1.00  0.00     0.012 C 
ENDBRANCH   6  10
TORSDOF 2
ENDMDL
MODEL 4
REMARK VINA RESULT:    -2.020      3.009      6.474
REMARK INTER + INTRA:          -2.469
REMARK INTER:                  -2.258
REMARK INTRA:                  -0.210
REMARK UNBOUND:                -0.212
REMARK SMILES CC(C)c1ccc(C(=O)[O-])cc1
REMARK SMILES IDX 7 1 6 2 11 3 5 4 12 5 4 6 8 7 9 8 10 9 2 10 1 11 3 12
REMARK H PARENT
REMARK Flexibility Score: inf
ROOT
ATOM      1  C   UNL     1      20.098   9.150   6.639  1.00  0.00    -0.003 A 
ATOM      2  C   UNL     1      18.742   9.210   6.276  1.00  0.00     0.010 A 
ATOM      3  C   UNL     1      20.840  10.342   6.701  1.00  0.00     0.010 A 
ATOM      4  C   UNL     1      18.140  10.437   5.983  1.00  0.00     0.004 A 
ATOM      5  C   UNL     1      20.237  11.568   6.407  1.00  0.00     0.004 A 
ATOM      6  C   UNL     1      18.879  11.629   6.044  1.00  0.00    -0.045 A 
ENDROOT
BRANCH   1   7
ATOM      7  C   UNL     1      20.739   7.854   6.951  1.00  0.00     0.071 C 
ATOM      8  O   UNL     1      20.509   7.271   8.043  1.00  0.00    -0.545 OA
ATOM      9  O   UNL     1      21.608   7.259   6.040  1.00  0.00    -0.545 OA
ENDBRANCH   1   7
BRANCH   6  10
ATOM     10  C   UNL     1      18.211  12.954   5.722  1.00  0.00     0.013 C 
ATOM     11  C   UNL     1      19.178  14.125   5.937  1.00  0.00     0.012 C 
ATOM     12  C   UNL     1      16.929  13.140   6.542  1.00  0.00     0.012 C 
ENDBRANCH   6  10
TORSDOF 2
ENDMDL
MODEL 5
REMARK VINA RESULT:    -1.668     12.397     13.614
REMARK INTER + INTRA:          -2.075
REMARK INTER:                  -1.863
REMARK INTRA:                  -0.211
REMARK UNBOUND:                -0.212
REMARK SMILES CC(C)c1ccc(C(=O)[O-])cc1
REMARK SMILES IDX 7 1 6 2 11 3 5 4 12 5 4 6 8 7 9 8 10 9 2 10 1 11 3 12
REMARK H PARENT
REMARK Flexibility Score: inf
ROOT
ATOM      1  C   UNL     1      20.675   5.034  18.786  1.00  0.00    -0.003 A 
ATOM      2  C   UNL     1      20.387   4.822  20.145  1.00  0.00     0.010 A 
ATOM      3  C   UNL     1      19.836   4.463  17.814  1.00  0.00     0.010 A 
ATOM      4  C   UNL     1      19.281   4.056  20.524  1.00  0.00     0.004 A 
ATOM      5  C   UNL     1      18.731   3.697  18.194  1.00  0.00     0.004 A 
ATOM      6  C   UNL     1      18.441   3.484  19.555  1.00  0.00    -0.045 A 
ENDROOT
BRANCH   1   7
ATOM      7  C   UNL     1      21.844   5.845  18.380  1.00  0.00     0.071 C 
ATOM      8  O   UNL     1      22.937   5.750  19.000  1.00  0.00    -0.545 OA
ATOM      9  O   UNL     1      21.753   6.725  17.306  1.00  0.00    -0.545 OA
ENDBRANCH   1   7
BRANCH   6  10
ATOM     10  C   UNL     1      17.244   2.654  19.981  1.00  0.00     0.013 C 
ATOM     11  C   UNL     1      16.959   2.826  21.478  1.00  0.00     0.012 C 
ATOM     12  C   UNL     1      17.440   1.176  19.623  1.00  0.00     0.012 C 
ENDBRANCH   6  10
TORSDOF 2
ENDMDL
MODEL 6
REMARK VINA RESULT:    -1.657      3.117      5.031
REMARK INTER + INTRA:          -2.063
REMARK INTER:                  -1.857
REMARK INTRA:                  -0.206
REMARK UNBOUND:                -0.212
REMARK SMILES CC(C)c1ccc(C(=O)[O-])cc1
REMARK SMILES IDX 7 1 6 2 11 3 5 4 12 5 4 6 8 7 9 8 10 9 2 10 1 11 3 12
REMARK H PARENT
REMARK Flexibility Score: inf
ROOT
ATOM      1  C   UNL     1      22.042   5.352   6.515  1.00  0.00    -0.003 A 
ATOM      2  C   UNL     1      22.513   6.318   5.609  1.00  0.00     0.010 A 
ATOM      3  C   UNL     1      21.099   5.730   7.485  1.00  0.00     0.010 A 
ATOM      4  C   UNL     1      22.049   7.635   5.673  1.00  0.00     0.004 A 
ATOM      5  C   UNL     1      20.636   7.046   7.548  1.00  0.00     0.004 A 
ATOM      6  C   UNL     1      21.106   8.015   6.642  1.00  0.00    -0.045 A 
ENDROOT
BRANCH   1   7
ATOM      7  C   UNL     1      22.531   3.957   6.451  1.00  0.00     0.071 C 
ATOM      8  O   UNL     1      22.544   3.234   7.483  1.00  0.00    -0.545 OA
ATOM      9  O   UNL     1      22.982   3.422   5.249  1.00  0.00    -0.545 OA
ENDBRANCH   1   7
BRANCH   6  10
ATOM     10  C   UNL     1      20.611   9.449   6.698  1.00  0.00     0.013 C 
ATOM     11  C   UNL     1      20.891  10.076   8.070  1.00  0.00     0.012 C 
ATOM     12  C   UNL     1      19.121   9.533   6.348  1.00  0.00     0.012 C 
ENDBRANCH   6  10
TORSDOF 2
ENDMDL
MODEL 7
REMARK VINA RESULT:    -1.562     12.506     13.682
REMARK INTER + INTRA:          -1.957
REMARK INTER:                  -1.745
REMARK INTRA:                  -0.211
REMARK UNBOUND:                -0.212
REMARK SMILES CC(C)c1ccc(C(=O)[O-])cc1
REMARK SMILES IDX 7 1 6 2 11 3 5 4 12 5 4 6 8 7 9 8 10 9 2 10 1 11 3 12
REMARK H PARENT
REMARK Flexibility Score: inf
ROOT
ATOM      1  C   UNL     1      20.625   4.946  18.876  1.00  0.00    -0.003 A 
ATOM      2  C   UNL     1      19.779   4.377  17.910  1.00  0.00     0.010 A 
ATOM      3  C   UNL     1      20.337   4.748  20.237  1.00  0.00     0.010 A 
ATOM      4  C   UNL     1      18.667   3.623  18.297  1.00  0.00     0.004 A 
ATOM      5  C   UNL     1      19.225   3.995  20.623  1.00  0.00     0.004 A 
ATOM      6  C   UNL     1      18.376   3.424  19.657  1.00  0.00    -0.045 A 
ENDROOT
BRANCH   1   7
ATOM      7  C   UNL     1      21.804   5.744  18.471  1.00  0.00     0.071 C 
ATOM      8  O   UNL     1      22.870   5.700  19.141  1.00  0.00    -0.545 OA
ATOM      9  O   UNL     1      21.751   6.555  17.342  1.00  0.00    -0.545 OA
ENDBRANCH   1   7
BRANCH   6  10
ATOM     10  C   UNL     1      17.166   2.604  20.062  1.00  0.00     0.013 C 
ATOM     11  C   UNL     1      16.876   2.751  21.561  1.00  0.00     0.012 C 
ATOM     12  C   UNL     1      17.342   1.130  19.677  1.00  0.00     0.012 C 
ENDBRANCH   6  10
TORSDOF 2
ENDMDL
MODEL 8
REMARK VINA RESULT:    -1.193     12.449     13.617
REMARK INTER + INTRA:          -1.545
REMARK INTER:                  -1.333
REMARK INTRA:                  -0.212
REMARK UNBOUND:                -0.212
REMARK SMILES CC(C)c1ccc(C(=O)[O-])cc1
REMARK SMILES IDX 7 1 6 2 11 3 5 4 12 5 4 6 8 7 9 8 10 9 2 10 1 11 3 12
REMARK H PARENT
REMARK Flexibility Score: inf
ROOT
ATOM      1  C   UNL     1      18.608   3.416  19.722  1.00  0.00    -0.003 A 
ATOM      2  C   UNL     1      19.621   3.997  20.504  1.00  0.00     0.010 A 
ATOM      3  C   UNL     1      18.626   3.611  18.331  1.00  0.00     0.010 A 
ATOM      4  C   UNL     1      20.630   4.756  19.907  1.00  0.00     0.004 A 
ATOM      5  C   UNL     1      19.635   4.371  17.734  1.00  0.00     0.004 A 
ATOM      6  C   UNL     1      20.650   4.954  18.516  1.00  0.00    -0.045 A 
ENDROOT
BRANCH   1   7
ATOM      7  C   UNL     1      17.537   2.611  20.350  1.00  0.00     0.071 C 
ATOM      8  O   UNL     1      16.876   3.068  21.319  1.00  0.00    -0.545 OA
ATOM      9  O   UNL     1      17.245   1.335  19.877  1.00  0.00    -0.545 OA
ENDBRANCH   1   7
BRANCH   6  10
ATOM     10  C   UNL     1      21.753   5.781  17.882  1.00  0.00     0.013 C 
ATOM     11  C   UNL     1      21.819   7.181  18.503  1.00  0.00     0.012 C 
ATOM     12  C   UNL     1      21.579   5.859  16.361  1.00  0.00     0.012 C 
ENDBRANCH   6  10
TORSDOF 2
ENDMDL
