MODEL 1
REMARK VINA RESULT:    -4.390      0.000      0.000
REMARK INTER + INTRA:         -10.053
REMARK INTER:                  -7.727
REMARK INTRA:                  -2.326
REMARK UNBOUND:                -2.326
REMARK SMILES CCCCCCC=CCCCCCCCC(=O)[O-]
REMARK SMILES IDX 10 1 11 2 12 3 13 4 14 5 15 6 16 7 17 8 18 9 9 10 8 11 7 12
REMARK SMILES IDX 6 13 5 14 4 15 3 16 2 17 1 18
REMARK H PARENT
REMARK Flexibility Score: inf
ROOT
ATOM      1  C   UNL     1       1.543  18.829   8.377  1.00  0.00     0.004 C 
ENDROOT
BRANCH   1   2
ATOM      2  C   UNL     1       0.048  18.469   8.442  1.00  0.00     0.000 C 
BRANCH   2   3
ATOM      3  C   UNL     1      -0.198  16.952   8.403  1.00  0.00     0.000 C 
BRANCH   3   4
ATOM      4  C   UNL     1       1.100  16.138   8.520  1.00  0.00     0.000 C 
BRANCH   4   5
ATOM      5  C   UNL     1       1.055  15.208   9.741  1.00  0.00     0.006 C 
BRANCH   5   6
ATOM      6  C   UNL     1       2.202  15.482  10.723  1.00  0.00     0.053 C 
BRANCH   6   7
ATOM      7  C   UNL     1       1.719  16.158  11.970  1.00  0.00     0.041 C 
ATOM      8  O   UNL     1       1.088  17.245  11.897  1.00  0.00    -0.550 OA
ATOM      9  O   UNL     1       1.997  15.606  13.214  1.00  0.00    -0.550 OA
ENDBRANCH   6   7
ENDBRANCH   5   6
ENDBRANCH   4   5
ENDBRANCH   3   4
ENDBRANCH   2   3
ENDBRANCH   1   2
BRANCH   1  10
ATOM     10  C   UNL     1       1.976  19.708   9.559  1.00  0.00     0.027 C 
BRANCH  10  11
ATOM     11  C   UNL     1       3.325  19.314  10.103  1.00  0.00    -0.031 C 
ATOM     12  C   UNL     1       4.083  18.386   9.500  1.00  0.00    -0.031 C 
BRANCH  12  13
ATOM     13  C   UNL     1       5.424  17.987  10.050  1.00  0.00     0.027 C 
BRANCH  13  14
ATOM     14  C   UNL     1       6.012  16.802   9.268  1.00  0.00     0.004 C 
BRANCH  14  15
ATOM     15  C   UNL     1       5.040  16.248   8.216  1.00  0.00     0.000 C 
BRANCH  15  16
ATOM     16  C   UNL     1       4.948  14.712   8.247  1.00  0.00    -0.000 C 
BRANCH  16  17
ATOM     17  C   UNL     1       5.326  14.128   9.616  1.00  0.00    -0.003 C 
ATOM     18  C   UNL     1       5.393  12.601   9.608  1.00  0.00     0.004 C 
ENDBRANCH  16  17
ENDBRANCH  15  16
ENDBRANCH  14  15
ENDBRANCH  13  14
ENDBRANCH  12  13
ENDBRANCH  10  11
ENDBRANCH   1  10
TORSDOF 13
ENDMDL
MODEL 2
REMARK VINA RESULT:    -4.372      1.752      3.746
REMARK INTER + INTRA:         -10.020
REMARK INTER:                  -7.598
REMARK INTRA:                  -2.422
REMARK UNBOUND:                -2.326
REMARK SMILES CCCCCCC=CCCCCCCCC(=O)[O-]
REMARK SMILES IDX 10 1 11 2 12 3 13 4 14 5 15 6 16 7 17 8 18 9 9 10 8 11 7 12
REMARK SMILES IDX 6 13 5 14 4 15 3 16 2 17 1 18
REMARK H PARENT
REMARK Flexibility Score: inf
ROOT
ATOM      1  C   UNL     1       0.262  18.503   8.055  1.00  0.00     0.004 C 
ENDROOT
BRANCH   1   2
ATOM      2  C   UNL     1       1.779  18.744   8.148  1.00  0.00     0.000 C 
BRANCH   2   3
ATOM      3  C   UNL     1       2.161  19.662   9.320  1.00  0.00     0.000 C 
BRANCH   3   4
ATOM      4  C   UNL     1       2.855  18.906  10.463  1.00  0.00     0.000 C 
BRANCH   4   5
ATOM      5  C   UNL     1       2.216  19.253  11.817  1.00  0.00     0.006 C 
BRANCH   5   6
ATOM      6  C   UNL     1       0.893  18.509  12.042  1.00  0.00     0.053 C 
BRANCH   6   7
ATOM      7  C   UNL     1      -0.290  19.361  11.695  1.00  0.00     0.041 C 
ATOM      8  O   UNL     1      -1.349  18.830  11.269  1.00  0.00    -0.550 OA
ATOM      9  O   UNL     1      -0.210  20.743  11.808  1.00  0.00    -0.550 OA
ENDBRANCH   6   7
ENDBRANCH   5   6
ENDBRANCH   4   5
ENDBRANCH   3   4
ENDBRANCH   2   3
ENDBRANCH   1   2
BRANCH   1  10
ATOM     10  C   UNL     1      -0.095  17.015   8.183  1.00  0.00     0.027 C 
BRANCH  10  11
ATOM     11  C   UNL     1       0.934  16.243   8.968  1.00  0.00    -0.031 C 
ATOM     12  C   UNL     1       0.602  15.168   9.698  1.00  0.00    -0.031 C 
BRANCH  12  13
ATOM     13  C   UNL     1       1.627  14.405  10.488  1.00  0.00     0.027 C 
BRANCH  13  14
ATOM     14  C   UNL     1       2.522  15.356  11.298  1.00  0.00     0.004 C 
BRANCH  14  15
ATOM     15  C   UNL     1       4.003  15.252  10.904  1.00  0.00     0.000 C 
BRANCH  15  16
ATOM     16  C   UNL     1       4.248  14.215   9.794  1.00  0.00    -0.000 C 
BRANCH  16  17
ATOM     17  C   UNL     1       4.929  14.825   8.559  1.00  0.00    -0.003 C 
ATOM     18  C   UNL     1       4.612  16.310   8.383  1.00  0.00     0.004 C 
ENDBRANCH  16  17
ENDBRANCH  15  16
ENDBRANCH  14  15
ENDBRANCH  13  14
ENDBRANCH  12  13
ENDBRANCH  10  11
ENDBRANCH   1  10
TORSDOF 13
ENDMDL
MODEL 3
REMARK VINA RESULT:    -4.353      1.600      3.618
REMARK INTER + INTRA:          -9.987
REMARK INTER:                  -7.503
REMARK INTRA:                  -2.484
REMARK UNBOUND:                -2.326
REMARK SMILES CCCCCCC=CCCCCCCCC(=O)[O-]
REMARK SMILES IDX 10 1 11 2 12 3 13 4 14 5 15 6 16 7 17 8 18 9 9 10 8 11 7 12
REMARK SMILES IDX 6 13 5 14 4 15 3 16 2 17 1 18
REMARK H PARENT
REMARK Flexibility Score: inf
ROOT
ATOM      1  C   UNL     1       0.957  16.028   8.487  1.00  0.00     0.004 C 
ENDROOT
BRANCH   1   2
ATOM      2  C   UNL     1      -0.123  17.086   8.201  1.00  0.00     0.000 C 
BRANCH   2   3
ATOM      3  C   UNL     1       0.461  18.499   8.039  1.00  0.00     0.000 C 
BRANCH   3   4
ATOM      4  C   UNL     1       1.947  18.573   8.424  1.00  0.00     0.000 C 
BRANCH   4   5
ATOM      5  C   UNL     1       2.167  19.573   9.570  1.00  0.00     0.006 C 
BRANCH   5   6
ATOM      6  C   UNL     1       2.300  18.876  10.930  1.00  0.00     0.053 C 
BRANCH   6   7
ATOM      7  C   UNL     1       1.046  18.995  11.742  1.00  0.00     0.041 C 
ATOM      8  O   UNL     1       0.110  18.169  11.586  1.00  0.00    -0.550 OA
ATOM      9  O   UNL     1       0.899  20.040  12.646  1.00  0.00    -0.550 OA
ENDBRANCH   6   7
ENDBRANCH   5   6
ENDBRANCH   4   5
ENDBRANCH   3   4
ENDBRANCH   2   3
ENDBRANCH   1   2
BRANCH   1  10
ATOM     10  C   UNL     1       0.639  15.203   9.742  1.00  0.00     0.027 C 
BRANCH  10  11
ATOM     11  C   UNL     1       1.791  15.165  10.712  1.00  0.00    -0.031 C 
ATOM     12  C   UNL     1       3.062  15.273  10.298  1.00  0.00    -0.031 C 
BRANCH  12  13
ATOM     13  C   UNL     1       4.211  15.226  11.266  1.00  0.00     0.027 C 
BRANCH  13  14
ATOM     14  C   UNL     1       5.342  16.171  10.830  1.00  0.00     0.004 C 
BRANCH  14  15
ATOM     15  C   UNL     1       5.464  16.279   9.303  1.00  0.00     0.000 C 
BRANCH  15  16
ATOM     16  C   UNL     1       5.465  17.738   8.812  1.00  0.00    -0.000 C 
BRANCH  16  17
ATOM     17  C   UNL     1       6.484  18.610   9.561  1.00  0.00    -0.003 C 
ATOM     18  C   UNL     1       5.834  19.796  10.275  1.00  0.00     0.004 C 
ENDBRANCH  16  17
ENDBRANCH  15  16
ENDBRANCH  14  15
ENDBRANCH  13  14
ENDBRANCH  12  13
ENDBRANCH  10  11
ENDBRANCH   1  10
TORSDOF 13
ENDMDL
MODEL 4
REMARK VINA RESULT:    -4.352     15.861     17.651
REMARK INTER + INTRA:          -9.986
REMARK INTER:                  -8.171
REMARK INTRA:                  -1.815
REMARK UNBOUND:                -2.326
REMARK SMILES CCCCCCC=CCCCCCCCC(=O)[O-]
REMARK SMILES IDX 10 1 11 2 12 3 13 4 14 5 15 6 16 7 17 8 18 9 9 10 8 11 7 12
REMARK SMILES IDX 6 13 5 14 4 15 3 16 2 17 1 18
REMARK H PARENT
REMARK Flexibility Score: inf
ROOT
ATOM      1  C   UNL     1       2.506   6.820  -4.535  1.00  0.00     0.004 C 
ENDROOT
BRANCH   1   2
ATOM      2  C   UNL     1       2.653   5.288  -4.508  1.00  0.00     0.000 C 
BRANCH   2   3
ATOM      3  C   UNL     1       3.415   4.789  -3.270  1.00  0.00     0.000 C 
BRANCH   3   4
ATOM      4  C   UNL     1       3.198   5.684  -2.040  1.00  0.00     0.000 C 
BRANCH   4   5
ATOM      5  C   UNL     1       4.448   5.703  -1.149  1.00  0.00     0.006 C 
BRANCH   5   6
ATOM      6  C   UNL     1       5.578   4.833  -1.715  1.00  0.00     0.053 C 
BRANCH   6   7
ATOM      7  C   UNL     1       6.017   3.784  -0.738  1.00  0.00     0.041 C 
ATOM      8  O   UNL     1       6.856   4.065   0.157  1.00  0.00    -0.550 OA
ATOM      9  O   UNL     1       5.527   2.488  -0.841  1.00  0.00    -0.550 OA
ENDBRANCH   6   7
ENDBRANCH   5   6
ENDBRANCH   4   5
ENDBRANCH   3   4
ENDBRANCH   2   3
ENDBRANCH   1   2
BRANCH   1  10
ATOM     10  C   UNL     1       1.693   7.300  -5.747  1.00  0.00     0.027 C 
BRANCH  10  11
ATOM     11  C   UNL     1       0.221   7.020  -5.598  1.00  0.00    -0.031 C 
ATOM     12  C   UNL     1      -0.551   7.737  -4.768  1.00  0.00    -0.031 C 
BRANCH  12  13
ATOM     13  C   UNL     1      -2.019   7.450  -4.613  1.00  0.00     0.027 C 
BRANCH  13  14
ATOM     14  C   UNL     1      -2.273   6.481  -3.448  1.00  0.00     0.004 C 
BRANCH  14  15
ATOM     15  C   UNL     1      -1.205   6.586  -2.349  1.00  0.00     0.000 C 
BRANCH  15  16
ATOM     16  C   UNL     1      -0.846   5.218  -1.741  1.00  0.00    -0.000 C 
BRANCH  16  17
ATOM     17  C   UNL     1      -0.399   4.202  -2.802  1.00  0.00    -0.003 C 
ATOM     18  C   UNL     1       0.179   2.926  -2.191  1.00  0.00     0.004 C 
ENDBRANCH  16  17
ENDBRANCH  15  16
ENDBRANCH  14  15
ENDBRANCH  13  14
ENDBRANCH  12  13
ENDBRANCH  10  11
ENDBRANCH   1  10
TORSDOF 13
ENDMDL
MODEL 5
REMARK VINA RESULT:    -4.336      1.359      3.679
REMARK INTER + INTRA:          -9.958
REMARK INTER:                  -7.737
REMARK INTRA:                  -2.220
REMARK UNBOUND:                -2.326
REMARK SMILES CCCCCCC=CCCCCCCCC(=O)[O-]
REMARK SMILES IDX 10 1 11 2 12 3 13 4 14 5 15 6 16 7 17 8 18 9 9 10 8 11 7 12
REMARK SMILES IDX 6 13 5 14 4 15 3 16 2 17 1 18
REMARK H PARENT
REMARK Flexibility Score: inf
ROOT
ATOM      1  C   UNL     1       0.919  15.173   9.772  1.00  0.00     0.004 C 
ENDROOT
BRANCH   1   2
ATOM      2  C   UNL     1       0.978  16.022   8.490  1.00  0.00     0.000 C 
BRANCH   2   3
ATOM      3  C   UNL     1      -0.184  17.023   8.390  1.00  0.00     0.000 C 
BRANCH   3   4
ATOM      4  C   UNL     1       0.288  18.450   8.072  1.00  0.00     0.000 C 
BRANCH   4   5
ATOM      5  C   UNL     1       1.777  18.622   8.409  1.00  0.00     0.006 C 
BRANCH   5   6
ATOM      6  C   UNL     1       2.013  19.720   9.453  1.00  0.00     0.053 C 
BRANCH   6   7
ATOM      7  C   UNL     1       1.178  19.512  10.680  1.00  0.00     0.041 C 
ATOM      8  O   UNL     1       0.355  20.393  11.043  1.00  0.00    -0.550 OA
ATOM      9  O   UNL     1       1.334  18.360  11.441  1.00  0.00    -0.550 OA
ENDBRANCH   6   7
ENDBRANCH   5   6
ENDBRANCH   4   5
ENDBRANCH   3   4
ENDBRANCH   2   3
ENDBRANCH   1   2
BRANCH   1  10
ATOM     10  C   UNL     1       2.269  15.138  10.503  1.00  0.00     0.027 C 
BRANCH  10  11
ATOM     11  C   UNL     1       3.401  15.637   9.643  1.00  0.00    -0.031 C 
ATOM     12  C   UNL     1       4.468  14.871   9.370  1.00  0.00    -0.031 C 
BRANCH  12  13
ATOM     13  C   UNL     1       5.601  15.374   8.520  1.00  0.00     0.027 C 
BRANCH  13  14
ATOM     14  C   UNL     1       5.409  16.855   8.162  1.00  0.00     0.004 C 
BRANCH  14  15
ATOM     15  C   UNL     1       6.690  17.680   8.357  1.00  0.00     0.000 C 
BRANCH  15  16
ATOM     16  C   UNL     1       6.761  18.343   9.745  1.00  0.00    -0.000 C 
BRANCH  16  17
ATOM     17  C   UNL     1       5.443  19.029  10.136  1.00  0.00    -0.003 C 
ATOM     18  C   UNL     1       4.900  18.541  11.479  1.00  0.00     0.004 C 
ENDBRANCH  16  17
ENDBRANCH  15  16
ENDBRANCH  14  15
ENDBRANCH  13  14
ENDBRANCH  12  13
ENDBRANCH  10  11
ENDBRANCH   1  10
TORSDOF 13
ENDMDL
MODEL 6
REMARK VINA RESULT:    -4.328      2.236      5.139
REMARK INTER + INTRA:          -9.943
REMARK INTER:                  -8.048
REMARK INTRA:                  -1.895
REMARK UNBOUND:                -2.326
REMARK SMILES CCCCCCC=CCCCCCCCC(=O)[O-]
REMARK SMILES IDX 10 1 11 2 12 3 13 4 14 5 15 6 16 7 17 8 18 9 9 10 8 11 7 12
REMARK SMILES IDX 6 13 5 14 4 15 3 16 2 17 1 18
REMARK H PARENT
REMARK Flexibility Score: inf
ROOT
ATOM      1  C   UNL     1       5.853  19.810  10.720  1.00  0.00     0.004 C 
ENDROOT
BRANCH   1   2
ATOM      2  C   UNL     1       6.603  19.114   9.570  1.00  0.00     0.000 C 
BRANCH   2   3
ATOM      3  C   UNL     1       7.203  17.762   9.988  1.00  0.00     0.000 C 
BRANCH   3   4
ATOM      4  C   UNL     1       7.196  16.733   8.847  1.00  0.00     0.000 C 
BRANCH   4   5
ATOM      5  C   UNL     1       5.969  16.927   7.942  1.00  0.00     0.006 C 
BRANCH   5   6
ATOM      6  C   UNL     1       4.716  16.246   8.509  1.00  0.00     0.053 C 
BRANCH   6   7
ATOM      7  C   UNL     1       4.790  14.755   8.392  1.00  0.00     0.041 C 
ATOM      8  O   UNL     1       4.434  14.025   9.353  1.00  0.00    -0.550 OA
ATOM      9  O   UNL     1       5.288  14.171   7.233  1.00  0.00    -0.550 OA
ENDBRANCH   6   7
ENDBRANCH   5   6
ENDBRANCH   4   5
ENDBRANCH   3   4
ENDBRANCH   2   3
ENDBRANCH   1   2
BRANCH   1  10
ATOM     10  C   UNL     1       4.976  18.830  11.513  1.00  0.00     0.027 C 
BRANCH  10  11
ATOM     11  C   UNL     1       3.588  18.709  10.941  1.00  0.00    -0.031 C 
ATOM     12  C   UNL     1       3.063  19.666  10.161  1.00  0.00    -0.031 C 
BRANCH  12  13
ATOM     13  C   UNL     1       1.674  19.548   9.599  1.00  0.00     0.027 C 
BRANCH  13  14
ATOM     14  C   UNL     1       1.682  18.802   8.256  1.00  0.00     0.004 C 
BRANCH  14  15
ATOM     15  C   UNL     1       0.273  18.392   7.800  1.00  0.00     0.000 C 
BRANCH  15  16
ATOM     16  C   UNL     1      -0.140  17.007   8.330  1.00  0.00    -0.000 C 
BRANCH  16  17
ATOM     17  C   UNL     1       1.065  16.087   8.572  1.00  0.00    -0.003 C 
ATOM     18  C   UNL     1       0.921  15.247   9.841  1.00  0.00     0.004 C 
ENDBRANCH  16  17
ENDBRANCH  15  16
ENDBRANCH  14  15
ENDBRANCH  13  14
ENDBRANCH  12  13
ENDBRANCH  10  11
ENDBRANCH   1  10
TORSDOF 13
ENDMDL
MODEL 7
REMARK VINA RESULT:    -4.292      2.617      4.934
REMARK INTER + INTRA:          -9.881
REMARK INTER:                  -7.510
REMARK INTRA:                  -2.371
REMARK UNBOUND:                -2.326
REMARK SMILES CCCCCCC=CCCCCCCCC(=O)[O-]
REMARK SMILES IDX 10 1 11 2 12 3 13 4 14 5 15 6 16 7 17 8 18 9 9 10 8 11 7 12
REMARK SMILES IDX 6 13 5 14 4 15 3 16 2 17 1 18
REMARK H PARENT
REMARK Flexibility Score: inf
ROOT
ATOM      1  C   UNL     1       4.010  18.715  10.889  1.00  0.00     0.004 C 
ENDROOT
BRANCH   1   2
ATOM      2  C   UNL     1       5.490  18.490  10.535  1.00  0.00     0.000 C 
BRANCH   2   3
ATOM      3  C   UNL     1       5.739  17.127   9.870  1.00  0.00     0.000 C 
BRANCH   3   4
ATOM      4  C   UNL     1       5.159  17.047   8.449  1.00  0.00     0.000 C 
BRANCH   4   5
ATOM      5  C   UNL     1       4.326  15.769   8.268  1.00  0.00     0.006 C 
BRANCH   5   6
ATOM      6  C   UNL     1       4.955  14.561   8.975  1.00  0.00     0.053 C 
BRANCH   6   7
ATOM      7  C   UNL     1       5.812  13.756   8.046  1.00  0.00     0.041 C 
ATOM      8  O   UNL     1       6.914  13.293   8.442  1.00  0.00    -0.550 OA
ATOM      9  O   UNL     1       5.410  13.548   6.732  1.00  0.00    -0.550 OA
ENDBRANCH   6   7
ENDBRANCH   5   6
ENDBRANCH   4   5
ENDBRANCH   3   4
ENDBRANCH   2   3
ENDBRANCH   1   2
BRANCH   1  10
ATOM     10  C   UNL     1       3.357  19.778   9.993  1.00  0.00     0.027 C 
BRANCH  10  11
ATOM     11  C   UNL     1       1.969  19.387   9.557  1.00  0.00    -0.031 C 
ATOM     12  C   UNL     1       1.743  18.799   8.373  1.00  0.00    -0.031 C 
BRANCH  12  13
ATOM     13  C   UNL     1       0.356  18.419   7.936  1.00  0.00     0.027 C 
BRANCH  13  14
ATOM     14  C   UNL     1      -0.136  17.168   8.680  1.00  0.00     0.004 C 
BRANCH  14  15
ATOM     15  C   UNL     1       0.765  15.947   8.441  1.00  0.00     0.000 C 
BRANCH  15  16
ATOM     16  C   UNL     1       1.000  15.126   9.722  1.00  0.00    -0.000 C 
BRANCH  16  17
ATOM     17  C   UNL     1       1.562  15.977  10.870  1.00  0.00    -0.003 C 
ATOM     18  C   UNL     1       2.512  15.193  11.775  1.00  0.00     0.004 C 
ENDBRANCH  16  17
ENDBRANCH  15  16
ENDBRANCH  14  15
ENDBRANCH  13  14
ENDBRANCH  12  13
ENDBRANCH  10  11
ENDBRANCH   1  10
TORSDOF 13
ENDMDL
MODEL 8
REMARK VINA RESULT:    -4.278      2.354      4.378
REMARK INTER + INTRA:          -9.855
REMARK INTER:                  -7.388
REMARK INTRA:                  -2.466
REMARK UNBOUND:                -2.326
REMARK SMILES CCCCCCC=CCCCCCCCC(=O)[O-]
REMARK SMILES IDX 10 1 11 2 12 3 13 4 14 5 15 6 16 7 17 8 18 9 9 10 8 11 7 12
REMARK SMILES IDX 6 13 5 14 4 15 3 16 2 17 1 18
REMARK H PARENT
REMARK Flexibility Score: inf
ROOT
ATOM      1  C   UNL     1       0.282  18.596   8.526  1.00  0.00     0.004 C 
ENDROOT
BRANCH   1   2
ATOM      2  C   UNL     1       1.773  18.905   8.307  1.00  0.00     0.000 C 
BRANCH   2   3
ATOM      3  C   UNL     1       2.420  19.589   9.522  1.00  0.00     0.000 C 
BRANCH   3   4
ATOM      4  C   UNL     1       2.730  18.606  10.661  1.00  0.00     0.000 C 
BRANCH   4   5
ATOM      5  C   UNL     1       4.110  18.892  11.272  1.00  0.00     0.006 C 
BRANCH   5   6
ATOM      6  C   UNL     1       5.035  19.631  10.297  1.00  0.00     0.053 C 
BRANCH   6   7
ATOM      7  C   UNL     1       6.357  18.941  10.150  1.00  0.00     0.041 C 
ATOM      8  O   UNL     1       6.854  18.313  11.121  1.00  0.00    -0.550 OA
ATOM      9  O   UNL     1       7.056  19.022   8.952  1.00  0.00    -0.550 OA
ENDBRANCH   6   7
ENDBRANCH   5   6
ENDBRANCH   4   5
ENDBRANCH   3   4
ENDBRANCH   2   3
ENDBRANCH   1   2
BRANCH   1  10
ATOM     10  C   UNL     1      -0.090  17.182   8.055  1.00  0.00     0.027 C 
BRANCH  10  11
ATOM     11  C   UNL     1       0.827  16.129   8.621  1.00  0.00    -0.031 C 
ATOM     12  C   UNL     1       0.556  15.510   9.780  1.00  0.00    -0.031 C 
BRANCH  12  13
ATOM     13  C   UNL     1       1.477  14.467  10.348  1.00  0.00     0.027 C 
BRANCH  13  14
ATOM     14  C   UNL     1       2.244  15.008  11.564  1.00  0.00     0.004 C 
BRANCH  14  15
ATOM     15  C   UNL     1       3.744  15.187  11.284  1.00  0.00     0.000 C 
BRANCH  15  16
ATOM     16  C   UNL     1       4.165  14.601   9.925  1.00  0.00    -0.000 C 
BRANCH  16  17
ATOM     17  C   UNL     1       5.200  15.476   9.202  1.00  0.00    -0.003 C 
ATOM     18  C   UNL     1       4.561  16.455   8.219  1.00  0.00     0.004 C 
ENDBRANCH  16  17
ENDBRANCH  15  16
ENDBRANCH  14  15
ENDBRANCH  13  14
ENDBRANCH  12  13
ENDBRANCH  10  11
ENDBRANCH   1  10
TORSDOF 13
ENDMDL
MODEL 9
REMARK VINA RESULT:    -4.192      2.323      5.525
REMARK INTER + INTRA:          -9.704
REMARK INTER:                  -7.432
REMARK INTRA:                  -2.272
REMARK UNBOUND:                -2.326
REMARK SMILES CCCCCCC=CCCCCCCCC(=O)[O-]
REMARK SMILES IDX 10 1 11 2 12 3 13 4 14 5 15 6 16 7 17 8 18 9 9 10 8 11 7 12
REMARK SMILES IDX 6 13 5 14 4 15 3 16 2 17 1 18
REMARK H PARENT
REMARK Flexibility Score: inf
ROOT
ATOM      1  C   UNL     1       2.796  15.034  10.893  1.00  0.00     0.004 C 
ENDROOT
BRANCH   1   2
ATOM      2  C   UNL     1       4.052  14.899  10.015  1.00  0.00     0.000 C 
BRANCH   2   3
ATOM      3  C   UNL     1       4.467  16.230   9.367  1.00  0.00     0.000 C 
BRANCH   3   4
ATOM      4  C   UNL     1       5.093  17.208  10.372  1.00  0.00     0.000 C 
BRANCH   4   5
ATOM      5  C   UNL     1       5.879  18.311   9.647  1.00  0.00     0.006 C 
BRANCH   5   6
ATOM      6  C   UNL     1       5.784  19.662  10.367  1.00  0.00     0.053 C 
BRANCH   6   7
ATOM      7  C   UNL     1       6.190  19.556  11.806  1.00  0.00     0.041 C 
ATOM      8  O   UNL     1       5.318  19.578  12.713  1.00  0.00    -0.550 OA
ATOM      9  O   UNL     1       7.535  19.470  12.145  1.00  0.00    -0.550 OA
ENDBRANCH   6   7
ENDBRANCH   5   6
ENDBRANCH   4   5
ENDBRANCH   3   4
ENDBRANCH   2   3
ENDBRANCH   1   2
BRANCH   1  10
ATOM     10  C   UNL     1       1.545  14.471  10.203  1.00  0.00     0.027 C 
BRANCH  10  11
ATOM     11  C   UNL     1       0.605  15.555   9.746  1.00  0.00    -0.031 C 
ATOM     12  C   UNL     1       0.782  16.195   8.581  1.00  0.00    -0.031 C 
BRANCH  12  13
ATOM     13  C   UNL     1      -0.152  17.283   8.130  1.00  0.00     0.027 C 
BRANCH  13  14
ATOM     14  C   UNL     1       0.618  18.571   7.800  1.00  0.00     0.004 C 
BRANCH  14  15
ATOM     15  C   UNL     1       1.971  18.652   8.522  1.00  0.00     0.000 C 
BRANCH  15  16
ATOM     16  C   UNL     1       1.997  19.741   9.610  1.00  0.00    -0.000 C 
BRANCH  16  17
ATOM     17  C   UNL     1       2.128  19.156  11.024  1.00  0.00    -0.003 C 
ATOM     18  C   UNL     1       0.790  18.680  11.591  1.00  0.00     0.004 C 
ENDBRANCH  16  17
ENDBRANCH  15  16
ENDBRANCH  14  15
ENDBRANCH  13  14
ENDBRANCH  12  13
ENDBRANCH  10  11
ENDBRANCH   1  10
TORSDOF 13
ENDMDL
