MODEL 1
REMARK VINA RESULT:    -6.460      0.000      0.000
REMARK INTER + INTRA:         -14.789
REMARK INTER:                 -12.124
REMARK INTRA:                  -2.665
REMARK UNBOUND:                -2.665
REMARK SMILES CCCCCCCCC=CCCCCCCCC(=O)[O-]
REMARK SMILES IDX 10 1 9 2 11 3 12 4 13 5 14 6 15 7 16 8 17 9 18 10 19 11
REMARK SMILES IDX 20 12 8 13 7 14 6 15 5 16 4 17 3 18 2 19 1 20
REMARK H PARENT
REMARK Flexibility Score: inf
ROOT
ATOM      1  C   UNL     1     -19.142 -10.451  -0.972  1.00  0.00    -0.031 C 
ATOM      2  C   UNL     1     -18.778 -11.587  -0.358  1.00  0.00    -0.031 C 
ENDROOT
BRANCH   1   3
ATOM      3  C   UNL     1     -19.094  -9.121  -0.268  1.00  0.00     0.027 C 
BRANCH   3   4
ATOM      4  C   UNL     1     -18.069  -9.121   0.875  1.00  0.00     0.004 C 
BRANCH   4   5
ATOM      5  C   UNL     1     -17.086  -7.933   0.847  1.00  0.00     0.000 C 
BRANCH   5   6
ATOM      6  C   UNL     1     -15.793  -8.171   0.042  1.00  0.00     0.000 C 
BRANCH   6   7
ATOM      7  C   UNL     1     -15.488  -9.643  -0.288  1.00  0.00     0.000 C 
BRANCH   7   8
ATOM      8  C   UNL     1     -15.680  -9.972  -1.779  1.00  0.00     0.006 C 
BRANCH   8   9
ATOM      9  C   UNL     1     -16.200  -8.769  -2.575  1.00  0.00     0.053 C 
BRANCH   9  10
ATOM     10  C   UNL     1     -15.877  -8.884  -4.034  1.00  0.00     0.041 C 
ATOM     11  O   UNL     1     -14.939  -9.630  -4.418  1.00  0.00    -0.550 OA
ATOM     12  O   UNL     1     -16.583  -8.131  -4.965  1.00  0.00    -0.550 OA
ENDBRANCH   9  10
ENDBRANCH   8   9
ENDBRANCH   7   8
ENDBRANCH   6   7
ENDBRANCH   5   6
ENDBRANCH   4   5
ENDBRANCH   3   4
ENDBRANCH   1   3
BRANCH   2  13
ATOM     13  C   UNL     1     -18.828 -12.917  -1.058  1.00  0.00     0.027 C 
BRANCH  13  14
ATOM     14  C   UNL     1     -17.982 -12.879  -2.335  1.00  0.00     0.004 C 
BRANCH  14  15
ATOM     15  C   UNL     1     -17.335 -14.245  -2.605  1.00  0.00     0.000 C 
BRANCH  15  16
ATOM     16  C   UNL     1     -16.349 -14.665  -1.504  1.00  0.00     0.000 C 
BRANCH  16  17
ATOM     17  C   UNL     1     -15.067 -13.819  -1.501  1.00  0.00    -0.000 C 
BRANCH  17  18
ATOM     18  C   UNL     1     -14.596 -13.543  -0.065  1.00  0.00    -0.000 C 
BRANCH  18  19
ATOM     19  C   UNL     1     -15.766 -13.407   0.923  1.00  0.00    -0.003 C 
ATOM     20  C   UNL     1     -15.562 -14.227   2.198  1.00  0.00     0.004 C 
ENDBRANCH  18  19
ENDBRANCH  17  18
ENDBRANCH  16  17
ENDBRANCH  15  16
ENDBRANCH  14  15
ENDBRANCH  13  14
ENDBRANCH   2  13
TORSDOF 15
ENDMDL
MODEL 2
REMARK VINA RESULT:    -6.382      2.542      6.003
REMARK INTER + INTRA:         -14.643
REMARK INTER:                 -12.296
REMARK INTRA:                  -2.348
REMARK UNBOUND:                -2.665
REMARK SMILES CCCCCCCCC=CCCCCCCCC(=O)[O-]
REMARK SMILES IDX 10 1 9 2 11 3 12 4 13 5 14 6 15 7 16 8 17 9 18 10 19 11
REMARK SMILES IDX 20 12 8 13 7 14 6 15 5 16 4 17 3 18 2 19 1 20
REMARK H PARENT
REMARK Flexibility Score: inf
ROOT
ATOM      1  C   UNL     1     -18.668 -11.288  -0.194  1.00  0.00    -0.031 C 
ATOM      2  C   UNL     1     -18.948 -10.065  -0.670  1.00  0.00    -0.031 C 
ENDROOT
BRANCH   1   3
ATOM      3  C   UNL     1     -19.142 -12.536  -0.891  1.00  0.00     0.027 C 
BRANCH   3   4
ATOM      4  C   UNL     1     -18.639 -12.601  -2.340  1.00  0.00     0.004 C 
BRANCH   4   5
ATOM      5  C   UNL     1     -18.509 -14.032  -2.902  1.00  0.00     0.000 C 
BRANCH   5   6
ATOM      6  C   UNL     1     -17.128 -14.689  -2.710  1.00  0.00     0.000 C 
BRANCH   6   7
ATOM      7  C   UNL     1     -15.975 -13.716  -2.410  1.00  0.00     0.000 C 
BRANCH   7   8
ATOM      8  C   UNL     1     -15.198 -14.086  -1.134  1.00  0.00     0.006 C 
BRANCH   8   9
ATOM      9  C   UNL     1     -16.081 -14.026   0.119  1.00  0.00     0.053 C 
BRANCH   9  10
ATOM     10  C   UNL     1     -15.286 -13.694   1.345  1.00  0.00     0.041 C 
ATOM     11  O   UNL     1     -14.323 -12.886   1.277  1.00  0.00    -0.550 OA
ATOM     12  O   UNL     1     -15.581 -14.314   2.554  1.00  0.00    -0.550 OA
ENDBRANCH   9  10
ENDBRANCH   8   9
ENDBRANCH   7   8
ENDBRANCH   6   7
ENDBRANCH   5   6
ENDBRANCH   4   5
ENDBRANCH   3   4
ENDBRANCH   1   3
BRANCH   2  13
ATOM     13  C   UNL     1     -18.478  -8.817   0.027  1.00  0.00     0.027 C 
BRANCH  13  14
ATOM     14  C   UNL     1     -17.030  -8.984   0.498  1.00  0.00     0.004 C 
BRANCH  14  15
ATOM     15  C   UNL     1     -16.187  -7.757   0.121  1.00  0.00     0.000 C 
BRANCH  15  16
ATOM     16  C   UNL     1     -15.472  -7.918  -1.229  1.00  0.00     0.000 C 
BRANCH  16  17
ATOM     17  C   UNL     1     -15.182  -9.386  -1.576  1.00  0.00    -0.000 C 
BRANCH  17  18
ATOM     18  C   UNL     1     -15.785  -9.757  -2.939  1.00  0.00    -0.000 C 
BRANCH  18  19
ATOM     19  C   UNL     1     -16.843  -8.746  -3.410  1.00  0.00    -0.003 C 
ATOM     20  C   UNL     1     -16.498  -8.114  -4.759  1.00  0.00     0.004 C 
ENDBRANCH  18  19
ENDBRANCH  17  18
ENDBRANCH  16  17
ENDBRANCH  15  16
ENDBRANCH  14  15
ENDBRANCH  13  14
ENDBRANCH   2  13
TORSDOF 15
ENDMDL
MODEL 3
REMARK VINA RESULT:    -6.309      0.980      1.767
REMARK INTER + INTRA:         -14.506
REMARK INTER:                 -11.817
REMARK INTRA:                  -2.689
REMARK UNBOUND:                -2.665
REMARK SMILES CCCCCCCCC=CCCCCCCCC(=O)[O-]
REMARK SMILES IDX 10 1 9 2 11 3 12 4 13 5 14 6 15 7 16 8 17 9 18 10 19 11
REMARK SMILES IDX 20 12 8 13 7 14 6 15 5 16 4 17 3 18 2 19 1 20
REMARK H PARENT
REMARK Flexibility Score: inf
ROOT
ATOM      1  C   UNL     1     -18.920 -12.710  -0.854  1.00  0.00    -0.031 C 
ATOM      2  C   UNL     1     -18.638 -12.739  -2.164  1.00  0.00    -0.031 C 
ENDROOT
BRANCH   1   3
ATOM      3  C   UNL     1     -18.987 -11.415  -0.088  1.00  0.00     0.027 C 
BRANCH   3   4
ATOM      4  C   UNL     1     -19.162 -10.211  -1.024  1.00  0.00     0.004 C 
BRANCH   4   5
ATOM      5  C   UNL     1     -18.355  -8.963  -0.612  1.00  0.00     0.000 C 
BRANCH   5   6
ATOM      6  C   UNL     1     -17.192  -9.228   0.365  1.00  0.00     0.000 C 
BRANCH   6   7
ATOM      7  C   UNL     1     -16.003  -8.258   0.247  1.00  0.00     0.000 C 
BRANCH   7   8
ATOM      8  C   UNL     1     -15.878  -7.635  -1.154  1.00  0.00     0.006 C 
BRANCH   8   9
ATOM      9  C   UNL     1     -14.888  -8.400  -2.041  1.00  0.00     0.053 C 
BRANCH   9  10
ATOM     10  C   UNL     1     -15.499  -8.788  -3.354  1.00  0.00     0.041 C 
ATOM     11  O   UNL     1     -15.067  -9.790  -3.982  1.00  0.00    -0.550 OA
ATOM     12  O   UNL     1     -16.515  -8.016  -3.904  1.00  0.00    -0.550 OA
ENDBRANCH   9  10
ENDBRANCH   8   9
ENDBRANCH   7   8
ENDBRANCH   6   7
ENDBRANCH   5   6
ENDBRANCH   4   5
ENDBRANCH   3   4
ENDBRANCH   1   3
BRANCH   2  13
ATOM     13  C   UNL     1     -18.567 -14.031  -2.931  1.00  0.00     0.027 C 
BRANCH  13  14
ATOM     14  C   UNL     1     -17.120 -14.528  -3.004  1.00  0.00     0.004 C 
BRANCH  14  15
ATOM     15  C   UNL     1     -16.145 -13.355  -3.185  1.00  0.00     0.000 C 
BRANCH  15  16
ATOM     16  C   UNL     1     -15.092 -13.279  -2.070  1.00  0.00     0.000 C 
BRANCH  16  17
ATOM     17  C   UNL     1     -15.206 -11.995  -1.232  1.00  0.00    -0.000 C 
BRANCH  17  18
ATOM     18  C   UNL     1     -15.266 -12.323   0.267  1.00  0.00    -0.000 C 
BRANCH  18  19
ATOM     19  C   UNL     1     -15.669 -13.783   0.536  1.00  0.00    -0.003 C 
ATOM     20  C   UNL     1     -15.559 -14.164   2.013  1.00  0.00     0.004 C 
ENDBRANCH  18  19
ENDBRANCH  17  18
ENDBRANCH  16  17
ENDBRANCH  15  16
ENDBRANCH  14  15
ENDBRANCH  13  14
ENDBRANCH   2  13
TORSDOF 15
ENDMDL
MODEL 4
REMARK VINA RESULT:    -6.283      2.359      5.599
REMARK INTER + INTRA:         -14.457
REMARK INTER:                 -11.939
REMARK INTRA:                  -2.518
REMARK UNBOUND:                -2.665
REMARK SMILES CCCCCCCCC=CCCCCCCCC(=O)[O-]
REMARK SMILES IDX 10 1 9 2 11 3 12 4 13 5 14 6 15 7 16 8 17 9 18 10 19 11
REMARK SMILES IDX 20 12 8 13 7 14 6 15 5 16 4 17 3 18 2 19 1 20
REMARK H PARENT
REMARK Flexibility Score: inf
ROOT
ATOM      1  C   UNL     1     -18.739  -9.119  -0.515  1.00  0.00    -0.031 C 
ATOM      2  C   UNL     1     -18.181  -9.038   0.702  1.00  0.00    -0.031 C 
ENDROOT
BRANCH   1   3
ATOM      3  C   UNL     1     -19.379 -10.390  -1.009  1.00  0.00     0.027 C 
BRANCH   3   4
ATOM      4  C   UNL     1     -18.848 -11.620  -0.259  1.00  0.00     0.004 C 
BRANCH   4   5
ATOM      5  C   UNL     1     -18.920 -12.934  -1.063  1.00  0.00     0.000 C 
BRANCH   5   6
ATOM      6  C   UNL     1     -18.249 -12.890  -2.450  1.00  0.00     0.000 C 
BRANCH   6   7
ATOM      7  C   UNL     1     -17.481 -14.163  -2.847  1.00  0.00     0.000 C 
BRANCH   7   8
ATOM      8  C   UNL     1     -16.716 -14.791  -1.668  1.00  0.00     0.006 C 
BRANCH   8   9
ATOM      9  C   UNL     1     -15.371 -14.099  -1.416  1.00  0.00     0.053 C 
BRANCH   9  10
ATOM     10  C   UNL     1     -15.190 -13.739   0.028  1.00  0.00     0.041 C 
ATOM     11  O   UNL     1     -14.082 -13.306   0.439  1.00  0.00    -0.550 OA
ATOM     12  O   UNL     1     -16.232 -13.928   0.928  1.00  0.00    -0.550 OA
ENDBRANCH   9  10
ENDBRANCH   8   9
ENDBRANCH   7   8
ENDBRANCH   6   7
ENDBRANCH   5   6
ENDBRANCH   4   5
ENDBRANCH   3   4
ENDBRANCH   1   3
BRANCH   2  13
ATOM     13  C   UNL     1     -17.538  -7.771   1.196  1.00  0.00     0.027 C 
BRANCH  13  14
ATOM     14  C   UNL     1     -16.069  -7.717   0.764  1.00  0.00     0.004 C 
BRANCH  14  15
ATOM     15  C   UNL     1     -15.544  -9.121   0.427  1.00  0.00     0.000 C 
BRANCH  15  16
ATOM     16  C   UNL     1     -14.912  -9.200  -0.971  1.00  0.00     0.000 C 
BRANCH  16  17
ATOM     17  C   UNL     1     -15.391 -10.422  -1.770  1.00  0.00    -0.000 C 
BRANCH  17  18
ATOM     18  C   UNL     1     -16.199  -9.988  -3.002  1.00  0.00    -0.000 C 
BRANCH  18  19
ATOM     19  C   UNL     1     -16.109  -8.476  -3.265  1.00  0.00    -0.003 C 
ATOM     20  C   UNL     1     -16.593  -8.088  -4.662  1.00  0.00     0.004 C 
ENDBRANCH  18  19
ENDBRANCH  17  18
ENDBRANCH  16  17
ENDBRANCH  15  16
ENDBRANCH  14  15
ENDBRANCH  13  14
ENDBRANCH   2  13
TORSDOF 15
ENDMDL
MODEL 5
REMARK VINA RESULT:    -6.172      1.207      2.405
REMARK INTER + INTRA:         -14.249
REMARK INTER:                 -11.746
REMARK INTRA:                  -2.503
REMARK UNBOUND:                -2.665
REMARK SMILES CCCCCCCCC=CCCCCCCCC(=O)[O-]
REMARK SMILES IDX 10 1 9 2 11 3 12 4 13 5 14 6 15 7 16 8 17 9 18 10 19 11
REMARK SMILES IDX 20 12 8 13 7 14 6 15 5 16 4 17 3 18 2 19 1 20
REMARK H PARENT
REMARK Flexibility Score: inf
ROOT
ATOM      1  C   UNL     1     -18.972 -10.169  -0.541  1.00  0.00    -0.031 C 
ATOM      2  C   UNL     1     -18.443 -11.114   0.251  1.00  0.00    -0.031 C 
ENDROOT
BRANCH   1   3
ATOM      3  C   UNL     1     -19.129  -8.745  -0.077  1.00  0.00     0.027 C 
BRANCH   3   4
ATOM      4  C   UNL     1     -18.268  -8.454   1.160  1.00  0.00     0.004 C 
BRANCH   4   5
ATOM      5  C   UNL     1     -17.025  -7.585   0.878  1.00  0.00     0.000 C 
BRANCH   5   6
ATOM      6  C   UNL     1     -15.703  -8.362   0.724  1.00  0.00     0.000 C 
BRANCH   6   7
ATOM      7  C   UNL     1     -15.253  -8.608  -0.726  1.00  0.00     0.000 C 
BRANCH   7   8
ATOM      8  C   UNL     1     -15.960  -7.687  -1.735  1.00  0.00     0.006 C 
BRANCH   8   9
ATOM      9  C   UNL     1     -16.774  -8.476  -2.768  1.00  0.00     0.053 C 
BRANCH   9  10
ATOM     10  C   UNL     1     -16.068  -8.563  -4.087  1.00  0.00     0.041 C 
ATOM     11  O   UNL     1     -15.075  -9.326  -4.224  1.00  0.00    -0.550 OA
ATOM     12  O   UNL     1     -16.478  -7.768  -5.151  1.00  0.00    -0.550 OA
ENDBRANCH   9  10
ENDBRANCH   8   9
ENDBRANCH   7   8
ENDBRANCH   6   7
ENDBRANCH   5   6
ENDBRANCH   4   5
ENDBRANCH   3   4
ENDBRANCH   1   3
BRANCH   2  13
ATOM     13  C   UNL     1     -18.289 -12.538  -0.208  1.00  0.00     0.027 C 
BRANCH  13  14
ATOM     14  C   UNL     1     -16.906 -13.074   0.177  1.00  0.00     0.004 C 
BRANCH  14  15
ATOM     15  C   UNL     1     -15.805 -12.069  -0.194  1.00  0.00     0.000 C 
BRANCH  15  16
ATOM     16  C   UNL     1     -15.471 -12.079  -1.694  1.00  0.00     0.000 C 
BRANCH  16  17
ATOM     17  C   UNL     1     -15.454 -13.496  -2.288  1.00  0.00    -0.000 C 
BRANCH  17  18
ATOM     18  C   UNL     1     -16.489 -13.629  -3.415  1.00  0.00    -0.000 C 
BRANCH  18  19
ATOM     19  C   UNL     1     -17.548 -14.704  -3.119  1.00  0.00    -0.003 C 
ATOM     20  C   UNL     1     -18.971 -14.146  -3.111  1.00  0.00     0.004 C 
ENDBRANCH  18  19
ENDBRANCH  17  18
ENDBRANCH  16  17
ENDBRANCH  15  16
ENDBRANCH  14  15
ENDBRANCH  13  14
ENDBRANCH   2  13
TORSDOF 15
ENDMDL
MODEL 6
REMARK VINA RESULT:    -6.003      2.596      5.762
REMARK INTER + INTRA:         -13.932
REMARK INTER:                 -11.434
REMARK INTRA:                  -2.498
REMARK UNBOUND:                -2.665
REMARK SMILES CCCCCCCCC=CCCCCCCCC(=O)[O-]
REMARK SMILES IDX 10 1 9 2 11 3 12 4 13 5 14 6 15 7 16 8 17 9 18 10 19 11
REMARK SMILES IDX 20 12 8 13 7 14 6 15 5 16 4 17 3 18 2 19 1 20
REMARK H PARENT
REMARK Flexibility Score: inf
ROOT
ATOM      1  C   UNL     1     -16.412  -7.838  -2.322  1.00  0.00    -0.031 C 
ATOM      2  C   UNL     1     -15.423  -7.806  -1.417  1.00  0.00    -0.031 C 
ENDROOT
BRANCH   1   3
ATOM      3  C   UNL     1     -16.194  -8.377  -3.712  1.00  0.00     0.027 C 
BRANCH   3   4
ATOM      4  C   UNL     1     -15.317  -9.637  -3.700  1.00  0.00     0.004 C 
BRANCH   4   5
ATOM      5  C   UNL     1     -16.043 -10.912  -3.226  1.00  0.00     0.000 C 
BRANCH   5   6
ATOM      6  C   UNL     1     -15.289 -11.741  -2.167  1.00  0.00     0.000 C 
BRANCH   6   7
ATOM      7  C   UNL     1     -15.391 -13.267  -2.335  1.00  0.00     0.000 C 
BRANCH   7   8
ATOM      8  C   UNL     1     -14.836 -14.039  -1.126  1.00  0.00     0.006 C 
BRANCH   8   9
ATOM      9  C   UNL     1     -15.848 -14.119   0.024  1.00  0.00     0.053 C 
BRANCH   9  10
ATOM     10  C   UNL     1     -15.249 -13.680   1.326  1.00  0.00     0.041 C 
ATOM     11  O   UNL     1     -14.392 -12.758   1.350  1.00  0.00    -0.550 OA
ATOM     12  O   UNL     1     -15.605 -14.320   2.507  1.00  0.00    -0.550 OA
ENDBRANCH   9  10
ENDBRANCH   8   9
ENDBRANCH   7   8
ENDBRANCH   6   7
ENDBRANCH   5   6
ENDBRANCH   4   5
ENDBRANCH   3   4
ENDBRANCH   1   3
BRANCH   2  13
ATOM     13  C   UNL     1     -15.637  -7.265  -0.029  1.00  0.00     0.027 C 
BRANCH  13  14
ATOM     14  C   UNL     1     -16.223  -8.350   0.880  1.00  0.00     0.004 C 
BRANCH  14  15
ATOM     15  C   UNL     1     -17.684  -8.037   1.235  1.00  0.00     0.000 C 
BRANCH  15  16
ATOM     16  C   UNL     1     -18.678  -8.998   0.565  1.00  0.00     0.000 C 
BRANCH  16  17
ATOM     17  C   UNL     1     -17.997 -10.252  -0.006  1.00  0.00    -0.000 C 
BRANCH  17  18
ATOM     18  C   UNL     1     -18.914 -10.963  -1.013  1.00  0.00    -0.000 C 
BRANCH  18  19
ATOM     19  C   UNL     1     -19.067 -12.463  -0.715  1.00  0.00    -0.003 C 
ATOM     20  C   UNL     1     -18.927 -13.332  -1.966  1.00  0.00     0.004 C 
ENDBRANCH  18  19
ENDBRANCH  17  18
ENDBRANCH  16  17
ENDBRANCH  15  16
ENDBRANCH  14  15
ENDBRANCH  13  14
ENDBRANCH   2  13
TORSDOF 15
ENDMDL
MODEL 7
REMARK VINA RESULT:    -5.988      2.597      5.647
REMARK INTER + INTRA:         -13.904
REMARK INTER:                 -11.478
REMARK INTRA:                  -2.427
REMARK UNBOUND:                -2.665
REMARK SMILES CCCCCCCCC=CCCCCCCCC(=O)[O-]
REMARK SMILES IDX 10 1 9 2 11 3 12 4 13 5 14 6 15 7 16 8 17 9 18 10 19 11
REMARK SMILES IDX 20 12 8 13 7 14 6 15 5 16 4 17 3 18 2 19 1 20
REMARK H PARENT
REMARK Flexibility Score: inf
ROOT
ATOM      1  C   UNL     1     -18.202 -11.004  -1.363  1.00  0.00    -0.031 C 
ATOM      2  C   UNL     1     -18.543  -9.764  -1.745  1.00  0.00    -0.031 C 
ENDROOT
BRANCH   1   3
ATOM      3  C   UNL     1     -19.162 -11.895  -0.619  1.00  0.00     0.027 C 
BRANCH   3   4
ATOM      4  C   UNL     1     -19.399 -13.217  -1.362  1.00  0.00     0.004 C 
BRANCH   4   5
ATOM      5  C   UNL     1     -18.681 -13.318  -2.723  1.00  0.00     0.000 C 
BRANCH   5   6
ATOM      6  C   UNL     1     -17.563 -14.377  -2.797  1.00  0.00     0.000 C 
BRANCH   6   7
ATOM      7  C   UNL     1     -16.235 -13.974  -2.134  1.00  0.00     0.000 C 
BRANCH   7   8
ATOM      8  C   UNL     1     -16.022 -14.647  -0.767  1.00  0.00     0.006 C 
BRANCH   8   9
ATOM      9  C   UNL     1     -16.397 -13.723   0.399  1.00  0.00     0.053 C 
BRANCH   9  10
ATOM     10  C   UNL     1     -15.324 -13.681   1.444  1.00  0.00     0.041 C 
ATOM     11  O   UNL     1     -14.250 -13.062   1.226  1.00  0.00    -0.550 OA
ATOM     12  O   UNL     1     -15.492 -14.365   2.643  1.00  0.00    -0.550 OA
ENDBRANCH   9  10
ENDBRANCH   8   9
ENDBRANCH   7   8
ENDBRANCH   6   7
ENDBRANCH   5   6
ENDBRANCH   4   5
ENDBRANCH   3   4
ENDBRANCH   1   3
BRANCH   2  13
ATOM     13  C   UNL     1     -17.586  -8.871  -2.484  1.00  0.00     0.027 C 
BRANCH  13  14
ATOM     14  C   UNL     1     -16.411  -9.688  -3.032  1.00  0.00     0.004 C 
BRANCH  14  15
ATOM     15  C   UNL     1     -15.110  -8.872  -2.994  1.00  0.00     0.000 C 
BRANCH  15  16
ATOM     16  C   UNL     1     -14.885  -8.174  -1.645  1.00  0.00     0.000 C 
BRANCH  16  17
ATOM     17  C   UNL     1     -14.499  -9.155  -0.527  1.00  0.00    -0.000 C 
BRANCH  17  18
ATOM     18  C   UNL     1     -15.572  -9.183   0.571  1.00  0.00    -0.000 C 
BRANCH  18  19
ATOM     19  C   UNL     1     -16.242  -7.815   0.777  1.00  0.00    -0.003 C 
ATOM     20  C   UNL     1     -17.683  -7.931   1.276  1.00  0.00     0.004 C 
ENDBRANCH  18  19
ENDBRANCH  17  18
ENDBRANCH  16  17
ENDBRANCH  15  16
ENDBRANCH  14  15
ENDBRANCH  13  14
ENDBRANCH   2  13
TORSDOF 15
ENDMDL
MODEL 8
REMARK VINA RESULT:    -5.885      1.815      5.300
REMARK INTER + INTRA:         -13.711
REMARK INTER:                 -11.381
REMARK INTRA:                  -2.329
REMARK UNBOUND:                -2.665
REMARK SMILES CCCCCCCCC=CCCCCCCCC(=O)[O-]
REMARK SMILES IDX 10 1 9 2 11 3 12 4 13 5 14 6 15 7 16 8 17 9 18 10 19 11
REMARK SMILES IDX 20 12 8 13 7 14 6 15 5 16 4 17 3 18 2 19 1 20
REMARK H PARENT
REMARK Flexibility Score: inf
ROOT
ATOM      1  C   UNL     1     -18.713  -9.130  -0.632  1.00  0.00    -0.031 C 
ATOM      2  C   UNL     1     -18.170  -9.190   0.593  1.00  0.00    -0.031 C 
ENDROOT
BRANCH   1   3
ATOM      3  C   UNL     1     -19.142 -10.371  -1.369  1.00  0.00     0.027 C 
BRANCH   3   4
ATOM      4  C   UNL     1     -18.071 -11.469  -1.300  1.00  0.00     0.004 C 
BRANCH   4   5
ATOM      5  C   UNL     1     -18.319 -12.531  -0.209  1.00  0.00     0.000 C 
BRANCH   5   6
ATOM      6  C   UNL     1     -17.051 -13.206   0.349  1.00  0.00     0.000 C 
BRANCH   6   7
ATOM      7  C   UNL     1     -15.721 -12.591  -0.119  1.00  0.00     0.000 C 
BRANCH   7   8
ATOM      8  C   UNL     1     -14.884 -13.558  -0.974  1.00  0.00     0.006 C 
BRANCH   8   9
ATOM      9  C   UNL     1     -15.746 -14.640  -1.637  1.00  0.00     0.053 C 
BRANCH   9  10
ATOM     10  C   UNL     1     -16.333 -14.169  -2.933  1.00  0.00     0.041 C 
ATOM     11  O   UNL     1     -15.870 -13.146  -3.503  1.00  0.00    -0.550 OA
ATOM     12  O   UNL     1     -17.420 -14.834  -3.487  1.00  0.00    -0.550 OA
ENDBRANCH   9  10
ENDBRANCH   8   9
ENDBRANCH   7   8
ENDBRANCH   6   7
ENDBRANCH   5   6
ENDBRANCH   4   5
ENDBRANCH   3   4
ENDBRANCH   1   3
BRANCH   2  13
ATOM     13  C   UNL     1     -17.738  -7.952   1.329  1.00  0.00     0.027 C 
BRANCH  13  14
ATOM     14  C   UNL     1     -16.350  -7.508   0.856  1.00  0.00     0.004 C 
BRANCH  14  15
ATOM     15  C   UNL     1     -15.561  -8.695   0.283  1.00  0.00     0.000 C 
BRANCH  15  16
ATOM     16  C   UNL     1     -15.011  -8.419  -1.125  1.00  0.00     0.000 C 
BRANCH  16  17
ATOM     17  C   UNL     1     -14.857  -9.698  -1.963  1.00  0.00    -0.000 C 
BRANCH  17  18
ATOM     18  C   UNL     1     -15.545  -9.544  -3.328  1.00  0.00    -0.000 C 
BRANCH  18  19
ATOM     19  C   UNL     1     -16.309  -8.216  -3.457  1.00  0.00    -0.003 C 
ATOM     20  C   UNL     1     -16.738  -7.918  -4.894  1.00  0.00     0.004 C 
ENDBRANCH  18  19
ENDBRANCH  17  18
ENDBRANCH  16  17
ENDBRANCH  15  16
ENDBRANCH  14  15
ENDBRANCH  13  14
ENDBRANCH   2  13
TORSDOF 15
ENDMDL
MODEL 9
REMARK VINA RESULT:    -5.813      1.076      3.023
REMARK INTER + INTRA:         -13.575
REMARK INTER:                 -11.012
REMARK INTRA:                  -2.563
REMARK UNBOUND:                -2.665
REMARK SMILES CCCCCCCCC=CCCCCCCCC(=O)[O-]
REMARK SMILES IDX 10 1 9 2 11 3 12 4 13 5 14 6 15 7 16 8 17 9 18 10 19 11
REMARK SMILES IDX 20 12 8 13 7 14 6 15 5 16 4 17 3 18 2 19 1 20
REMARK H PARENT
REMARK Flexibility Score: inf
ROOT
ATOM      1  C   UNL     1     -18.236 -12.587   0.110  1.00  0.00    -0.031 C 
ATOM      2  C   UNL     1     -16.932 -12.320   0.276  1.00  0.00    -0.031 C 
ENDROOT
BRANCH   1   3
ATOM      3  C   UNL     1     -19.212 -11.525  -0.323  1.00  0.00     0.027 C 
BRANCH   3   4
ATOM      4  C   UNL     1     -18.542 -10.468  -1.212  1.00  0.00     0.004 C 
BRANCH   4   5
ATOM      5  C   UNL     1     -18.614  -9.032  -0.655  1.00  0.00     0.000 C 
BRANCH   5   6
ATOM      6  C   UNL     1     -17.755  -8.770   0.599  1.00  0.00     0.000 C 
BRANCH   6   7
ATOM      7  C   UNL     1     -16.265  -8.499   0.327  1.00  0.00     0.000 C 
BRANCH   7   8
ATOM      8  C   UNL     1     -16.017  -7.856  -1.048  1.00  0.00     0.006 C 
BRANCH   8   9
ATOM      9  C   UNL     1     -15.117  -8.722  -1.939  1.00  0.00     0.053 C 
BRANCH   9  10
ATOM     10  C   UNL     1     -15.668  -8.857  -3.326  1.00  0.00     0.041 C 
ATOM     11  O   UNL     1     -16.775  -8.334  -3.621  1.00  0.00    -0.550 OA
ATOM     12  O   UNL     1     -14.981  -9.600  -4.279  1.00  0.00    -0.550 OA
ENDBRANCH   9  10
ENDBRANCH   8   9
ENDBRANCH   7   8
ENDBRANCH   6   7
ENDBRANCH   5   6
ENDBRANCH   4   5
ENDBRANCH   3   4
ENDBRANCH   1   3
BRANCH   2  13
ATOM     13  C   UNL     1     -15.956 -13.378   0.711  1.00  0.00     0.027 C 
BRANCH  13  14
ATOM     14  C   UNL     1     -14.639 -13.237  -0.060  1.00  0.00     0.004 C 
BRANCH  14  15
ATOM     15  C   UNL     1     -14.691 -14.018  -1.381  1.00  0.00     0.000 C 
BRANCH  15  16
ATOM     16  C   UNL     1     -14.782 -13.101  -2.611  1.00  0.00     0.000 C 
BRANCH  16  17
ATOM     17  C   UNL     1     -16.233 -12.787  -3.010  1.00  0.00    -0.000 C 
BRANCH  17  18
ATOM     18  C   UNL     1     -16.893 -14.003  -3.677  1.00  0.00    -0.000 C 
BRANCH  18  19
ATOM     19  C   UNL     1     -17.998 -14.625  -2.808  1.00  0.00    -0.003 C 
ATOM     20  C   UNL     1     -19.379 -14.034  -3.094  1.00  0.00     0.004 C 
ENDBRANCH  18  19
ENDBRANCH  17  18
ENDBRANCH  16  17
ENDBRANCH  15  16
ENDBRANCH  14  15
ENDBRANCH  13  14
ENDBRANCH   2  13
TORSDOF 15
ENDMDL
