MODEL 1
REMARK VINA RESULT:    -3.296      0.000      0.000
REMARK INTER + INTRA:          -5.546
REMARK INTER:                  -5.030
REMARK INTRA:                  -0.516
REMARK UNBOUND:                -0.516
REMARK SMILES CC1=CCC[C@H](C)C(=O)C[C@H](C(C)C)C(=O)C1
REMARK SMILES IDX 8 1 9 2 6 3 7 4 5 5 4 6 3 7 2 8 1 9 10 11 11 12 15 13 16 14
REMARK SMILES IDX 17 15 12 17 13 18 14 19
REMARK H PARENT
REMARK Flexibility Score: 70.00
ROOT
ATOM      1  C   UNL     1      -6.325   2.774  58.216  1.00  0.00     0.136 C 
ATOM      2  O   UNL     1      -6.510   1.664  58.694  1.00  0.00    -0.299 OA
ENDROOT
BRANCH   1   3
ATOM      3  C   UNL     1      -5.094   2.990  57.354  1.00  0.00     0.053 C 
ATOM      4  C   UNL     1      -3.823   2.376  57.961  1.00  0.00     0.016 C 
BRANCH   3   5
ATOM      5  C   UNL     1      -5.342   2.613  55.875  1.00  0.00     0.015 C 
BRANCH   5   6
ATOM      6  C   UNL     1      -5.722   3.783  54.949  1.00  0.00     0.028 C 
BRANCH   6   7
ATOM      7  C   UNL     1      -7.205   3.792  54.684  1.00  0.00    -0.028 C 
ATOM      8  C   UNL     1      -8.030   4.820  54.989  1.00  0.00    -0.070 CG0
ATOM      9  C   UNL     1      -9.478   4.712  54.580  1.00  0.00     0.039 C 
ATOM     10  G   UNL     1      -7.566   6.058  55.741  1.00  0.00     0.000 G0
ENDBRANCH   6   7
ENDBRANCH   5   6
ENDBRANCH   3   5
ENDBRANCH   1   3
BRANCH   1  11
ATOM     11  C   UNL     1      -7.344   3.856  58.508  1.00  0.00     0.087 C 
BRANCH  11  12
ATOM     12  C   UNL     1      -6.815   5.270  58.151  1.00  0.00     0.066 C 
BRANCH  12  13
ATOM     13  C   UNL     1      -7.805   5.994  57.245  1.00  0.00     0.140 C 
ATOM     14  O   UNL     1      -8.831   6.445  57.734  1.00  0.00    -0.299 OA
BRANCH  13  15
ATOM     15  C   UNL     1      -7.593   6.092  55.749  1.00  0.00     0.106 CG0
ATOM     16  G   UNL     1      -8.024   4.836  55.007  1.00  0.00     0.000 G0
ENDBRANCH  13  15
ENDBRANCH  12  13
BRANCH  12  17
ATOM     17  C   UNL     1      -6.451   6.134  59.404  1.00  0.00    -0.006 C 
ATOM     18  C   UNL     1      -7.139   5.633  60.688  1.00  0.00     0.008 C 
ATOM     19  C   UNL     1      -4.929   6.149  59.638  1.00  0.00     0.008 C 
ENDBRANCH  12  17
ENDBRANCH  11  12
ENDBRANCH   1  11
TORSDOF 1
ENDMDL
MODEL 2
REMARK VINA RESULT:    -3.181      2.053      4.091
REMARK INTER + INTRA:          -5.370
REMARK INTER:                  -5.151
REMARK INTRA:                  -0.220
REMARK UNBOUND:                -0.516
REMARK SMILES CC1=CCC[C@H](C)C(=O)C[C@H](C(C)C)C(=O)C1
REMARK SMILES IDX 8 1 9 2 6 3 7 4 5 5 4 6 3 7 2 8 1 9 10 11 11 12 15 13 16 14
REMARK SMILES IDX 17 15 12 17 13 18 14 19
REMARK H PARENT
REMARK Flexibility Score: 70.00
ROOT
ATOM      1  C   UNL     1      -6.502   2.452  56.067  1.00  0.00     0.136 C 
ATOM      2  O   UNL     1      -6.796   1.524  55.326  1.00  0.00    -0.299 OA
ENDROOT
BRANCH   1   3
ATOM      3  C   UNL     1      -6.266   3.819  55.448  1.00  0.00     0.053 C 
ATOM      4  C   UNL     1      -5.872   3.744  53.965  1.00  0.00     0.016 C 
BRANCH   3   5
ATOM      5  C   UNL     1      -7.416   4.806  55.755  1.00  0.00     0.015 C 
BRANCH   5   6
ATOM      6  C   UNL     1      -7.005   6.091  56.496  1.00  0.00     0.028 C 
BRANCH   6   7
ATOM      7  C   UNL     1      -7.710   6.190  57.823  1.00  0.00    -0.028 C 
ATOM      8  C   UNL     1      -7.142   5.896  59.015  1.00  0.00    -0.070 CG0
ATOM      9  C   UNL     1      -7.954   6.129  60.264  1.00  0.00     0.039 C 
ATOM     10  G   UNL     1      -5.738   5.324  59.144  1.00  0.00     0.000 G0
ENDBRANCH   6   7
ENDBRANCH   5   6
ENDBRANCH   3   5
ENDBRANCH   1   3
BRANCH   1  11
ATOM     11  C   UNL     1      -6.404   2.177  57.553  1.00  0.00     0.087 C 
BRANCH  11  12
ATOM     12  C   UNL     1      -5.203   2.911  58.206  1.00  0.00     0.066 C 
BRANCH  12  13
ATOM     13  C   UNL     1      -5.686   3.825  59.327  1.00  0.00     0.140 C 
ATOM     14  O   UNL     1      -6.119   3.321  60.354  1.00  0.00    -0.299 OA
BRANCH  13  15
ATOM     15  C   UNL     1      -5.723   5.330  59.168  1.00  0.00     0.106 CG0
ATOM     16  G   UNL     1      -7.136   5.874  59.015  1.00  0.00     0.000 G0
ENDBRANCH  13  15
ENDBRANCH  12  13
BRANCH  12  17
ATOM     17  C   UNL     1      -4.078   1.943  58.704  1.00  0.00    -0.006 C 
ATOM     18  C   UNL     1      -4.558   0.484  58.814  1.00  0.00     0.008 C 
ATOM     19  C   UNL     1      -2.859   1.987  57.763  1.00  0.00     0.008 C 
ENDBRANCH  12  17
ENDBRANCH  11  12
ENDBRANCH   1  11
TORSDOF 1
ENDMDL
MODEL 3
REMARK VINA RESULT:    -3.143      1.811      3.933
REMARK INTER + INTRA:          -5.313
REMARK INTER:                  -4.834
REMARK INTRA:                  -0.479
REMARK UNBOUND:                -0.516
REMARK SMILES CC1=CCC[C@H](C)C(=O)C[C@H](C(C)C)C(=O)C1
REMARK SMILES IDX 8 1 9 2 6 3 7 4 5 5 4 6 3 7 2 8 1 9 10 11 11 12 15 13 16 14
REMARK SMILES IDX 17 15 12 17 13 18 14 19
REMARK H PARENT
REMARK Flexibility Score: 70.00
ROOT
ATOM      1  C   UNL     1      -7.368   5.816  56.485  1.00  0.00     0.136 C 
ATOM      2  O   UNL     1      -7.522   6.901  55.944  1.00  0.00    -0.299 OA
ENDROOT
BRANCH   1   3
ATOM      3  C   UNL     1      -7.960   4.588  55.816  1.00  0.00     0.053 C 
ATOM      4  C   UNL     1      -9.493   4.635  55.726  1.00  0.00     0.016 C 
BRANCH   3   5
ATOM      5  C   UNL     1      -7.251   4.250  54.483  1.00  0.00     0.015 C 
BRANCH   5   6
ATOM      6  C   UNL     1      -5.776   3.828  54.607  1.00  0.00     0.028 C 
BRANCH   6   7
ATOM      7  C   UNL     1      -5.663   2.468  55.245  1.00  0.00    -0.028 C 
ATOM      8  C   UNL     1      -5.261   2.251  56.518  1.00  0.00    -0.070 CG0
ATOM      9  C   UNL     1      -5.284   0.835  57.037  1.00  0.00     0.039 C 
ATOM     10  G   UNL     1      -4.770   3.364  57.432  1.00  0.00     0.000 G0
ENDBRANCH   6   7
ENDBRANCH   5   6
ENDBRANCH   3   5
ENDBRANCH   1   3
BRANCH   1  11
ATOM     11  C   UNL     1      -6.588   5.769  57.783  1.00  0.00     0.087 C 
BRANCH  11  12
ATOM     12  C   UNL     1      -6.880   4.480  58.595  1.00  0.00     0.066 C 
BRANCH  12  13
ATOM     13  C   UNL     1      -5.639   3.597  58.654  1.00  0.00     0.140 C 
ATOM     14  O   UNL     1      -5.307   3.116  59.729  1.00  0.00    -0.299 OA
BRANCH  13  15
ATOM     15  C   UNL     1      -4.762   3.372  57.441  1.00  0.00     0.106 CG0
ATOM     16  G   UNL     1      -5.262   2.245  56.550  1.00  0.00     0.000 G0
ENDBRANCH  13  15
ENDBRANCH  12  13
BRANCH  12  17
ATOM     17  C   UNL     1      -7.449   4.762  60.026  1.00  0.00    -0.006 C 
ATOM     18  C   UNL     1      -7.129   6.185  60.521  1.00  0.00     0.008 C 
ATOM     19  C   UNL     1      -8.976   4.563  60.060  1.00  0.00     0.008 C 
ENDBRANCH  12  17
ENDBRANCH  11  12
ENDBRANCH   1  11
TORSDOF 1
ENDMDL
MODEL 4
REMARK VINA RESULT:    -3.142      2.544      5.122
REMARK INTER + INTRA:          -5.311
REMARK INTER:                  -4.972
REMARK INTRA:                  -0.339
REMARK UNBOUND:                -0.516
REMARK SMILES CC1=CCC[C@H](C)C(=O)C[C@H](C(C)C)C(=O)C1
REMARK SMILES IDX 8 1 9 2 6 3 7 4 5 5 4 6 3 7 2 8 1 9 10 11 11 12 15 13 16 14
REMARK SMILES IDX 17 15 12 17 13 18 14 19
REMARK H PARENT
REMARK Flexibility Score: 70.00
ROOT
ATOM      1  C   UNL     1      -9.126   3.613  52.524  1.00  0.00     0.136 C 
ATOM      2  O   UNL     1      -9.872   2.680  52.787  1.00  0.00    -0.299 OA
ENDROOT
BRANCH   1   3
ATOM      3  C   UNL     1      -7.822   3.310  51.807  1.00  0.00     0.053 C 
ATOM      4  C   UNL     1      -7.300   4.500  50.987  1.00  0.00     0.016 C 
BRANCH   3   5
ATOM      5  C   UNL     1      -6.772   2.672  52.747  1.00  0.00     0.015 C 
BRANCH   5   6
ATOM      6  C   UNL     1      -5.830   3.663  53.455  1.00  0.00     0.028 C 
BRANCH   6   7
ATOM      7  C   UNL     1      -6.062   3.648  54.943  1.00  0.00    -0.028 C 
ATOM      8  C   UNL     1      -6.821   4.549  55.608  1.00  0.00    -0.070 CG0
ATOM      9  C   UNL     1      -7.028   4.347  57.088  1.00  0.00     0.039 C 
ATOM     10  G   UNL     1      -7.450   5.759  54.933  1.00  0.00     0.000 G0
ENDBRANCH   6   7
ENDBRANCH   5   6
ENDBRANCH   3   5
ENDBRANCH   1   3
BRANCH   1  11
ATOM     11  C   UNL     1      -9.559   5.008  52.922  1.00  0.00     0.087 C 
BRANCH  11  12
ATOM     12  C   UNL     1      -9.966   5.091  54.417  1.00  0.00     0.066 C 
BRANCH  12  13
ATOM     13  C   UNL     1      -8.946   5.910  55.201  1.00  0.00     0.140 C 
ATOM     14  O   UNL     1      -9.347   6.739  56.005  1.00  0.00    -0.299 OA
BRANCH  13  15
ATOM     15  C   UNL     1      -7.459   5.783  54.947  1.00  0.00     0.106 CG0
ATOM     16  G   UNL     1      -6.847   4.561  55.615  1.00  0.00     0.000 G0
ENDBRANCH  13  15
ENDBRANCH  12  13
BRANCH  12  17
ATOM     17  C   UNL     1     -11.419   5.629  54.637  1.00  0.00    -0.006 C 
ATOM     18  C   UNL     1     -12.041   6.200  53.348  1.00  0.00     0.008 C 
ATOM     19  C   UNL     1     -12.341   4.518  55.175  1.00  0.00     0.008 C 
ENDBRANCH  12  17
ENDBRANCH  11  12
ENDBRANCH   1  11
TORSDOF 1
ENDMDL
MODEL 5
REMARK VINA RESULT:    -3.138      3.116      5.715
REMARK INTER + INTRA:          -5.305
REMARK INTER:                  -4.866
REMARK INTRA:                  -0.439
REMARK UNBOUND:                -0.516
REMARK SMILES CC1=CCC[C@H](C)C(=O)C[C@H](C(C)C)C(=O)C1
REMARK SMILES IDX 8 1 9 2 6 3 7 4 5 5 4 6 3 7 2 8 1 9 10 11 11 12 15 13 16 14
REMARK SMILES IDX 17 15 12 17 13 18 14 19
REMARK H PARENT
REMARK Flexibility Score: 70.00
ROOT
ATOM      1  C   UNL     1      -9.936   5.468  51.845  1.00  0.00     0.136 C 
ATOM      2  O   UNL     1     -10.271   6.108  50.859  1.00  0.00    -0.299 OA
ENDROOT
BRANCH   1   3
ATOM      3  C   UNL     1      -9.470   4.035  51.649  1.00  0.00     0.053 C 
ATOM      4  C   UNL     1     -10.538   3.145  50.994  1.00  0.00     0.016 C 
BRANCH   3   5
ATOM      5  C   UNL     1      -8.078   3.959  50.981  1.00  0.00     0.015 C 
BRANCH   5   6
ATOM      6  C   UNL     1      -6.901   4.442  51.849  1.00  0.00     0.028 C 
BRANCH   6   7
ATOM      7  C   UNL     1      -6.707   3.534  53.036  1.00  0.00    -0.028 C 
ATOM      8  C   UNL     1      -6.925   3.898  54.320  1.00  0.00    -0.070 CG0
ATOM      9  C   UNL     1      -6.770   2.847  55.390  1.00  0.00     0.039 C 
ATOM     10  G   UNL     1      -7.295   5.316  54.727  1.00  0.00     0.000 G0
ENDBRANCH   6   7
ENDBRANCH   5   6
ENDBRANCH   3   5
ENDBRANCH   1   3
BRANCH   1  11
ATOM     11  C   UNL     1      -9.996   6.151  53.196  1.00  0.00     0.087 C 
BRANCH  11  12
ATOM     12  C   UNL     1      -9.916   5.138  54.368  1.00  0.00     0.066 C 
BRANCH  12  13
ATOM     13  C   UNL     1      -8.709   5.440  55.249  1.00  0.00     0.140 C 
ATOM     14  O   UNL     1      -8.895   5.856  56.384  1.00  0.00    -0.299 OA
BRANCH  13  15
ATOM     15  C   UNL     1      -7.292   5.320  54.728  1.00  0.00     0.106 CG0
ATOM     16  G   UNL     1      -6.936   3.904  54.303  1.00  0.00     0.000 G0
ENDBRANCH  13  15
ENDBRANCH  12  13
BRANCH  12  17
ATOM     17  C   UNL     1     -11.232   5.059  55.212  1.00  0.00    -0.006 C 
ATOM     18  C   UNL     1     -12.136   6.291  55.018  1.00  0.00     0.008 C 
ATOM     19  C   UNL     1     -12.041   3.797  54.852  1.00  0.00     0.008 C 
ENDBRANCH  12  17
ENDBRANCH  11  12
ENDBRANCH   1  11
TORSDOF 1
ENDMDL
MODEL 6
REMARK VINA RESULT:    -3.108      2.217      4.214
REMARK INTER + INTRA:          -5.260
REMARK INTER:                  -4.850
REMARK INTRA:                  -0.410
REMARK UNBOUND:                -0.516
REMARK SMILES CC1=CCC[C@H](C)C(=O)C[C@H](C(C)C)C(=O)C1
REMARK SMILES IDX 8 1 9 2 6 3 7 4 5 5 4 6 3 7 2 8 1 9 10 11 11 12 15 13 16 14
REMARK SMILES IDX 17 15 12 17 13 18 14 19
REMARK H PARENT
REMARK Flexibility Score: 70.00
ROOT
ATOM      1  C   UNL     1      -5.692   5.334  58.622  1.00  0.00     0.136 C 
ATOM      2  O   UNL     1      -5.062   6.082  59.356  1.00  0.00    -0.299 OA
ENDROOT
BRANCH   1   3
ATOM      3  C   UNL     1      -5.858   3.885  59.044  1.00  0.00     0.053 C 
ATOM      4  C   UNL     1      -4.541   3.096  59.005  1.00  0.00     0.016 C 
BRANCH   3   5
ATOM      5  C   UNL     1      -6.646   3.748  60.368  1.00  0.00     0.015 C 
BRANCH   5   6
ATOM      6  C   UNL     1      -8.177   3.682  60.222  1.00  0.00     0.028 C 
BRANCH   6   7
ATOM      7  C   UNL     1      -8.785   5.053  60.360  1.00  0.00    -0.028 C 
ATOM      8  C   UNL     1      -9.511   5.669  59.399  1.00  0.00    -0.070 CG0
ATOM      9  C   UNL     1     -10.125   7.007  59.723  1.00  0.00     0.039 C 
ATOM     10  G   UNL     1      -9.711   5.082  58.010  1.00  0.00     0.000 G0
ENDBRANCH   6   7
ENDBRANCH   5   6
ENDBRANCH   3   5
ENDBRANCH   1   3
BRANCH   1  11
ATOM     11  C   UNL     1      -6.273   5.908  57.346  1.00  0.00     0.087 C 
BRANCH  11  12
ATOM     12  C   UNL     1      -7.381   5.001  56.748  1.00  0.00     0.066 C 
BRANCH  12  13
ATOM     13  C   UNL     1      -8.755   5.623  56.972  1.00  0.00     0.140 C 
ATOM     14  O   UNL     1      -9.057   6.627  56.342  1.00  0.00    -0.299 OA
BRANCH  13  15
ATOM     15  C   UNL     1      -9.715   5.083  58.010  1.00  0.00     0.106 CG0
ATOM     16  G   UNL     1      -9.491   5.682  59.391  1.00  0.00     0.000 G0
ENDBRANCH  13  15
ENDBRANCH  12  13
BRANCH  12  17
ATOM     17  C   UNL     1      -7.151   4.651  55.240  1.00  0.00    -0.006 C 
ATOM     18  C   UNL     1      -5.818   3.919  54.998  1.00  0.00     0.008 C 
ATOM     19  C   UNL     1      -8.296   3.773  54.699  1.00  0.00     0.008 C 
ENDBRANCH  12  17
ENDBRANCH  11  12
ENDBRANCH   1  11
TORSDOF 1
ENDMDL
MODEL 7
REMARK VINA RESULT:    -3.051      2.077      3.151
REMARK INTER + INTRA:          -5.172
REMARK INTER:                  -4.951
REMARK INTRA:                  -0.220
REMARK UNBOUND:                -0.516
REMARK SMILES CC1=CCC[C@H](C)C(=O)C[C@H](C(C)C)C(=O)C1
REMARK SMILES IDX 8 1 9 2 6 3 7 4 5 5 4 6 3 7 2 8 1 9 10 11 11 12 15 13 16 14
REMARK SMILES IDX 17 15 12 17 13 18 14 19
REMARK H PARENT
REMARK Flexibility Score: 70.00
ROOT
ATOM      1  C   UNL     1      -7.416   3.270  56.123  1.00  0.00     0.136 C 
ATOM      2  O   UNL     1      -8.275   2.584  55.587  1.00  0.00    -0.299 OA
ENDROOT
BRANCH   1   3
ATOM      3  C   UNL     1      -6.709   4.322  55.286  1.00  0.00     0.053 C 
ATOM      4  C   UNL     1      -5.851   3.716  54.166  1.00  0.00     0.016 C 
BRANCH   3   5
ATOM      5  C   UNL     1      -7.669   5.442  54.822  1.00  0.00     0.015 C 
BRANCH   5   6
ATOM      6  C   UNL     1      -7.995   6.514  55.878  1.00  0.00     0.028 C 
BRANCH   6   7
ATOM      7  C   UNL     1      -9.424   6.392  56.337  1.00  0.00    -0.028 C 
ATOM      8  C   UNL     1      -9.807   6.297  57.631  1.00  0.00    -0.070 CG0
ATOM      9  C   UNL     1     -11.284   6.270  57.932  1.00  0.00     0.039 C 
ATOM     10  G   UNL     1      -8.817   6.196  58.781  1.00  0.00     0.000 G0
ENDBRANCH   6   7
ENDBRANCH   5   6
ENDBRANCH   3   5
ENDBRANCH   1   3
BRANCH   1  11
ATOM     11  C   UNL     1      -7.125   3.031  57.590  1.00  0.00     0.087 C 
BRANCH  11  12
ATOM     12  C   UNL     1      -6.949   4.357  58.376  1.00  0.00     0.066 C 
BRANCH  12  13
ATOM     13  C   UNL     1      -8.276   4.792  58.988  1.00  0.00     0.140 C 
ATOM     14  O   UNL     1      -8.949   3.964  59.585  1.00  0.00    -0.299 OA
BRANCH  13  15
ATOM     15  C   UNL     1      -8.819   6.192  58.801  1.00  0.00     0.106 CG0
ATOM     16  G   UNL     1      -9.805   6.295  57.648  1.00  0.00     0.000 G0
ENDBRANCH  13  15
ENDBRANCH  12  13
BRANCH  12  17
ATOM     17  C   UNL     1      -5.816   4.296  59.454  1.00  0.00    -0.006 C 
ATOM     18  C   UNL     1      -4.835   3.133  59.217  1.00  0.00     0.008 C 
ATOM     19  C   UNL     1      -5.016   5.612  59.485  1.00  0.00     0.008 C 
ENDBRANCH  12  17
ENDBRANCH  11  12
ENDBRANCH   1  11
TORSDOF 1
ENDMDL
MODEL 8
REMARK VINA RESULT:    -3.043      2.046      2.829
REMARK INTER + INTRA:          -5.160
REMARK INTER:                  -4.762
REMARK INTRA:                  -0.399
REMARK UNBOUND:                -0.516
REMARK SMILES CC1=CCC[C@H](C)C(=O)C[C@H](C(C)C)C(=O)C1
REMARK SMILES IDX 8 1 9 2 6 3 7 4 5 5 4 6 3 7 2 8 1 9 10 11 11 12 15 13 16 14
REMARK SMILES IDX 17 15 12 17 13 18 14 19
REMARK H PARENT
REMARK Flexibility Score: 70.00
ROOT
ATOM      1  C   UNL     1      -7.025   4.306  58.939  1.00  0.00     0.136 C 
ATOM      2  O   UNL     1      -6.438   3.237  59.029  1.00  0.00    -0.299 OA
ENDROOT
BRANCH   1   3
ATOM      3  C   UNL     1      -6.292   5.478  58.310  1.00  0.00     0.053 C 
ATOM      4  C   UNL     1      -4.880   5.677  58.883  1.00  0.00     0.016 C 
BRANCH   3   5
ATOM      5  C   UNL     1      -6.357   5.448  56.765  1.00  0.00     0.015 C 
BRANCH   5   6
ATOM      6  C   UNL     1      -7.478   6.294  56.134  1.00  0.00     0.028 C 
BRANCH   6   7
ATOM      7  C   UNL     1      -8.610   5.415  55.669  1.00  0.00    -0.028 C 
ATOM      8  C   UNL     1      -9.891   5.532  56.087  1.00  0.00    -0.070 CG0
ATOM      9  C   UNL     1     -10.926   4.632  55.461  1.00  0.00     0.039 C 
ATOM     10  G   UNL     1     -10.322   6.510  57.170  1.00  0.00     0.000 G0
ENDBRANCH   6   7
ENDBRANCH   5   6
ENDBRANCH   3   5
ENDBRANCH   1   3
BRANCH   1  11
ATOM     11  C   UNL     1      -8.449   4.385  59.450  1.00  0.00     0.087 C 
BRANCH  11  12
ATOM     12  C   UNL     1      -9.010   5.831  59.399  1.00  0.00     0.066 C 
BRANCH  12  13
ATOM     13  C   UNL     1     -10.292   5.875  58.575  1.00  0.00     0.140 C 
ATOM     14  O   UNL     1     -11.294   5.329  59.014  1.00  0.00    -0.299 OA
BRANCH  13  15
ATOM     15  C   UNL     1     -10.332   6.498  57.196  1.00  0.00     0.106 CG0
ATOM     16  G   UNL     1      -9.909   5.533  56.098  1.00  0.00     0.000 G0
ENDBRANCH  13  15
ENDBRANCH  12  13
BRANCH  12  17
ATOM     17  C   UNL     1      -9.219   6.467  60.814  1.00  0.00    -0.006 C 
ATOM     18  C   UNL     1      -7.923   6.501  61.646  1.00  0.00     0.008 C 
ATOM     19  C   UNL     1      -9.763   7.904  60.696  1.00  0.00     0.008 C 
ENDBRANCH  12  17
ENDBRANCH  11  12
ENDBRANCH   1  11
TORSDOF 1
ENDMDL
MODEL 9
REMARK VINA RESULT:    -2.831      2.621      5.135
REMARK INTER + INTRA:          -4.837
REMARK INTER:                  -4.476
REMARK INTRA:                  -0.361
REMARK UNBOUND:                -0.516
REMARK SMILES CC1=CCC[C@H](C)C(=O)C[C@H](C(C)C)C(=O)C1
REMARK SMILES IDX 8 1 9 2 6 3 7 4 5 5 4 6 3 7 2 8 1 9 10 11 11 12 15 13 16 14
REMARK SMILES IDX 17 15 12 17 13 18 14 19
REMARK H PARENT
REMARK Flexibility Score: 70.00
ROOT
ATOM      1  C   UNL     1      -8.090   5.056  52.924  1.00  0.00     0.136 C 
ATOM      2  O   UNL     1      -7.776   5.535  51.843  1.00  0.00    -0.299 OA
ENDROOT
BRANCH   1   3
ATOM      3  C   UNL     1      -7.491   3.718  53.319  1.00  0.00     0.053 C 
ATOM      4  C   UNL     1      -7.478   2.704  52.164  1.00  0.00     0.016 C 
BRANCH   3   5
ATOM      5  C   UNL     1      -6.135   3.875  54.046  1.00  0.00     0.015 C 
BRANCH   5   6
ATOM      6  C   UNL     1      -6.150   4.794  55.281  1.00  0.00     0.028 C 
BRANCH   6   7
ATOM      7  C   UNL     1      -6.684   4.060  56.483  1.00  0.00    -0.028 C 
ATOM      8  C   UNL     1      -7.816   4.395  57.144  1.00  0.00    -0.070 CG0
ATOM      9  C   UNL     1      -8.264   3.508  58.277  1.00  0.00     0.039 C 
ATOM     10  G   UNL     1      -8.635   5.633  56.807  1.00  0.00     0.000 G0
ENDBRANCH   6   7
ENDBRANCH   5   6
ENDBRANCH   3   5
ENDBRANCH   1   3
BRANCH   1  11
ATOM     11  C   UNL     1      -9.046   5.838  53.800  1.00  0.00     0.087 C 
BRANCH  11  12
ATOM     12  C   UNL     1      -9.973   4.909  54.629  1.00  0.00     0.066 C 
BRANCH  12  13
ATOM     13  C   UNL     1      -9.940   5.303  56.101  1.00  0.00     0.140 C 
ATOM     14  O   UNL     1     -10.998   5.421  56.703  1.00  0.00    -0.299 OA
BRANCH  13  15
ATOM     15  C   UNL     1      -8.644   5.634  56.810  1.00  0.00     0.106 CG0
ATOM     16  G   UNL     1      -7.814   4.400  57.131  1.00  0.00     0.000 G0
ENDBRANCH  13  15
ENDBRANCH  12  13
BRANCH  12  17
ATOM     17  C   UNL     1     -11.440   4.849  54.086  1.00  0.00    -0.006 C 
ATOM     18  C   UNL     1     -11.806   6.078  53.232  1.00  0.00     0.008 C 
ATOM     19  C   UNL     1     -11.661   3.581  53.239  1.00  0.00     0.008 C 
ENDBRANCH  12  17
ENDBRANCH  11  12
ENDBRANCH   1  11
TORSDOF 1
ENDMDL
