MODEL 1
REMARK VINA RESULT:    -3.644      0.000      0.000
REMARK INTER + INTRA:          -4.227
REMARK INTER:                  -4.177
REMARK INTRA:                  -0.050
REMARK UNBOUND:                -0.050
REMARK SMILES CC(C)[C@H]([NH3+])C(=O)[O-]
REMARK SMILES IDX 4 1 5 2 6 6 7 7 8 8 2 9 1 10 3 11
REMARK H PARENT 5 3 5 4 5 5
REMARK Flexibility Score: inf
ROOT
ATOM      1  C   UNL     1     122.082 126.430 154.192  1.00  0.00     0.230 C 
ENDROOT
BRANCH   1   2
ATOM      2  N   UNL     1     120.696 126.160 153.779  1.00  0.00    -0.350 N 
ATOM      3  H   UNL     1     120.585 125.184 153.424  1.00  0.00     0.345 HD
ATOM      4  H   UNL     1     120.040 126.317 154.576  1.00  0.00     0.345 HD
ATOM      5  H   UNL     1     120.426 126.822 153.014  1.00  0.00     0.345 HD
ENDBRANCH   1   2
BRANCH   1   6
ATOM      6  C   UNL     1     122.558 125.389 155.175  1.00  0.00     0.099 C 
ATOM      7  O   UNL     1     121.812 125.034 156.125  1.00  0.00    -0.544 OA
ATOM      8  O   UNL     1     123.799 124.779 155.020  1.00  0.00    -0.544 OA
ENDBRANCH   1   6
BRANCH   1   9
ATOM      9  C   UNL     1     122.278 127.866 154.766  1.00  0.00     0.047 C 
ATOM     10  C   UNL     1     123.761 128.258 154.836  1.00  0.00     0.014 C 
ATOM     11  C   UNL     1     121.480 128.944 154.014  1.00  0.00     0.014 C 
ENDBRANCH   1   9
TORSDOF 3
ENDMDL
MODEL 2
REMARK VINA RESULT:    -3.557      9.805     10.565
REMARK INTER + INTRA:          -4.127
REMARK INTER:                  -4.055
REMARK INTRA:                  -0.072
REMARK UNBOUND:                -0.050
REMARK SMILES CC(C)[C@H]([NH3+])C(=O)[O-]
REMARK SMILES IDX 4 1 5 2 6 6 7 7 8 8 2 9 1 10 3 11
REMARK H PARENT 5 3 5 4 5 5
REMARK Flexibility Score: inf
ROOT
ATOM      1  C   UNL     1     123.899 131.770 146.110  1.00  0.00     0.230 C 
ENDROOT
BRANCH   1   2
ATOM      2  N   UNL     1     125.021 132.702 146.303  1.00  0.00    -0.350 N 
ATOM      3  H   UNL     1     125.775 132.546 145.597  1.00  0.00     0.345 HD
ATOM      4  H   UNL     1     124.689 133.690 146.245  1.00  0.00     0.345 HD
ATOM      5  H   UNL     1     125.429 132.562 147.258  1.00  0.00     0.345 HD
ENDBRANCH   1   2
BRANCH   1   6
ATOM      6  C   UNL     1     122.891 132.341 145.144  1.00  0.00     0.099 C 
ATOM      7  O   UNL     1     122.176 133.320 145.487  1.00  0.00    -0.544 OA
ATOM      8  O   UNL     1     122.771 131.830 143.856  1.00  0.00    -0.544 OA
ENDBRANCH   1   6
BRANCH   1   9
ATOM      9  C   UNL     1     123.214 131.356 147.447  1.00  0.00     0.047 C 
ATOM     10  C   UNL     1     122.180 130.239 147.239  1.00  0.00     0.014 C 
ATOM     11  C   UNL     1     124.207 130.960 148.552  1.00  0.00     0.014 C 
ENDBRANCH   1   9
TORSDOF 3
ENDMDL
MODEL 3
REMARK VINA RESULT:    -3.551      7.600      8.228
REMARK INTER + INTRA:          -4.120
REMARK INTER:                  -4.076
REMARK INTRA:                  -0.044
REMARK UNBOUND:                -0.050
REMARK SMILES CC(C)[C@H]([NH3+])C(=O)[O-]
REMARK SMILES IDX 4 1 5 2 6 6 7 7 8 8 2 9 1 10 3 11
REMARK H PARENT 5 3 5 4 5 5
REMARK Flexibility Score: inf
ROOT
ATOM      1  C   UNL     1     124.032 129.904 148.059  1.00  0.00     0.230 C 
ENDROOT
BRANCH   1   2
ATOM      2  N   UNL     1     125.009 130.222 149.112  1.00  0.00    -0.350 N 
ATOM      3  H   UNL     1     124.569 130.205 150.060  1.00  0.00     0.345 HD
ATOM      4  H   UNL     1     125.807 129.549 149.087  1.00  0.00     0.345 HD
ATOM      5  H   UNL     1     125.399 131.180 148.946  1.00  0.00     0.345 HD
ENDBRANCH   1   2
BRANCH   1   6
ATOM      6  C   UNL     1     123.425 131.164 147.494  1.00  0.00     0.099 C 
ATOM      7  O   UNL     1     122.218 131.439 147.726  1.00  0.00    -0.544 OA
ATOM      8  O   UNL     1     124.196 132.056 146.756  1.00  0.00    -0.544 OA
ENDBRANCH   1   6
BRANCH   1   9
ATOM      9  C   UNL     1     122.922 128.919 148.536  1.00  0.00     0.047 C 
ATOM     10  C   UNL     1     123.159 127.493 148.016  1.00  0.00     0.014 C 
ATOM     11  C   UNL     1     122.728 128.901 150.061  1.00  0.00     0.014 C 
ENDBRANCH   1   9
TORSDOF 3
ENDMDL
MODEL 4
REMARK VINA RESULT:    -3.501      6.576      7.206
REMARK INTER + INTRA:          -4.062
REMARK INTER:                  -4.005
REMARK INTRA:                  -0.057
REMARK UNBOUND:                -0.050
REMARK SMILES CC(C)[C@H]([NH3+])C(=O)[O-]
REMARK SMILES IDX 4 1 5 2 6 6 7 7 8 8 2 9 1 10 3 11
REMARK H PARENT 5 3 5 4 5 5
REMARK Flexibility Score: inf
ROOT
ATOM      1  C   UNL     1     121.728 127.459 147.842  1.00  0.00     0.230 C 
ENDROOT
BRANCH   1   2
ATOM      2  N   UNL     1     122.120 126.118 148.302  1.00  0.00    -0.350 N 
ATOM      3  H   UNL     1     123.129 125.925 148.106  1.00  0.00     0.345 HD
ATOM      4  H   UNL     1     121.940 126.015 149.326  1.00  0.00     0.345 HD
ATOM      5  H   UNL     1     121.544 125.397 147.807  1.00  0.00     0.345 HD
ENDBRANCH   1   2
BRANCH   1   6
ATOM      6  C   UNL     1     122.902 128.177 147.225  1.00  0.00     0.099 C 
ATOM      7  O   UNL     1     122.708 129.166 146.470  1.00  0.00    -0.544 OA
ATOM      8  O   UNL     1     124.206 127.791 147.517  1.00  0.00    -0.544 OA
ENDBRANCH   1   6
BRANCH   1   9
ATOM      9  C   UNL     1     121.077 128.321 148.966  1.00  0.00     0.047 C 
ATOM     10  C   UNL     1     119.875 127.614 149.608  1.00  0.00     0.014 C 
ATOM     11  C   UNL     1     122.070 128.770 150.051  1.00  0.00     0.014 C 
ENDBRANCH   1   9
TORSDOF 3
ENDMDL
MODEL 5
REMARK VINA RESULT:    -3.447      6.926      7.614
REMARK INTER + INTRA:          -4.001
REMARK INTER:                  -3.932
REMARK INTRA:                  -0.069
REMARK UNBOUND:                -0.050
REMARK SMILES CC(C)[C@H]([NH3+])C(=O)[O-]
REMARK SMILES IDX 4 1 5 2 6 6 7 7 8 8 2 9 1 10 3 11
REMARK H PARENT 5 3 5 4 5 5
REMARK Flexibility Score: inf
ROOT
ATOM      1  C   UNL     1     122.389 128.988 147.720  1.00  0.00     0.230 C 
ENDROOT
BRANCH   1   2
ATOM      2  N   UNL     1     122.505 128.519 146.331  1.00  0.00    -0.350 N 
ATOM      3  H   UNL     1     123.237 127.779 146.236  1.00  0.00     0.345 HD
ATOM      4  H   UNL     1     121.589 128.146 145.994  1.00  0.00     0.345 HD
ATOM      5  H   UNL     1     122.765 129.322 145.713  1.00  0.00     0.345 HD
ENDBRANCH   1   2
BRANCH   1   6
ATOM      6  C   UNL     1     123.537 129.903 148.072  1.00  0.00     0.099 C 
ATOM      7  O   UNL     1     124.675 129.420 148.312  1.00  0.00    -0.544 OA
ATOM      8  O   UNL     1     123.367 131.283 148.090  1.00  0.00    -0.544 OA
ENDBRANCH   1   6
BRANCH   1   9
ATOM      9  C   UNL     1     122.273 127.824 148.749  1.00  0.00     0.047 C 
ATOM     10  C   UNL     1     121.814 128.321 150.128  1.00  0.00     0.014 C 
ATOM     11  C   UNL     1     121.373 126.670 148.276  1.00  0.00     0.014 C 
ENDBRANCH   1   9
TORSDOF 3
ENDMDL
MODEL 6
REMARK VINA RESULT:    -3.446      9.251     10.052
REMARK INTER + INTRA:          -3.999
REMARK INTER:                  -3.959
REMARK INTRA:                  -0.040
REMARK UNBOUND:                -0.050
REMARK SMILES CC(C)[C@H]([NH3+])C(=O)[O-]
REMARK SMILES IDX 4 1 5 2 6 6 7 7 8 8 2 9 1 10 3 11
REMARK H PARENT 5 3 5 4 5 5
REMARK Flexibility Score: inf
ROOT
ATOM      1  C   UNL     1     123.324 131.783 146.231  1.00  0.00     0.230 C 
ENDROOT
BRANCH   1   2
ATOM      2  N   UNL     1     124.505 132.545 145.796  1.00  0.00    -0.350 N 
ATOM      3  H   UNL     1     124.714 132.384 144.785  1.00  0.00     0.345 HD
ATOM      4  H   UNL     1     124.362 133.567 145.963  1.00  0.00     0.345 HD
ATOM      5  H   UNL     1     125.337 132.248 146.357  1.00  0.00     0.345 HD
ENDBRANCH   1   2
BRANCH   1   6
ATOM      6  C   UNL     1     123.474 131.339 147.666  1.00  0.00     0.099 C 
ATOM      7  O   UNL     1     124.616 131.070 148.124  1.00  0.00    -0.544 OA
ATOM      8  O   UNL     1     122.369 131.267 148.507  1.00  0.00    -0.544 OA
ENDBRANCH   1   6
BRANCH   1   9
ATOM      9  C   UNL     1     123.008 130.570 145.305  1.00  0.00     0.047 C 
ATOM     10  C   UNL     1     121.505 130.257 145.264  1.00  0.00     0.014 C 
ATOM     11  C   UNL     1     123.556 130.725 143.877  1.00  0.00     0.014 C 
ENDBRANCH   1   9
TORSDOF 3
ENDMDL
MODEL 7
REMARK VINA RESULT:    -3.435      7.676      8.341
REMARK INTER + INTRA:          -3.986
REMARK INTER:                  -3.935
REMARK INTRA:                  -0.051
REMARK UNBOUND:                -0.050
REMARK SMILES CC(C)[C@H]([NH3+])C(=O)[O-]
REMARK SMILES IDX 4 1 5 2 6 6 7 7 8 8 2 9 1 10 3 11
REMARK H PARENT 5 3 5 4 5 5
REMARK Flexibility Score: inf
ROOT
ATOM      1  C   UNL     1     122.517 129.680 147.457  1.00  0.00     0.230 C 
ENDROOT
BRANCH   1   2
ATOM      2  N   UNL     1     122.317 129.077 146.131  1.00  0.00    -0.350 N 
ATOM      3  H   UNL     1     121.473 129.468 145.655  1.00  0.00     0.345 HD
ATOM      4  H   UNL     1     123.157 129.230 145.529  1.00  0.00     0.345 HD
ATOM      5  H   UNL     1     122.188 128.043 146.235  1.00  0.00     0.345 HD
ENDBRANCH   1   2
BRANCH   1   6
ATOM      6  C   UNL     1     123.254 130.991 147.342  1.00  0.00     0.099 C 
ATOM      7  O   UNL     1     122.719 131.962 146.745  1.00  0.00    -0.544 OA
ATOM      8  O   UNL     1     124.504 131.159 147.929  1.00  0.00    -0.544 OA
ENDBRANCH   1   6
BRANCH   1   9
ATOM      9  C   UNL     1     123.236 128.726 148.458  1.00  0.00     0.047 C 
ATOM     10  C   UNL     1     122.674 128.859 149.881  1.00  0.00     0.014 C 
ATOM     11  C   UNL     1     123.225 127.252 148.020  1.00  0.00     0.014 C 
ENDBRANCH   1   9
TORSDOF 3
ENDMDL
MODEL 8
REMARK VINA RESULT:    -3.420      8.548      9.225
REMARK INTER + INTRA:          -3.969
REMARK INTER:                  -3.902
REMARK INTRA:                  -0.068
REMARK UNBOUND:                -0.050
REMARK SMILES CC(C)[C@H]([NH3+])C(=O)[O-]
REMARK SMILES IDX 4 1 5 2 6 6 7 7 8 8 2 9 1 10 3 11
REMARK H PARENT 5 3 5 4 5 5
REMARK Flexibility Score: inf
ROOT
ATOM      1  C   UNL     1     122.999 129.543 145.844  1.00  0.00     0.230 C 
ENDROOT
BRANCH   1   2
ATOM      2  N   UNL     1     123.565 129.091 144.564  1.00  0.00    -0.350 N 
ATOM      3  H   UNL     1     124.497 128.636 144.697  1.00  0.00     0.345 HD
ATOM      4  H   UNL     1     122.916 128.423 144.093  1.00  0.00     0.345 HD
ATOM      5  H   UNL     1     123.687 129.914 143.928  1.00  0.00     0.345 HD
ENDBRANCH   1   2
BRANCH   1   6
ATOM      6  C   UNL     1     123.196 128.499 146.915  1.00  0.00     0.099 C 
ATOM      7  O   UNL     1     124.192 128.567 147.683  1.00  0.00    -0.544 OA
ATOM      8  O   UNL     1     122.266 127.482 147.097  1.00  0.00    -0.544 OA
ENDBRANCH   1   6
BRANCH   1   9
ATOM      9  C   UNL     1     121.498 129.949 145.736  1.00  0.00     0.047 C 
ATOM     10  C   UNL     1     121.059 130.838 146.909  1.00  0.00     0.014 C 
ATOM     11  C   UNL     1     121.135 130.618 144.400  1.00  0.00     0.014 C 
ENDBRANCH   1   9
TORSDOF 3
ENDMDL
MODEL 9
REMARK VINA RESULT:    -3.357      7.601      8.248
REMARK INTER + INTRA:          -3.897
REMARK INTER:                  -3.833
REMARK INTRA:                  -0.064
REMARK UNBOUND:                -0.050
REMARK SMILES CC(C)[C@H]([NH3+])C(=O)[O-]
REMARK SMILES IDX 4 1 5 2 6 6 7 7 8 8 2 9 1 10 3 11
REMARK H PARENT 5 3 5 4 5 5
REMARK Flexibility Score: inf
ROOT
ATOM      1  C   UNL     1     121.786 129.313 147.501  1.00  0.00     0.230 C 
ENDROOT
BRANCH   1   2
ATOM      2  N   UNL     1     121.764 129.140 146.041  1.00  0.00    -0.350 N 
ATOM      3  H   UNL     1     121.847 128.134 145.772  1.00  0.00     0.345 HD
ATOM      4  H   UNL     1     120.884 129.535 145.639  1.00  0.00     0.345 HD
ATOM      5  H   UNL     1     122.566 129.663 145.617  1.00  0.00     0.345 HD
ENDBRANCH   1   2
BRANCH   1   6
ATOM      6  C   UNL     1     122.292 130.685 147.869  1.00  0.00     0.099 C 
ATOM      7  O   UNL     1     122.604 130.941 149.063  1.00  0.00    -0.544 OA
ATOM      8  O   UNL     1     122.465 131.665 146.897  1.00  0.00    -0.544 OA
ENDBRANCH   1   6
BRANCH   1   9
ATOM      9  C   UNL     1     122.602 128.205 148.233  1.00  0.00     0.047 C 
ATOM     10  C   UNL     1     121.832 126.878 148.304  1.00  0.00     0.014 C 
ATOM     11  C   UNL     1     124.001 127.975 147.636  1.00  0.00     0.014 C 
ENDBRANCH   1   9
TORSDOF 3
ENDMDL
