MODEL 1
REMARK VINA RESULT:    -4.456      0.000      0.000
REMARK INTER + INTRA:          -5.736
REMARK INTER:                  -5.498
REMARK INTRA:                  -0.238
REMARK UNBOUND:                -0.238
REMARK SMILES C=CC[C@H](C)C(=O)CC
REMARK SMILES IDX 4 1 5 2 6 3 7 4 8 5 9 6 3 7 2 8 1 9
REMARK H PARENT
REMARK Flexibility Score: inf
ROOT
ATOM      1  C   UNL     1      88.026  38.381  27.115  1.00  0.00     0.057 C 
ATOM      2  C   UNL     1      87.378  37.962  28.442  1.00  0.00     0.016 C 
ENDROOT
BRANCH   1   3
ATOM      3  C   UNL     1      87.468  37.547  25.983  1.00  0.00     0.135 C 
ATOM      4  O   UNL     1      88.051  37.516  24.907  1.00  0.00    -0.299 OA
BRANCH   3   5
ATOM      5  C   UNL     1      86.204  36.745  26.153  1.00  0.00     0.072 C 
ATOM      6  C   UNL     1      85.862  35.997  24.869  1.00  0.00     0.012 C 
ENDBRANCH   3   5
ENDBRANCH   1   3
BRANCH   1   7
ATOM      7  C   UNL     1      89.563  38.243  27.161  1.00  0.00     0.038 C 
BRANCH   7   8
ATOM      8  C   UNL     1      90.265  39.507  26.739  1.00  0.00    -0.034 C 
ATOM      9  C   UNL     1      89.606  40.524  26.177  1.00  0.00     0.004 C 
ENDBRANCH   7   8
ENDBRANCH   1   7
TORSDOF 4
ENDMDL
MODEL 2
REMARK VINA RESULT:    -4.143      1.741      2.268
REMARK INTER + INTRA:          -5.350
REMARK INTER:                  -5.077
REMARK INTRA:                  -0.273
REMARK UNBOUND:                -0.238
REMARK SMILES C=CC[C@H](C)C(=O)CC
REMARK SMILES IDX 4 1 5 2 6 3 7 4 8 5 9 6 3 7 2 8 1 9
REMARK H PARENT
REMARK Flexibility Score: inf
ROOT
ATOM      1  C   UNL     1      88.341  37.918  26.304  1.00  0.00     0.057 C 
ATOM      2  C   UNL     1      87.759  37.444  24.965  1.00  0.00     0.016 C 
ENDROOT
BRANCH   1   3
ATOM      3  C   UNL     1      87.405  37.547  27.433  1.00  0.00     0.135 C 
ATOM      4  O   UNL     1      87.404  38.211  28.462  1.00  0.00    -0.299 OA
BRANCH   3   5
ATOM      5  C   UNL     1      86.465  36.376  27.317  1.00  0.00     0.072 C 
ATOM      6  C   UNL     1      85.015  36.847  27.293  1.00  0.00     0.012 C 
ENDBRANCH   3   5
ENDBRANCH   1   3
BRANCH   1   7
ATOM      7  C   UNL     1      88.595  39.440  26.309  1.00  0.00     0.038 C 
BRANCH   7   8
ATOM      8  C   UNL     1      90.051  39.778  26.493  1.00  0.00    -0.034 C 
ATOM      9  C   UNL     1      90.887  38.961  27.140  1.00  0.00     0.004 C 
ENDBRANCH   7   8
ENDBRANCH   1   7
TORSDOF 4
ENDMDL
MODEL 3
REMARK VINA RESULT:    -4.005      1.506      4.130
REMARK INTER + INTRA:          -5.180
REMARK INTER:                  -4.985
REMARK INTRA:                  -0.196
REMARK UNBOUND:                -0.238
REMARK SMILES C=CC[C@H](C)C(=O)CC
REMARK SMILES IDX 4 1 5 2 6 3 7 4 8 5 9 6 3 7 2 8 1 9
REMARK H PARENT
REMARK Flexibility Score: inf
ROOT
ATOM      1  C   UNL     1      87.773  37.540  27.613  1.00  0.00     0.057 C 
ATOM      2  C   UNL     1      87.111  38.211  28.825  1.00  0.00     0.016 C 
ENDROOT
BRANCH   1   3
ATOM      3  C   UNL     1      88.906  38.403  27.101  1.00  0.00     0.135 C 
ATOM      4  O   UNL     1      90.054  38.173  27.459  1.00  0.00    -0.299 OA
BRANCH   3   5
ATOM      5  C   UNL     1      88.651  39.544  26.151  1.00  0.00     0.072 C 
ATOM      6  C   UNL     1      89.809  40.535  26.173  1.00  0.00     0.012 C 
ENDBRANCH   3   5
ENDBRANCH   1   3
BRANCH   1   7
ATOM      7  C   UNL     1      86.759  37.277  26.480  1.00  0.00     0.038 C 
BRANCH   7   8
ATOM      8  C   UNL     1      85.591  36.443  26.938  1.00  0.00    -0.034 C 
ATOM      9  C   UNL     1      85.734  35.160  27.281  1.00  0.00     0.004 C 
ENDBRANCH   7   8
ENDBRANCH   1   7
TORSDOF 4
ENDMDL
MODEL 4
REMARK VINA RESULT:    -4.004      1.515      3.909
REMARK INTER + INTRA:          -5.178
REMARK INTER:                  -4.918
REMARK INTRA:                  -0.260
REMARK UNBOUND:                -0.238
REMARK SMILES C=CC[C@H](C)C(=O)CC
REMARK SMILES IDX 4 1 5 2 6 3 7 4 8 5 9 6 3 7 2 8 1 9
REMARK H PARENT
REMARK Flexibility Score: inf
ROOT
ATOM      1  C   UNL     1      87.449  37.836  26.010  1.00  0.00     0.057 C 
ATOM      2  C   UNL     1      87.681  37.097  24.685  1.00  0.00     0.016 C 
ENDROOT
BRANCH   1   3
ATOM      3  C   UNL     1      88.616  38.754  26.299  1.00  0.00     0.135 C 
ATOM      4  O   UNL     1      88.604  39.903  25.876  1.00  0.00    -0.299 OA
BRANCH   3   5
ATOM      5  C   UNL     1      89.798  38.285  27.106  1.00  0.00     0.072 C 
ATOM      6  C   UNL     1      90.929  39.307  27.054  1.00  0.00     0.012 C 
ENDBRANCH   3   5
ENDBRANCH   1   3
BRANCH   1   7
ATOM      7  C   UNL     1      87.249  36.854  27.184  1.00  0.00     0.038 C 
BRANCH   7   8
ATOM      8  C   UNL     1      86.297  37.388  28.222  1.00  0.00    -0.034 C 
ATOM      9  C   UNL     1      86.722  38.116  29.259  1.00  0.00     0.004 C 
ENDBRANCH   7   8
ENDBRANCH   1   7
TORSDOF 4
ENDMDL
MODEL 5
REMARK VINA RESULT:    -3.944      1.659      2.113
REMARK INTER + INTRA:          -5.104
REMARK INTER:                  -4.867
REMARK INTRA:                  -0.237
REMARK UNBOUND:                -0.238
REMARK SMILES C=CC[C@H](C)C(=O)CC
REMARK SMILES IDX 4 1 5 2 6 3 7 4 8 5 9 6 3 7 2 8 1 9
REMARK H PARENT
REMARK Flexibility Score: inf
ROOT
ATOM      1  C   UNL     1      86.980  37.602  26.037  1.00  0.00     0.057 C 
ATOM      2  C   UNL     1      86.863  37.076  27.475  1.00  0.00     0.016 C 
ENDROOT
BRANCH   1   3
ATOM      3  C   UNL     1      86.768  36.471  25.055  1.00  0.00     0.135 C 
ATOM      4  O   UNL     1      85.805  35.727  25.186  1.00  0.00    -0.299 OA
BRANCH   3   5
ATOM      5  C   UNL     1      87.720  36.241  23.911  1.00  0.00     0.072 C 
ATOM      6  C   UNL     1      87.563  34.831  23.352  1.00  0.00     0.012 C 
ENDBRANCH   3   5
ENDBRANCH   1   3
BRANCH   1   7
ATOM      7  C   UNL     1      88.348  38.270  25.783  1.00  0.00     0.038 C 
BRANCH   7   8
ATOM      8  C   UNL     1      89.173  38.383  27.038  1.00  0.00    -0.034 C 
ATOM      9  C   UNL     1      90.448  38.783  27.009  1.00  0.00     0.004 C 
ENDBRANCH   7   8
ENDBRANCH   1   7
TORSDOF 4
ENDMDL
MODEL 6
REMARK VINA RESULT:    -3.828      2.236      3.354
REMARK INTER + INTRA:          -4.962
REMARK INTER:                  -4.726
REMARK INTRA:                  -0.235
REMARK UNBOUND:                -0.238
REMARK SMILES C=CC[C@H](C)C(=O)CC
REMARK SMILES IDX 4 1 5 2 6 3 7 4 8 5 9 6 3 7 2 8 1 9
REMARK H PARENT
REMARK Flexibility Score: inf
ROOT
ATOM      1  C   UNL     1      87.108  37.064  27.562  1.00  0.00     0.057 C 
ATOM      2  C   UNL     1      86.398  37.048  26.201  1.00  0.00     0.016 C 
ENDROOT
BRANCH   1   3
ATOM      3  C   UNL     1      86.087  37.159  28.674  1.00  0.00     0.135 C 
ATOM      4  O   UNL     1      85.285  36.249  28.841  1.00  0.00    -0.299 OA
BRANCH   3   5
ATOM      5  C   UNL     1      86.038  38.354  29.591  1.00  0.00     0.072 C 
ATOM      6  C   UNL     1      84.670  38.472  30.252  1.00  0.00     0.012 C 
ENDBRANCH   3   5
ENDBRANCH   1   3
BRANCH   1   7
ATOM      7  C   UNL     1      88.112  38.232  27.669  1.00  0.00     0.038 C 
BRANCH   7   8
ATOM      8  C   UNL     1      88.563  38.726  26.319  1.00  0.00    -0.034 C 
ATOM      9  C   UNL     1      89.161  39.911  26.167  1.00  0.00     0.004 C 
ENDBRANCH   7   8
ENDBRANCH   1   7
TORSDOF 4
ENDMDL
MODEL 7
REMARK VINA RESULT:    -3.708      1.814      4.251
REMARK INTER + INTRA:          -4.813
REMARK INTER:                  -4.560
REMARK INTRA:                  -0.253
REMARK UNBOUND:                -0.238
REMARK SMILES C=CC[C@H](C)C(=O)CC
REMARK SMILES IDX 4 1 5 2 6 3 7 4 8 5 9 6 3 7 2 8 1 9
REMARK H PARENT
REMARK Flexibility Score: inf
ROOT
ATOM      1  C   UNL     1      86.797  36.555  25.587  1.00  0.00     0.057 C 
ATOM      2  C   UNL     1      85.272  36.728  25.594  1.00  0.00     0.016 C 
ENDROOT
BRANCH   1   3
ATOM      3  C   UNL     1      87.433  37.544  26.539  1.00  0.00     0.135 C 
ATOM      4  O   UNL     1      87.175  37.488  27.734  1.00  0.00    -0.299 OA
BRANCH   3   5
ATOM      5  C   UNL     1      88.387  38.600  26.045  1.00  0.00     0.072 C 
ATOM      6  C   UNL     1      89.620  38.674  26.938  1.00  0.00     0.012 C 
ENDBRANCH   3   5
ENDBRANCH   1   3
BRANCH   1   7
ATOM      7  C   UNL     1      87.385  36.734  24.171  1.00  0.00     0.038 C 
BRANCH   7   8
ATOM      8  C   UNL     1      87.990  35.463  23.636  1.00  0.00    -0.034 C 
ATOM      9  C   UNL     1      87.248  34.526  23.040  1.00  0.00     0.004 C 
ENDBRANCH   7   8
ENDBRANCH   1   7
TORSDOF 4
ENDMDL
MODEL 8
REMARK VINA RESULT:    -3.653      1.996      3.976
REMARK INTER + INTRA:          -4.746
REMARK INTER:                  -4.494
REMARK INTRA:                  -0.252
REMARK UNBOUND:                -0.238
REMARK SMILES C=CC[C@H](C)C(=O)CC
REMARK SMILES IDX 4 1 5 2 6 3 7 4 8 5 9 6 3 7 2 8 1 9
REMARK H PARENT
REMARK Flexibility Score: inf
ROOT
ATOM      1  C   UNL     1      86.190  37.225  28.169  1.00  0.00     0.057 C 
ATOM      2  C   UNL     1      86.106  35.712  28.417  1.00  0.00     0.016 C 
ENDROOT
BRANCH   1   3
ATOM      3  C   UNL     1      87.172  37.511  27.055  1.00  0.00     0.135 C 
ATOM      4  O   UNL     1      86.926  37.132  25.917  1.00  0.00    -0.299 OA
BRANCH   3   5
ATOM      5  C   UNL     1      88.451  38.262  27.315  1.00  0.00     0.072 C 
ATOM      6  C   UNL     1      88.715  39.279  26.210  1.00  0.00     0.012 C 
ENDBRANCH   3   5
ENDBRANCH   1   3
BRANCH   1   7
ATOM      7  C   UNL     1      86.604  37.990  29.445  1.00  0.00     0.038 C 
BRANCH   7   8
ATOM      8  C   UNL     1      85.540  38.950  29.908  1.00  0.00    -0.034 C 
ATOM      9  C   UNL     1      84.525  38.557  30.682  1.00  0.00     0.004 C 
ENDBRANCH   7   8
ENDBRANCH   1   7
TORSDOF 4
ENDMDL
MODEL 9
REMARK VINA RESULT:    -3.542      1.578      4.016
REMARK INTER + INTRA:          -4.609
REMARK INTER:                  -4.330
REMARK INTRA:                  -0.279
REMARK UNBOUND:                -0.238
REMARK SMILES C=CC[C@H](C)C(=O)CC
REMARK SMILES IDX 4 1 5 2 6 3 7 4 8 5 9 6 3 7 2 8 1 9
REMARK H PARENT
REMARK Flexibility Score: inf
ROOT
ATOM      1  C   UNL     1      86.759  36.736  26.849  1.00  0.00     0.057 C 
ATOM      2  C   UNL     1      85.790  36.685  28.039  1.00  0.00     0.016 C 
ENDROOT
BRANCH   1   3
ATOM      3  C   UNL     1      87.729  37.883  27.022  1.00  0.00     0.135 C 
ATOM      4  O   UNL     1      88.035  38.255  28.148  1.00  0.00    -0.299 OA
BRANCH   3   5
ATOM      5  C   UNL     1      88.335  38.581  25.833  1.00  0.00     0.072 C 
ATOM      6  C   UNL     1      89.020  39.875  26.256  1.00  0.00     0.012 C 
ENDBRANCH   3   5
ENDBRANCH   1   3
BRANCH   1   7
ATOM      7  C   UNL     1      86.009  36.880  25.508  1.00  0.00     0.038 C 
BRANCH   7   8
ATOM      8  C   UNL     1      86.180  35.673  24.622  1.00  0.00    -0.034 C 
ATOM      9  C   UNL     1      87.239  35.534  23.819  1.00  0.00     0.004 C 
ENDBRANCH   7   8
ENDBRANCH   1   7
TORSDOF 4
ENDMDL
