MODEL 1
REMARK VINA RESULT:    -2.679      0.000      0.000
REMARK INTER + INTRA:          -5.047
REMARK INTER:                  -4.089
REMARK INTRA:                  -0.958
REMARK UNBOUND:                -0.958
REMARK SMILES CCCCCCCCCCC(=O)[O-]
REMARK SMILES IDX 7 1 8 2 9 3 10 4 11 5 12 6 13 7 6 8 5 9 4 10 3 11 2 12 1 13
REMARK H PARENT
REMARK Flexibility Score: inf
ROOT
ATOM      1  C   UNL     1     -24.810  29.206 -19.883  1.00  0.00     0.000 C 
ENDROOT
BRANCH   1   2
ATOM      2  C   UNL     1     -24.646  30.051 -21.159  1.00  0.00     0.000 C 
BRANCH   2   3
ATOM      3  C   UNL     1     -23.568  29.493 -22.101  1.00  0.00     0.006 C 
BRANCH   3   4
ATOM      4  C   UNL     1     -23.554  27.959 -22.146  1.00  0.00     0.053 C 
BRANCH   4   5
ATOM      5  C   UNL     1     -23.374  27.480 -23.551  1.00  0.00     0.041 C 
ATOM      6  O   UNL     1     -24.019  28.016 -24.491  1.00  0.00    -0.550 OA
ATOM      7  O   UNL     1     -22.530  26.410 -23.818  1.00  0.00    -0.550 OA
ENDBRANCH   4   5
ENDBRANCH   3   4
ENDBRANCH   2   3
ENDBRANCH   1   2
BRANCH   1   8
ATOM      8  C   UNL     1     -24.403  29.970 -18.613  1.00  0.00     0.000 C 
BRANCH   8   9
ATOM      9  C   UNL     1     -23.591  29.101 -17.635  1.00  0.00    -0.000 C 
BRANCH   9  10
ATOM     10  C   UNL     1     -22.604  28.169 -18.356  1.00  0.00    -0.000 C 
BRANCH  10  11
ATOM     11  C   UNL     1     -21.233  28.826 -18.594  1.00  0.00    -0.000 C 
BRANCH  11  12
ATOM     12  C   UNL     1     -20.659  28.502 -19.982  1.00  0.00    -0.003 C 
ATOM     13  C   UNL     1     -19.151  28.253 -19.955  1.00  0.00     0.004 C 
ENDBRANCH  11  12
ENDBRANCH  10  11
ENDBRANCH   9  10
ENDBRANCH   8   9
ENDBRANCH   1   8
TORSDOF 9
ENDMDL
MODEL 2
REMARK VINA RESULT:    -2.630     14.126     15.621
REMARK INTER + INTRA:          -4.971
REMARK INTER:                  -3.852
REMARK INTRA:                  -1.120
REMARK UNBOUND:                -0.958
REMARK SMILES CCCCCCCCCCC(=O)[O-]
REMARK SMILES IDX 7 1 8 2 9 3 10 4 11 5 12 6 13 7 6 8 5 9 4 10 3 11 2 12 1 13
REMARK H PARENT
REMARK Flexibility Score: inf
ROOT
ATOM      1  C   UNL     1     -22.246  14.787 -23.158  1.00  0.00     0.000 C 
ENDROOT
BRANCH   1   2
ATOM      2  C   UNL     1     -21.456  15.337 -21.957  1.00  0.00     0.000 C 
BRANCH   2   3
ATOM      3  C   UNL     1     -20.846  14.224 -21.092  1.00  0.00     0.006 C 
BRANCH   3   4
ATOM      4  C   UNL     1     -19.959  14.768 -19.963  1.00  0.00     0.053 C 
BRANCH   4   5
ATOM      5  C   UNL     1     -19.782  13.735 -18.896  1.00  0.00     0.041 C 
ATOM      6  O   UNL     1     -20.672  13.570 -18.020  1.00  0.00    -0.550 OA
ATOM      7  O   UNL     1     -18.613  12.987 -18.838  1.00  0.00    -0.550 OA
ENDBRANCH   4   5
ENDBRANCH   3   4
ENDBRANCH   2   3
ENDBRANCH   1   2
BRANCH   1   8
ATOM      8  C   UNL     1     -21.862  13.338 -23.502  1.00  0.00     0.000 C 
BRANCH   8   9
ATOM      9  C   UNL     1     -21.327  13.194 -24.938  1.00  0.00    -0.000 C 
BRANCH   9  10
ATOM     10  C   UNL     1     -19.894  13.729 -25.089  1.00  0.00    -0.000 C 
BRANCH  10  11
ATOM     11  C   UNL     1     -18.904  13.060 -24.117  1.00  0.00    -0.000 C 
BRANCH  11  12
ATOM     12  C   UNL     1     -17.659  13.922 -23.860  1.00  0.00    -0.003 C 
ATOM     13  C   UNL     1     -18.002  15.301 -23.297  1.00  0.00     0.004 C 
ENDBRANCH  11  12
ENDBRANCH  10  11
ENDBRANCH   9  10
ENDBRANCH   8   9
ENDBRANCH   1   8
TORSDOF 9
ENDMDL
MODEL 3
REMARK VINA RESULT:    -2.625      2.446      4.243
REMARK INTER + INTRA:          -4.964
REMARK INTER:                  -3.851
REMARK INTRA:                  -1.113
REMARK UNBOUND:                -0.958
REMARK SMILES CCCCCCCCCCC(=O)[O-]
REMARK SMILES IDX 7 1 8 2 9 3 10 4 11 5 12 6 13 7 6 8 5 9 4 10 3 11 2 12 1 13
REMARK H PARENT
REMARK Flexibility Score: inf
ROOT
ATOM      1  C   UNL     1     -22.393  29.065 -21.506  1.00  0.00     0.000 C 
ENDROOT
BRANCH   1   2
ATOM      2  C   UNL     1     -21.986  27.583 -21.423  1.00  0.00     0.000 C 
BRANCH   2   3
ATOM      3  C   UNL     1     -20.775  27.354 -20.506  1.00  0.00     0.006 C 
BRANCH   3   4
ATOM      4  C   UNL     1     -20.040  28.656 -20.158  1.00  0.00     0.053 C 
BRANCH   4   5
ATOM      5  C   UNL     1     -18.784  28.776 -20.962  1.00  0.00     0.041 C 
ATOM      6  O   UNL     1     -18.144  29.861 -20.979  1.00  0.00    -0.550 OA
ATOM      7  O   UNL     1     -18.346  27.707 -21.731  1.00  0.00    -0.550 OA
ENDBRANCH   4   5
ENDBRANCH   3   4
ENDBRANCH   2   3
ENDBRANCH   1   2
BRANCH   1   8
ATOM      8  C   UNL     1     -23.830  29.254 -22.018  1.00  0.00     0.000 C 
BRANCH   8   9
ATOM      9  C   UNL     1     -24.728  29.984 -21.003  1.00  0.00    -0.000 C 
BRANCH   9  10
ATOM     10  C   UNL     1     -24.978  29.153 -19.734  1.00  0.00    -0.000 C 
BRANCH  10  11
ATOM     11  C   UNL     1     -24.443  29.837 -18.463  1.00  0.00    -0.000 C 
BRANCH  11  12
ATOM     12  C   UNL     1     -23.093  29.260 -18.009  1.00  0.00    -0.003 C 
ATOM     13  C   UNL     1     -23.156  27.759 -17.730  1.00  0.00     0.004 C 
ENDBRANCH  11  12
ENDBRANCH  10  11
ENDBRANCH   9  10
ENDBRANCH   8   9
ENDBRANCH   1   8
TORSDOF 9
ENDMDL
MODEL 4
REMARK VINA RESULT:    -2.623      3.147      5.097
REMARK INTER + INTRA:          -4.961
REMARK INTER:                  -3.798
REMARK INTRA:                  -1.163
REMARK UNBOUND:                -0.958
REMARK SMILES CCCCCCCCCCC(=O)[O-]
REMARK SMILES IDX 7 1 8 2 9 3 10 4 11 5 12 6 13 7 6 8 5 9 4 10 3 11 2 12 1 13
REMARK H PARENT
REMARK Flexibility Score: inf
ROOT
ATOM      1  C   UNL     1     -22.589  28.276 -21.485  1.00  0.00     0.000 C 
ENDROOT
BRANCH   1   2
ATOM      2  C   UNL     1     -21.285  28.487 -20.695  1.00  0.00     0.000 C 
BRANCH   2   3
ATOM      3  C   UNL     1     -21.375  27.959 -19.255  1.00  0.00     0.006 C 
BRANCH   3   4
ATOM      4  C   UNL     1     -20.787  28.935 -18.227  1.00  0.00     0.053 C 
BRANCH   4   5
ATOM      5  C   UNL     1     -19.301  29.020 -18.380  1.00  0.00     0.041 C 
ATOM      6  O   UNL     1     -18.605  27.971 -18.392  1.00  0.00    -0.550 OA
ATOM      7  O   UNL     1     -18.680  30.260 -18.460  1.00  0.00    -0.550 OA
ENDBRANCH   4   5
ENDBRANCH   3   4
ENDBRANCH   2   3
ENDBRANCH   1   2
BRANCH   1   8
ATOM      8  C   UNL     1     -23.338  29.592 -21.750  1.00  0.00     0.000 C 
BRANCH   8   9
ATOM      9  C   UNL     1     -24.799  29.548 -21.268  1.00  0.00    -0.000 C 
BRANCH   9  10
ATOM     10  C   UNL     1     -24.929  29.030 -19.827  1.00  0.00    -0.000 C 
BRANCH  10  11
ATOM     11  C   UNL     1     -24.451  30.056 -18.782  1.00  0.00    -0.000 C 
BRANCH  11  12
ATOM     12  C   UNL     1     -24.330  29.449 -17.376  1.00  0.00    -0.003 C 
ATOM     13  C   UNL     1     -24.746  27.980 -17.329  1.00  0.00     0.004 C 
ENDBRANCH  11  12
ENDBRANCH  10  11
ENDBRANCH   9  10
ENDBRANCH   8   9
ENDBRANCH   1   8
TORSDOF 9
ENDMDL
MODEL 5
REMARK VINA RESULT:    -2.566      2.693      4.554
REMARK INTER + INTRA:          -4.875
REMARK INTER:                  -3.647
REMARK INTRA:                  -1.228
REMARK UNBOUND:                -0.958
REMARK SMILES CCCCCCCCCCC(=O)[O-]
REMARK SMILES IDX 7 1 8 2 9 3 10 4 11 5 12 6 13 7 6 8 5 9 4 10 3 11 2 12 1 13
REMARK H PARENT
REMARK Flexibility Score: inf
ROOT
ATOM      1  C   UNL     1     -23.317  29.319 -17.650  1.00  0.00     0.000 C 
ENDROOT
BRANCH   1   2
ATOM      2  C   UNL     1     -22.880  27.858 -17.857  1.00  0.00     0.000 C 
BRANCH   2   3
ATOM      3  C   UNL     1     -21.359  27.714 -18.016  1.00  0.00     0.006 C 
BRANCH   3   4
ATOM      4  C   UNL     1     -20.628  29.063 -17.983  1.00  0.00     0.053 C 
BRANCH   4   5
ATOM      5  C   UNL     1     -19.396  29.010 -18.830  1.00  0.00     0.041 C 
ATOM      6  O   UNL     1     -18.606  29.990 -18.862  1.00  0.00    -0.550 OA
ATOM      7  O   UNL     1     -19.144  27.897 -19.622  1.00  0.00    -0.550 OA
ENDBRANCH   4   5
ENDBRANCH   3   4
ENDBRANCH   2   3
ENDBRANCH   1   2
BRANCH   1   8
ATOM      8  C   UNL     1     -24.722  29.599 -18.207  1.00  0.00     0.000 C 
BRANCH   8   9
ATOM      9  C   UNL     1     -24.948  28.960 -19.590  1.00  0.00    -0.000 C 
BRANCH   9  10
ATOM     10  C   UNL     1     -24.784  29.968 -20.738  1.00  0.00    -0.000 C 
BRANCH  10  11
ATOM     11  C   UNL     1     -23.856  29.452 -21.853  1.00  0.00    -0.000 C 
BRANCH  11  12
ATOM     12  C   UNL     1     -22.470  29.051 -21.325  1.00  0.00    -0.003 C 
ATOM     13  C   UNL     1     -22.101  27.609 -21.673  1.00  0.00     0.004 C 
ENDBRANCH  11  12
ENDBRANCH  10  11
ENDBRANCH   9  10
ENDBRANCH   8   9
ENDBRANCH   1   8
TORSDOF 9
ENDMDL
MODEL 6
REMARK VINA RESULT:    -2.533      2.892      5.416
REMARK INTER + INTRA:          -4.824
REMARK INTER:                  -4.251
REMARK INTRA:                  -0.573
REMARK UNBOUND:                -0.958
REMARK SMILES CCCCCCCCCCC(=O)[O-]
REMARK SMILES IDX 7 1 8 2 9 3 10 4 11 5 12 6 13 7 6 8 5 9 4 10 3 11 2 12 1 13
REMARK H PARENT
REMARK Flexibility Score: inf
ROOT
ATOM      1  C   UNL     1     -23.608  29.138 -22.056  1.00  0.00     0.000 C 
ENDROOT
BRANCH   1   2
ATOM      2  C   UNL     1     -25.030  29.238 -21.476  1.00  0.00     0.000 C 
BRANCH   2   3
ATOM      3  C   UNL     1     -25.093  28.832 -19.995  1.00  0.00     0.006 C 
BRANCH   3   4
ATOM      4  C   UNL     1     -24.131  29.643 -19.116  1.00  0.00     0.053 C 
BRANCH   4   5
ATOM      5  C   UNL     1     -23.118  28.742 -18.483  1.00  0.00     0.041 C 
ATOM      6  O   UNL     1     -22.393  29.165 -17.543  1.00  0.00    -0.550 OA
ATOM      7  O   UNL     1     -22.939  27.451 -18.962  1.00  0.00    -0.550 OA
ENDBRANCH   4   5
ENDBRANCH   3   4
ENDBRANCH   2   3
ENDBRANCH   1   2
BRANCH   1   8
ATOM      8  C   UNL     1     -23.357  27.803 -22.777  1.00  0.00     0.000 C 
BRANCH   8   9
ATOM      9  C   UNL     1     -23.906  27.797 -24.215  1.00  0.00    -0.000 C 
BRANCH   9  10
ATOM     10  C   UNL     1     -23.163  26.804 -25.124  1.00  0.00    -0.000 C 
BRANCH  10  11
ATOM     11  C   UNL     1     -23.551  25.340 -24.846  1.00  0.00    -0.000 C 
BRANCH  11  12
ATOM     12  C   UNL     1     -22.325  24.427 -24.689  1.00  0.00    -0.003 C 
ATOM     13  C   UNL     1     -21.005  25.192 -24.772  1.00  0.00     0.004 C 
ENDBRANCH  11  12
ENDBRANCH  10  11
ENDBRANCH   9  10
ENDBRANCH   8   9
ENDBRANCH   1   8
TORSDOF 9
ENDMDL
MODEL 7
REMARK VINA RESULT:    -2.479     13.516     15.144
REMARK INTER + INTRA:          -4.742
REMARK INTER:                  -3.614
REMARK INTRA:                  -1.128
REMARK UNBOUND:                -0.958
REMARK SMILES CCCCCCCCCCC(=O)[O-]
REMARK SMILES IDX 7 1 8 2 9 3 10 4 11 5 12 6 13 7 6 8 5 9 4 10 3 11 2 12 1 13
REMARK H PARENT
REMARK Flexibility Score: inf
ROOT
ATOM      1  C   UNL     1     -21.384  13.165 -24.119  1.00  0.00     0.000 C 
ENDROOT
BRANCH   1   2
ATOM      2  C   UNL     1     -22.239  14.397 -23.776  1.00  0.00     0.000 C 
BRANCH   2   3
ATOM      3  C   UNL     1     -21.822  15.053 -22.450  1.00  0.00     0.006 C 
BRANCH   3   4
ATOM      4  C   UNL     1     -21.142  14.068 -21.488  1.00  0.00     0.053 C 
BRANCH   4   5
ATOM      5  C   UNL     1     -21.015  14.674 -20.126  1.00  0.00     0.041 C 
ATOM      6  O   UNL     1     -20.579  13.985 -19.166  1.00  0.00    -0.550 OA
ATOM      7  O   UNL     1     -21.421  15.983 -19.906  1.00  0.00    -0.550 OA
ENDBRANCH   4   5
ENDBRANCH   3   4
ENDBRANCH   2   3
ENDBRANCH   1   2
BRANCH   1   8
ATOM      8  C   UNL     1     -20.106  13.530 -24.892  1.00  0.00     0.000 C 
BRANCH   8   9
ATOM      9  C   UNL     1     -18.864  12.789 -24.365  1.00  0.00    -0.000 C 
BRANCH   9  10
ATOM     10  C   UNL     1     -17.611  13.679 -24.346  1.00  0.00    -0.000 C 
BRANCH  10  11
ATOM     11  C   UNL     1     -17.932  15.149 -24.022  1.00  0.00    -0.000 C 
BRANCH  11  12
ATOM     12  C   UNL     1     -17.820  15.458 -22.521  1.00  0.00    -0.003 C 
ATOM     13  C   UNL     1     -18.551  16.740 -22.125  1.00  0.00     0.004 C 
ENDBRANCH  11  12
ENDBRANCH  10  11
ENDBRANCH   9  10
ENDBRANCH   8   9
ENDBRANCH   1   8
TORSDOF 9
ENDMDL
MODEL 8
REMARK VINA RESULT:    -2.453     13.746     15.476
REMARK INTER + INTRA:          -4.701
REMARK INTER:                  -3.602
REMARK INTRA:                  -1.099
REMARK UNBOUND:                -0.958
REMARK SMILES CCCCCCCCCCC(=O)[O-]
REMARK SMILES IDX 7 1 8 2 9 3 10 4 11 5 12 6 13 7 6 8 5 9 4 10 3 11 2 12 1 13
REMARK H PARENT
REMARK Flexibility Score: inf
ROOT
ATOM      1  C   UNL     1     -17.622  14.854 -22.699  1.00  0.00     0.000 C 
ENDROOT
BRANCH   1   2
ATOM      2  C   UNL     1     -18.704  15.803 -22.152  1.00  0.00     0.000 C 
BRANCH   2   3
ATOM      3  C   UNL     1     -18.948  15.613 -20.647  1.00  0.00     0.006 C 
BRANCH   3   4
ATOM      4  C   UNL     1     -19.613  14.269 -20.318  1.00  0.00     0.053 C 
BRANCH   4   5
ATOM      5  C   UNL     1     -20.905  14.489 -19.597  1.00  0.00     0.041 C 
ATOM      6  O   UNL     1     -21.348  13.610 -18.810  1.00  0.00    -0.550 OA
ATOM      7  O   UNL     1     -21.643  15.641 -19.829  1.00  0.00    -0.550 OA
ENDBRANCH   4   5
ENDBRANCH   3   4
ENDBRANCH   2   3
ENDBRANCH   1   2
BRANCH   1   8
ATOM      8  C   UNL     1     -17.861  14.474 -24.169  1.00  0.00     0.000 C 
BRANCH   8   9
ATOM      9  C   UNL     1     -18.820  13.280 -24.323  1.00  0.00    -0.000 C 
BRANCH   9  10
ATOM     10  C   UNL     1     -20.084  13.638 -25.120  1.00  0.00    -0.000 C 
BRANCH  10  11
ATOM     11  C   UNL     1     -21.355  12.990 -24.543  1.00  0.00    -0.000 C 
BRANCH  11  12
ATOM     12  C   UNL     1     -21.724  13.550 -23.160  1.00  0.00    -0.003 C 
ATOM     13  C   UNL     1     -22.462  14.885 -23.242  1.00  0.00     0.004 C 
ENDBRANCH  11  12
ENDBRANCH  10  11
ENDBRANCH   9  10
ENDBRANCH   8   9
ENDBRANCH   1   8
TORSDOF 9
ENDMDL
MODEL 9
REMARK VINA RESULT:    -2.434     13.684     15.275
REMARK INTER + INTRA:          -4.673
REMARK INTER:                  -3.357
REMARK INTRA:                  -1.316
REMARK UNBOUND:                -0.958
REMARK SMILES CCCCCCCCCCC(=O)[O-]
REMARK SMILES IDX 7 1 8 2 9 3 10 4 11 5 12 6 13 7 6 8 5 9 4 10 3 11 2 12 1 13
REMARK H PARENT
REMARK Flexibility Score: inf
ROOT
ATOM      1  C   UNL     1     -19.864  13.510 -24.879  1.00  0.00     0.000 C 
ENDROOT
BRANCH   1   2
ATOM      2  C   UNL     1     -18.636  12.744 -24.354  1.00  0.00     0.000 C 
BRANCH   2   3
ATOM      3  C   UNL     1     -17.338  13.559 -24.471  1.00  0.00     0.006 C 
BRANCH   3   4
ATOM      4  C   UNL     1     -17.595  15.058 -24.683  1.00  0.00     0.053 C 
BRANCH   4   5
ATOM      5  C   UNL     1     -16.797  15.866 -23.710  1.00  0.00     0.041 C 
ATOM      6  O   UNL     1     -17.023  17.098 -23.574  1.00  0.00    -0.550 OA
ATOM      7  O   UNL     1     -15.772  15.271 -22.988  1.00  0.00    -0.550 OA
ENDBRANCH   4   5
ENDBRANCH   3   4
ENDBRANCH   2   3
ENDBRANCH   1   2
BRANCH   1   8
ATOM      8  C   UNL     1     -21.177  13.023 -24.246  1.00  0.00     0.000 C 
BRANCH   8   9
ATOM      9  C   UNL     1     -21.825  14.085 -23.339  1.00  0.00    -0.000 C 
BRANCH   9  10
ATOM     10  C   UNL     1     -21.099  14.229 -21.991  1.00  0.00    -0.000 C 
BRANCH  10  11
ATOM     11  C   UNL     1     -20.301  15.541 -21.885  1.00  0.00    -0.000 C 
BRANCH  11  12
ATOM     12  C   UNL     1     -19.095  15.420 -20.940  1.00  0.00    -0.003 C 
ATOM     13  C   UNL     1     -18.530  14.001 -20.882  1.00  0.00     0.004 C 
ENDBRANCH  11  12
ENDBRANCH  10  11
ENDBRANCH   9  10
ENDBRANCH   8   9
ENDBRANCH   1   8
TORSDOF 9
ENDMDL
