MODEL 1
REMARK VINA RESULT:    -3.704      0.000      0.000
REMARK INTER + INTRA:         -14.492
REMARK INTER:                  -9.768
REMARK INTRA:                  -4.724
REMARK UNBOUND:                -4.724
REMARK SMILES CCCCCCCCCCCCCCCCCCCCCCCCCCCCCC(=O)[O-]
REMARK SMILES IDX 16 1 17 2 18 3 19 4 20 5 21 6 22 7 23 8 24 9 25 10 26 11
REMARK SMILES IDX 27 12 28 13 29 14 30 15 31 16 32 17 15 18 14 19 13 20 12 21
REMARK SMILES IDX 11 22 10 23 9 24 8 25 7 26 6 27 5 28 4 29 3 30 2 31 1 32
REMARK H PARENT
REMARK Flexibility Score: inf
ROOT
ATOM      1  C   UNL     1     -20.168 -25.710 -18.298  1.00  0.00     0.000 C 
ENDROOT
BRANCH   1   2
ATOM      2  C   UNL     1     -19.028 -26.738 -18.402  1.00  0.00     0.000 C 
BRANCH   2   3
ATOM      3  C   UNL     1     -17.723 -26.138 -18.959  1.00  0.00     0.000 C 
BRANCH   3   4
ATOM      4  C   UNL     1     -16.441 -26.937 -18.643  1.00  0.00     0.000 C 
BRANCH   4   5
ATOM      5  C   UNL     1     -15.402 -26.192 -17.783  1.00  0.00     0.000 C 
BRANCH   5   6
ATOM      6  C   UNL     1     -15.929 -25.706 -16.420  1.00  0.00     0.000 C 
BRANCH   6   7
ATOM      7  C   UNL     1     -15.937 -26.773 -15.306  1.00  0.00     0.000 C 
BRANCH   7   8
ATOM      8  C   UNL     1     -17.216 -27.626 -15.218  1.00  0.00     0.000 C 
BRANCH   8   9
ATOM      9  C   UNL     1     -16.924 -29.128 -15.047  1.00  0.00     0.000 C 
BRANCH   9  10
ATOM     10  C   UNL     1     -15.419 -29.440 -14.992  1.00  0.00     0.000 C 
BRANCH  10  11
ATOM     11  C   UNL     1     -14.902 -30.229 -16.213  1.00  0.00     0.000 C 
BRANCH  11  12
ATOM     12  C   UNL     1     -13.394 -30.038 -16.431  1.00  0.00     0.000 C 
BRANCH  12  13
ATOM     13  C   UNL     1     -13.115 -28.787 -17.276  1.00  0.00     0.006 C 
BRANCH  13  14
ATOM     14  C   UNL     1     -12.249 -27.761 -16.532  1.00  0.00     0.053 C 
BRANCH  14  15
ATOM     15  C   UNL     1     -11.381 -26.966 -17.461  1.00  0.00     0.041 C 
ATOM     16  O   UNL     1     -11.887 -26.331 -18.426  1.00  0.00    -0.550 OA
ATOM     17  O   UNL     1     -10.010 -26.899 -17.240  1.00  0.00    -0.550 OA
ENDBRANCH  14  15
ENDBRANCH  13  14
ENDBRANCH  12  13
ENDBRANCH  11  12
ENDBRANCH  10  11
ENDBRANCH   9  10
ENDBRANCH   8   9
ENDBRANCH   7   8
ENDBRANCH   6   7
ENDBRANCH   5   6
ENDBRANCH   4   5
ENDBRANCH   3   4
ENDBRANCH   2   3
ENDBRANCH   1   2
BRANCH   1  18
ATOM     18  C   UNL     1     -19.834 -24.546 -17.350  1.00  0.00     0.000 C 
BRANCH  18  19
ATOM     19  C   UNL     1     -19.407 -24.963 -15.928  1.00  0.00     0.000 C 
BRANCH  19  20
ATOM     20  C   UNL     1     -20.546 -25.473 -15.028  1.00  0.00     0.000 C 
BRANCH  20  21
ATOM     21  C   UNL     1     -21.737 -24.505 -14.962  1.00  0.00     0.000 C 
BRANCH  21  22
ATOM     22  C   UNL     1     -23.072 -25.262 -15.041  1.00  0.00     0.000 C 
BRANCH  22  23
ATOM     23  C   UNL     1     -23.479 -25.619 -16.485  1.00  0.00     0.000 C 
BRANCH  23  24
ATOM     24  C   UNL     1     -23.566 -24.409 -17.438  1.00  0.00    -0.000 C 
BRANCH  24  25
ATOM     25  C   UNL     1     -24.427 -23.231 -16.945  1.00  0.00    -0.000 C 
BRANCH  25  26
ATOM     26  C   UNL     1     -23.652 -21.936 -16.633  1.00  0.00    -0.000 C 
BRANCH  26  27
ATOM     27  C   UNL     1     -22.369 -21.731 -17.461  1.00  0.00    -0.000 C 
BRANCH  27  28
ATOM     28  C   UNL     1     -21.481 -20.574 -16.956  1.00  0.00    -0.000 C 
BRANCH  28  29
ATOM     29  C   UNL     1     -21.066 -20.748 -15.486  1.00  0.00    -0.000 C 
BRANCH  29  30
ATOM     30  C   UNL     1     -19.672 -21.379 -15.327  1.00  0.00    -0.000 C 
BRANCH  30  31
ATOM     31  C   UNL     1     -18.566 -20.354 -15.002  1.00  0.00    -0.003 C 
ATOM     32  C   UNL     1     -19.092 -18.918 -14.985  1.00  0.00     0.004 C 
ENDBRANCH  30  31
ENDBRANCH  29  30
ENDBRANCH  28  29
ENDBRANCH  27  28
ENDBRANCH  26  27
ENDBRANCH  25  26
ENDBRANCH  24  25
ENDBRANCH  23  24
ENDBRANCH  22  23
ENDBRANCH  21  22
ENDBRANCH  20  21
ENDBRANCH  19  20
ENDBRANCH  18  19
ENDBRANCH   1  18
TORSDOF 28
ENDMDL
MODEL 2
REMARK VINA RESULT:    -3.457      3.948      9.336
REMARK INTER + INTRA:         -13.839
REMARK INTER:                  -9.266
REMARK INTRA:                  -4.573
REMARK UNBOUND:                -4.724
REMARK SMILES CCCCCCCCCCCCCCCCCCCCCCCCCCCCCC(=O)[O-]
REMARK SMILES IDX 16 1 17 2 18 3 19 4 20 5 21 6 22 7 23 8 24 9 25 10 26 11
REMARK SMILES IDX 27 12 28 13 29 14 30 15 31 16 32 17 15 18 14 19 13 20 12 21
REMARK SMILES IDX 11 22 10 23 9 24 8 25 7 26 6 27 5 28 4 29 3 30 2 31 1 32
REMARK H PARENT
REMARK Flexibility Score: inf
ROOT
ATOM      1  C   UNL     1     -18.499 -24.263 -15.283  1.00  0.00     0.000 C 
ENDROOT
BRANCH   1   2
ATOM      2  C   UNL     1     -19.243 -23.057 -15.883  1.00  0.00     0.000 C 
BRANCH   2   3
ATOM      3  C   UNL     1     -18.785 -21.710 -15.292  1.00  0.00     0.000 C 
BRANCH   3   4
ATOM      4  C   UNL     1     -19.846 -20.589 -15.303  1.00  0.00     0.000 C 
BRANCH   4   5
ATOM      5  C   UNL     1     -19.606 -19.473 -16.339  1.00  0.00     0.000 C 
BRANCH   5   6
ATOM      6  C   UNL     1     -20.775 -19.243 -17.314  1.00  0.00     0.000 C 
BRANCH   6   7
ATOM      7  C   UNL     1     -21.943 -18.409 -16.749  1.00  0.00     0.000 C 
BRANCH   7   8
ATOM      8  C   UNL     1     -23.329 -19.076 -16.825  1.00  0.00     0.000 C 
BRANCH   8   9
ATOM      9  C   UNL     1     -23.427 -20.353 -15.973  1.00  0.00     0.000 C 
BRANCH   9  10
ATOM     10  C   UNL     1     -23.834 -21.588 -16.795  1.00  0.00     0.000 C 
BRANCH  10  11
ATOM     11  C   UNL     1     -22.808 -22.739 -16.738  1.00  0.00     0.000 C 
BRANCH  11  12
ATOM     12  C   UNL     1     -23.141 -23.758 -15.638  1.00  0.00     0.000 C 
BRANCH  12  13
ATOM     13  C   UNL     1     -23.314 -25.165 -16.228  1.00  0.00     0.006 C 
BRANCH  13  14
ATOM     14  C   UNL     1     -23.658 -25.132 -17.724  1.00  0.00     0.053 C 
BRANCH  14  15
ATOM     15  C   UNL     1     -25.136 -25.185 -17.973  1.00  0.00     0.041 C 
ATOM     16  O   UNL     1     -25.615 -25.996 -18.812  1.00  0.00    -0.550 OA
ATOM     17  O   UNL     1     -25.988 -24.359 -17.251  1.00  0.00    -0.550 OA
ENDBRANCH  14  15
ENDBRANCH  13  14
ENDBRANCH  12  13
ENDBRANCH  11  12
ENDBRANCH  10  11
ENDBRANCH   9  10
ENDBRANCH   8   9
ENDBRANCH   7   8
ENDBRANCH   6   7
ENDBRANCH   5   6
ENDBRANCH   4   5
ENDBRANCH   3   4
ENDBRANCH   2   3
ENDBRANCH   1   2
BRANCH   1  18
ATOM     18  C   UNL     1     -17.164 -24.551 -15.992  1.00  0.00     0.000 C 
BRANCH  18  19
ATOM     19  C   UNL     1     -15.983 -24.874 -15.055  1.00  0.00     0.000 C 
BRANCH  19  20
ATOM     20  C   UNL     1     -14.946 -25.857 -15.626  1.00  0.00     0.000 C 
BRANCH  20  21
ATOM     21  C   UNL     1     -15.004 -25.966 -17.157  1.00  0.00     0.000 C 
BRANCH  21  22
ATOM     22  C   UNL     1     -14.478 -27.327 -17.637  1.00  0.00     0.000 C 
BRANCH  22  23
ATOM     23  C   UNL     1     -14.333 -28.354 -16.495  1.00  0.00     0.000 C 
BRANCH  23  24
ATOM     24  C   UNL     1     -15.256 -29.583 -16.625  1.00  0.00    -0.000 C 
BRANCH  24  25
ATOM     25  C   UNL     1     -16.370 -29.697 -15.568  1.00  0.00    -0.000 C 
BRANCH  25  26
ATOM     26  C   UNL     1     -17.191 -28.413 -15.339  1.00  0.00    -0.000 C 
BRANCH  26  27
ATOM     27  C   UNL     1     -18.668 -28.501 -15.771  1.00  0.00    -0.000 C 
BRANCH  27  28
ATOM     28  C   UNL     1     -19.051 -27.503 -16.885  1.00  0.00    -0.000 C 
BRANCH  28  29
ATOM     29  C   UNL     1     -18.121 -27.599 -18.106  1.00  0.00    -0.000 C 
BRANCH  29  30
ATOM     30  C   UNL     1     -18.182 -26.352 -19.005  1.00  0.00    -0.000 C 
BRANCH  30  31
ATOM     31  C   UNL     1     -19.598 -26.045 -19.536  1.00  0.00    -0.003 C 
ATOM     32  C   UNL     1     -20.167 -24.751 -18.952  1.00  0.00     0.004 C 
ENDBRANCH  30  31
ENDBRANCH  29  30
ENDBRANCH  28  29
ENDBRANCH  27  28
ENDBRANCH  26  27
ENDBRANCH  25  26
ENDBRANCH  24  25
ENDBRANCH  23  24
ENDBRANCH  22  23
ENDBRANCH  21  22
ENDBRANCH  20  21
ENDBRANCH  19  20
ENDBRANCH  18  19
ENDBRANCH   1  18
TORSDOF 28
ENDMDL
MODEL 3
REMARK VINA RESULT:    -3.450     15.172     19.120
REMARK INTER + INTRA:         -13.822
REMARK INTER:                 -10.246
REMARK INTRA:                  -3.576
REMARK UNBOUND:                -4.724
REMARK SMILES CCCCCCCCCCCCCCCCCCCCCCCCCCCCCC(=O)[O-]
REMARK SMILES IDX 16 1 17 2 18 3 19 4 20 5 21 6 22 7 23 8 24 9 25 10 26 11
REMARK SMILES IDX 27 12 28 13 29 14 30 15 31 16 32 17 15 18 14 19 13 20 12 21
REMARK SMILES IDX 11 22 10 23 9 24 8 25 7 26 6 27 5 28 4 29 3 30 2 31 1 32
REMARK H PARENT
REMARK Flexibility Score: inf
ROOT
ATOM      1  C   UNL     1     -10.486 -35.297 -29.653  1.00  0.00     0.000 C 
ENDROOT
BRANCH   1   2
ATOM      2  C   UNL     1     -12.012 -35.476 -29.732  1.00  0.00     0.000 C 
BRANCH   2   3
ATOM      3  C   UNL     1     -12.430 -36.802 -30.397  1.00  0.00     0.000 C 
BRANCH   3   4
ATOM      4  C   UNL     1     -12.879 -36.689 -31.869  1.00  0.00     0.000 C 
BRANCH   4   5
ATOM      5  C   UNL     1     -14.249 -37.322 -32.185  1.00  0.00     0.000 C 
BRANCH   5   6
ATOM      6  C   UNL     1     -15.138 -37.573 -30.952  1.00  0.00     0.000 C 
BRANCH   6   7
ATOM      7  C   UNL     1     -16.640 -37.295 -31.163  1.00  0.00     0.000 C 
BRANCH   7   8
ATOM      8  C   UNL     1     -16.998 -36.559 -32.467  1.00  0.00     0.000 C 
BRANCH   8   9
ATOM      9  C   UNL     1     -18.432 -36.847 -32.944  1.00  0.00     0.000 C 
BRANCH   9  10
ATOM     10  C   UNL     1     -19.051 -35.671 -33.718  1.00  0.00     0.000 C 
BRANCH  10  11
ATOM     11  C   UNL     1     -18.041 -34.905 -34.597  1.00  0.00     0.000 C 
BRANCH  11  12
ATOM     12  C   UNL     1     -18.567 -33.522 -35.013  1.00  0.00     0.000 C 
BRANCH  12  13
ATOM     13  C   UNL     1     -17.699 -32.404 -34.418  1.00  0.00     0.006 C 
BRANCH  13  14
ATOM     14  C   UNL     1     -17.917 -31.058 -35.124  1.00  0.00     0.053 C 
BRANCH  14  15
ATOM     15  C   UNL     1     -18.168 -29.940 -34.157  1.00  0.00     0.041 C 
ATOM     16  O   UNL     1     -18.846 -28.934 -34.503  1.00  0.00    -0.550 OA
ATOM     17  O   UNL     1     -17.679 -30.025 -32.859  1.00  0.00    -0.550 OA
ENDBRANCH  14  15
ENDBRANCH  13  14
ENDBRANCH  12  13
ENDBRANCH  11  12
ENDBRANCH  10  11
ENDBRANCH   9  10
ENDBRANCH   8   9
ENDBRANCH   7   8
ENDBRANCH   6   7
ENDBRANCH   5   6
ENDBRANCH   4   5
ENDBRANCH   3   4
ENDBRANCH   2   3
ENDBRANCH   1   2
BRANCH   1  18
ATOM     18  C   UNL     1      -9.732 -36.636 -29.597  1.00  0.00     0.000 C 
BRANCH  18  19
ATOM     19  C   UNL     1      -9.156 -37.005 -28.215  1.00  0.00     0.000 C 
BRANCH  19  20
ATOM     20  C   UNL     1     -10.008 -37.988 -27.393  1.00  0.00     0.000 C 
BRANCH  20  21
ATOM     21  C   UNL     1      -9.554 -38.093 -25.929  1.00  0.00     0.000 C 
BRANCH  21  22
ATOM     22  C   UNL     1     -10.759 -38.118 -24.975  1.00  0.00     0.000 C 
BRANCH  22  23
ATOM     23  C   UNL     1     -10.549 -37.253 -23.715  1.00  0.00     0.000 C 
BRANCH  23  24
ATOM     24  C   UNL     1     -10.954 -35.774 -23.885  1.00  0.00    -0.000 C 
BRANCH  24  25
ATOM     25  C   UNL     1     -10.897 -35.228 -25.324  1.00  0.00    -0.000 C 
BRANCH  25  26
ATOM     26  C   UNL     1     -12.252 -34.798 -25.918  1.00  0.00    -0.000 C 
BRANCH  26  27
ATOM     27  C   UNL     1     -13.420 -35.764 -25.636  1.00  0.00    -0.000 C 
BRANCH  27  28
ATOM     28  C   UNL     1     -13.605 -36.850 -26.718  1.00  0.00    -0.000 C 
BRANCH  28  29
ATOM     29  C   UNL     1     -14.866 -36.625 -27.569  1.00  0.00    -0.000 C 
BRANCH  29  30
ATOM     30  C   UNL     1     -15.724 -35.450 -27.069  1.00  0.00    -0.000 C 
BRANCH  30  31
ATOM     31  C   UNL     1     -15.523 -34.152 -27.880  1.00  0.00    -0.003 C 
ATOM     32  C   UNL     1     -15.176 -34.430 -29.343  1.00  0.00     0.004 C 
ENDBRANCH  30  31
ENDBRANCH  29  30
ENDBRANCH  28  29
ENDBRANCH  27  28
ENDBRANCH  26  27
ENDBRANCH  25  26
ENDBRANCH  24  25
ENDBRANCH  23  24
ENDBRANCH  22  23
ENDBRANCH  21  22
ENDBRANCH  20  21
ENDBRANCH  19  20
ENDBRANCH  18  19
ENDBRANCH   1  18
TORSDOF 28
ENDMDL
MODEL 4
REMARK VINA RESULT:    -3.371     15.240     16.885
REMARK INTER + INTRA:         -13.612
REMARK INTER:                 -11.750
REMARK INTRA:                  -1.862
REMARK UNBOUND:                -4.724
REMARK SMILES CCCCCCCCCCCCCCCCCCCCCCCCCCCCCC(=O)[O-]
REMARK SMILES IDX 16 1 17 2 18 3 19 4 20 5 21 6 22 7 23 8 24 9 25 10 26 11
REMARK SMILES IDX 27 12 28 13 29 14 30 15 31 16 32 17 15 18 14 19 13 20 12 21
REMARK SMILES IDX 11 22 10 23 9 24 8 25 7 26 6 27 5 28 4 29 3 30 2 31 1 32
REMARK H PARENT
REMARK Flexibility Score: inf
ROOT
ATOM      1  C   UNL     1     -20.877 -28.611 -33.045  1.00  0.00     0.000 C 
ENDROOT
BRANCH   1   2
ATOM      2  C   UNL     1     -20.060 -29.026 -34.281  1.00  0.00     0.000 C 
BRANCH   2   3
ATOM      3  C   UNL     1     -18.539 -28.998 -34.037  1.00  0.00     0.000 C 
BRANCH   3   4
ATOM      4  C   UNL     1     -17.903 -30.356 -33.672  1.00  0.00     0.000 C 
BRANCH   4   5
ATOM      5  C   UNL     1     -17.961 -31.424 -34.783  1.00  0.00     0.000 C 
BRANCH   5   6
ATOM      6  C   UNL     1     -17.559 -32.840 -34.331  1.00  0.00     0.000 C 
BRANCH   6   7
ATOM      7  C   UNL     1     -18.334 -33.987 -35.013  1.00  0.00     0.000 C 
BRANCH   7   8
ATOM      8  C   UNL     1     -18.800 -35.117 -34.076  1.00  0.00     0.000 C 
BRANCH   8   9
ATOM      9  C   UNL     1     -18.125 -36.466 -34.383  1.00  0.00     0.000 C 
BRANCH   9  10
ATOM     10  C   UNL     1     -17.268 -36.983 -33.215  1.00  0.00     0.000 C 
BRANCH  10  11
ATOM     11  C   UNL     1     -16.714 -35.865 -32.308  1.00  0.00     0.000 C 
BRANCH  11  12
ATOM     12  C   UNL     1     -15.212 -35.630 -32.529  1.00  0.00     0.000 C 
BRANCH  12  13
ATOM     13  C   UNL     1     -14.619 -34.772 -31.403  1.00  0.00     0.006 C 
BRANCH  13  14
ATOM     14  C   UNL     1     -15.244 -35.089 -30.036  1.00  0.00     0.053 C 
BRANCH  14  15
ATOM     15  C   UNL     1     -14.267 -34.927 -28.910  1.00  0.00     0.041 C 
ATOM     16  O   UNL     1     -14.647 -34.484 -27.792  1.00  0.00    -0.550 OA
ATOM     17  O   UNL     1     -12.939 -35.297 -29.087  1.00  0.00    -0.550 OA
ENDBRANCH  14  15
ENDBRANCH  13  14
ENDBRANCH  12  13
ENDBRANCH  11  12
ENDBRANCH  10  11
ENDBRANCH   9  10
ENDBRANCH   8   9
ENDBRANCH   7   8
ENDBRANCH   6   7
ENDBRANCH   5   6
ENDBRANCH   4   5
ENDBRANCH   3   4
ENDBRANCH   2   3
ENDBRANCH   1   2
BRANCH   1  18
ATOM     18  C   UNL     1     -21.064 -27.087 -32.940  1.00  0.00     0.000 C 
BRANCH  18  19
ATOM     19  C   UNL     1     -20.979 -26.325 -34.278  1.00  0.00     0.000 C 
BRANCH  19  20
ATOM     20  C   UNL     1     -21.028 -24.792 -34.161  1.00  0.00     0.000 C 
BRANCH  20  21
ATOM     21  C   UNL     1     -22.106 -24.300 -33.183  1.00  0.00     0.000 C 
BRANCH  21  22
ATOM     22  C   UNL     1     -23.434 -24.033 -33.909  1.00  0.00     0.000 C 
BRANCH  22  23
ATOM     23  C   UNL     1     -24.012 -22.634 -33.614  1.00  0.00     0.000 C 
BRANCH  23  24
ATOM     24  C   UNL     1     -25.424 -22.648 -32.992  1.00  0.00    -0.000 C 
BRANCH  24  25
ATOM     25  C   UNL     1     -25.593 -21.826 -31.701  1.00  0.00    -0.000 C 
BRANCH  25  26
ATOM     26  C   UNL     1     -25.062 -22.497 -30.420  1.00  0.00    -0.000 C 
BRANCH  26  27
ATOM     27  C   UNL     1     -26.090 -22.627 -29.280  1.00  0.00    -0.000 C 
BRANCH  27  28
ATOM     28  C   UNL     1     -26.489 -21.277 -28.645  1.00  0.00    -0.000 C 
BRANCH  28  29
ATOM     29  C   UNL     1     -27.957 -20.909 -28.919  1.00  0.00    -0.000 C 
BRANCH  29  30
ATOM     30  C   UNL     1     -28.162 -19.403 -29.158  1.00  0.00    -0.000 C 
BRANCH  30  31
ATOM     31  C   UNL     1     -28.892 -19.082 -30.479  1.00  0.00    -0.003 C 
ATOM     32  C   UNL     1     -27.929 -18.971 -31.661  1.00  0.00     0.004 C 
ENDBRANCH  30  31
ENDBRANCH  29  30
ENDBRANCH  28  29
ENDBRANCH  27  28
ENDBRANCH  26  27
ENDBRANCH  25  26
ENDBRANCH  24  25
ENDBRANCH  23  24
ENDBRANCH  22  23
ENDBRANCH  21  22
ENDBRANCH  20  21
ENDBRANCH  19  20
ENDBRANCH  18  19
ENDBRANCH   1  18
TORSDOF 28
ENDMDL
MODEL 5
REMARK VINA RESULT:    -3.338     15.869     20.333
REMARK INTER + INTRA:         -13.527
REMARK INTER:                 -11.698
REMARK INTRA:                  -1.828
REMARK UNBOUND:                -4.724
REMARK SMILES CCCCCCCCCCCCCCCCCCCCCCCCCCCCCC(=O)[O-]
REMARK SMILES IDX 16 1 17 2 18 3 19 4 20 5 21 6 22 7 23 8 24 9 25 10 26 11
REMARK SMILES IDX 27 12 28 13 29 14 30 15 31 16 32 17 15 18 14 19 13 20 12 21
REMARK SMILES IDX 11 22 10 23 9 24 8 25 7 26 6 27 5 28 4 29 3 30 2 31 1 32
REMARK H PARENT
REMARK Flexibility Score: inf
ROOT
ATOM      1  C   UNL     1     -20.834 -28.662 -33.707  1.00  0.00     0.000 C 
ENDROOT
BRANCH   1   2
ATOM      2  C   UNL     1     -21.315 -27.459 -32.877  1.00  0.00     0.000 C 
BRANCH   2   3
ATOM      3  C   UNL     1     -21.279 -26.132 -33.658  1.00  0.00     0.000 C 
BRANCH   3   4
ATOM      4  C   UNL     1     -21.482 -24.859 -32.810  1.00  0.00     0.000 C 
BRANCH   4   5
ATOM      5  C   UNL     1     -22.312 -23.749 -33.484  1.00  0.00     0.000 C 
BRANCH   5   6
ATOM      6  C   UNL     1     -23.745 -24.163 -33.868  1.00  0.00     0.000 C 
BRANCH   6   7
ATOM      7  C   UNL     1     -24.603 -23.044 -34.490  1.00  0.00     0.000 C 
BRANCH   7   8
ATOM      8  C   UNL     1     -25.171 -22.016 -33.493  1.00  0.00     0.000 C 
BRANCH   8   9
ATOM      9  C   UNL     1     -25.391 -22.603 -32.088  1.00  0.00     0.000 C 
BRANCH   9  10
ATOM     10  C   UNL     1     -26.838 -23.070 -31.856  1.00  0.00     0.000 C 
BRANCH  10  11
ATOM     11  C   UNL     1     -27.883 -22.289 -32.679  1.00  0.00     0.000 C 
BRANCH  11  12
ATOM     12  C   UNL     1     -28.958 -21.646 -31.790  1.00  0.00     0.000 C 
BRANCH  12  13
ATOM     13  C   UNL     1     -28.388 -20.445 -31.022  1.00  0.00     0.006 C 
BRANCH  13  14
ATOM     14  C   UNL     1     -28.311 -20.702 -29.510  1.00  0.00     0.053 C 
BRANCH  14  15
ATOM     15  C   UNL     1     -27.122 -20.040 -28.878  1.00  0.00     0.041 C 
ATOM     16  O   UNL     1     -27.277 -19.157 -27.991  1.00  0.00    -0.550 OA
ATOM     17  O   UNL     1     -25.839 -20.424 -29.248  1.00  0.00    -0.550 OA
ENDBRANCH  14  15
ENDBRANCH  13  14
ENDBRANCH  12  13
ENDBRANCH  11  12
ENDBRANCH  10  11
ENDBRANCH   9  10
ENDBRANCH   8   9
ENDBRANCH   7   8
ENDBRANCH   6   7
ENDBRANCH   5   6
ENDBRANCH   4   5
ENDBRANCH   3   4
ENDBRANCH   2   3
ENDBRANCH   1   2
BRANCH   1  18
ATOM     18  C   UNL     1     -19.449 -29.169 -33.271  1.00  0.00     0.000 C 
BRANCH  18  19
ATOM     19  C   UNL     1     -18.538 -29.649 -34.418  1.00  0.00     0.000 C 
BRANCH  19  20
ATOM     20  C   UNL     1     -17.831 -30.994 -34.173  1.00  0.00     0.000 C 
BRANCH  20  21
ATOM     21  C   UNL     1     -18.309 -32.103 -35.124  1.00  0.00     0.000 C 
BRANCH  21  22
ATOM     22  C   UNL     1     -17.925 -33.492 -34.592  1.00  0.00     0.000 C 
BRANCH  22  23
ATOM     23  C   UNL     1     -18.901 -34.600 -35.040  1.00  0.00     0.000 C 
BRANCH  23  24
ATOM     24  C   UNL     1     -19.399 -35.509 -33.898  1.00  0.00    -0.000 C 
BRANCH  24  25
ATOM     25  C   UNL     1     -18.877 -36.958 -33.921  1.00  0.00    -0.000 C 
BRANCH  25  26
ATOM     26  C   UNL     1     -17.386 -37.124 -33.570  1.00  0.00    -0.000 C 
BRANCH  26  27
ATOM     27  C   UNL     1     -16.980 -36.580 -32.186  1.00  0.00    -0.000 C 
BRANCH  27  28
ATOM     28  C   UNL     1     -16.084 -35.324 -32.251  1.00  0.00    -0.000 C 
BRANCH  28  29
ATOM     29  C   UNL     1     -15.784 -34.742 -30.859  1.00  0.00    -0.000 C 
BRANCH  29  30
ATOM     30  C   UNL     1     -14.857 -35.639 -30.022  1.00  0.00    -0.000 C 
BRANCH  30  31
ATOM     31  C   UNL     1     -15.404 -35.944 -28.612  1.00  0.00    -0.003 C 
ATOM     32  C   UNL     1     -15.199 -34.777 -27.646  1.00  0.00     0.004 C 
ENDBRANCH  30  31
ENDBRANCH  29  30
ENDBRANCH  28  29
ENDBRANCH  27  28
ENDBRANCH  26  27
ENDBRANCH  25  26
ENDBRANCH  24  25
ENDBRANCH  23  24
ENDBRANCH  22  23
ENDBRANCH  21  22
ENDBRANCH  20  21
ENDBRANCH  19  20
ENDBRANCH  18  19
ENDBRANCH   1  18
TORSDOF 28
ENDMDL
MODEL 6
REMARK VINA RESULT:    -3.327      2.944      4.808
REMARK INTER + INTRA:         -13.496
REMARK INTER:                  -8.741
REMARK INTRA:                  -4.755
REMARK UNBOUND:                -4.724
REMARK SMILES CCCCCCCCCCCCCCCCCCCCCCCCCCCCCC(=O)[O-]
REMARK SMILES IDX 16 1 17 2 18 3 19 4 20 5 21 6 22 7 23 8 24 9 25 10 26 11
REMARK SMILES IDX 27 12 28 13 29 14 30 15 31 16 32 17 15 18 14 19 13 20 12 21
REMARK SMILES IDX 11 22 10 23 9 24 8 25 7 26 6 27 5 28 4 29 3 30 2 31 1 32
REMARK H PARENT
REMARK Flexibility Score: inf
ROOT
ATOM      1  C   UNL     1     -17.126 -24.528 -15.839  1.00  0.00     0.000 C 
ENDROOT
BRANCH   1   2
ATOM      2  C   UNL     1     -15.699 -24.592 -15.268  1.00  0.00     0.000 C 
BRANCH   2   3
ATOM      3  C   UNL     1     -14.933 -25.858 -15.697  1.00  0.00     0.000 C 
BRANCH   3   4
ATOM      4  C   UNL     1     -14.959 -26.167 -17.209  1.00  0.00     0.000 C 
BRANCH   4   5
ATOM      5  C   UNL     1     -13.788 -27.028 -17.721  1.00  0.00     0.000 C 
BRANCH   5   6
ATOM      6  C   UNL     1     -13.779 -28.475 -17.194  1.00  0.00     0.000 C 
BRANCH   6   7
ATOM      7  C   UNL     1     -15.159 -29.162 -17.149  1.00  0.00     0.000 C 
BRANCH   7   8
ATOM      8  C   UNL     1     -15.606 -29.655 -15.761  1.00  0.00     0.000 C 
BRANCH   8   9
ATOM      9  C   UNL     1     -17.126 -29.546 -15.547  1.00  0.00     0.000 C 
BRANCH   9  10
ATOM     10  C   UNL     1     -17.620 -28.089 -15.508  1.00  0.00     0.000 C 
BRANCH  10  11
ATOM     11  C   UNL     1     -18.770 -27.796 -16.494  1.00  0.00     0.000 C 
BRANCH  11  12
ATOM     12  C   UNL     1     -18.271 -27.653 -17.940  1.00  0.00     0.000 C 
BRANCH  12  13
ATOM     13  C   UNL     1     -18.531 -26.238 -18.473  1.00  0.00     0.006 C 
BRANCH  13  14
ATOM     14  C   UNL     1     -19.006 -26.241 -19.933  1.00  0.00     0.053 C 
BRANCH  14  15
ATOM     15  C   UNL     1     -20.292 -26.992 -20.114  1.00  0.00     0.041 C 
ATOM     16  O   UNL     1     -21.308 -26.695 -19.430  1.00  0.00    -0.550 OA
ATOM     17  O   UNL     1     -20.375 -28.001 -21.066  1.00  0.00    -0.550 OA
ENDBRANCH  14  15
ENDBRANCH  13  14
ENDBRANCH  12  13
ENDBRANCH  11  12
ENDBRANCH  10  11
ENDBRANCH   9  10
ENDBRANCH   8   9
ENDBRANCH   7   8
ENDBRANCH   6   7
ENDBRANCH   5   6
ENDBRANCH   4   5
ENDBRANCH   3   4
ENDBRANCH   2   3
ENDBRANCH   1   2
BRANCH   1  18
ATOM     18  C   UNL     1     -18.122 -23.860 -14.875  1.00  0.00     0.000 C 
BRANCH  18  19
ATOM     19  C   UNL     1     -18.630 -22.474 -15.318  1.00  0.00     0.000 C 
BRANCH  19  20
ATOM     20  C   UNL     1     -20.135 -22.398 -15.631  1.00  0.00     0.000 C 
BRANCH  20  21
ATOM     21  C   UNL     1     -20.439 -22.491 -17.134  1.00  0.00     0.000 C 
BRANCH  21  22
ATOM     22  C   UNL     1     -20.853 -23.917 -17.529  1.00  0.00     0.000 C 
BRANCH  22  23
ATOM     23  C   UNL     1     -21.181 -24.808 -16.313  1.00  0.00     0.000 C 
BRANCH  23  24
ATOM     24  C   UNL     1     -22.644 -25.295 -16.258  1.00  0.00    -0.000 C 
BRANCH  24  25
ATOM     25  C   UNL     1     -23.681 -24.244 -15.819  1.00  0.00    -0.000 C 
BRANCH  25  26
ATOM     26  C   UNL     1     -24.519 -23.633 -16.958  1.00  0.00    -0.000 C 
BRANCH  26  27
ATOM     27  C   UNL     1     -24.417 -22.101 -17.091  1.00  0.00    -0.000 C 
BRANCH  27  28
ATOM     28  C   UNL     1     -23.572 -21.436 -15.983  1.00  0.00    -0.000 C 
BRANCH  28  29
ATOM     29  C   UNL     1     -23.143 -20.005 -16.349  1.00  0.00    -0.000 C 
BRANCH  29  30
ATOM     30  C   UNL     1     -22.841 -19.835 -17.848  1.00  0.00    -0.000 C 
BRANCH  30  31
ATOM     31  C   UNL     1     -23.600 -18.662 -18.501  1.00  0.00    -0.003 C 
ATOM     32  C   UNL     1     -25.000 -18.478 -17.913  1.00  0.00     0.004 C 
ENDBRANCH  30  31
ENDBRANCH  29  30
ENDBRANCH  28  29
ENDBRANCH  27  28
ENDBRANCH  26  27
ENDBRANCH  25  26
ENDBRANCH  24  25
ENDBRANCH  23  24
ENDBRANCH  22  23
ENDBRANCH  21  22
ENDBRANCH  20  21
ENDBRANCH  19  20
ENDBRANCH  18  19
ENDBRANCH   1  18
TORSDOF 28
ENDMDL
MODEL 7
REMARK VINA RESULT:    -3.319     15.239     19.882
REMARK INTER + INTRA:         -13.476
REMARK INTER:                 -10.973
REMARK INTRA:                  -2.503
REMARK UNBOUND:                -4.724
REMARK SMILES CCCCCCCCCCCCCCCCCCCCCCCCCCCCCC(=O)[O-]
REMARK SMILES IDX 16 1 17 2 18 3 19 4 20 5 21 6 22 7 23 8 24 9 25 10 26 11
REMARK SMILES IDX 27 12 28 13 29 14 30 15 31 16 32 17 15 18 14 19 13 20 12 21
REMARK SMILES IDX 11 22 10 23 9 24 8 25 7 26 6 27 5 28 4 29 3 30 2 31 1 32
REMARK H PARENT
REMARK Flexibility Score: inf
ROOT
ATOM      1  C   UNL     1     -14.702 -37.924 -32.143  1.00  0.00     0.000 C 
ENDROOT
BRANCH   1   2
ATOM      2  C   UNL     1     -15.700 -36.810 -32.501  1.00  0.00     0.000 C 
BRANCH   2   3
ATOM      3  C   UNL     1     -17.132 -37.332 -32.730  1.00  0.00     0.000 C 
BRANCH   3   4
ATOM      4  C   UNL     1     -18.225 -36.246 -32.814  1.00  0.00     0.000 C 
BRANCH   4   5
ATOM      5  C   UNL     1     -18.253 -35.447 -34.132  1.00  0.00     0.000 C 
BRANCH   5   6
ATOM      6  C   UNL     1     -17.741 -34.000 -34.013  1.00  0.00     0.000 C 
BRANCH   6   7
ATOM      7  C   UNL     1     -18.225 -33.043 -35.122  1.00  0.00     0.000 C 
BRANCH   7   8
ATOM      8  C   UNL     1     -17.972 -31.547 -34.861  1.00  0.00     0.000 C 
BRANCH   8   9
ATOM      9  C   UNL     1     -17.508 -31.260 -33.422  1.00  0.00     0.000 C 
BRANCH   9  10
ATOM     10  C   UNL     1     -17.815 -29.822 -32.971  1.00  0.00     0.000 C 
BRANCH  10  11
ATOM     11  C   UNL     1     -18.774 -29.067 -33.914  1.00  0.00     0.000 C 
BRANCH  11  12
ATOM     12  C   UNL     1     -20.225 -29.097 -33.410  1.00  0.00     0.000 C 
BRANCH  12  13
ATOM     13  C   UNL     1     -20.895 -27.726 -33.584  1.00  0.00     0.006 C 
BRANCH  13  14
ATOM     14  C   UNL     1     -20.277 -26.654 -32.675  1.00  0.00     0.053 C 
BRANCH  14  15
ATOM     15  C   UNL     1     -20.002 -25.374 -33.406  1.00  0.00     0.041 C 
ATOM     16  O   UNL     1     -20.887 -24.479 -33.485  1.00  0.00    -0.550 OA
ATOM     17  O   UNL     1     -18.752 -25.156 -33.974  1.00  0.00    -0.550 OA
ENDBRANCH  14  15
ENDBRANCH  13  14
ENDBRANCH  12  13
ENDBRANCH  11  12
ENDBRANCH  10  11
ENDBRANCH   9  10
ENDBRANCH   8   9
ENDBRANCH   7   8
ENDBRANCH   6   7
ENDBRANCH   5   6
ENDBRANCH   4   5
ENDBRANCH   3   4
ENDBRANCH   2   3
ENDBRANCH   1   2
BRANCH   1  18
ATOM     18  C   UNL     1     -14.451 -38.033 -30.629  1.00  0.00     0.000 C 
BRANCH  18  19
ATOM     19  C   UNL     1     -12.973 -37.928 -30.203  1.00  0.00     0.000 C 
BRANCH  19  20
ATOM     20  C   UNL     1     -11.986 -37.607 -31.340  1.00  0.00     0.000 C 
BRANCH  20  21
ATOM     21  C   UNL     1     -10.517 -37.798 -30.929  1.00  0.00     0.000 C 
BRANCH  21  22
ATOM     22  C   UNL     1      -9.990 -36.571 -30.169  1.00  0.00     0.000 C 
BRANCH  22  23
ATOM     23  C   UNL     1      -9.009 -36.938 -29.037  1.00  0.00     0.000 C 
BRANCH  23  24
ATOM     24  C   UNL     1      -9.466 -38.122 -28.159  1.00  0.00    -0.000 C 
BRANCH  24  25
ATOM     25  C   UNL     1      -9.514 -37.850 -26.644  1.00  0.00    -0.000 C 
BRANCH  25  26
ATOM     26  C   UNL     1     -10.796 -37.158 -26.142  1.00  0.00    -0.000 C 
BRANCH  26  27
ATOM     27  C   UNL     1     -10.672 -35.637 -25.926  1.00  0.00    -0.000 C 
BRANCH  27  28
ATOM     28  C   UNL     1     -11.957 -34.978 -25.381  1.00  0.00    -0.000 C 
BRANCH  28  29
ATOM     29  C   UNL     1     -13.113 -35.014 -26.395  1.00  0.00    -0.000 C 
BRANCH  29  30
ATOM     30  C   UNL     1     -12.878 -34.090 -27.603  1.00  0.00    -0.000 C 
BRANCH  30  31
ATOM     31  C   UNL     1     -13.502 -34.617 -28.912  1.00  0.00    -0.003 C 
ATOM     32  C   UNL     1     -14.995 -34.911 -28.765  1.00  0.00     0.004 C 
ENDBRANCH  30  31
ENDBRANCH  29  30
ENDBRANCH  28  29
ENDBRANCH  27  28
ENDBRANCH  26  27
ENDBRANCH  25  26
ENDBRANCH  24  25
ENDBRANCH  23  24
ENDBRANCH  22  23
ENDBRANCH  21  22
ENDBRANCH  20  21
ENDBRANCH  19  20
ENDBRANCH  18  19
ENDBRANCH   1  18
TORSDOF 28
ENDMDL
MODEL 8
REMARK VINA RESULT:    -3.313      1.319      3.748
REMARK INTER + INTRA:         -13.461
REMARK INTER:                  -9.598
REMARK INTRA:                  -3.864
REMARK UNBOUND:                -4.724
REMARK SMILES CCCCCCCCCCCCCCCCCCCCCCCCCCCCCC(=O)[O-]
REMARK SMILES IDX 16 1 17 2 18 3 19 4 20 5 21 6 22 7 23 8 24 9 25 10 26 11
REMARK SMILES IDX 27 12 28 13 29 14 30 15 31 16 32 17 15 18 14 19 13 20 12 21
REMARK SMILES IDX 11 22 10 23 9 24 8 25 7 26 6 27 5 28 4 29 3 30 2 31 1 32
REMARK H PARENT
REMARK Flexibility Score: inf
ROOT
ATOM      1  C   UNL     1     -21.019 -24.646 -18.989  1.00  0.00     0.000 C 
ENDROOT
BRANCH   1   2
ATOM      2  C   UNL     1     -21.047 -26.184 -18.956  1.00  0.00     0.000 C 
BRANCH   2   3
ATOM      3  C   UNL     1     -19.775 -26.824 -19.544  1.00  0.00     0.000 C 
BRANCH   3   4
ATOM      4  C   UNL     1     -18.973 -27.714 -18.571  1.00  0.00     0.000 C 
BRANCH   4   5
ATOM      5  C   UNL     1     -17.447 -27.501 -18.597  1.00  0.00     0.000 C 
BRANCH   5   6
ATOM      6  C   UNL     1     -17.002 -26.037 -18.429  1.00  0.00     0.000 C 
BRANCH   6   7
ATOM      7  C   UNL     1     -16.816 -25.574 -16.969  1.00  0.00     0.000 C 
BRANCH   7   8
ATOM      8  C   UNL     1     -17.539 -26.427 -15.910  1.00  0.00     0.000 C 
BRANCH   8   9
ATOM      9  C   UNL     1     -16.579 -27.038 -14.875  1.00  0.00     0.000 C 
BRANCH   9  10
ATOM     10  C   UNL     1     -15.205 -27.391 -15.472  1.00  0.00     0.000 C 
BRANCH  10  11
ATOM     11  C   UNL     1     -15.130 -28.816 -16.059  1.00  0.00     0.000 C 
BRANCH  11  12
ATOM     12  C   UNL     1     -13.717 -29.167 -16.549  1.00  0.00     0.000 C 
BRANCH  12  13
ATOM     13  C   UNL     1     -13.448 -28.554 -17.930  1.00  0.00     0.006 C 
BRANCH  13  14
ATOM     14  C   UNL     1     -12.994 -27.091 -17.842  1.00  0.00     0.053 C 
BRANCH  14  15
ATOM     15  C   UNL     1     -11.527 -26.964 -17.556  1.00  0.00     0.041 C 
ATOM     16  O   UNL     1     -10.769 -26.350 -18.356  1.00  0.00    -0.550 OA
ATOM     17  O   UNL     1     -11.001 -27.498 -16.386  1.00  0.00    -0.550 OA
ENDBRANCH  14  15
ENDBRANCH  13  14
ENDBRANCH  12  13
ENDBRANCH  11  12
ENDBRANCH  10  11
ENDBRANCH   9  10
ENDBRANCH   8   9
ENDBRANCH   7   8
ENDBRANCH   6   7
ENDBRANCH   5   6
ENDBRANCH   4   5
ENDBRANCH   3   4
ENDBRANCH   2   3
ENDBRANCH   1   2
BRANCH   1  18
ATOM     18  C   UNL     1     -20.221 -24.041 -17.822  1.00  0.00     0.000 C 
BRANCH  18  19
ATOM     19  C   UNL     1     -20.396 -24.760 -16.469  1.00  0.00     0.000 C 
BRANCH  19  20
ATOM     20  C   UNL     1     -20.097 -23.900 -15.228  1.00  0.00     0.000 C 
BRANCH  20  21
ATOM     21  C   UNL     1     -19.244 -22.662 -15.550  1.00  0.00     0.000 C 
BRANCH  21  22
ATOM     22  C   UNL     1     -19.875 -21.388 -14.967  1.00  0.00     0.000 C 
BRANCH  22  23
ATOM     23  C   UNL     1     -21.416 -21.444 -14.922  1.00  0.00     0.000 C 
BRANCH  23  24
ATOM     24  C   UNL     1     -22.116 -20.399 -15.815  1.00  0.00    -0.000 C 
BRANCH  24  25
ATOM     25  C   UNL     1     -22.306 -20.801 -17.290  1.00  0.00    -0.000 C 
BRANCH  25  26
ATOM     26  C   UNL     1     -22.830 -22.231 -17.519  1.00  0.00    -0.000 C 
BRANCH  26  27
ATOM     27  C   UNL     1     -24.109 -22.587 -16.736  1.00  0.00    -0.000 C 
BRANCH  27  28
ATOM     28  C   UNL     1     -24.031 -23.943 -16.000  1.00  0.00    -0.000 C 
BRANCH  28  29
ATOM     29  C   UNL     1     -24.134 -25.140 -16.960  1.00  0.00    -0.000 C 
BRANCH  29  30
ATOM     30  C   UNL     1     -24.849 -24.793 -18.277  1.00  0.00    -0.000 C 
BRANCH  30  31
ATOM     31  C   UNL     1     -26.339 -25.193 -18.293  1.00  0.00    -0.003 C 
ATOM     32  C   UNL     1     -27.188 -24.305 -17.382  1.00  0.00     0.004 C 
ENDBRANCH  30  31
ENDBRANCH  29  30
ENDBRANCH  28  29
ENDBRANCH  27  28
ENDBRANCH  26  27
ENDBRANCH  25  26
ENDBRANCH  24  25
ENDBRANCH  23  24
ENDBRANCH  22  23
ENDBRANCH  21  22
ENDBRANCH  20  21
ENDBRANCH  19  20
ENDBRANCH  18  19
ENDBRANCH   1  18
TORSDOF 28
ENDMDL
