MODEL 1
REMARK VINA RESULT:    -5.860      0.000      0.000
REMARK INTER + INTRA:          -9.808
REMARK INTER:                  -9.286
REMARK INTRA:                  -0.522
REMARK UNBOUND:                -0.522
REMARK SMILES CCCCCCCCCCCC(=O)[O-]
REMARK SMILES IDX 7 1 8 2 9 3 10 4 11 5 12 6 13 7 14 8 6 9 5 10 4 11 3 12 2 13
REMARK SMILES IDX 1 14
REMARK H PARENT
REMARK Flexibility Score: inf
ROOT
ATOM      1  C   UNL     1       2.878   9.474  18.798  1.00  0.00     0.000 C 
ENDROOT
BRANCH   1   2
ATOM      2  C   UNL     1       2.217   8.379  19.653  1.00  0.00     0.000 C 
BRANCH   2   3
ATOM      3  C   UNL     1       1.912   7.106  18.848  1.00  0.00     0.000 C 
BRANCH   3   4
ATOM      4  C   UNL     1       2.345   5.822  19.579  1.00  0.00     0.006 C 
BRANCH   4   5
ATOM      5  C   UNL     1       2.723   4.700  18.602  1.00  0.00     0.053 C 
BRANCH   5   6
ATOM      6  C   UNL     1       2.644   3.352  19.248  1.00  0.00     0.041 C 
ATOM      7  O   UNL     1       3.539   2.493  19.035  1.00  0.00    -0.550 OA
ATOM      8  O   UNL     1       1.598   3.057  20.114  1.00  0.00    -0.550 OA
ENDBRANCH   5   6
ENDBRANCH   4   5
ENDBRANCH   3   4
ENDBRANCH   2   3
ENDBRANCH   1   2
BRANCH   1   9
ATOM      9  C   UNL     1       3.035   9.061  17.325  1.00  0.00     0.000 C 
BRANCH   9  10
ATOM     10  C   UNL     1       4.494   8.743  16.952  1.00  0.00    -0.000 C 
BRANCH  10  11
ATOM     11  C   UNL     1       4.644   8.290  15.490  1.00  0.00    -0.000 C 
BRANCH  11  12
ATOM     12  C   UNL     1       5.989   7.593  15.222  1.00  0.00    -0.000 C 
BRANCH  12  13
ATOM     13  C   UNL     1       6.696   8.143  13.973  1.00  0.00    -0.003 C 
ATOM     14  C   UNL     1       5.767   8.962  13.077  1.00  0.00     0.004 C 
ENDBRANCH  12  13
ENDBRANCH  11  12
ENDBRANCH  10  11
ENDBRANCH   9  10
ENDBRANCH   1   9
TORSDOF 10
ENDMDL
MODEL 2
REMARK VINA RESULT:    -5.667      2.041      4.159
REMARK INTER + INTRA:          -9.502
REMARK INTER:                  -8.777
REMARK INTRA:                  -0.725
REMARK UNBOUND:                -0.522
REMARK SMILES CCCCCCCCCCCC(=O)[O-]
REMARK SMILES IDX 7 1 8 2 9 3 10 4 11 5 12 6 13 7 14 8 6 9 5 10 4 11 3 12 2 13
REMARK SMILES IDX 1 14
REMARK H PARENT
REMARK Flexibility Score: inf
ROOT
ATOM      1  C   UNL     1       4.735   5.499  14.685  1.00  0.00     0.000 C 
ENDROOT
BRANCH   1   2
ATOM      2  C   UNL     1       3.773   4.514  13.997  1.00  0.00     0.000 C 
BRANCH   2   3
ATOM      3  C   UNL     1       2.759   3.899  14.976  1.00  0.00     0.000 C 
BRANCH   3   4
ATOM      4  C   UNL     1       3.300   3.811  16.415  1.00  0.00     0.006 C 
BRANCH   4   5
ATOM      5  C   UNL     1       2.630   4.829  17.347  1.00  0.00     0.053 C 
BRANCH   5   6
ATOM      6  C   UNL     1       2.495   4.298  18.741  1.00  0.00     0.041 C 
ATOM      7  O   UNL     1       2.192   3.091  18.933  1.00  0.00    -0.550 OA
ATOM      8  O   UNL     1       2.737   5.128  19.828  1.00  0.00    -0.550 OA
ENDBRANCH   5   6
ENDBRANCH   4   5
ENDBRANCH   3   4
ENDBRANCH   2   3
ENDBRANCH   1   2
BRANCH   1   9
ATOM      9  C   UNL     1       5.213   6.615  13.742  1.00  0.00     0.000 C 
BRANCH   9  10
ATOM     10  C   UNL     1       5.279   7.987  14.435  1.00  0.00    -0.000 C 
BRANCH  10  11
ATOM     11  C   UNL     1       5.004   7.899  15.946  1.00  0.00    -0.000 C 
BRANCH  11  12
ATOM     12  C   UNL     1       3.852   8.816  16.392  1.00  0.00    -0.000 C 
BRANCH  12  13
ATOM     13  C   UNL     1       3.198   8.343  17.699  1.00  0.00    -0.003 C 
ATOM     14  C   UNL     1       2.458   9.462  18.432  1.00  0.00     0.004 C 
ENDBRANCH  12  13
ENDBRANCH  11  12
ENDBRANCH  10  11
ENDBRANCH   9  10
ENDBRANCH   1   9
TORSDOF 10
ENDMDL
MODEL 3
REMARK VINA RESULT:    -5.653      1.782      2.383
REMARK INTER + INTRA:          -9.479
REMARK INTER:                  -8.782
REMARK INTRA:                  -0.697
REMARK UNBOUND:                -0.522
REMARK SMILES CCCCCCCCCCCC(=O)[O-]
REMARK SMILES IDX 7 1 8 2 9 3 10 4 11 5 12 6 13 7 14 8 6 9 5 10 4 11 3 12 2 13
REMARK SMILES IDX 1 14
REMARK H PARENT
REMARK Flexibility Score: inf
ROOT
ATOM      1  C   UNL     1       2.197   7.867  19.305  1.00  0.00     0.000 C 
ENDROOT
BRANCH   1   2
ATOM      2  C   UNL     1       2.096   6.589  18.454  1.00  0.00     0.000 C 
BRANCH   2   3
ATOM      3  C   UNL     1       2.347   5.313  19.273  1.00  0.00     0.000 C 
BRANCH   3   4
ATOM      4  C   UNL     1       2.889   4.154  18.418  1.00  0.00     0.006 C 
BRANCH   4   5
ATOM      5  C   UNL     1       3.089   4.562  16.952  1.00  0.00     0.053 C 
BRANCH   5   6
ATOM      6  C   UNL     1       3.036   3.379  16.036  1.00  0.00     0.041 C 
ATOM      7  O   UNL     1       3.175   2.214  16.495  1.00  0.00    -0.550 OA
ATOM      8  O   UNL     1       2.798   3.560  14.679  1.00  0.00    -0.550 OA
ENDBRANCH   5   6
ENDBRANCH   4   5
ENDBRANCH   3   4
ENDBRANCH   2   3
ENDBRANCH   1   2
BRANCH   1   9
ATOM      9  C   UNL     1       2.435   9.127  18.456  1.00  0.00     0.000 C 
BRANCH   9  10
ATOM     10  C   UNL     1       3.835   9.155  17.819  1.00  0.00    -0.000 C 
BRANCH  10  11
ATOM     11  C   UNL     1       3.799   8.900  16.303  1.00  0.00    -0.000 C 
BRANCH  11  12
ATOM     12  C   UNL     1       4.810   7.827  15.861  1.00  0.00    -0.000 C 
BRANCH  12  13
ATOM     13  C   UNL     1       5.159   7.929  14.368  1.00  0.00    -0.003 C 
ATOM     14  C   UNL     1       6.663   7.848  14.103  1.00  0.00     0.004 C 
ENDBRANCH  12  13
ENDBRANCH  11  12
ENDBRANCH  10  11
ENDBRANCH   9  10
ENDBRANCH   1   9
TORSDOF 10
ENDMDL
MODEL 4
REMARK VINA RESULT:    -5.590      2.239      4.911
REMARK INTER + INTRA:          -9.380
REMARK INTER:                  -8.799
REMARK INTRA:                  -0.582
REMARK UNBOUND:                -0.522
REMARK SMILES CCCCCCCCCCCC(=O)[O-]
REMARK SMILES IDX 7 1 8 2 9 3 10 4 11 5 12 6 13 7 14 8 6 9 5 10 4 11 3 12 2 13
REMARK SMILES IDX 1 14
REMARK H PARENT
REMARK Flexibility Score: inf
ROOT
ATOM      1  C   UNL     1       5.707   6.842  13.761  1.00  0.00     0.000 C 
ENDROOT
BRANCH   1   2
ATOM      2  C   UNL     1       4.612   6.221  12.875  1.00  0.00     0.000 C 
BRANCH   2   3
ATOM      3  C   UNL     1       4.304   4.763  13.253  1.00  0.00     0.000 C 
BRANCH   3   4
ATOM      4  C   UNL     1       4.344   4.522  14.773  1.00  0.00     0.006 C 
BRANCH   4   5
ATOM      5  C   UNL     1       3.106   3.764  15.271  1.00  0.00     0.053 C 
BRANCH   5   6
ATOM      6  C   UNL     1       2.991   3.811  16.763  1.00  0.00     0.041 C 
ATOM      7  O   UNL     1       2.624   4.870  17.338  1.00  0.00    -0.550 OA
ATOM      8  O   UNL     1       3.256   2.675  17.517  1.00  0.00    -0.550 OA
ENDBRANCH   5   6
ENDBRANCH   4   5
ENDBRANCH   3   4
ENDBRANCH   2   3
ENDBRANCH   1   2
BRANCH   1   9
ATOM      9  C   UNL     1       5.248   8.139  14.447  1.00  0.00     0.000 C 
BRANCH   9  10
ATOM     10  C   UNL     1       4.973   7.949  15.949  1.00  0.00    -0.000 C 
BRANCH  10  11
ATOM     11  C   UNL     1       3.983   8.988  16.503  1.00  0.00    -0.000 C 
BRANCH  11  12
ATOM     12  C   UNL     1       2.965   8.372  17.478  1.00  0.00    -0.000 C 
BRANCH  12  13
ATOM     13  C   UNL     1       2.474   9.381  18.529  1.00  0.00    -0.003 C 
ATOM     14  C   UNL     1       2.168   8.730  19.879  1.00  0.00     0.004 C 
ENDBRANCH  12  13
ENDBRANCH  11  12
ENDBRANCH  10  11
ENDBRANCH   9  10
ENDBRANCH   1   9
TORSDOF 10
ENDMDL
MODEL 5
REMARK VINA RESULT:    -5.517      2.448      4.273
REMARK INTER + INTRA:          -9.264
REMARK INTER:                  -8.302
REMARK INTRA:                  -0.962
REMARK UNBOUND:                -0.522
REMARK SMILES CCCCCCCCCCCC(=O)[O-]
REMARK SMILES IDX 7 1 8 2 9 3 10 4 11 5 12 6 13 7 14 8 6 9 5 10 4 11 3 12 2 13
REMARK SMILES IDX 1 14
REMARK H PARENT
REMARK Flexibility Score: inf
ROOT
ATOM      1  C   UNL     1       3.767   5.010  12.935  1.00  0.00     0.000 C 
ENDROOT
BRANCH   1   2
ATOM      2  C   UNL     1       3.200   4.086  14.028  1.00  0.00     0.000 C 
BRANCH   2   3
ATOM      3  C   UNL     1       4.160   3.920  15.217  1.00  0.00     0.000 C 
BRANCH   3   4
ATOM      4  C   UNL     1       3.437   3.507  16.511  1.00  0.00     0.006 C 
BRANCH   4   5
ATOM      5  C   UNL     1       2.733   4.694  17.183  1.00  0.00     0.053 C 
BRANCH   5   6
ATOM      6  C   UNL     1       2.441   4.420  18.626  1.00  0.00     0.041 C 
ATOM      7  O   UNL     1       2.093   3.267  18.995  1.00  0.00    -0.550 OA
ATOM      8  O   UNL     1       2.588   5.429  19.569  1.00  0.00    -0.550 OA
ENDBRANCH   5   6
ENDBRANCH   4   5
ENDBRANCH   3   4
ENDBRANCH   2   3
ENDBRANCH   1   2
BRANCH   1   9
ATOM      9  C   UNL     1       5.163   5.551  13.285  1.00  0.00     0.000 C 
BRANCH   9  10
ATOM     10  C   UNL     1       5.222   7.088  13.273  1.00  0.00    -0.000 C 
BRANCH  10  11
ATOM     11  C   UNL     1       5.742   7.669  14.599  1.00  0.00    -0.000 C 
BRANCH  11  12
ATOM     12  C   UNL     1       4.746   7.484  15.756  1.00  0.00    -0.000 C 
BRANCH  12  13
ATOM     13  C   UNL     1       4.123   8.814  16.213  1.00  0.00    -0.003 C 
ATOM     14  C   UNL     1       3.250   8.664  17.459  1.00  0.00     0.004 C 
ENDBRANCH  12  13
ENDBRANCH  11  12
ENDBRANCH  10  11
ENDBRANCH   9  10
ENDBRANCH   1   9
TORSDOF 10
ENDMDL
MODEL 6
REMARK VINA RESULT:    -5.500      2.738      4.324
REMARK INTER + INTRA:          -9.238
REMARK INTER:                  -8.235
REMARK INTRA:                  -1.004
REMARK UNBOUND:                -0.522
REMARK SMILES CCCCCCCCCCCC(=O)[O-]
REMARK SMILES IDX 7 1 8 2 9 3 10 4 11 5 12 6 13 7 14 8 6 9 5 10 4 11 3 12 2 13
REMARK SMILES IDX 1 14
REMARK H PARENT
REMARK Flexibility Score: inf
ROOT
ATOM      1  C   UNL     1       3.820   2.533  14.331  1.00  0.00     0.000 C 
ENDROOT
BRANCH   1   2
ATOM      2  C   UNL     1       2.825   3.360  15.164  1.00  0.00     0.000 C 
BRANCH   2   3
ATOM      3  C   UNL     1       3.281   3.536  16.622  1.00  0.00     0.000 C 
BRANCH   3   4
ATOM      4  C   UNL     1       2.964   4.936  17.179  1.00  0.00     0.006 C 
BRANCH   4   5
ATOM      5  C   UNL     1       1.758   4.921  18.128  1.00  0.00     0.053 C 
BRANCH   5   6
ATOM      6  C   UNL     1       2.097   4.293  19.444  1.00  0.00     0.041 C 
ATOM      7  O   UNL     1       2.895   4.864  20.233  1.00  0.00    -0.550 OA
ATOM      8  O   UNL     1       1.504   3.093  19.814  1.00  0.00    -0.550 OA
ENDBRANCH   5   6
ENDBRANCH   4   5
ENDBRANCH   3   4
ENDBRANCH   2   3
ENDBRANCH   1   2
BRANCH   1   9
ATOM      9  C   UNL     1       4.613   3.391  13.332  1.00  0.00     0.000 C 
BRANCH   9  10
ATOM     10  C   UNL     1       3.943   4.750  13.058  1.00  0.00    -0.000 C 
BRANCH  10  11
ATOM     11  C   UNL     1       4.922   5.928  13.198  1.00  0.00    -0.000 C 
BRANCH  11  12
ATOM     12  C   UNL     1       5.167   6.322  14.665  1.00  0.00    -0.000 C 
BRANCH  12  13
ATOM     13  C   UNL     1       5.150   7.844  14.875  1.00  0.00    -0.003 C 
ATOM     14  C   UNL     1       4.373   8.263  16.124  1.00  0.00     0.004 C 
ENDBRANCH  12  13
ENDBRANCH  11  12
ENDBRANCH  10  11
ENDBRANCH   9  10
ENDBRANCH   1   9
TORSDOF 10
ENDMDL
MODEL 7
REMARK VINA RESULT:    -5.373      3.828      6.958
REMARK INTER + INTRA:          -9.036
REMARK INTER:                  -8.427
REMARK INTRA:                  -0.609
REMARK UNBOUND:                -0.522
REMARK SMILES CCCCCCCCCCCC(=O)[O-]
REMARK SMILES IDX 7 1 8 2 9 3 10 4 11 5 12 6 13 7 14 8 6 9 5 10 4 11 3 12 2 13
REMARK SMILES IDX 1 14
REMARK H PARENT
REMARK Flexibility Score: inf
ROOT
ATOM      1  C   UNL     1       3.966   3.019  15.813  1.00  0.00     0.000 C 
ENDROOT
BRANCH   1   2
ATOM      2  C   UNL     1       3.769   4.402  15.166  1.00  0.00     0.000 C 
BRANCH   2   3
ATOM      3  C   UNL     1       4.133   4.412  13.673  1.00  0.00     0.000 C 
BRANCH   3   4
ATOM      4  C   UNL     1       4.772   5.739  13.226  1.00  0.00     0.006 C 
BRANCH   4   5
ATOM      5  C   UNL     1       5.328   6.541  14.410  1.00  0.00     0.053 C 
BRANCH   5   6
ATOM      6  C   UNL     1       5.850   7.876  13.979  1.00  0.00     0.041 C 
ATOM      7  O   UNL     1       5.060   8.845  13.822  1.00  0.00    -0.550 OA
ATOM      8  O   UNL     1       7.213   8.061  13.785  1.00  0.00    -0.550 OA
ENDBRANCH   5   6
ENDBRANCH   4   5
ENDBRANCH   3   4
ENDBRANCH   2   3
ENDBRANCH   1   2
BRANCH   1   9
ATOM      9  C   UNL     1       2.879   2.691  16.849  1.00  0.00     0.000 C 
BRANCH   9  10
ATOM     10  C   UNL     1       3.341   2.950  18.294  1.00  0.00    -0.000 C 
BRANCH  10  11
ATOM     11  C   UNL     1       2.245   3.599  19.157  1.00  0.00    -0.000 C 
BRANCH  11  12
ATOM     12  C   UNL     1       2.585   5.047  19.550  1.00  0.00    -0.000 C 
BRANCH  12  13
ATOM     13  C   UNL     1       2.208   6.057  18.454  1.00  0.00    -0.003 C 
ATOM     14  C   UNL     1       2.177   7.499  18.960  1.00  0.00     0.004 C 
ENDBRANCH  12  13
ENDBRANCH  11  12
ENDBRANCH  10  11
ENDBRANCH   9  10
ENDBRANCH   1   9
TORSDOF 10
ENDMDL
MODEL 8
REMARK VINA RESULT:    -5.235      3.266      5.573
REMARK INTER + INTRA:          -8.817
REMARK INTER:                  -8.067
REMARK INTRA:                  -0.750
REMARK UNBOUND:                -0.522
REMARK SMILES CCCCCCCCCCCC(=O)[O-]
REMARK SMILES IDX 7 1 8 2 9 3 10 4 11 5 12 6 13 7 14 8 6 9 5 10 4 11 3 12 2 13
REMARK SMILES IDX 1 14
REMARK H PARENT
REMARK Flexibility Score: inf
ROOT
ATOM      1  C   UNL     1       2.981   2.870  18.888  1.00  0.00     0.000 C 
ENDROOT
BRANCH   1   2
ATOM      2  C   UNL     1       3.700   2.892  17.527  1.00  0.00     0.000 C 
BRANCH   2   3
ATOM      3  C   UNL     1       3.007   2.004  16.481  1.00  0.00     0.000 C 
BRANCH   3   4
ATOM      4  C   UNL     1       2.829   2.712  15.125  1.00  0.00     0.006 C 
BRANCH   4   5
ATOM      5  C   UNL     1       3.108   4.218  15.219  1.00  0.00     0.053 C 
BRANCH   5   6
ATOM      6  C   UNL     1       4.152   4.651  14.236  1.00  0.00     0.041 C 
ATOM      7  O   UNL     1       4.383   3.957  13.211  1.00  0.00    -0.550 OA
ATOM      8  O   UNL     1       4.845   5.837  14.435  1.00  0.00    -0.550 OA
ENDBRANCH   5   6
ENDBRANCH   4   5
ENDBRANCH   3   4
ENDBRANCH   2   3
ENDBRANCH   1   2
BRANCH   1   9
ATOM      9  C   UNL     1       2.986   4.243  19.581  1.00  0.00     0.000 C 
BRANCH   9  10
ATOM     10  C   UNL     1       1.856   5.160  19.083  1.00  0.00    -0.000 C 
BRANCH  10  11
ATOM     11  C   UNL     1       2.386   6.441  18.416  1.00  0.00    -0.000 C 
BRANCH  11  12
ATOM     12  C   UNL     1       1.962   7.716  19.165  1.00  0.00    -0.000 C 
BRANCH  12  13
ATOM     13  C   UNL     1       2.621   8.980  18.590  1.00  0.00    -0.003 C 
ATOM     14  C   UNL     1       3.310   8.733  17.247  1.00  0.00     0.004 C 
ENDBRANCH  12  13
ENDBRANCH  11  12
ENDBRANCH  10  11
ENDBRANCH   9  10
ENDBRANCH   1   9
TORSDOF 10
ENDMDL
MODEL 9
REMARK VINA RESULT:    -4.495      2.636      5.449
REMARK INTER + INTRA:          -7.645
REMARK INTER:                  -6.998
REMARK INTRA:                  -0.647
REMARK UNBOUND:                -0.522
REMARK SMILES CCCCCCCCCCCC(=O)[O-]
REMARK SMILES IDX 7 1 8 2 9 3 10 4 11 5 12 6 13 7 14 8 6 9 5 10 4 11 3 12 2 13
REMARK SMILES IDX 1 14
REMARK H PARENT
REMARK Flexibility Score: inf
ROOT
ATOM      1  C   UNL     1       3.740   7.828  16.876  1.00  0.00     0.000 C 
ENDROOT
BRANCH   1   2
ATOM      2  C   UNL     1       4.427   8.721  15.828  1.00  0.00     0.000 C 
BRANCH   2   3
ATOM      3  C   UNL     1       5.272   7.914  14.828  1.00  0.00     0.000 C 
BRANCH   3   4
ATOM      4  C   UNL     1       5.003   6.401  14.910  1.00  0.00     0.006 C 
BRANCH   4   5
ATOM      5  C   UNL     1       4.900   5.756  13.521  1.00  0.00     0.053 C 
BRANCH   5   6
ATOM      6  C   UNL     1       4.206   4.430  13.576  1.00  0.00     0.041 C 
ATOM      7  O   UNL     1       4.619   3.469  12.875  1.00  0.00    -0.550 OA
ATOM      8  O   UNL     1       3.124   4.246  14.427  1.00  0.00    -0.550 OA
ENDBRANCH   5   6
ENDBRANCH   4   5
ENDBRANCH   3   4
ENDBRANCH   2   3
ENDBRANCH   1   2
BRANCH   1   9
ATOM      9  C   UNL     1       3.027   8.641  17.970  1.00  0.00     0.000 C 
BRANCH   9  10
ATOM     10  C   UNL     1       2.195   7.758  18.916  1.00  0.00    -0.000 C 
BRANCH  10  11
ATOM     11  C   UNL     1       2.218   6.274  18.511  1.00  0.00    -0.000 C 
BRANCH  11  12
ATOM     12  C   UNL     1       2.602   5.349  19.678  1.00  0.00    -0.000 C 
BRANCH  12  13
ATOM     13  C   UNL     1       2.590   3.865  19.280  1.00  0.00    -0.003 C 
ATOM     14  C   UNL     1       2.998   3.637  17.824  1.00  0.00     0.004 C 
ENDBRANCH  12  13
ENDBRANCH  11  12
ENDBRANCH  10  11
ENDBRANCH   9  10
ENDBRANCH   1   9
TORSDOF 10
ENDMDL
