MODEL 1
REMARK VINA RESULT:    -5.402      0.000      0.000
REMARK INTER + INTRA:         -11.045
REMARK INTER:                  -9.823
REMARK INTRA:                  -1.221
REMARK UNBOUND:                -1.221
REMARK SMILES CCCCCCCCCCCCCCCC(=O)[O-]
REMARK SMILES IDX 9 1 10 2 11 3 12 4 13 5 14 6 15 7 16 8 17 9 18 10 8 11 7 12
REMARK SMILES IDX 6 13 5 14 4 15 3 16 2 17 1 18
REMARK H PARENT
REMARK Flexibility Score: inf
ROOT
ATOM      1  C   UNL     1      -7.683  62.860  54.210  1.00  0.00     0.000 C 
ENDROOT
BRANCH   1   2
ATOM      2  C   UNL     1      -7.890  64.140  53.385  1.00  0.00     0.000 C 
BRANCH   2   3
ATOM      3  C   UNL     1      -6.592  64.939  53.194  1.00  0.00     0.000 C 
BRANCH   3   4
ATOM      4  C   UNL     1      -6.621  65.825  51.940  1.00  0.00     0.000 C 
BRANCH   4   5
ATOM      5  C   UNL     1      -6.044  65.081  50.729  1.00  0.00     0.000 C 
BRANCH   5   6
ATOM      6  C   UNL     1      -7.107  64.905  49.633  1.00  0.00     0.006 C 
BRANCH   6   7
ATOM      7  C   UNL     1      -7.571  63.449  49.504  1.00  0.00     0.053 C 
BRANCH   7   8
ATOM      8  C   UNL     1      -8.890  63.346  48.802  1.00  0.00     0.041 C 
ATOM      9  O   UNL     1      -9.274  62.244  48.330  1.00  0.00    -0.550 OA
ATOM     10  O   UNL     1      -9.711  64.462  48.699  1.00  0.00    -0.550 OA
ENDBRANCH   7   8
ENDBRANCH   6   7
ENDBRANCH   5   6
ENDBRANCH   4   5
ENDBRANCH   3   4
ENDBRANCH   2   3
ENDBRANCH   1   2
BRANCH   1  11
ATOM     11  C   UNL     1      -7.316  61.677  53.306  1.00  0.00     0.000 C 
BRANCH  11  12
ATOM     12  C   UNL     1      -6.376  60.702  54.031  1.00  0.00    -0.000 C 
BRANCH  12  13
ATOM     13  C   UNL     1      -6.641  60.636  55.543  1.00  0.00    -0.000 C 
BRANCH  13  14
ATOM     14  C   UNL     1      -6.261  59.274  56.151  1.00  0.00    -0.000 C 
BRANCH  14  15
ATOM     15  C   UNL     1      -4.751  58.988  56.078  1.00  0.00    -0.000 C 
BRANCH  15  16
ATOM     16  C   UNL     1      -3.873  59.844  57.014  1.00  0.00    -0.000 C 
BRANCH  16  17
ATOM     17  C   UNL     1      -2.949  60.847  56.302  1.00  0.00    -0.003 C 
ATOM     18  C   UNL     1      -2.879  60.624  54.792  1.00  0.00     0.004 C 
ENDBRANCH  16  17
ENDBRANCH  15  16
ENDBRANCH  14  15
ENDBRANCH  13  14
ENDBRANCH  12  13
ENDBRANCH  11  12
ENDBRANCH   1  11
TORSDOF 14
ENDMDL
MODEL 2
REMARK VINA RESULT:    -5.395      1.012      1.801
REMARK INTER + INTRA:         -11.032
REMARK INTER:                 -10.022
REMARK INTRA:                  -1.010
REMARK UNBOUND:                -1.221
REMARK SMILES CCCCCCCCCCCCCCCC(=O)[O-]
REMARK SMILES IDX 9 1 10 2 11 3 12 4 13 5 14 6 15 7 16 8 17 9 18 10 8 11 7 12
REMARK SMILES IDX 6 13 5 14 4 15 3 16 2 17 1 18
REMARK H PARENT
REMARK Flexibility Score: inf
ROOT
ATOM      1  C   UNL     1      -7.944  64.328  53.212  1.00  0.00     0.000 C 
ENDROOT
BRANCH   1   2
ATOM      2  C   UNL     1      -6.804  65.359  53.189  1.00  0.00     0.000 C 
BRANCH   2   3
ATOM      3  C   UNL     1      -6.265  65.613  51.773  1.00  0.00     0.000 C 
BRANCH   3   4
ATOM      4  C   UNL     1      -6.310  64.359  50.888  1.00  0.00     0.000 C 
BRANCH   4   5
ATOM      5  C   UNL     1      -6.915  64.677  49.515  1.00  0.00     0.000 C 
BRANCH   5   6
ATOM      6  C   UNL     1      -8.449  64.616  49.562  1.00  0.00     0.006 C 
BRANCH   6   7
ATOM      7  C   UNL     1      -9.055  64.223  48.209  1.00  0.00     0.053 C 
BRANCH   7   8
ATOM      8  C   UNL     1      -9.004  62.742  47.986  1.00  0.00     0.041 C 
ATOM      9  O   UNL     1      -9.100  61.951  48.960  1.00  0.00    -0.550 OA
ATOM     10  O   UNL     1      -8.883  62.238  46.697  1.00  0.00    -0.550 OA
ENDBRANCH   7   8
ENDBRANCH   6   7
ENDBRANCH   5   6
ENDBRANCH   4   5
ENDBRANCH   3   4
ENDBRANCH   2   3
ENDBRANCH   1   2
BRANCH   1  11
ATOM     11  C   UNL     1      -7.692  63.254  54.278  1.00  0.00     0.000 C 
BRANCH  11  12
ATOM     12  C   UNL     1      -7.753  61.847  53.665  1.00  0.00    -0.000 C 
BRANCH  12  13
ATOM     13  C   UNL     1      -6.501  61.010  53.975  1.00  0.00    -0.000 C 
BRANCH  13  14
ATOM     14  C   UNL     1      -6.242  60.873  55.486  1.00  0.00    -0.000 C 
BRANCH  14  15
ATOM     15  C   UNL     1      -6.160  59.408  55.948  1.00  0.00    -0.000 C 
BRANCH  15  16
ATOM     16  C   UNL     1      -4.731  58.855  56.131  1.00  0.00    -0.000 C 
BRANCH  16  17
ATOM     17  C   UNL     1      -3.983  59.384  57.367  1.00  0.00    -0.003 C 
ATOM     18  C   UNL     1      -2.929  60.436  57.021  1.00  0.00     0.004 C 
ENDBRANCH  16  17
ENDBRANCH  15  16
ENDBRANCH  14  15
ENDBRANCH  13  14
ENDBRANCH  12  13
ENDBRANCH  11  12
ENDBRANCH   1  11
TORSDOF 14
ENDMDL
MODEL 3
REMARK VINA RESULT:    -5.296      3.448      7.456
REMARK INTER + INTRA:         -10.852
REMARK INTER:                  -9.369
REMARK INTRA:                  -1.484
REMARK UNBOUND:                -1.221
REMARK SMILES CCCCCCCCCCCCCCCC(=O)[O-]
REMARK SMILES IDX 9 1 10 2 11 3 12 4 13 5 14 6 15 7 16 8 17 9 18 10 8 11 7 12
REMARK SMILES IDX 6 13 5 14 4 15 3 16 2 17 1 18
REMARK H PARENT
REMARK Flexibility Score: inf
ROOT
ATOM      1  C   UNL     1      -7.543  65.385  53.387  1.00  0.00     0.000 C 
ENDROOT
BRANCH   1   2
ATOM      2  C   UNL     1      -7.919  63.936  53.040  1.00  0.00     0.000 C 
BRANCH   2   3
ATOM      3  C   UNL     1      -7.999  63.032  54.279  1.00  0.00     0.000 C 
BRANCH   3   4
ATOM      4  C   UNL     1      -7.749  61.553  53.951  1.00  0.00     0.000 C 
BRANCH   4   5
ATOM      5  C   UNL     1      -6.271  61.307  53.622  1.00  0.00     0.000 C 
BRANCH   5   6
ATOM      6  C   UNL     1      -5.404  61.390  54.888  1.00  0.00     0.006 C 
BRANCH   6   7
ATOM      7  C   UNL     1      -4.564  60.125  55.100  1.00  0.00     0.053 C 
BRANCH   7   8
ATOM      8  C   UNL     1      -5.098  59.284  56.219  1.00  0.00     0.041 C 
ATOM      9  O   UNL     1      -4.333  58.892  57.138  1.00  0.00    -0.550 OA
ATOM     10  O   UNL     1      -6.449  58.962  56.262  1.00  0.00    -0.550 OA
ENDBRANCH   7   8
ENDBRANCH   6   7
ENDBRANCH   5   6
ENDBRANCH   4   5
ENDBRANCH   3   4
ENDBRANCH   2   3
ENDBRANCH   1   2
BRANCH   1  11
ATOM     11  C   UNL     1      -6.158  65.742  52.832  1.00  0.00     0.000 C 
BRANCH  11  12
ATOM     12  C   UNL     1      -6.278  66.577  51.548  1.00  0.00    -0.000 C 
BRANCH  12  13
ATOM     13  C   UNL     1      -5.230  66.195  50.491  1.00  0.00    -0.000 C 
BRANCH  13  14
ATOM     14  C   UNL     1      -5.826  65.359  49.345  1.00  0.00    -0.000 C 
BRANCH  14  15
ATOM     15  C   UNL     1      -6.199  63.930  49.777  1.00  0.00    -0.000 C 
BRANCH  15  16
ATOM     16  C   UNL     1      -7.625  63.479  49.398  1.00  0.00    -0.000 C 
BRANCH  16  17
ATOM     17  C   UNL     1      -8.703  64.572  49.503  1.00  0.00    -0.003 C 
ATOM     18  C   UNL     1      -9.700  64.537  48.345  1.00  0.00     0.004 C 
ENDBRANCH  16  17
ENDBRANCH  15  16
ENDBRANCH  14  15
ENDBRANCH  13  14
ENDBRANCH  12  13
ENDBRANCH  11  12
ENDBRANCH   1  11
TORSDOF 14
ENDMDL
MODEL 4
REMARK VINA RESULT:    -5.139      3.713      7.865
REMARK INTER + INTRA:         -10.567
REMARK INTER:                  -9.197
REMARK INTRA:                  -1.370
REMARK UNBOUND:                -1.221
REMARK SMILES CCCCCCCCCCCCCCCC(=O)[O-]
REMARK SMILES IDX 9 1 10 2 11 3 12 4 13 5 14 6 15 7 16 8 17 9 18 10 8 11 7 12
REMARK SMILES IDX 6 13 5 14 4 15 3 16 2 17 1 18
REMARK H PARENT
REMARK Flexibility Score: inf
ROOT
ATOM      1  C   UNL     1      -7.387  63.161  53.275  1.00  0.00     0.000 C 
ENDROOT
BRANCH   1   2
ATOM      2  C   UNL     1      -6.036  62.447  53.114  1.00  0.00     0.000 C 
BRANCH   2   3
ATOM      3  C   UNL     1      -5.945  61.157  53.944  1.00  0.00     0.000 C 
BRANCH   3   4
ATOM      4  C   UNL     1      -6.698  61.258  55.279  1.00  0.00     0.000 C 
BRANCH   4   5
ATOM      5  C   UNL     1      -6.376  60.061  56.182  1.00  0.00     0.000 C 
BRANCH   5   6
ATOM      6  C   UNL     1      -5.429  59.078  55.476  1.00  0.00     0.006 C 
BRANCH   6   7
ATOM      7  C   UNL     1      -4.206  58.733  56.335  1.00  0.00     0.053 C 
BRANCH   7   8
ATOM      8  C   UNL     1      -3.546  59.962  56.882  1.00  0.00     0.041 C 
ATOM      9  O   UNL     1      -3.418  60.115  58.124  1.00  0.00    -0.550 OA
ATOM     10  O   UNL     1      -3.043  60.924  56.014  1.00  0.00    -0.550 OA
ENDBRANCH   7   8
ENDBRANCH   6   7
ENDBRANCH   5   6
ENDBRANCH   4   5
ENDBRANCH   3   4
ENDBRANCH   2   3
ENDBRANCH   1   2
BRANCH   1  11
ATOM     11  C   UNL     1      -7.188  64.644  53.615  1.00  0.00     0.000 C 
BRANCH  11  12
ATOM     12  C   UNL     1      -7.384  65.524  52.371  1.00  0.00    -0.000 C 
BRANCH  12  13
ATOM     13  C   UNL     1      -6.064  65.826  51.645  1.00  0.00    -0.000 C 
BRANCH  13  14
ATOM     14  C   UNL     1      -6.132  65.511  50.140  1.00  0.00    -0.000 C 
BRANCH  14  15
ATOM     15  C   UNL     1      -6.209  64.002  49.848  1.00  0.00    -0.000 C 
BRANCH  15  16
ATOM     16  C   UNL     1      -7.608  63.477  49.464  1.00  0.00    -0.000 C 
BRANCH  16  17
ATOM     17  C   UNL     1      -8.689  64.560  49.307  1.00  0.00    -0.003 C 
ATOM     18  C   UNL     1      -9.745  64.199  48.263  1.00  0.00     0.004 C 
ENDBRANCH  16  17
ENDBRANCH  15  16
ENDBRANCH  14  15
ENDBRANCH  13  14
ENDBRANCH  12  13
ENDBRANCH  11  12
ENDBRANCH   1  11
TORSDOF 14
ENDMDL
MODEL 5
REMARK VINA RESULT:    -5.111      9.731     14.409
REMARK INTER + INTRA:         -10.516
REMARK INTER:                  -9.042
REMARK INTRA:                  -1.474
REMARK UNBOUND:                -1.221
REMARK SMILES CCCCCCCCCCCCCCCC(=O)[O-]
REMARK SMILES IDX 9 1 10 2 11 3 12 4 13 5 14 6 15 7 16 8 17 9 18 10 8 11 7 12
REMARK SMILES IDX 6 13 5 14 4 15 3 16 2 17 1 18
REMARK H PARENT
REMARK Flexibility Score: inf
ROOT
ATOM      1  C   UNL     1      -8.604  64.333  38.974  1.00  0.00     0.000 C 
ENDROOT
BRANCH   1   2
ATOM      2  C   UNL     1      -8.614  65.834  39.303  1.00  0.00     0.000 C 
BRANCH   2   3
ATOM      3  C   UNL     1      -9.276  66.140  40.655  1.00  0.00     0.000 C 
BRANCH   3   4
ATOM      4  C   UNL     1      -8.857  65.154  41.756  1.00  0.00     0.000 C 
BRANCH   4   5
ATOM      5  C   UNL     1     -10.029  64.248  42.156  1.00  0.00     0.000 C 
BRANCH   5   6
ATOM      6  C   UNL     1      -9.583  62.781  42.250  1.00  0.00     0.006 C 
BRANCH   6   7
ATOM      7  C   UNL     1     -10.404  61.990  43.276  1.00  0.00     0.053 C 
BRANCH   7   8
ATOM      8  C   UNL     1      -9.627  61.730  44.530  1.00  0.00     0.041 C 
ATOM      9  O   UNL     1      -9.308  60.555  44.847  1.00  0.00    -0.550 OA
ATOM     10  O   UNL     1      -9.227  62.792  45.331  1.00  0.00    -0.550 OA
ENDBRANCH   7   8
ENDBRANCH   6   7
ENDBRANCH   5   6
ENDBRANCH   4   5
ENDBRANCH   3   4
ENDBRANCH   2   3
ENDBRANCH   1   2
BRANCH   1  11
ATOM     11  C   UNL     1      -9.917  63.908  38.305  1.00  0.00     0.000 C 
BRANCH  11  12
ATOM     12  C   UNL     1     -10.249  62.444  38.628  1.00  0.00    -0.000 C 
BRANCH  12  13
ATOM     13  C   UNL     1     -11.746  62.222  38.900  1.00  0.00    -0.000 C 
BRANCH  13  14
ATOM     14  C   UNL     1     -11.996  61.235  40.054  1.00  0.00    -0.000 C 
BRANCH  14  15
ATOM     15  C   UNL     1     -12.677  59.935  39.592  1.00  0.00    -0.000 C 
BRANCH  15  16
ATOM     16  C   UNL     1     -13.761  60.110  38.508  1.00  0.00    -0.000 C 
BRANCH  16  17
ATOM     17  C   UNL     1     -15.150  60.512  39.034  1.00  0.00    -0.003 C 
ATOM     18  C   UNL     1     -15.985  61.261  37.997  1.00  0.00     0.004 C 
ENDBRANCH  16  17
ENDBRANCH  15  16
ENDBRANCH  14  15
ENDBRANCH  13  14
ENDBRANCH  12  13
ENDBRANCH  11  12
ENDBRANCH   1  11
TORSDOF 14
ENDMDL
MODEL 6
REMARK VINA RESULT:    -4.990     10.020     14.584
REMARK INTER + INTRA:         -10.296
REMARK INTER:                  -9.481
REMARK INTRA:                  -0.814
REMARK UNBOUND:                -1.221
REMARK SMILES CCCCCCCCCCCCCCCC(=O)[O-]
REMARK SMILES IDX 9 1 10 2 11 3 12 4 13 5 14 6 15 7 16 8 17 9 18 10 8 11 7 12
REMARK SMILES IDX 6 13 5 14 4 15 3 16 2 17 1 18
REMARK H PARENT
REMARK Flexibility Score: inf
ROOT
ATOM      1  C   UNL     1     -10.080  62.423  39.103  1.00  0.00     0.000 C 
ENDROOT
BRANCH   1   2
ATOM      2  C   UNL     1     -11.478  61.805  38.955  1.00  0.00     0.000 C 
BRANCH   2   3
ATOM      3  C   UNL     1     -11.853  60.898  40.136  1.00  0.00     0.000 C 
BRANCH   3   4
ATOM      4  C   UNL     1     -12.622  59.642  39.698  1.00  0.00     0.000 C 
BRANCH   4   5
ATOM      5  C   UNL     1     -13.816  60.011  38.809  1.00  0.00     0.000 C 
BRANCH   5   6
ATOM      6  C   UNL     1     -14.729  61.029  39.509  1.00  0.00     0.006 C 
BRANCH   6   7
ATOM      7  C   UNL     1     -15.725  61.678  38.539  1.00  0.00     0.053 C 
BRANCH   7   8
ATOM      8  C   UNL     1     -17.045  60.971  38.543  1.00  0.00     0.041 C 
ATOM      9  O   UNL     1     -18.078  61.554  38.121  1.00  0.00    -0.550 OA
ATOM     10  O   UNL     1     -17.128  59.655  38.982  1.00  0.00    -0.550 OA
ENDBRANCH   7   8
ENDBRANCH   6   7
ENDBRANCH   5   6
ENDBRANCH   4   5
ENDBRANCH   3   4
ENDBRANCH   2   3
ENDBRANCH   1   2
BRANCH   1  11
ATOM     11  C   UNL     1     -10.016  63.806  38.442  1.00  0.00     0.000 C 
BRANCH  11  12
ATOM     12  C   UNL     1      -8.818  64.612  38.967  1.00  0.00    -0.000 C 
BRANCH  12  13
ATOM     13  C   UNL     1      -8.506  64.318  40.443  1.00  0.00    -0.000 C 
BRANCH  13  14
ATOM     14  C   UNL     1      -9.603  64.833  41.392  1.00  0.00    -0.000 C 
BRANCH  14  15
ATOM     15  C   UNL     1      -9.620  64.094  42.742  1.00  0.00    -0.000 C 
BRANCH  15  16
ATOM     16  C   UNL     1     -10.017  62.605  42.672  1.00  0.00    -0.000 C 
BRANCH  16  17
ATOM     17  C   UNL     1      -9.878  61.832  43.995  1.00  0.00    -0.003 C 
ATOM     18  C   UNL     1      -9.251  62.668  45.110  1.00  0.00     0.004 C 
ENDBRANCH  16  17
ENDBRANCH  15  16
ENDBRANCH  14  15
ENDBRANCH  13  14
ENDBRANCH  12  13
ENDBRANCH  11  12
ENDBRANCH   1  11
TORSDOF 14
ENDMDL
MODEL 7
REMARK VINA RESULT:    -4.955     13.189     15.343
REMARK INTER + INTRA:         -10.232
REMARK INTER:                  -8.856
REMARK INTRA:                  -1.376
REMARK UNBOUND:                -1.221
REMARK SMILES CCCCCCCCCCCCCCCC(=O)[O-]
REMARK SMILES IDX 9 1 10 2 11 3 12 4 13 5 14 6 15 7 16 8 17 9 18 10 8 11 7 12
REMARK SMILES IDX 6 13 5 14 4 15 3 16 2 17 1 18
REMARK H PARENT
REMARK Flexibility Score: inf
ROOT
ATOM      1  C   UNL     1      -9.939  62.088  40.968  1.00  0.00     0.000 C 
ENDROOT
BRANCH   1   2
ATOM      2  C   UNL     1     -10.990  61.152  40.351  1.00  0.00     0.000 C 
BRANCH   2   3
ATOM      3  C   UNL     1     -12.075  60.736  41.356  1.00  0.00     0.000 C 
BRANCH   3   4
ATOM      4  C   UNL     1     -13.346  60.211  40.672  1.00  0.00     0.000 C 
BRANCH   4   5
ATOM      5  C   UNL     1     -13.068  59.837  39.211  1.00  0.00     0.000 C 
BRANCH   5   6
ATOM      6  C   UNL     1     -14.256  60.210  38.311  1.00  0.00     0.006 C 
BRANCH   6   7
ATOM      7  C   UNL     1     -15.157  61.274  38.951  1.00  0.00     0.053 C 
BRANCH   7   8
ATOM      8  C   UNL     1     -16.597  60.861  38.941  1.00  0.00     0.041 C 
ATOM      9  O   UNL     1     -17.504  61.726  38.831  1.00  0.00    -0.550 OA
ATOM     10  O   UNL     1     -16.934  59.516  39.021  1.00  0.00    -0.550 OA
ENDBRANCH   7   8
ENDBRANCH   6   7
ENDBRANCH   5   6
ENDBRANCH   4   5
ENDBRANCH   3   4
ENDBRANCH   2   3
ENDBRANCH   1   2
BRANCH   1  11
ATOM     11  C   UNL     1     -10.075  63.511  40.411  1.00  0.00     0.000 C 
BRANCH  11  12
ATOM     12  C   UNL     1     -10.644  63.490  38.984  1.00  0.00    -0.000 C 
BRANCH  12  13
ATOM     13  C   UNL     1      -9.702  64.145  37.961  1.00  0.00    -0.000 C 
BRANCH  13  14
ATOM     14  C   UNL     1      -8.424  64.705  38.608  1.00  0.00    -0.000 C 
BRANCH  14  15
ATOM     15  C   UNL     1      -8.207  66.199  38.309  1.00  0.00    -0.000 C 
BRANCH  15  16
ATOM     16  C   UNL     1      -7.573  67.014  39.455  1.00  0.00    -0.000 C 
BRANCH  16  17
ATOM     17  C   UNL     1      -7.753  66.412  40.860  1.00  0.00    -0.003 C 
ATOM     18  C   UNL     1      -9.032  66.883  41.550  1.00  0.00     0.004 C 
ENDBRANCH  16  17
ENDBRANCH  15  16
ENDBRANCH  14  15
ENDBRANCH  13  14
ENDBRANCH  12  13
ENDBRANCH  11  12
ENDBRANCH   1  11
TORSDOF 14
ENDMDL
MODEL 8
REMARK VINA RESULT:    -4.838      1.669      3.457
REMARK INTER + INTRA:         -10.018
REMARK INTER:                  -8.899
REMARK INTRA:                  -1.119
REMARK UNBOUND:                -1.221
REMARK SMILES CCCCCCCCCCCCCCCC(=O)[O-]
REMARK SMILES IDX 9 1 10 2 11 3 12 4 13 5 14 6 15 7 16 8 17 9 18 10 8 11 7 12
REMARK SMILES IDX 6 13 5 14 4 15 3 16 2 17 1 18
REMARK H PARENT
REMARK Flexibility Score: inf
ROOT
ATOM      1  C   UNL     1      -6.624  65.891  51.707  1.00  0.00     0.000 C 
ENDROOT
BRANCH   1   2
ATOM      2  C   UNL     1      -5.833  64.958  50.777  1.00  0.00     0.000 C 
BRANCH   2   3
ATOM      3  C   UNL     1      -6.535  64.731  49.430  1.00  0.00     0.000 C 
BRANCH   3   4
ATOM      4  C   UNL     1      -7.626  63.653  49.504  1.00  0.00     0.000 C 
BRANCH   4   5
ATOM      5  C   UNL     1      -8.986  64.219  49.077  1.00  0.00     0.000 C 
BRANCH   5   6
ATOM      6  C   UNL     1      -9.221  64.011  47.573  1.00  0.00     0.006 C 
BRANCH   6   7
ATOM      7  C   UNL     1      -9.142  62.533  47.172  1.00  0.00     0.053 C 
BRANCH   7   8
ATOM      8  C   UNL     1      -9.143  62.360  45.684  1.00  0.00     0.041 C 
ATOM      9  O   UNL     1      -9.145  61.207  45.180  1.00  0.00    -0.550 OA
ATOM     10  O   UNL     1      -9.176  63.474  44.855  1.00  0.00    -0.550 OA
ENDBRANCH   7   8
ENDBRANCH   6   7
ENDBRANCH   5   6
ENDBRANCH   4   5
ENDBRANCH   3   4
ENDBRANCH   2   3
ENDBRANCH   1   2
BRANCH   1  11
ATOM     11  C   UNL     1      -6.738  65.295  53.116  1.00  0.00     0.000 C 
BRANCH  11  12
ATOM     12  C   UNL     1      -8.024  64.467  53.260  1.00  0.00    -0.000 C 
BRANCH  12  13
ATOM     13  C   UNL     1      -7.748  63.003  53.639  1.00  0.00    -0.000 C 
BRANCH  13  14
ATOM     14  C   UNL     1      -6.244  62.680  53.684  1.00  0.00    -0.000 C 
BRANCH  14  15
ATOM     15  C   UNL     1      -5.960  61.172  53.808  1.00  0.00    -0.000 C 
BRANCH  15  16
ATOM     16  C   UNL     1      -4.926  60.783  54.884  1.00  0.00    -0.000 C 
BRANCH  16  17
ATOM     17  C   UNL     1      -5.493  59.993  56.076  1.00  0.00    -0.003 C 
ATOM     18  C   UNL     1      -4.408  59.302  56.902  1.00  0.00     0.004 C 
ENDBRANCH  16  17
ENDBRANCH  15  16
ENDBRANCH  14  15
ENDBRANCH  13  14
ENDBRANCH  12  13
ENDBRANCH  11  12
ENDBRANCH   1  11
TORSDOF 14
ENDMDL
MODEL 9
REMARK VINA RESULT:    -4.827     12.420     15.503
REMARK INTER + INTRA:          -9.999
REMARK INTER:                  -8.729
REMARK INTRA:                  -1.271
REMARK UNBOUND:                -1.221
REMARK SMILES CCCCCCCCCCCCCCCC(=O)[O-]
REMARK SMILES IDX 9 1 10 2 11 3 12 4 13 5 14 6 15 7 16 8 17 9 18 10 8 11 7 12
REMARK SMILES IDX 6 13 5 14 4 15 3 16 2 17 1 18
REMARK H PARENT
REMARK Flexibility Score: inf
ROOT
ATOM      1  C   UNL     1     -10.301  61.211  40.580  1.00  0.00     0.000 C 
ENDROOT
BRANCH   1   2
ATOM      2  C   UNL     1     -10.029  62.232  41.695  1.00  0.00     0.000 C 
BRANCH   2   3
ATOM      3  C   UNL     1      -9.658  63.620  41.150  1.00  0.00     0.000 C 
BRANCH   3   4
ATOM      4  C   UNL     1      -9.077  63.562  39.729  1.00  0.00     0.000 C 
BRANCH   4   5
ATOM      5  C   UNL     1      -9.372  64.857  38.962  1.00  0.00     0.000 C 
BRANCH   5   6
ATOM      6  C   UNL     1      -8.071  65.578  38.578  1.00  0.00     0.006 C 
BRANCH   6   7
ATOM      7  C   UNL     1      -7.938  66.941  39.270  1.00  0.00     0.053 C 
BRANCH   7   8
ATOM      8  C   UNL     1      -7.432  66.804  40.673  1.00  0.00     0.041 C 
ATOM      9  O   UNL     1      -6.197  66.706  40.895  1.00  0.00    -0.550 OA
ATOM     10  O   UNL     1      -8.324  66.820  41.738  1.00  0.00    -0.550 OA
ENDBRANCH   7   8
ENDBRANCH   6   7
ENDBRANCH   5   6
ENDBRANCH   4   5
ENDBRANCH   3   4
ENDBRANCH   2   3
ENDBRANCH   1   2
BRANCH   1  11
ATOM     11  C   UNL     1     -11.768  60.762  40.589  1.00  0.00     0.000 C 
BRANCH  11  12
ATOM     12  C   UNL     1     -12.438  61.047  39.236  1.00  0.00    -0.000 C 
BRANCH  12  13
ATOM     13  C   UNL     1     -12.654  62.548  38.986  1.00  0.00    -0.000 C 
BRANCH  13  14
ATOM     14  C   UNL     1     -14.143  62.931  38.942  1.00  0.00    -0.000 C 
BRANCH  14  15
ATOM     15  C   UNL     1     -15.012  61.874  38.238  1.00  0.00    -0.000 C 
BRANCH  15  16
ATOM     16  C   UNL     1     -16.497  62.254  38.062  1.00  0.00    -0.000 C 
BRANCH  16  17
ATOM     17  C   UNL     1     -17.501  61.167  38.484  1.00  0.00    -0.003 C 
ATOM     18  C   UNL     1     -16.827  59.846  38.855  1.00  0.00     0.004 C 
ENDBRANCH  16  17
ENDBRANCH  15  16
ENDBRANCH  14  15
ENDBRANCH  13  14
ENDBRANCH  12  13
ENDBRANCH  11  12
ENDBRANCH   1  11
TORSDOF 14
ENDMDL
