MODEL 1
REMARK VINA RESULT:    -0.699      0.000      0.000
REMARK INTER + INTRA:          -1.408
REMARK INTER:                  -1.352
REMARK INTRA:                  -0.056
REMARK UNBOUND:                -0.056
REMARK SMILES CCCCCCCCCCCCCCCCCC(=O)[O-]
REMARK SMILES IDX 10 1 11 2 12 3 13 4 14 5 15 6 16 7 17 8 18 9 19 10 20 11
REMARK SMILES IDX 9 12 8 13 7 14 6 15 5 16 4 17 3 18 2 19 1 20
REMARK H PARENT
REMARK Flexibility Score: inf
ROOT
ATOM      1  C   UNL     1      15.124  21.685  16.352  1.00  0.00     0.000 C 
ENDROOT
BRANCH   1   2
ATOM      2  C   UNL     1      14.578  20.307  16.761  1.00  0.00     0.000 C 
BRANCH   2   3
ATOM      3  C   UNL     1      13.043  20.238  16.700  1.00  0.00     0.000 C 
BRANCH   3   4
ATOM      4  C   UNL     1      12.412  19.875  18.052  1.00  0.00     0.000 C 
BRANCH   4   5
ATOM      5  C   UNL     1      13.122  20.599  19.202  1.00  0.00     0.000 C 
BRANCH   5   6
ATOM      6  C   UNL     1      12.598  20.117  20.563  1.00  0.00     0.000 C 
BRANCH   6   7
ATOM      7  C   UNL     1      11.076  19.893  20.572  1.00  0.00     0.006 C 
BRANCH   7   8
ATOM      8  C   UNL     1      10.324  20.692  21.649  1.00  0.00     0.053 C 
BRANCH   8   9
ATOM      9  C   UNL     1      11.247  21.216  22.705  1.00  0.00     0.041 C 
ATOM     10  O   UNL     1      11.598  20.478  23.664  1.00  0.00    -0.550 OA
ATOM     11  O   UNL     1      11.694  22.531  22.649  1.00  0.00    -0.550 OA
ENDBRANCH   8   9
ENDBRANCH   7   8
ENDBRANCH   6   7
ENDBRANCH   5   6
ENDBRANCH   4   5
ENDBRANCH   3   4
ENDBRANCH   2   3
ENDBRANCH   1   2
BRANCH   1  12
ATOM     12  C   UNL     1      14.465  22.226  15.073  1.00  0.00     0.000 C 
BRANCH  12  13
ATOM     13  C   UNL     1      12.947  22.431  15.229  1.00  0.00    -0.000 C 
BRANCH  13  14
ATOM     14  C   UNL     1      12.151  21.948  14.004  1.00  0.00    -0.000 C 
BRANCH  14  15
ATOM     15  C   UNL     1      10.622  21.957  14.179  1.00  0.00    -0.000 C 
BRANCH  15  16
ATOM     16  C   UNL     1      10.161  22.801  15.376  1.00  0.00    -0.000 C 
BRANCH  16  17
ATOM     17  C   UNL     1       9.941  21.924  16.615  1.00  0.00    -0.000 C 
BRANCH  17  18
ATOM     18  C   UNL     1      10.667  22.504  17.835  1.00  0.00    -0.000 C 
BRANCH  18  19
ATOM     19  C   UNL     1       9.970  23.774  18.337  1.00  0.00    -0.003 C 
ATOM     20  C   UNL     1       9.876  23.786  19.860  1.00  0.00     0.004 C 
ENDBRANCH  18  19
ENDBRANCH  17  18
ENDBRANCH  16  17
ENDBRANCH  15  16
ENDBRANCH  14  15
ENDBRANCH  13  14
ENDBRANCH  12  13
ENDBRANCH   1  12
TORSDOF 16
ENDMDL
MODEL 2
REMARK VINA RESULT:     0.734      1.489      4.290
REMARK INTER + INTRA:           1.365
REMARK INTER:                   1.249
REMARK INTRA:                   0.117
REMARK UNBOUND:                -0.056
REMARK SMILES CCCCCCCCCCCCCCCCCC(=O)[O-]
REMARK SMILES IDX 10 1 11 2 12 3 13 4 14 5 15 6 16 7 17 8 18 9 19 10 20 11
REMARK SMILES IDX 9 12 8 13 7 14 6 15 5 16 4 17 3 18 2 19 1 20
REMARK H PARENT
REMARK Flexibility Score: inf
ROOT
ATOM      1  C   UNL     1      15.319  22.051  16.149  1.00  0.00     0.000 C 
ENDROOT
BRANCH   1   2
ATOM      2  C   UNL     1      14.882  22.598  14.778  1.00  0.00     0.000 C 
BRANCH   2   3
ATOM      3  C   UNL     1      13.366  22.483  14.553  1.00  0.00     0.000 C 
BRANCH   3   4
ATOM      4  C   UNL     1      12.634  21.862  15.751  1.00  0.00     0.000 C 
BRANCH   4   5
ATOM      5  C   UNL     1      11.115  22.017  15.606  1.00  0.00     0.000 C 
BRANCH   5   6
ATOM      6  C   UNL     1      10.372  21.107  16.596  1.00  0.00     0.000 C 
BRANCH   6   7
ATOM      7  C   UNL     1       9.876  21.860  17.843  1.00  0.00     0.006 C 
BRANCH   7   8
ATOM      8  C   UNL     1      10.126  23.376  17.809  1.00  0.00     0.053 C 
BRANCH   8   9
ATOM      9  C   UNL     1      10.237  23.958  19.184  1.00  0.00     0.041 C 
ATOM     10  O   UNL     1      10.450  23.209  20.174  1.00  0.00    -0.550 OA
ATOM     11  O   UNL     1      10.073  25.325  19.378  1.00  0.00    -0.550 OA
ENDBRANCH   8   9
ENDBRANCH   7   8
ENDBRANCH   6   7
ENDBRANCH   5   6
ENDBRANCH   4   5
ENDBRANCH   3   4
ENDBRANCH   2   3
ENDBRANCH   1   2
BRANCH   1  12
ATOM     12  C   UNL     1      15.390  20.516  16.176  1.00  0.00     0.000 C 
BRANCH  12  13
ATOM     13  C   UNL     1      14.136  19.875  16.798  1.00  0.00    -0.000 C 
BRANCH  13  14
ATOM     14  C   UNL     1      14.167  19.875  18.337  1.00  0.00    -0.000 C 
BRANCH  14  15
ATOM     15  C   UNL     1      12.940  20.517  19.011  1.00  0.00    -0.000 C 
BRANCH  15  16
ATOM     16  C   UNL     1      12.652  19.940  20.404  1.00  0.00    -0.000 C 
BRANCH  16  17
ATOM     17  C   UNL     1      11.198  20.205  20.819  1.00  0.00    -0.000 C 
BRANCH  17  18
ATOM     18  C   UNL     1      11.063  20.264  22.344  1.00  0.00    -0.000 C 
BRANCH  18  19
ATOM     19  C   UNL     1      11.404  21.662  22.873  1.00  0.00    -0.003 C 
ATOM     20  C   UNL     1      10.142  22.438  23.237  1.00  0.00     0.004 C 
ENDBRANCH  18  19
ENDBRANCH  17  18
ENDBRANCH  16  17
ENDBRANCH  15  16
ENDBRANCH  14  15
ENDBRANCH  13  14
ENDBRANCH  12  13
ENDBRANCH   1  12
TORSDOF 16
ENDMDL
MODEL 3
REMARK VINA RESULT:     0.839      2.011      5.345
REMARK INTER + INTRA:           1.568
REMARK INTER:                   0.664
REMARK INTRA:                   0.904
REMARK UNBOUND:                -0.056
REMARK SMILES CCCCCCCCCCCCCCCCCC(=O)[O-]
REMARK SMILES IDX 10 1 11 2 12 3 13 4 14 5 15 6 16 7 17 8 18 9 19 10 20 11
REMARK SMILES IDX 9 12 8 13 7 14 6 15 5 16 4 17 3 18 2 19 1 20
REMARK H PARENT
REMARK Flexibility Score: inf
ROOT
ATOM      1  C   UNL     1      15.658  21.098  16.909  1.00  0.00     0.000 C 
ENDROOT
BRANCH   1   2
ATOM      2  C   UNL     1      15.489  21.714  15.509  1.00  0.00     0.000 C 
BRANCH   2   3
ATOM      3  C   UNL     1      14.322  22.712  15.441  1.00  0.00     0.000 C 
BRANCH   3   4
ATOM      4  C   UNL     1      12.991  22.044  15.068  1.00  0.00     0.000 C 
BRANCH   4   5
ATOM      5  C   UNL     1      12.306  22.790  13.915  1.00  0.00     0.000 C 
BRANCH   5   6
ATOM      6  C   UNL     1      10.939  22.169  13.593  1.00  0.00     0.000 C 
BRANCH   6   7
ATOM      7  C   UNL     1      10.133  21.810  14.854  1.00  0.00     0.006 C 
BRANCH   7   8
ATOM      8  C   UNL     1      10.224  22.852  15.980  1.00  0.00     0.053 C 
BRANCH   8   9
ATOM      9  C   UNL     1      10.470  22.217  17.314  1.00  0.00     0.041 C 
ATOM     10  O   UNL     1      10.379  22.901  18.368  1.00  0.00    -0.550 OA
ATOM     11  O   UNL     1      10.832  20.877  17.392  1.00  0.00    -0.550 OA
ENDBRANCH   8   9
ENDBRANCH   7   8
ENDBRANCH   6   7
ENDBRANCH   5   6
ENDBRANCH   4   5
ENDBRANCH   3   4
ENDBRANCH   2   3
ENDBRANCH   1   2
BRANCH   1  12
ATOM     12  C   UNL     1      14.742  19.885  17.134  1.00  0.00     0.000 C 
BRANCH  12  13
ATOM     13  C   UNL     1      13.678  20.138  18.217  1.00  0.00    -0.000 C 
BRANCH  13  14
ATOM     14  C   UNL     1      14.200  19.875  19.641  1.00  0.00    -0.000 C 
BRANCH  14  15
ATOM     15  C   UNL     1      13.129  19.928  20.745  1.00  0.00    -0.000 C 
BRANCH  15  16
ATOM     16  C   UNL     1      11.746  20.342  20.219  1.00  0.00    -0.000 C 
BRANCH  16  17
ATOM     17  C   UNL     1      10.854  20.848  21.360  1.00  0.00    -0.000 C 
BRANCH  17  18
ATOM     18  C   UNL     1      11.697  21.364  22.531  1.00  0.00    -0.000 C 
BRANCH  18  19
ATOM     19  C   UNL     1      12.364  20.206  23.281  1.00  0.00    -0.003 C 
ATOM     20  C   UNL     1      11.612  19.876  24.568  1.00  0.00     0.004 C 
ENDBRANCH  18  19
ENDBRANCH  17  18
ENDBRANCH  16  17
ENDBRANCH  15  16
ENDBRANCH  14  15
ENDBRANCH  13  14
ENDBRANCH  12  13
ENDBRANCH   1  12
TORSDOF 16
ENDMDL
MODEL 4
REMARK VINA RESULT:     1.388      1.177      2.250
REMARK INTER + INTRA:           2.631
REMARK INTER:                   2.643
REMARK INTRA:                  -0.012
REMARK UNBOUND:                -0.056
REMARK SMILES CCCCCCCCCCCCCCCCCC(=O)[O-]
REMARK SMILES IDX 10 1 11 2 12 3 13 4 14 5 15 6 16 7 17 8 18 9 19 10 20 11
REMARK SMILES IDX 9 12 8 13 7 14 6 15 5 16 4 17 3 18 2 19 1 20
REMARK H PARENT
REMARK Flexibility Score: inf
ROOT
ATOM      1  C   UNL     1      14.045  22.729  14.614  1.00  0.00     0.000 C 
ENDROOT
BRANCH   1   2
ATOM      2  C   UNL     1      14.648  22.290  15.960  1.00  0.00     0.000 C 
BRANCH   2   3
ATOM      3  C   UNL     1      15.365  20.934  15.871  1.00  0.00     0.000 C 
BRANCH   3   4
ATOM      4  C   UNL     1      14.749  19.875  16.796  1.00  0.00     0.000 C 
BRANCH   4   5
ATOM      5  C   UNL     1      14.371  20.483  18.152  1.00  0.00     0.000 C 
BRANCH   5   6
ATOM      6  C   UNL     1      12.858  20.735  18.241  1.00  0.00     0.000 C 
BRANCH   6   7
ATOM      7  C   UNL     1      12.182  19.924  19.362  1.00  0.00     0.006 C 
BRANCH   7   8
ATOM      8  C   UNL     1      12.937  19.943  20.700  1.00  0.00     0.053 C 
BRANCH   8   9
ATOM      9  C   UNL     1      12.139  20.596  21.786  1.00  0.00     0.041 C 
ATOM     10  O   UNL     1      12.617  21.569  22.427  1.00  0.00    -0.550 OA
ATOM     11  O   UNL     1      10.878  20.110  22.112  1.00  0.00    -0.550 OA
ENDBRANCH   8   9
ENDBRANCH   7   8
ENDBRANCH   6   7
ENDBRANCH   5   6
ENDBRANCH   4   5
ENDBRANCH   3   4
ENDBRANCH   2   3
ENDBRANCH   1   2
BRANCH   1  12
ATOM     12  C   UNL     1      12.509  22.781  14.646  1.00  0.00     0.000 C 
BRANCH  12  13
ATOM     13  C   UNL     1      11.877  21.436  15.049  1.00  0.00    -0.000 C 
BRANCH  13  14
ATOM     14  C   UNL     1      10.438  21.586  15.572  1.00  0.00    -0.000 C 
BRANCH  14  15
ATOM     15  C   UNL     1      10.054  23.009  16.019  1.00  0.00    -0.000 C 
BRANCH  15  16
ATOM     16  C   UNL     1       9.875  23.131  17.539  1.00  0.00    -0.000 C 
BRANCH  16  17
ATOM     17  C   UNL     1      10.223  24.546  18.021  1.00  0.00    -0.000 C 
BRANCH  17  18
ATOM     18  C   UNL     1       9.877  24.722  19.504  1.00  0.00    -0.000 C 
BRANCH  18  19
ATOM     19  C   UNL     1      10.445  23.572  20.342  1.00  0.00    -0.003 C 
ATOM     20  C   UNL     1       9.928  22.223  19.850  1.00  0.00     0.004 C 
ENDBRANCH  18  19
ENDBRANCH  17  18
ENDBRANCH  16  17
ENDBRANCH  15  16
ENDBRANCH  14  15
ENDBRANCH  13  14
ENDBRANCH  12  13
ENDBRANCH   1  12
TORSDOF 16
ENDMDL
MODEL 5
REMARK VINA RESULT:     1.424      3.311      6.328
REMARK INTER + INTRA:           2.700
REMARK INTER:                   2.508
REMARK INTRA:                   0.192
REMARK UNBOUND:                -0.056
REMARK SMILES CCCCCCCCCCCCCCCCCC(=O)[O-]
REMARK SMILES IDX 10 1 11 2 12 3 13 4 14 5 15 6 16 7 17 8 18 9 19 10 20 11
REMARK SMILES IDX 9 12 8 13 7 14 6 15 5 16 4 17 3 18 2 19 1 20
REMARK H PARENT
REMARK Flexibility Score: inf
ROOT
ATOM      1  C   UNL     1      12.543  20.764  20.729  1.00  0.00     0.000 C 
ENDROOT
BRANCH   1   2
ATOM      2  C   UNL     1      11.948  19.876  19.621  1.00  0.00     0.000 C 
BRANCH   2   3
ATOM      3  C   UNL     1      12.390  20.311  18.215  1.00  0.00     0.000 C 
BRANCH   3   4
ATOM      4  C   UNL     1      11.316  20.053  17.149  1.00  0.00     0.000 C 
BRANCH   4   5
ATOM      5  C   UNL     1      10.066  20.901  17.412  1.00  0.00     0.000 C 
BRANCH   5   6
ATOM      6  C   UNL     1      10.426  22.388  17.546  1.00  0.00     0.000 C 
BRANCH   6   7
ATOM      7  C   UNL     1      10.088  23.200  16.283  1.00  0.00     0.006 C 
BRANCH   7   8
ATOM      8  C   UNL     1       9.879  22.350  15.020  1.00  0.00     0.053 C 
BRANCH   8   9
ATOM      9  C   UNL     1      11.096  22.330  14.148  1.00  0.00     0.041 C 
ATOM     10  O   UNL     1      11.240  21.428  13.280  1.00  0.00    -0.550 OA
ATOM     11  O   UNL     1      12.089  23.289  14.315  1.00  0.00    -0.550 OA
ENDBRANCH   8   9
ENDBRANCH   7   8
ENDBRANCH   6   7
ENDBRANCH   5   6
ENDBRANCH   4   5
ENDBRANCH   3   4
ENDBRANCH   2   3
ENDBRANCH   1   2
BRANCH   1  12
ATOM     12  C   UNL     1      13.357  19.960  21.755  1.00  0.00     0.000 C 
BRANCH  12  13
ATOM     13  C   UNL     1      12.664  19.875  23.127  1.00  0.00    -0.000 C 
BRANCH  13  14
ATOM     14  C   UNL     1      11.171  20.242  23.066  1.00  0.00    -0.000 C 
BRANCH  14  15
ATOM     15  C   UNL     1      10.822  21.635  23.623  1.00  0.00    -0.000 C 
BRANCH  15  16
ATOM     16  C   UNL     1      10.319  22.604  22.543  1.00  0.00    -0.000 C 
BRANCH  16  17
ATOM     17  C   UNL     1      11.490  23.335  21.873  1.00  0.00    -0.000 C 
BRANCH  17  18
ATOM     18  C   UNL     1      11.290  23.419  20.356  1.00  0.00    -0.000 C 
BRANCH  18  19
ATOM     19  C   UNL     1       9.875  23.898  20.013  1.00  0.00    -0.003 C 
ATOM     20  C   UNL     1       9.897  25.299  19.408  1.00  0.00     0.004 C 
ENDBRANCH  18  19
ENDBRANCH  17  18
ENDBRANCH  16  17
ENDBRANCH  15  16
ENDBRANCH  14  15
ENDBRANCH  13  14
ENDBRANCH  12  13
ENDBRANCH   1  12
TORSDOF 16
ENDMDL
MODEL 6
REMARK VINA RESULT:     1.450      7.872     11.008
REMARK INTER + INTRA:           2.750
REMARK INTER:                   3.247
REMARK INTRA:                  -0.497
REMARK UNBOUND:                -0.056
REMARK SMILES CCCCCCCCCCCCCCCCCC(=O)[O-]
REMARK SMILES IDX 10 1 11 2 12 3 13 4 14 5 15 6 16 7 17 8 18 9 19 10 20 11
REMARK SMILES IDX 9 12 8 13 7 14 6 15 5 16 4 17 3 18 2 19 1 20
REMARK H PARENT
REMARK Flexibility Score: inf
ROOT
ATOM      1  C   UNL     1      20.179  20.625  15.136  1.00  0.00     0.000 C 
ENDROOT
BRANCH   1   2
ATOM      2  C   UNL     1      19.275  19.875  16.130  1.00  0.00     0.000 C 
BRANCH   2   3
ATOM      3  C   UNL     1      17.799  19.875  15.702  1.00  0.00     0.000 C 
BRANCH   3   4
ATOM      4  C   UNL     1      16.846  20.218  16.856  1.00  0.00     0.000 C 
BRANCH   4   5
ATOM      5  C   UNL     1      15.628  20.999  16.349  1.00  0.00     0.000 C 
BRANCH   5   6
ATOM      6  C   UNL     1      14.354  20.146  16.429  1.00  0.00     0.000 C 
BRANCH   6   7
ATOM      7  C   UNL     1      13.163  20.905  17.040  1.00  0.00     0.006 C 
BRANCH   7   8
ATOM      8  C   UNL     1      12.801  20.471  18.469  1.00  0.00     0.053 C 
BRANCH   8   9
ATOM      9  C   UNL     1      11.332  20.586  18.736  1.00  0.00     0.041 C 
ATOM     10  O   UNL     1      10.550  20.968  17.826  1.00  0.00    -0.550 OA
ATOM     11  O   UNL     1      10.829  20.301  20.001  1.00  0.00    -0.550 OA
ENDBRANCH   8   9
ENDBRANCH   7   8
ENDBRANCH   6   7
ENDBRANCH   5   6
ENDBRANCH   4   5
ENDBRANCH   3   4
ENDBRANCH   2   3
ENDBRANCH   1   2
BRANCH   1  12
ATOM     12  C   UNL     1      21.515  19.905  14.895  1.00  0.00     0.000 C 
BRANCH  12  13
ATOM     13  C   UNL     1      22.628  20.385  15.843  1.00  0.00    -0.000 C 
BRANCH  13  14
ATOM     14  C   UNL     1      24.039  20.114  15.292  1.00  0.00    -0.000 C 
BRANCH  14  15
ATOM     15  C   UNL     1      25.165  20.917  15.969  1.00  0.00    -0.000 C 
BRANCH  15  16
ATOM     16  C   UNL     1      26.426  20.080  16.230  1.00  0.00    -0.000 C 
BRANCH  16  17
ATOM     17  C   UNL     1      27.387  20.148  15.037  1.00  0.00    -0.000 C 
BRANCH  17  18
ATOM     18  C   UNL     1      28.193  21.452  15.053  1.00  0.00    -0.000 C 
BRANCH  18  19
ATOM     19  C   UNL     1      29.035  21.594  13.780  1.00  0.00    -0.003 C 
ATOM     20  C   UNL     1      28.149  21.754  12.547  1.00  0.00     0.004 C 
ENDBRANCH  18  19
ENDBRANCH  17  18
ENDBRANCH  16  17
ENDBRANCH  15  16
ENDBRANCH  14  15
ENDBRANCH  13  14
ENDBRANCH  12  13
ENDBRANCH   1  12
TORSDOF 16
ENDMDL
