MODEL 1
REMARK VINA RESULT:    -4.672      0.000      0.000
REMARK INTER + INTRA:         -10.237
REMARK INTER:                  -8.222
REMARK INTRA:                  -2.014
REMARK UNBOUND:                -2.014
REMARK SMILES CCCCCCCCCCCCCCC(=O)[O-]
REMARK SMILES IDX 9 1 10 2 11 3 12 4 13 5 14 6 15 7 16 8 17 9 8 10 7 11 6 12
REMARK SMILES IDX 5 13 4 14 3 15 2 16 1 17
REMARK H PARENT
REMARK Flexibility Score: inf
ROOT
ATOM      1  C   UNL     1      35.050   5.006   8.442  1.00  0.00     0.000 C 
ENDROOT
BRANCH   1   2
ATOM      2  C   UNL     1      34.790   4.024   9.605  1.00  0.00     0.000 C 
BRANCH   2   3
ATOM      3  C   UNL     1      33.316   4.022  10.046  1.00  0.00     0.000 C 
BRANCH   3   4
ATOM      4  C   UNL     1      32.864   2.665  10.606  1.00  0.00     0.000 C 
BRANCH   4   5
ATOM      5  C   UNL     1      33.189   2.502  12.101  1.00  0.00     0.006 C 
BRANCH   5   6
ATOM      6  C   UNL     1      33.120   3.835  12.856  1.00  0.00     0.053 C 
BRANCH   6   7
ATOM      7  C   UNL     1      33.944   3.810  14.108  1.00  0.00     0.041 C 
ATOM      8  O   UNL     1      34.628   4.814  14.436  1.00  0.00    -0.550 OA
ATOM      9  O   UNL     1      33.930   2.688  14.928  1.00  0.00    -0.550 OA
ENDBRANCH   6   7
ENDBRANCH   5   6
ENDBRANCH   4   5
ENDBRANCH   3   4
ENDBRANCH   2   3
ENDBRANCH   1   2
BRANCH   1  10
ATOM     10  C   UNL     1      33.764   5.599   7.831  1.00  0.00     0.000 C 
BRANCH  10  11
ATOM     11  C   UNL     1      33.664   7.133   7.892  1.00  0.00    -0.000 C 
BRANCH  11  12
ATOM     12  C   UNL     1      34.322   7.723   9.152  1.00  0.00    -0.000 C 
BRANCH  12  13
ATOM     13  C   UNL     1      33.420   7.613  10.392  1.00  0.00    -0.000 C 
BRANCH  13  14
ATOM     14  C   UNL     1      34.211   7.359  11.684  1.00  0.00    -0.000 C 
BRANCH  14  15
ATOM     15  C   UNL     1      35.705   7.650  11.476  1.00  0.00    -0.000 C 
BRANCH  15  16
ATOM     16  C   UNL     1      36.587   6.414  11.713  1.00  0.00    -0.003 C 
ATOM     17  C   UNL     1      37.744   6.314  10.719  1.00  0.00     0.004 C 
ENDBRANCH  15  16
ENDBRANCH  14  15
ENDBRANCH  13  14
ENDBRANCH  12  13
ENDBRANCH  11  12
ENDBRANCH  10  11
ENDBRANCH   1  10
TORSDOF 13
ENDMDL
MODEL 2
REMARK VINA RESULT:    -4.659      1.457      3.027
REMARK INTER + INTRA:         -10.214
REMARK INTER:                  -8.378
REMARK INTRA:                  -1.837
REMARK UNBOUND:                -2.014
REMARK SMILES CCCCCCCCCCCCCCC(=O)[O-]
REMARK SMILES IDX 9 1 10 2 11 3 12 4 13 5 14 6 15 7 16 8 17 9 8 10 7 11 6 12
REMARK SMILES IDX 5 13 4 14 3 15 2 16 1 17
REMARK H PARENT
REMARK Flexibility Score: inf
ROOT
ATOM      1  C   UNL     1      35.594   4.580   9.344  1.00  0.00     0.000 C 
ENDROOT
BRANCH   1   2
ATOM      2  C   UNL     1      34.154   4.691   8.796  1.00  0.00     0.000 C 
BRANCH   2   3
ATOM      3  C   UNL     1      33.238   3.582   9.340  1.00  0.00     0.000 C 
BRANCH   3   4
ATOM      4  C   UNL     1      32.610   3.941  10.696  1.00  0.00     0.000 C 
BRANCH   4   5
ATOM      5  C   UNL     1      33.364   3.316  11.882  1.00  0.00     0.006 C 
BRANCH   5   6
ATOM      6  C   UNL     1      33.064   4.037  13.203  1.00  0.00     0.053 C 
BRANCH   6   7
ATOM      7  C   UNL     1      33.756   3.387  14.363  1.00  0.00     0.041 C 
ATOM      8  O   UNL     1      33.530   2.180  14.640  1.00  0.00    -0.550 OA
ATOM      9  O   UNL     1      34.674   4.107  15.118  1.00  0.00    -0.550 OA
ENDBRANCH   6   7
ENDBRANCH   5   6
ENDBRANCH   4   5
ENDBRANCH   3   4
ENDBRANCH   2   3
ENDBRANCH   1   2
BRANCH   1  10
ATOM     10  C   UNL     1      36.244   5.942   9.662  1.00  0.00     0.000 C 
BRANCH  10  11
ATOM     11  C   UNL     1      36.604   6.160  11.142  1.00  0.00    -0.000 C 
BRANCH  11  12
ATOM     12  C   UNL     1      35.384   6.533  12.002  1.00  0.00    -0.000 C 
BRANCH  12  13
ATOM     13  C   UNL     1      34.754   7.871  11.580  1.00  0.00    -0.000 C 
BRANCH  13  14
ATOM     14  C   UNL     1      33.388   7.697  10.897  1.00  0.00    -0.000 C 
BRANCH  14  15
ATOM     15  C   UNL     1      32.291   7.415  11.933  1.00  0.00    -0.000 C 
BRANCH  15  16
ATOM     16  C   UNL     1      32.055   8.599  12.883  1.00  0.00    -0.003 C 
ATOM     17  C   UNL     1      31.364   9.778  12.198  1.00  0.00     0.004 C 
ENDBRANCH  15  16
ENDBRANCH  14  15
ENDBRANCH  13  14
ENDBRANCH  12  13
ENDBRANCH  11  12
ENDBRANCH  10  11
ENDBRANCH   1  10
TORSDOF 13
ENDMDL
MODEL 3
REMARK VINA RESULT:    -4.652      2.923      5.092
REMARK INTER + INTRA:         -10.202
REMARK INTER:                  -8.277
REMARK INTRA:                  -1.924
REMARK UNBOUND:                -2.014
REMARK SMILES CCCCCCCCCCCCCCC(=O)[O-]
REMARK SMILES IDX 9 1 10 2 11 3 12 4 13 5 14 6 15 7 16 8 17 9 8 10 7 11 6 12
REMARK SMILES IDX 5 13 4 14 3 15 2 16 1 17
REMARK H PARENT
REMARK Flexibility Score: inf
ROOT
ATOM      1  C   UNL     1      32.732   5.035  13.367  1.00  0.00     0.000 C 
ENDROOT
BRANCH   1   2
ATOM      2  C   UNL     1      32.133   4.349  12.120  1.00  0.00     0.000 C 
BRANCH   2   3
ATOM      3  C   UNL     1      33.215   3.698  11.240  1.00  0.00     0.000 C 
BRANCH   3   4
ATOM      4  C   UNL     1      33.380   4.401   9.884  1.00  0.00     0.000 C 
BRANCH   4   5
ATOM      5  C   UNL     1      34.836   4.393   9.386  1.00  0.00     0.006 C 
BRANCH   5   6
ATOM      6  C   UNL     1      34.964   4.952   7.963  1.00  0.00     0.053 C 
BRANCH   6   7
ATOM      7  C   UNL     1      33.844   5.889   7.629  1.00  0.00     0.041 C 
ATOM      8  O   UNL     1      33.829   7.054   8.104  1.00  0.00    -0.550 OA
ATOM      9  O   UNL     1      32.832   5.484   6.767  1.00  0.00    -0.550 OA
ENDBRANCH   6   7
ENDBRANCH   5   6
ENDBRANCH   4   5
ENDBRANCH   3   4
ENDBRANCH   2   3
ENDBRANCH   1   2
BRANCH   1  10
ATOM     10  C   UNL     1      34.241   4.778  13.553  1.00  0.00     0.000 C 
BRANCH  10  11
ATOM     11  C   UNL     1      35.118   6.042  13.562  1.00  0.00    -0.000 C 
BRANCH  11  12
ATOM     12  C   UNL     1      35.875   6.248  12.238  1.00  0.00    -0.000 C 
BRANCH  12  13
ATOM     13  C   UNL     1      35.267   7.370  11.381  1.00  0.00    -0.000 C 
BRANCH  13  14
ATOM     14  C   UNL     1      34.182   8.165  12.123  1.00  0.00    -0.000 C 
BRANCH  14  15
ATOM     15  C   UNL     1      32.839   8.083  11.381  1.00  0.00    -0.000 C 
BRANCH  15  16
ATOM     16  C   UNL     1      31.651   8.496  12.263  1.00  0.00    -0.003 C 
ATOM     17  C   UNL     1      31.359   9.994  12.199  1.00  0.00     0.004 C 
ENDBRANCH  15  16
ENDBRANCH  14  15
ENDBRANCH  13  14
ENDBRANCH  12  13
ENDBRANCH  11  12
ENDBRANCH  10  11
ENDBRANCH   1  10
TORSDOF 13
ENDMDL
MODEL 4
REMARK VINA RESULT:    -4.610      2.212      4.421
REMARK INTER + INTRA:         -10.128
REMARK INTER:                  -8.133
REMARK INTRA:                  -1.995
REMARK UNBOUND:                -2.014
REMARK SMILES CCCCCCCCCCCCCCC(=O)[O-]
REMARK SMILES IDX 9 1 10 2 11 3 12 4 13 5 14 6 15 7 16 8 17 9 8 10 7 11 6 12
REMARK SMILES IDX 5 13 4 14 3 15 2 16 1 17
REMARK H PARENT
REMARK Flexibility Score: inf
ROOT
ATOM      1  C   UNL     1      35.857   4.495   9.287  1.00  0.00     0.000 C 
ENDROOT
BRANCH   1   2
ATOM      2  C   UNL     1      36.694   5.547  10.045  1.00  0.00     0.000 C 
BRANCH   2   3
ATOM      3  C   UNL     1      35.936   6.138  11.246  1.00  0.00     0.000 C 
BRANCH   3   4
ATOM      4  C   UNL     1      35.497   7.592  11.016  1.00  0.00     0.000 C 
BRANCH   4   5
ATOM      5  C   UNL     1      33.967   7.751  10.981  1.00  0.00     0.006 C 
BRANCH   5   6
ATOM      6  C   UNL     1      33.414   8.324  12.292  1.00  0.00     0.053 C 
BRANCH   6   7
ATOM      7  C   UNL     1      31.919   8.424  12.270  1.00  0.00     0.041 C 
ATOM      8  O   UNL     1      31.360   9.552  12.244  1.00  0.00    -0.550 OA
ATOM      9  O   UNL     1      31.144   7.271  12.247  1.00  0.00    -0.550 OA
ENDBRANCH   6   7
ENDBRANCH   5   6
ENDBRANCH   4   5
ENDBRANCH   3   4
ENDBRANCH   2   3
ENDBRANCH   1   2
BRANCH   1  10
ATOM     10  C   UNL     1      35.075   5.069   8.088  1.00  0.00     0.000 C 
BRANCH  10  11
ATOM     11  C   UNL     1      33.571   5.281   8.335  1.00  0.00    -0.000 C 
BRANCH  11  12
ATOM     12  C   UNL     1      32.756   3.985   8.181  1.00  0.00    -0.000 C 
BRANCH  12  13
ATOM     13  C   UNL     1      32.545   3.259   9.521  1.00  0.00    -0.000 C 
BRANCH  13  14
ATOM     14  C   UNL     1      32.472   4.223  10.715  1.00  0.00    -0.000 C 
BRANCH  14  15
ATOM     15  C   UNL     1      33.279   3.682  11.904  1.00  0.00    -0.000 C 
BRANCH  15  16
ATOM     16  C   UNL     1      33.162   4.571  13.152  1.00  0.00    -0.003 C 
ATOM     17  C   UNL     1      34.050   4.097  14.302  1.00  0.00     0.004 C 
ENDBRANCH  15  16
ENDBRANCH  14  15
ENDBRANCH  13  14
ENDBRANCH  12  13
ENDBRANCH  11  12
ENDBRANCH  10  11
ENDBRANCH   1  10
TORSDOF 13
ENDMDL
MODEL 5
REMARK VINA RESULT:    -4.596      1.051      2.132
REMARK INTER + INTRA:         -10.102
REMARK INTER:                  -8.483
REMARK INTRA:                  -1.619
REMARK UNBOUND:                -2.014
REMARK SMILES CCCCCCCCCCCCCCC(=O)[O-]
REMARK SMILES IDX 9 1 10 2 11 3 12 4 13 5 14 6 15 7 16 8 17 9 8 10 7 11 6 12
REMARK SMILES IDX 5 13 4 14 3 15 2 16 1 17
REMARK H PARENT
REMARK Flexibility Score: inf
ROOT
ATOM      1  C   UNL     1      33.656   6.422   8.383  1.00  0.00     0.000 C 
ENDROOT
BRANCH   1   2
ATOM      2  C   UNL     1      34.725   5.332   8.153  1.00  0.00     0.000 C 
BRANCH   2   3
ATOM      3  C   UNL     1      34.611   4.183   9.169  1.00  0.00     0.000 C 
BRANCH   3   4
ATOM      4  C   UNL     1      33.191   4.028   9.735  1.00  0.00     0.000 C 
BRANCH   4   5
ATOM      5  C   UNL     1      33.180   3.452  11.162  1.00  0.00     0.006 C 
BRANCH   5   6
ATOM      6  C   UNL     1      33.027   4.546  12.226  1.00  0.00     0.053 C 
BRANCH   6   7
ATOM      7  C   UNL     1      33.720   4.183  13.504  1.00  0.00     0.041 C 
ATOM      8  O   UNL     1      34.475   5.014  14.074  1.00  0.00    -0.550 OA
ATOM      9  O   UNL     1      33.508   2.937  14.081  1.00  0.00    -0.550 OA
ENDBRANCH   6   7
ENDBRANCH   5   6
ENDBRANCH   4   5
ENDBRANCH   3   4
ENDBRANCH   2   3
ENDBRANCH   1   2
BRANCH   1  10
ATOM     10  C   UNL     1      34.155   7.612   9.228  1.00  0.00     0.000 C 
BRANCH  10  11
ATOM     11  C   UNL     1      33.630   7.646  10.674  1.00  0.00    -0.000 C 
BRANCH  11  12
ATOM     12  C   UNL     1      34.754   7.816  11.711  1.00  0.00    -0.000 C 
BRANCH  12  13
ATOM     13  C   UNL     1      36.153   7.653  11.094  1.00  0.00    -0.000 C 
BRANCH  13  14
ATOM     14  C   UNL     1      36.651   6.200  11.123  1.00  0.00    -0.000 C 
BRANCH  14  15
ATOM     15  C   UNL     1      38.173   6.139  10.926  1.00  0.00    -0.000 C 
BRANCH  15  16
ATOM     16  C   UNL     1      38.927   7.121  11.837  1.00  0.00    -0.003 C 
ATOM     17  C   UNL     1      40.445   6.980  11.729  1.00  0.00     0.004 C 
ENDBRANCH  15  16
ENDBRANCH  14  15
ENDBRANCH  13  14
ENDBRANCH  12  13
ENDBRANCH  11  12
ENDBRANCH  10  11
ENDBRANCH   1  10
TORSDOF 13
ENDMDL
MODEL 6
REMARK VINA RESULT:    -4.549      2.243      5.006
REMARK INTER + INTRA:         -10.021
REMARK INTER:                  -8.137
REMARK INTRA:                  -1.884
REMARK UNBOUND:                -2.014
REMARK SMILES CCCCCCCCCCCCCCC(=O)[O-]
REMARK SMILES IDX 9 1 10 2 11 3 12 4 13 5 14 6 15 7 16 8 17 9 8 10 7 11 6 12
REMARK SMILES IDX 5 13 4 14 3 15 2 16 1 17
REMARK H PARENT
REMARK Flexibility Score: inf
ROOT
ATOM      1  C   UNL     1      33.094   4.399  13.326  1.00  0.00     0.000 C 
ENDROOT
BRANCH   1   2
ATOM      2  C   UNL     1      34.351   4.722  14.162  1.00  0.00     0.000 C 
BRANCH   2   3
ATOM      3  C   UNL     1      35.164   5.884  13.565  1.00  0.00     0.000 C 
BRANCH   3   4
ATOM      4  C   UNL     1      34.770   6.200  12.114  1.00  0.00     0.000 C 
BRANCH   4   5
ATOM      5  C   UNL     1      34.605   7.709  11.860  1.00  0.00     0.006 C 
BRANCH   5   6
ATOM      6  C   UNL     1      33.248   8.044  11.228  1.00  0.00     0.053 C 
BRANCH   6   7
ATOM      7  C   UNL     1      32.320   8.692  12.211  1.00  0.00     0.041 C 
ATOM      8  O   UNL     1      32.084   8.140  13.317  1.00  0.00    -0.550 OA
ATOM      9  O   UNL     1      31.741   9.920  11.916  1.00  0.00    -0.550 OA
ENDBRANCH   6   7
ENDBRANCH   5   6
ENDBRANCH   4   5
ENDBRANCH   3   4
ENDBRANCH   2   3
ENDBRANCH   1   2
BRANCH   1  10
ATOM     10  C   UNL     1      32.998   2.922  12.894  1.00  0.00     0.000 C 
BRANCH  10  11
ATOM     11  C   UNL     1      33.274   2.662  11.403  1.00  0.00    -0.000 C 
BRANCH  11  12
ATOM     12  C   UNL     1      32.601   3.696  10.484  1.00  0.00    -0.000 C 
BRANCH  12  13
ATOM     13  C   UNL     1      32.434   3.184   9.044  1.00  0.00    -0.000 C 
BRANCH  13  14
ATOM     14  C   UNL     1      33.109   4.095   8.006  1.00  0.00    -0.000 C 
BRANCH  14  15
ATOM     15  C   UNL     1      33.601   5.396   8.658  1.00  0.00    -0.000 C 
BRANCH  15  16
ATOM     16  C   UNL     1      35.115   5.601   8.497  1.00  0.00    -0.003 C 
ATOM     17  C   UNL     1      35.936   4.492   9.155  1.00  0.00     0.004 C 
ENDBRANCH  15  16
ENDBRANCH  14  15
ENDBRANCH  13  14
ENDBRANCH  12  13
ENDBRANCH  11  12
ENDBRANCH  10  11
ENDBRANCH   1  10
TORSDOF 13
ENDMDL
MODEL 7
REMARK VINA RESULT:    -4.532      3.434      4.785
REMARK INTER + INTRA:          -9.991
REMARK INTER:                  -7.891
REMARK INTRA:                  -2.099
REMARK UNBOUND:                -2.014
REMARK SMILES CCCCCCCCCCCCCCC(=O)[O-]
REMARK SMILES IDX 9 1 10 2 11 3 12 4 13 5 14 6 15 7 16 8 17 9 8 10 7 11 6 12
REMARK SMILES IDX 5 13 4 14 3 15 2 16 1 17
REMARK H PARENT
REMARK Flexibility Score: inf
ROOT
ATOM      1  C   UNL     1      32.592   5.093  13.104  1.00  0.00     0.000 C 
ENDROOT
BRANCH   1   2
ATOM      2  C   UNL     1      33.290   3.951  12.333  1.00  0.00     0.000 C 
BRANCH   2   3
ATOM      3  C   UNL     1      32.800   3.848  10.878  1.00  0.00     0.000 C 
BRANCH   3   4
ATOM      4  C   UNL     1      33.951   3.877   9.860  1.00  0.00     0.000 C 
BRANCH   4   5
ATOM      5  C   UNL     1      33.554   4.551   8.535  1.00  0.00     0.006 C 
BRANCH   5   6
ATOM      6  C   UNL     1      32.473   3.762   7.785  1.00  0.00     0.053 C 
BRANCH   6   7
ATOM      7  C   UNL     1      32.315   4.238   6.372  1.00  0.00     0.041 C 
ATOM      8  O   UNL     1      31.723   3.520   5.525  1.00  0.00    -0.550 OA
ATOM      9  O   UNL     1      32.795   5.488   6.001  1.00  0.00    -0.550 OA
ENDBRANCH   6   7
ENDBRANCH   5   6
ENDBRANCH   4   5
ENDBRANCH   3   4
ENDBRANCH   2   3
ENDBRANCH   1   2
BRANCH   1  10
ATOM     10  C   UNL     1      31.657   5.952  12.229  1.00  0.00     0.000 C 
BRANCH  10  11
ATOM     11  C   UNL     1      31.701   7.462  12.520  1.00  0.00    -0.000 C 
BRANCH  11  12
ATOM     12  C   UNL     1      33.030   8.111  12.095  1.00  0.00    -0.000 C 
BRANCH  12  13
ATOM     13  C   UNL     1      33.387   7.813  10.629  1.00  0.00    -0.000 C 
BRANCH  13  14
ATOM     14  C   UNL     1      34.869   7.455  10.439  1.00  0.00    -0.000 C 
BRANCH  14  15
ATOM     15  C   UNL     1      35.492   6.980  11.760  1.00  0.00    -0.000 C 
BRANCH  15  16
ATOM     16  C   UNL     1      36.927   6.460  11.584  1.00  0.00    -0.003 C 
ATOM     17  C   UNL     1      37.178   5.875  10.195  1.00  0.00     0.004 C 
ENDBRANCH  15  16
ENDBRANCH  14  15
ENDBRANCH  13  14
ENDBRANCH  12  13
ENDBRANCH  11  12
ENDBRANCH  10  11
ENDBRANCH   1  10
TORSDOF 13
ENDMDL
MODEL 8
REMARK VINA RESULT:    -4.486      2.479      5.359
REMARK INTER + INTRA:          -9.910
REMARK INTER:                  -8.048
REMARK INTRA:                  -1.862
REMARK UNBOUND:                -2.014
REMARK SMILES CCCCCCCCCCCCCCC(=O)[O-]
REMARK SMILES IDX 9 1 10 2 11 3 12 4 13 5 14 6 15 7 16 8 17 9 8 10 7 11 6 12
REMARK SMILES IDX 5 13 4 14 3 15 2 16 1 17
REMARK H PARENT
REMARK Flexibility Score: inf
ROOT
ATOM      1  C   UNL     1      31.636   7.357  12.357  1.00  0.00     0.000 C 
ENDROOT
BRANCH   1   2
ATOM      2  C   UNL     1      33.031   7.930  12.028  1.00  0.00     0.000 C 
BRANCH   2   3
ATOM      3  C   UNL     1      33.344   7.870  10.523  1.00  0.00     0.000 C 
BRANCH   3   4
ATOM      4  C   UNL     1      34.782   7.413  10.232  1.00  0.00     0.000 C 
BRANCH   4   5
ATOM      5  C   UNL     1      35.704   7.544  11.457  1.00  0.00     0.006 C 
BRANCH   5   6
ATOM      6  C   UNL     1      36.705   6.385  11.555  1.00  0.00     0.053 C 
BRANCH   6   7
ATOM      7  C   UNL     1      38.042   6.752  10.985  1.00  0.00     0.041 C 
ATOM      8  O   UNL     1      38.155   7.029   9.763  1.00  0.00    -0.550 OA
ATOM      9  O   UNL     1      39.156   6.818  11.813  1.00  0.00    -0.550 OA
ENDBRANCH   6   7
ENDBRANCH   5   6
ENDBRANCH   4   5
ENDBRANCH   3   4
ENDBRANCH   2   3
ENDBRANCH   1   2
BRANCH   1  10
ATOM     10  C   UNL     1      31.573   5.816  12.318  1.00  0.00     0.000 C 
BRANCH  10  11
ATOM     11  C   UNL     1      32.709   5.101  13.071  1.00  0.00    -0.000 C 
BRANCH  11  12
ATOM     12  C   UNL     1      33.261   3.889  12.300  1.00  0.00    -0.000 C 
BRANCH  12  13
ATOM     13  C   UNL     1      33.377   4.154  10.790  1.00  0.00    -0.000 C 
BRANCH  13  14
ATOM     14  C   UNL     1      32.566   3.159   9.947  1.00  0.00    -0.000 C 
BRANCH  14  15
ATOM     15  C   UNL     1      32.855   3.347   8.450  1.00  0.00    -0.000 C 
BRANCH  15  16
ATOM     16  C   UNL     1      33.915   4.427   8.184  1.00  0.00    -0.003 C 
ATOM     17  C   UNL     1      33.380   5.585   7.341  1.00  0.00     0.004 C 
ENDBRANCH  15  16
ENDBRANCH  14  15
ENDBRANCH  13  14
ENDBRANCH  12  13
ENDBRANCH  11  12
ENDBRANCH  10  11
ENDBRANCH   1  10
TORSDOF 13
ENDMDL
MODEL 9
REMARK VINA RESULT:    -4.437      2.434      4.621
REMARK INTER + INTRA:          -9.823
REMARK INTER:                  -8.034
REMARK INTRA:                  -1.789
REMARK UNBOUND:                -2.014
REMARK SMILES CCCCCCCCCCCCCCC(=O)[O-]
REMARK SMILES IDX 9 1 10 2 11 3 12 4 13 5 14 6 15 7 16 8 17 9 8 10 7 11 6 12
REMARK SMILES IDX 5 13 4 14 3 15 2 16 1 17
REMARK H PARENT
REMARK Flexibility Score: inf
ROOT
ATOM      1  C   UNL     1      33.213   3.205   9.122  1.00  0.00     0.000 C 
ENDROOT
BRANCH   1   2
ATOM      2  C   UNL     1      32.523   4.350   8.348  1.00  0.00     0.000 C 
BRANCH   2   3
ATOM      3  C   UNL     1      33.535   5.356   7.773  1.00  0.00     0.000 C 
BRANCH   3   4
ATOM      4  C   UNL     1      34.973   5.085   8.241  1.00  0.00     0.000 C 
BRANCH   4   5
ATOM      5  C   UNL     1      35.474   6.129   9.254  1.00  0.00     0.006 C 
BRANCH   5   6
ATOM      6  C   UNL     1      36.676   5.622  10.062  1.00  0.00     0.053 C 
BRANCH   6   7
ATOM      7  C   UNL     1      37.314   6.719  10.859  1.00  0.00     0.041 C 
ATOM      8  O   UNL     1      38.524   6.635  11.196  1.00  0.00    -0.550 OA
ATOM      9  O   UNL     1      36.579   7.847  11.204  1.00  0.00    -0.550 OA
ENDBRANCH   6   7
ENDBRANCH   5   6
ENDBRANCH   4   5
ENDBRANCH   3   4
ENDBRANCH   2   3
ENDBRANCH   1   2
BRANCH   1  10
ATOM     10  C   UNL     1      32.809   3.129  10.608  1.00  0.00     0.000 C 
BRANCH  10  11
ATOM     11  C   UNL     1      32.600   4.490  11.295  1.00  0.00    -0.000 C 
BRANCH  11  12
ATOM     12  C   UNL     1      33.733   4.841  12.275  1.00  0.00    -0.000 C 
BRANCH  12  13
ATOM     13  C   UNL     1      33.740   6.330  12.657  1.00  0.00    -0.000 C 
BRANCH  13  14
ATOM     14  C   UNL     1      32.992   7.209  11.643  1.00  0.00    -0.000 C 
BRANCH  14  15
ATOM     15  C   UNL     1      32.823   8.639  12.178  1.00  0.00    -0.000 C 
BRANCH  15  16
ATOM     16  C   UNL     1      31.353   9.085  12.216  1.00  0.00    -0.003 C 
ATOM     17  C   UNL     1      31.196  10.605  12.196  1.00  0.00     0.004 C 
ENDBRANCH  15  16
ENDBRANCH  14  15
ENDBRANCH  13  14
ENDBRANCH  12  13
ENDBRANCH  11  12
ENDBRANCH  10  11
ENDBRANCH   1  10
TORSDOF 13
ENDMDL
