MODEL 1
REMARK VINA RESULT:    -3.192      0.000      0.000
REMARK INTER + INTRA:          -4.499
REMARK INTER:                  -4.312
REMARK INTRA:                  -0.187
REMARK UNBOUND:                -0.187
REMARK SMILES CCCCCCCC(=O)[O-]
REMARK SMILES IDX 5 1 6 2 7 3 8 4 9 5 10 6 4 7 3 8 2 9 1 10
REMARK H PARENT
REMARK Flexibility Score: inf
ROOT
ATOM      1  C   UNL     1      44.029  33.000  49.692  1.00  0.00     0.000 C 
ENDROOT
BRANCH   1   2
ATOM      2  C   UNL     1      45.212  32.300  49.013  1.00  0.00     0.006 C 
BRANCH   2   3
ATOM      3  C   UNL     1      45.427  30.898  49.589  1.00  0.00     0.053 C 
BRANCH   3   4
ATOM      4  C   UNL     1      45.089  29.855  48.570  1.00  0.00     0.041 C 
ATOM      5  O   UNL     1      44.730  28.706  48.935  1.00  0.00    -0.550 OA
ATOM      6  O   UNL     1      45.123  30.169  47.217  1.00  0.00    -0.550 OA
ENDBRANCH   3   4
ENDBRANCH   2   3
ENDBRANCH   1   2
BRANCH   1   7
ATOM      7  C   UNL     1      43.239  33.848  48.688  1.00  0.00     0.000 C 
BRANCH   7   8
ATOM      8  C   UNL     1      42.405  34.917  49.409  1.00  0.00    -0.000 C 
BRANCH   8   9
ATOM      9  C   UNL     1      41.151  35.320  48.617  1.00  0.00    -0.003 C 
ATOM     10  C   UNL     1      41.095  34.678  47.231  1.00  0.00     0.004 C 
ENDBRANCH   8   9
ENDBRANCH   7   8
ENDBRANCH   1   7
TORSDOF 6
ENDMDL
MODEL 2
REMARK VINA RESULT:    -3.173      2.944      5.557
REMARK INTER + INTRA:          -4.473
REMARK INTER:                  -4.192
REMARK INTRA:                  -0.280
REMARK UNBOUND:                -0.187
REMARK SMILES CCCCCCCC(=O)[O-]
REMARK SMILES IDX 5 1 6 2 7 3 8 4 9 5 10 6 4 7 3 8 2 9 1 10
REMARK H PARENT
REMARK Flexibility Score: inf
ROOT
ATOM      1  C   UNL     1      45.257  33.240  49.105  1.00  0.00     0.000 C 
ENDROOT
BRANCH   1   2
ATOM      2  C   UNL     1      43.925  33.150  49.860  1.00  0.00     0.006 C 
BRANCH   2   3
ATOM      3  C   UNL     1      43.344  34.543  50.117  1.00  0.00     0.053 C 
BRANCH   3   4
ATOM      4  C   UNL     1      42.472  34.966  48.977  1.00  0.00     0.041 C 
ATOM      5  O   UNL     1      41.598  34.181  48.524  1.00  0.00    -0.550 OA
ATOM      6  O   UNL     1      42.591  36.244  48.447  1.00  0.00    -0.550 OA
ENDBRANCH   3   4
ENDBRANCH   2   3
ENDBRANCH   1   2
BRANCH   1   7
ATOM      7  C   UNL     1      46.140  32.021  49.397  1.00  0.00     0.000 C 
BRANCH   7   8
ATOM      8  C   UNL     1      45.353  30.715  49.212  1.00  0.00    -0.000 C 
BRANCH   8   9
ATOM      9  C   UNL     1      45.794  29.617  50.192  1.00  0.00    -0.003 C 
ATOM     10  C   UNL     1      47.180  29.873  50.782  1.00  0.00     0.004 C 
ENDBRANCH   8   9
ENDBRANCH   7   8
ENDBRANCH   1   7
TORSDOF 6
ENDMDL
MODEL 3
REMARK VINA RESULT:    -3.168      1.665      2.023
REMARK INTER + INTRA:          -4.466
REMARK INTER:                  -4.274
REMARK INTRA:                  -0.193
REMARK UNBOUND:                -0.187
REMARK SMILES CCCCCCCC(=O)[O-]
REMARK SMILES IDX 5 1 6 2 7 3 8 4 9 5 10 6 4 7 3 8 2 9 1 10
REMARK H PARENT
REMARK Flexibility Score: inf
ROOT
ATOM      1  C   UNL     1      43.972  32.978  49.113  1.00  0.00     0.000 C 
ENDROOT
BRANCH   1   2
ATOM      2  C   UNL     1      45.364  32.405  49.405  1.00  0.00     0.006 C 
BRANCH   2   3
ATOM      3  C   UNL     1      45.337  30.874  49.423  1.00  0.00     0.053 C 
BRANCH   3   4
ATOM      4  C   UNL     1      46.450  30.340  50.267  1.00  0.00     0.041 C 
ATOM      5  O   UNL     1      47.460  31.052  50.507  1.00  0.00    -0.550 OA
ATOM      6  O   UNL     1      46.350  29.074  50.831  1.00  0.00    -0.550 OA
ENDBRANCH   3   4
ENDBRANCH   2   3
ENDBRANCH   1   2
BRANCH   1   7
ATOM      7  C   UNL     1      43.625  34.111  50.085  1.00  0.00     0.000 C 
BRANCH   7   8
ATOM      8  C   UNL     1      42.525  35.014  49.508  1.00  0.00    -0.000 C 
BRANCH   8   9
ATOM      9  C   UNL     1      41.716  34.322  48.399  1.00  0.00    -0.003 C 
ATOM     10  C   UNL     1      40.801  35.286  47.645  1.00  0.00     0.004 C 
ENDBRANCH   8   9
ENDBRANCH   7   8
ENDBRANCH   1   7
TORSDOF 6
ENDMDL
MODEL 4
REMARK VINA RESULT:    -3.105      3.034      5.387
REMARK INTER + INTRA:          -4.381
REMARK INTER:                  -4.155
REMARK INTRA:                  -0.226
REMARK UNBOUND:                -0.187
REMARK SMILES CCCCCCCC(=O)[O-]
REMARK SMILES IDX 5 1 6 2 7 3 8 4 9 5 10 6 4 7 3 8 2 9 1 10
REMARK H PARENT
REMARK Flexibility Score: inf
ROOT
ATOM      1  C   UNL     1      43.146  34.761  50.220  1.00  0.00     0.000 C 
ENDROOT
BRANCH   1   2
ATOM      2  C   UNL     1      42.591  35.503  48.997  1.00  0.00     0.006 C 
BRANCH   2   3
ATOM      3  C   UNL     1      41.150  35.078  48.702  1.00  0.00     0.053 C 
BRANCH   3   4
ATOM      4  C   UNL     1      40.898  35.071  47.227  1.00  0.00     0.041 C 
ATOM      5  O   UNL     1      40.508  36.118  46.647  1.00  0.00    -0.550 OA
ATOM      6  O   UNL     1      41.141  33.922  46.486  1.00  0.00    -0.550 OA
ENDBRANCH   3   4
ENDBRANCH   2   3
ENDBRANCH   1   2
BRANCH   1   7
ATOM      7  C   UNL     1      43.711  33.392  49.825  1.00  0.00     0.000 C 
BRANCH   7   8
ATOM      8  C   UNL     1      44.969  33.547  48.957  1.00  0.00    -0.000 C 
BRANCH   8   9
ATOM      9  C   UNL     1      45.945  32.371  49.118  1.00  0.00    -0.003 C 
ATOM     10  C   UNL     1      45.236  31.046  49.393  1.00  0.00     0.004 C 
ENDBRANCH   8   9
ENDBRANCH   7   8
ENDBRANCH   1   7
TORSDOF 6
ENDMDL
MODEL 5
REMARK VINA RESULT:    -3.095      0.801      1.437
REMARK INTER + INTRA:          -4.368
REMARK INTER:                  -4.140
REMARK INTRA:                  -0.228
REMARK UNBOUND:                -0.187
REMARK SMILES CCCCCCCC(=O)[O-]
REMARK SMILES IDX 5 1 6 2 7 3 8 4 9 5 10 6 4 7 3 8 2 9 1 10
REMARK H PARENT
REMARK Flexibility Score: inf
ROOT
ATOM      1  C   UNL     1      43.315  33.784  48.740  1.00  0.00     0.000 C 
ENDROOT
BRANCH   1   2
ATOM      2  C   UNL     1      44.141  32.981  49.751  1.00  0.00     0.006 C 
BRANCH   2   3
ATOM      3  C   UNL     1      45.426  32.448  49.112  1.00  0.00     0.053 C 
BRANCH   3   4
ATOM      4  C   UNL     1      45.321  30.975  48.874  1.00  0.00     0.041 C 
ATOM      5  O   UNL     1      45.442  30.168  49.833  1.00  0.00    -0.550 OA
ATOM      6  O   UNL     1      45.040  30.494  47.601  1.00  0.00    -0.550 OA
ENDBRANCH   3   4
ENDBRANCH   2   3
ENDBRANCH   1   2
BRANCH   1   7
ATOM      7  C   UNL     1      42.496  34.876  49.439  1.00  0.00     0.000 C 
BRANCH   7   8
ATOM      8  C   UNL     1      41.229  35.211  48.638  1.00  0.00    -0.000 C 
BRANCH   8   9
ATOM      9  C   UNL     1      41.235  34.583  47.235  1.00  0.00    -0.003 C 
ATOM     10  C   UNL     1      40.627  35.499  46.174  1.00  0.00     0.004 C 
ENDBRANCH   8   9
ENDBRANCH   7   8
ENDBRANCH   1   7
TORSDOF 6
ENDMDL
MODEL 6
REMARK VINA RESULT:    -3.045      2.942      5.557
REMARK INTER + INTRA:          -4.300
REMARK INTER:                  -4.102
REMARK INTRA:                  -0.198
REMARK UNBOUND:                -0.187
REMARK SMILES CCCCCCCC(=O)[O-]
REMARK SMILES IDX 5 1 6 2 7 3 8 4 9 5 10 6 4 7 3 8 2 9 1 10
REMARK H PARENT
REMARK Flexibility Score: inf
ROOT
ATOM      1  C   UNL     1      44.989  31.553  48.876  1.00  0.00     0.000 C 
ENDROOT
BRANCH   1   2
ATOM      2  C   UNL     1      44.292  32.651  49.688  1.00  0.00     0.006 C 
BRANCH   2   3
ATOM      3  C   UNL     1      43.929  33.846  48.801  1.00  0.00     0.053 C 
BRANCH   3   4
ATOM      4  C   UNL     1      42.662  34.484  49.274  1.00  0.00     0.041 C 
ATOM      5  O   UNL     1      41.597  34.338  48.620  1.00  0.00    -0.550 OA
ATOM      6  O   UNL     1      42.646  35.198  50.466  1.00  0.00    -0.550 OA
ENDBRANCH   3   4
ENDBRANCH   2   3
ENDBRANCH   1   2
BRANCH   1   7
ATOM      7  C   UNL     1      45.868  30.676  49.775  1.00  0.00     0.000 C 
BRANCH   7   8
ATOM      8  C   UNL     1      45.416  29.209  49.723  1.00  0.00    -0.000 C 
BRANCH   8   9
ATOM      9  C   UNL     1      44.900  28.800  48.335  1.00  0.00    -0.003 C 
ATOM     10  C   UNL     1      44.268  27.408  48.326  1.00  0.00     0.004 C 
ENDBRANCH   8   9
ENDBRANCH   7   8
ENDBRANCH   1   7
TORSDOF 6
ENDMDL
MODEL 7
REMARK VINA RESULT:    -2.992      2.139      2.631
REMARK INTER + INTRA:          -4.229
REMARK INTER:                  -3.986
REMARK INTRA:                  -0.243
REMARK UNBOUND:                -0.187
REMARK SMILES CCCCCCCC(=O)[O-]
REMARK SMILES IDX 5 1 6 2 7 3 8 4 9 5 10 6 4 7 3 8 2 9 1 10
REMARK H PARENT
REMARK Flexibility Score: inf
ROOT
ATOM      1  C   UNL     1      44.649  32.280  49.641  1.00  0.00     0.000 C 
ENDROOT
BRANCH   1   2
ATOM      2  C   UNL     1      45.829  31.383  49.246  1.00  0.00     0.006 C 
BRANCH   2   3
ATOM      3  C   UNL     1      45.553  29.920  49.605  1.00  0.00     0.053 C 
BRANCH   3   4
ATOM      4  C   UNL     1      46.503  29.452  50.661  1.00  0.00     0.041 C 
ATOM      5  O   UNL     1      46.375  28.305  51.165  1.00  0.00    -0.550 OA
ATOM      6  O   UNL     1      47.562  30.262  51.054  1.00  0.00    -0.550 OA
ENDBRANCH   3   4
ENDBRANCH   2   3
ENDBRANCH   1   2
BRANCH   1   7
ATOM      7  C   UNL     1      44.149  33.093  48.441  1.00  0.00     0.000 C 
BRANCH   7   8
ATOM      8  C   UNL     1      43.100  34.127  48.878  1.00  0.00    -0.000 C 
BRANCH   8   9
ATOM      9  C   UNL     1      43.243  34.524  50.356  1.00  0.00    -0.003 C 
ATOM     10  C   UNL     1      43.867  35.907  50.540  1.00  0.00     0.004 C 
ENDBRANCH   8   9
ENDBRANCH   7   8
ENDBRANCH   1   7
TORSDOF 6
ENDMDL
MODEL 8
REMARK VINA RESULT:    -2.969      1.521      2.589
REMARK INTER + INTRA:          -4.198
REMARK INTER:                  -3.803
REMARK INTRA:                  -0.395
REMARK UNBOUND:                -0.187
REMARK SMILES CCCCCCCC(=O)[O-]
REMARK SMILES IDX 5 1 6 2 7 3 8 4 9 5 10 6 4 7 3 8 2 9 1 10
REMARK H PARENT
REMARK Flexibility Score: inf
ROOT
ATOM      1  C   UNL     1      46.552  31.737  49.610  1.00  0.00     0.000 C 
ENDROOT
BRANCH   1   2
ATOM      2  C   UNL     1      45.678  30.568  50.080  1.00  0.00     0.006 C 
BRANCH   2   3
ATOM      3  C   UNL     1      46.083  29.264  49.387  1.00  0.00     0.053 C 
BRANCH   3   4
ATOM      4  C   UNL     1      45.047  28.859  48.386  1.00  0.00     0.041 C 
ATOM      5  O   UNL     1      44.917  29.503  47.313  1.00  0.00    -0.550 OA
ATOM      6  O   UNL     1      44.259  27.738  48.617  1.00  0.00    -0.550 OA
ENDBRANCH   3   4
ENDBRANCH   2   3
ENDBRANCH   1   2
BRANCH   1   7
ATOM      7  C   UNL     1      45.693  32.885  49.067  1.00  0.00     0.000 C 
BRANCH   7   8
ATOM      8  C   UNL     1      44.198  32.566  49.207  1.00  0.00    -0.000 C 
BRANCH   8   9
ATOM      9  C   UNL     1      43.318  33.825  49.154  1.00  0.00    -0.003 C 
ATOM     10  C   UNL     1      43.381  34.645  50.442  1.00  0.00     0.004 C 
ENDBRANCH   8   9
ENDBRANCH   7   8
ENDBRANCH   1   7
TORSDOF 6
ENDMDL
MODEL 9
REMARK VINA RESULT:    -2.913      3.711      5.096
REMARK INTER + INTRA:          -4.121
REMARK INTER:                  -3.580
REMARK INTRA:                  -0.541
REMARK UNBOUND:                -0.187
REMARK SMILES CCCCCCCC(=O)[O-]
REMARK SMILES IDX 5 1 6 2 7 3 8 4 9 5 10 6 4 7 3 8 2 9 1 10
REMARK H PARENT
REMARK Flexibility Score: inf
ROOT
ATOM      1  C   UNL     1      43.839  33.354  46.945  1.00  0.00     0.000 C 
ENDROOT
BRANCH   1   2
ATOM      2  C   UNL     1      42.919  34.370  46.255  1.00  0.00     0.006 C 
BRANCH   2   3
ATOM      3  C   UNL     1      41.448  34.080  46.565  1.00  0.00     0.053 C 
BRANCH   3   4
ATOM      4  C   UNL     1      40.838  35.218  47.322  1.00  0.00     0.041 C 
ATOM      5  O   UNL     1      40.705  35.148  48.572  1.00  0.00    -0.550 OA
ATOM      6  O   UNL     1      40.463  36.376  46.653  1.00  0.00    -0.550 OA
ENDBRANCH   3   4
ENDBRANCH   2   3
ENDBRANCH   1   2
BRANCH   1   7
ATOM      7  C   UNL     1      44.443  33.938  48.227  1.00  0.00     0.000 C 
BRANCH   7   8
ATOM      8  C   UNL     1      43.732  33.383  49.471  1.00  0.00    -0.000 C 
BRANCH   8   9
ATOM      9  C   UNL     1      43.436  34.471  50.515  1.00  0.00    -0.003 C 
ATOM     10  C   UNL     1      43.933  35.852  50.088  1.00  0.00     0.004 C 
ENDBRANCH   8   9
ENDBRANCH   7   8
ENDBRANCH   1   7
TORSDOF 6
ENDMDL
