MODEL 1
REMARK VINA RESULT:    78.071      0.000      0.000
REMARK INTER + INTRA:         114.840
REMARK INTER:                 114.583
REMARK INTRA:                   0.256
REMARK UNBOUND:                 0.256
REMARK SMILES O=c1c(O[C@H]2O[C@H](CO)[C@H](O)[C@H](O)[C@@H]2O)c(-c2ccc(O)c(O)c2)oc2cc(O)cc(O)c12
REMARK SMILES IDX 4 1 3 2 16 3 25 4 2 5 26 6 1 7 33 8 27 9 31 10 28 11 30 12
REMARK SMILES IDX 17 13 18 14 19 15 20 16 24 17 22 18 21 19 23 21 32 23 29 25
REMARK SMILES IDX 5 27 14 28 6 29 12 30 7 31 10 32 15 33 13 35 8 37 9 38 11 40
REMARK H PARENT 21 20 23 22 32 24 29 26 15 34 13 36 9 39 11 41
REMARK Flexibility Score: inf
ROOT
ATOM      1  O   UNL     1     -31.027  27.222 -15.823  1.00  0.00    -0.454 OA
ENDROOT
BRANCH   1   2
ATOM      2  C   UNL     1     -30.939  28.036 -16.954  1.00  0.00     0.214 A 
ATOM      3  C   UNL     1     -30.911  29.432 -16.823  1.00  0.00     0.180 A 
ATOM      4  O   UNL     1     -30.842  30.200 -17.905  1.00  0.00    -0.452 OA
ATOM      5  C   UNL     1     -30.902  27.471 -18.234  1.00  0.00     0.239 A 
ATOM      6  C   UNL     1     -30.792  29.712 -19.138  1.00  0.00     0.146 A 
ATOM      7  O   UNL     1     -30.951  26.218 -18.359  1.00  0.00    -0.285 OA
ATOM      8  C   UNL     1     -30.820  28.315 -19.363  1.00  0.00     0.111 A 
ATOM      9  C   UNL     1     -30.726  30.599 -20.217  1.00  0.00     0.094 A 
ATOM     10  C   UNL     1     -30.790  27.829 -20.692  1.00  0.00     0.134 A 
ATOM     11  C   UNL     1     -30.703  30.116 -21.527  1.00  0.00     0.123 A 
ATOM     12  C   UNL     1     -30.729  28.737 -21.762  1.00  0.00     0.093 A 
BRANCH   3  13
ATOM     13  C   UNL     1     -31.020  30.077 -15.506  1.00  0.00     0.025 A 
ATOM     14  C   UNL     1     -30.314  31.261 -15.265  1.00  0.00     0.016 A 
ATOM     15  C   UNL     1     -30.455  31.927 -14.045  1.00  0.00     0.051 A 
ATOM     16  C   UNL     1     -31.286  31.405 -13.049  1.00  0.00     0.157 A 
ATOM     17  C   UNL     1     -31.856  29.549 -14.507  1.00  0.00     0.062 A 
ATOM     18  C   UNL     1     -31.991  30.211 -13.277  1.00  0.00     0.158 A 
BRANCH  16  19
ATOM     19  O   UNL     1     -31.396  32.088 -11.840  1.00  0.00    -0.504 OA
ATOM     20  H   UNL     1     -30.839  31.851 -11.029  1.00  0.00     0.293 HD
ENDBRANCH  16  19
BRANCH  18  21
ATOM     21  O   UNL     1     -32.825  29.689 -12.291  1.00  0.00    -0.504 OA
ATOM     22  H   UNL     1     -32.447  29.221 -11.476  1.00  0.00     0.293 HD
ENDBRANCH  18  21
ENDBRANCH   3  13
BRANCH  10  23
ATOM     23  O   UNL     1     -30.826  26.460 -20.958  1.00  0.00    -0.507 OA
ATOM     24  H   UNL     1     -30.400  26.068 -21.790  1.00  0.00     0.293 HD
ENDBRANCH  10  23
BRANCH  11  25
ATOM     25  O   UNL     1     -30.650  30.996 -22.603  1.00  0.00    -0.508 OA
ATOM     26  H   UNL     1     -30.767  30.673 -23.557  1.00  0.00     0.293 HD
ENDBRANCH  11  25
ENDBRANCH   1   2
BRANCH   1  27
ATOM     27  C   UNL     1     -29.904  26.944 -14.982  1.00  0.00     0.339 C 
ATOM     28  C   UNL     1     -28.658  26.650 -15.839  1.00  0.00     0.214 C 
ATOM     29  O   UNL     1     -30.187  25.872 -14.093  1.00  0.00    -0.332 OA
ATOM     30  C   UNL     1     -28.825  25.311 -16.586  1.00  0.00     0.180 C 
ATOM     31  C   UNL     1     -30.515  24.688 -14.805  1.00  0.00     0.179 C 
ATOM     32  C   UNL     1     -29.311  24.185 -15.642  1.00  0.00     0.177 C 
BRANCH  28  33
ATOM     33  O   UNL     1     -27.515  26.637 -15.018  1.00  0.00    -0.384 OA
ATOM     34  H   UNL     1     -27.534  27.479 -14.487  1.00  0.00     0.211 HD
ENDBRANCH  28  33
BRANCH  30  35
ATOM     35  O   UNL     1     -27.617  24.954 -17.210  1.00  0.00    -0.387 OA
ATOM     36  H   UNL     1     -27.413  25.668 -17.870  1.00  0.00     0.211 HD
ENDBRANCH  30  35
BRANCH  31  37
ATOM     37  C   UNL     1     -31.041  23.634 -13.822  1.00  0.00     0.191 C 
BRANCH  37  38
ATOM     38  O   UNL     1     -31.749  22.621 -14.487  1.00  0.00    -0.394 OA
ATOM     39  H   UNL     1     -31.415  22.604 -15.422  1.00  0.00     0.210 HD
ENDBRANCH  37  38
ENDBRANCH  31  37
BRANCH  32  40
ATOM     40  O   UNL     1     -28.256  23.708 -14.842  1.00  0.00    -0.387 OA
ATOM     41  H   UNL     1     -27.449  23.614 -15.411  1.00  0.00     0.211 HD
ENDBRANCH  32  40
ENDBRANCH   1  27
TORSDOF 12
ENDMDL
MODEL 2
REMARK VINA RESULT:    80.081      2.259      7.257
REMARK INTER + INTRA:         117.789
REMARK INTER:                 117.760
REMARK INTRA:                   0.029
REMARK UNBOUND:                 0.256
REMARK SMILES O=c1c(O[C@H]2O[C@H](CO)[C@H](O)[C@H](O)[C@@H]2O)c(-c2ccc(O)c(O)c2)oc2cc(O)cc(O)c12
REMARK SMILES IDX 4 1 3 2 16 3 25 4 2 5 26 6 1 7 33 8 27 9 31 10 28 11 30 12
REMARK SMILES IDX 17 13 18 14 19 15 20 16 24 17 22 18 21 19 23 21 32 23 29 25
REMARK SMILES IDX 5 27 14 28 6 29 12 30 7 31 10 32 15 33 13 35 8 37 9 38 11 40
REMARK H PARENT 21 20 23 22 32 24 29 26 15 34 13 36 9 39 11 41
REMARK Flexibility Score: inf
ROOT
ATOM      1  O   UNL     1     -31.395  30.732 -15.861  1.00  0.00    -0.454 OA
ENDROOT
BRANCH   1   2
ATOM      2  C   UNL     1     -30.998  29.394 -15.851  1.00  0.00     0.214 A 
ATOM      3  C   UNL     1     -30.616  28.757 -17.040  1.00  0.00     0.180 A 
ATOM      4  O   UNL     1     -30.253  27.479 -17.024  1.00  0.00    -0.452 OA
ATOM      5  C   UNL     1     -30.999  28.663 -14.658  1.00  0.00     0.239 A 
ATOM      6  C   UNL     1     -30.226  26.747 -15.917  1.00  0.00     0.146 A 
ATOM      7  O   UNL     1     -31.365  29.223 -13.589  1.00  0.00    -0.285 OA
ATOM      8  C   UNL     1     -30.601  27.308 -14.673  1.00  0.00     0.111 A 
ATOM      9  C   UNL     1     -29.836  25.408 -15.999  1.00  0.00     0.094 A 
ATOM     10  C   UNL     1     -30.583  26.493 -13.516  1.00  0.00     0.134 A 
ATOM     11  C   UNL     1     -29.827  24.605 -14.856  1.00  0.00     0.123 A 
ATOM     12  C   UNL     1     -30.193  25.148 -13.620  1.00  0.00     0.093 A 
BRANCH   3  13
ATOM     13  C   UNL     1     -30.665  29.460 -18.332  1.00  0.00     0.025 A 
ATOM     14  C   UNL     1     -30.035  28.891 -19.444  1.00  0.00     0.016 A 
ATOM     15  C   UNL     1     -30.127  29.507 -20.694  1.00  0.00     0.051 A 
ATOM     16  C   UNL     1     -30.830  30.706 -20.840  1.00  0.00     0.157 A 
ATOM     17  C   UNL     1     -31.373  30.666 -18.474  1.00  0.00     0.062 A 
ATOM     18  C   UNL     1     -31.458  31.291 -19.727  1.00  0.00     0.158 A 
BRANCH  16  19
ATOM     19  O   UNL     1     -30.893  31.299 -22.098  1.00  0.00    -0.504 OA
ATOM     20  H   UNL     1     -31.702  31.212 -22.700  1.00  0.00     0.293 HD
ENDBRANCH  16  19
BRANCH  18  21
ATOM     21  O   UNL     1     -32.165  32.483 -19.867  1.00  0.00    -0.504 OA
ATOM     22  H   UNL     1     -32.924  32.570 -20.533  1.00  0.00     0.293 HD
ENDBRANCH  18  21
ENDBRANCH   3  13
BRANCH  10  23
ATOM     23  O   UNL     1     -30.954  27.003 -12.271  1.00  0.00    -0.507 OA
ATOM     24  H   UNL     1     -30.590  27.883 -11.926  1.00  0.00     0.293 HD
ENDBRANCH  10  23
BRANCH  11  25
ATOM     25  O   UNL     1     -29.451  23.268 -14.936  1.00  0.00    -0.508 OA
ATOM     26  H   UNL     1     -29.677  22.610 -14.198  1.00  0.00     0.293 HD
ENDBRANCH  11  25
ENDBRANCH   1   2
BRANCH   1  27
ATOM     27  C   UNL     1     -30.957  31.675 -14.878  1.00  0.00     0.339 C 
ATOM     28  C   UNL     1     -31.513  33.075 -15.199  1.00  0.00     0.214 C 
ATOM     29  O   UNL     1     -29.539  31.689 -14.783  1.00  0.00    -0.332 OA
ATOM     30  C   UNL     1     -30.856  33.633 -16.479  1.00  0.00     0.180 C 
ATOM     31  C   UNL     1     -28.945  32.032 -16.027  1.00  0.00     0.179 C 
ATOM     32  C   UNL     1     -29.316  33.478 -16.446  1.00  0.00     0.177 C 
BRANCH  28  33
ATOM     33  O   UNL     1     -31.299  33.929 -14.102  1.00  0.00    -0.384 OA
ATOM     34  H   UNL     1     -31.857  33.581 -13.354  1.00  0.00     0.211 HD
ENDBRANCH  28  33
BRANCH  30  35
ATOM     35  O   UNL     1     -31.219  34.978 -16.659  1.00  0.00    -0.387 OA
ATOM     36  H   UNL     1     -30.907  35.242 -17.565  1.00  0.00     0.211 HD
ENDBRANCH  30  35
BRANCH  31  37
ATOM     37  C   UNL     1     -27.430  31.804 -15.945  1.00  0.00     0.191 C 
BRANCH  37  38
ATOM     38  O   UNL     1     -27.099  30.936 -14.893  1.00  0.00    -0.394 OA
ATOM     39  H   UNL     1     -27.580  30.084 -15.061  1.00  0.00     0.210 HD
ENDBRANCH  37  38
ENDBRANCH  31  37
BRANCH  32  40
ATOM     40  O   UNL     1     -28.730  34.450 -15.615  1.00  0.00    -0.387 OA
ATOM     41  H   UNL     1     -29.454  34.996 -15.211  1.00  0.00     0.211 HD
ENDBRANCH  32  40
ENDBRANCH   1  27
TORSDOF 12
ENDMDL
