MODEL 1
REMARK VINA RESULT:    -4.888      0.000      0.000
REMARK INTER + INTRA:          -7.173
REMARK INTER:                  -6.603
REMARK INTRA:                  -0.570
REMARK UNBOUND:                -0.570
REMARK SMILES C[C@@H](O)[C@H](O)[C@@H](O)[C@@H](O)C=O
REMARK SMILES IDX 4 1 2 2 1 3 3 4 6 6 8 7 10 8 11 9 9 10 7 12 5 14
REMARK H PARENT 3 5 9 11 7 13 5 15
REMARK Flexibility Score: inf
ROOT
ATOM      1  C   UNL     1      24.357  -6.845  39.054  1.00  0.00     0.174 C 
ENDROOT
BRANCH   1   2
ATOM      2  C   UNL     1      22.931  -7.445  38.878  1.00  0.00     0.142 C 
ATOM      3  C   UNL     1      21.830  -6.385  38.750  1.00  0.00     0.041 C 
BRANCH   2   4
ATOM      4  O   UNL     1      22.899  -8.297  37.758  1.00  0.00    -0.391 OA
ATOM      5  H   UNL     1      23.702  -8.098  37.208  1.00  0.00     0.211 HD
ENDBRANCH   2   4
ENDBRANCH   1   2
BRANCH   1   6
ATOM      6  C   UNL     1      25.353  -7.802  39.798  1.00  0.00     0.181 C 
BRANCH   6   7
ATOM      7  C   UNL     1      26.827  -7.302  39.767  1.00  0.00     0.209 C 
BRANCH   7   8
ATOM      8  C   UNL     1      26.983  -5.847  40.140  1.00  0.00     0.258 C 
ATOM      9  O   UNL     1      27.283  -5.010  39.303  1.00  0.00    -0.300 OA
ENDBRANCH   7   8
BRANCH   7  10
ATOM     10  O   UNL     1      27.418  -7.555  38.516  1.00  0.00    -0.383 OA
ATOM     11  H   UNL     1      26.875  -8.245  38.056  1.00  0.00     0.211 HD
ENDBRANCH   7  10
ENDBRANCH   6   7
BRANCH   6  12
ATOM     12  O   UNL     1      25.270  -9.124  39.318  1.00  0.00    -0.387 OA
ATOM     13  H   UNL     1      25.190  -9.087  38.330  1.00  0.00     0.211 HD
ENDBRANCH   6  12
ENDBRANCH   1   6
BRANCH   1  14
ATOM     14  O   UNL     1      24.861  -6.488  37.789  1.00  0.00    -0.388 OA
ATOM     15  H   UNL     1      25.032  -7.328  37.288  1.00  0.00     0.211 HD
ENDBRANCH   1  14
TORSDOF 8
ENDMDL
MODEL 2
REMARK VINA RESULT:    -4.771      1.192      2.164
REMARK INTER + INTRA:          -7.015
REMARK INTER:                  -6.094
REMARK INTRA:                  -0.920
REMARK UNBOUND:                -0.570
REMARK SMILES C[C@@H](O)[C@H](O)[C@@H](O)[C@@H](O)C=O
REMARK SMILES IDX 4 1 2 2 1 3 3 4 6 6 8 7 10 8 11 9 9 10 7 12 5 14
REMARK H PARENT 3 5 9 11 7 13 5 15
REMARK Flexibility Score: inf
ROOT
ATOM      1  C   UNL     1      24.503  -5.960  38.996  1.00  0.00     0.174 C 
ENDROOT
BRANCH   1   2
ATOM      2  C   UNL     1      23.815  -7.259  39.509  1.00  0.00     0.142 C 
ATOM      3  C   UNL     1      22.438  -7.513  38.881  1.00  0.00     0.041 C 
BRANCH   2   4
ATOM      4  O   UNL     1      24.648  -8.370  39.285  1.00  0.00    -0.391 OA
ATOM      5  H   UNL     1      25.419  -8.296  39.908  1.00  0.00     0.211 HD
ENDBRANCH   2   4
ENDBRANCH   1   2
BRANCH   1   6
ATOM      6  C   UNL     1      25.709  -5.496  39.886  1.00  0.00     0.181 C 
BRANCH   6   7
ATOM      7  C   UNL     1      27.087  -5.619  39.171  1.00  0.00     0.209 C 
BRANCH   7   8
ATOM      8  C   UNL     1      27.877  -6.839  39.581  1.00  0.00     0.258 C 
ATOM      9  O   UNL     1      27.473  -7.965  39.335  1.00  0.00    -0.300 OA
ENDBRANCH   7   8
BRANCH   7  10
ATOM     10  O   UNL     1      27.853  -4.453  39.350  1.00  0.00    -0.383 OA
ATOM     11  H   UNL     1      27.812  -3.928  38.509  1.00  0.00     0.211 HD
ENDBRANCH   7  10
ENDBRANCH   6   7
BRANCH   6  12
ATOM     12  O   UNL     1      25.735  -6.164  41.126  1.00  0.00    -0.387 OA
ATOM     13  H   UNL     1      25.531  -5.503  41.837  1.00  0.00     0.211 HD
ENDBRANCH   6  12
ENDBRANCH   1   6
BRANCH   1  14
ATOM     14  O   UNL     1      24.915  -6.157  37.664  1.00  0.00    -0.388 OA
ATOM     15  H   UNL     1      25.544  -5.424  37.435  1.00  0.00     0.211 HD
ENDBRANCH   1  14
TORSDOF 8
ENDMDL
MODEL 3
REMARK VINA RESULT:    -4.758      1.106      4.422
REMARK INTER + INTRA:          -6.996
REMARK INTER:                  -6.448
REMARK INTRA:                  -0.549
REMARK UNBOUND:                -0.570
REMARK SMILES C[C@@H](O)[C@H](O)[C@@H](O)[C@@H](O)C=O
REMARK SMILES IDX 4 1 2 2 1 3 3 4 6 6 8 7 10 8 11 9 9 10 7 12 5 14
REMARK H PARENT 3 5 9 11 7 13 5 15
REMARK Flexibility Score: inf
ROOT
ATOM      1  C   UNL     1      25.159  -7.503  39.835  1.00  0.00     0.174 C 
ENDROOT
BRANCH   1   2
ATOM      2  C   UNL     1      26.485  -6.722  40.072  1.00  0.00     0.142 C 
ATOM      3  C   UNL     1      27.690  -7.321  39.336  1.00  0.00     0.041 C 
BRANCH   2   4
ATOM      4  O   UNL     1      26.327  -5.374  39.701  1.00  0.00    -0.391 OA
ATOM      5  H   UNL     1      25.471  -5.300  39.203  1.00  0.00     0.211 HD
ENDBRANCH   2   4
ENDBRANCH   1   2
BRANCH   1   6
ATOM      6  C   UNL     1      24.147  -6.751  38.901  1.00  0.00     0.181 C 
BRANCH   6   7
ATOM      7  C   UNL     1      22.812  -7.524  38.689  1.00  0.00     0.209 C 
BRANCH   7   8
ATOM      8  C   UNL     1      22.120  -7.904  39.977  1.00  0.00     0.258 C 
ATOM      9  O   UNL     1      21.159  -8.658  39.978  1.00  0.00    -0.300 OA
ENDBRANCH   7   8
BRANCH   7  10
ATOM     10  O   UNL     1      23.011  -8.660  37.884  1.00  0.00    -0.383 OA
ATOM     11  H   UNL     1      22.307  -9.322  38.110  1.00  0.00     0.211 HD
ENDBRANCH   7  10
ENDBRANCH   6   7
BRANCH   6  12
ATOM     12  O   UNL     1      24.726  -6.417  37.661  1.00  0.00    -0.387 OA
ATOM     13  H   UNL     1      24.121  -5.781  37.200  1.00  0.00     0.211 HD
ENDBRANCH   6  12
ENDBRANCH   1   6
BRANCH   1  14
ATOM     14  O   UNL     1      25.465  -8.775  39.315  1.00  0.00    -0.388 OA
ATOM     15  H   UNL     1      24.678  -9.082  38.794  1.00  0.00     0.211 HD
ENDBRANCH   1  14
TORSDOF 8
ENDMDL
MODEL 4
REMARK VINA RESULT:    -4.665      1.290      4.256
REMARK INTER + INTRA:          -6.871
REMARK INTER:                  -6.474
REMARK INTRA:                  -0.398
REMARK UNBOUND:                -0.570
REMARK SMILES C[C@@H](O)[C@H](O)[C@@H](O)[C@@H](O)C=O
REMARK SMILES IDX 4 1 2 2 1 3 3 4 6 6 8 7 10 8 11 9 9 10 7 12 5 14
REMARK H PARENT 3 5 9 11 7 13 5 15
REMARK Flexibility Score: inf
ROOT
ATOM      1  C   UNL     1      26.167  -5.893  40.083  1.00  0.00     0.174 C 
ENDROOT
BRANCH   1   2
ATOM      2  C   UNL     1      27.643  -6.123  39.645  1.00  0.00     0.142 C 
ATOM      3  C   UNL     1      27.915  -7.540  39.125  1.00  0.00     0.041 C 
BRANCH   2   4
ATOM      4  O   UNL     1      28.010  -5.181  38.666  1.00  0.00    -0.391 OA
ATOM      5  H   UNL     1      28.371  -4.385  39.138  1.00  0.00     0.211 HD
ENDBRANCH   2   4
ENDBRANCH   1   2
BRANCH   1   6
ATOM      6  C   UNL     1      25.175  -6.982  39.540  1.00  0.00     0.181 C 
BRANCH   6   7
ATOM      7  C   UNL     1      24.115  -6.412  38.551  1.00  0.00     0.209 C 
BRANCH   7   8
ATOM      8  C   UNL     1      22.935  -7.328  38.332  1.00  0.00     0.258 C 
ATOM      9  O   UNL     1      23.050  -8.540  38.429  1.00  0.00    -0.300 OA
ENDBRANCH   7   8
BRANCH   7  10
ATOM     10  O   UNL     1      24.707  -6.069  37.322  1.00  0.00    -0.383 OA
ATOM     11  H   UNL     1      25.213  -6.858  36.997  1.00  0.00     0.211 HD
ENDBRANCH   7  10
ENDBRANCH   6   7
BRANCH   6  12
ATOM     12  O   UNL     1      24.546  -7.687  40.585  1.00  0.00    -0.387 OA
ATOM     13  H   UNL     1      24.661  -7.166  41.421  1.00  0.00     0.211 HD
ENDBRANCH   6  12
ENDBRANCH   1   6
BRANCH   1  14
ATOM     14  O   UNL     1      26.112  -5.827  41.488  1.00  0.00    -0.388 OA
ATOM     15  H   UNL     1      25.197  -6.095  41.764  1.00  0.00     0.211 HD
ENDBRANCH   1  14
TORSDOF 8
ENDMDL
MODEL 5
REMARK VINA RESULT:    -4.603     16.800     18.066
REMARK INTER + INTRA:          -6.788
REMARK INTER:                  -6.212
REMARK INTRA:                  -0.576
REMARK UNBOUND:                -0.570
REMARK SMILES C[C@@H](O)[C@H](O)[C@@H](O)[C@@H](O)C=O
REMARK SMILES IDX 4 1 2 2 1 3 3 4 6 6 8 7 10 8 11 9 9 10 7 12 5 14
REMARK H PARENT 3 5 9 11 7 13 5 15
REMARK Flexibility Score: inf
ROOT
ATOM      1  C   UNL     1      11.846   4.811  38.646  1.00  0.00     0.174 C 
ENDROOT
BRANCH   1   2
ATOM      2  C   UNL     1      12.055   5.881  39.758  1.00  0.00     0.142 C 
ATOM      3  C   UNL     1      12.725   7.166  39.254  1.00  0.00     0.041 C 
BRANCH   2   4
ATOM      4  O   UNL     1      10.825   6.196  40.365  1.00  0.00    -0.391 OA
ATOM      5  H   UNL     1      10.937   6.074  41.345  1.00  0.00     0.211 HD
ENDBRANCH   2   4
ENDBRANCH   1   2
BRANCH   1   6
ATOM      6  C   UNL     1      11.774   3.342  39.195  1.00  0.00     0.181 C 
BRANCH   6   7
ATOM      7  C   UNL     1      11.260   2.316  38.142  1.00  0.00     0.209 C 
BRANCH   7   8
ATOM      8  C   UNL     1      12.030   2.342  36.843  1.00  0.00     0.258 C 
ATOM      9  O   UNL     1      11.579   2.898  35.854  1.00  0.00    -0.300 OA
ENDBRANCH   7   8
BRANCH   7  10
ATOM     10  O   UNL     1       9.885   2.486  37.903  1.00  0.00    -0.383 OA
ATOM     11  H   UNL     1       9.735   3.431  37.642  1.00  0.00     0.211 HD
ENDBRANCH   7  10
ENDBRANCH   6   7
BRANCH   6  12
ATOM     12  O   UNL     1      11.012   3.261  40.377  1.00  0.00    -0.387 OA
ATOM     13  H   UNL     1      10.384   4.028  40.392  1.00  0.00     0.211 HD
ENDBRANCH   6  12
ENDBRANCH   1   6
BRANCH   1  14
ATOM     14  O   UNL     1      10.683   5.128  37.920  1.00  0.00    -0.388 OA
ATOM     15  H   UNL     1      10.168   4.289  37.799  1.00  0.00     0.211 HD
ENDBRANCH   1  14
TORSDOF 8
ENDMDL
MODEL 6
REMARK VINA RESULT:    -4.588     17.542     18.771
REMARK INTER + INTRA:          -6.768
REMARK INTER:                  -6.504
REMARK INTRA:                  -0.264
REMARK UNBOUND:                -0.570
REMARK SMILES C[C@@H](O)[C@H](O)[C@@H](O)[C@@H](O)C=O
REMARK SMILES IDX 4 1 2 2 1 3 3 4 6 6 8 7 10 8 11 9 9 10 7 12 5 14
REMARK H PARENT 3 5 9 11 7 13 5 15
REMARK Flexibility Score: inf
ROOT
ATOM      1  C   UNL     1      11.454   4.191  38.519  1.00  0.00     0.174 C 
ENDROOT
BRANCH   1   2
ATOM      2  C   UNL     1      10.679   3.456  37.387  1.00  0.00     0.142 C 
ATOM      3  C   UNL     1      11.589   2.868  36.302  1.00  0.00     0.041 C 
BRANCH   2   4
ATOM      4  O   UNL     1       9.875   2.438  37.933  1.00  0.00    -0.391 OA
ATOM      5  H   UNL     1       9.397   1.999  37.180  1.00  0.00     0.211 HD
ENDBRANCH   2   4
ENDBRANCH   1   2
BRANCH   1   6
ATOM      6  C   UNL     1      11.326   5.754  38.455  1.00  0.00     0.181 C 
BRANCH   6   7
ATOM      7  C   UNL     1      12.262   6.491  39.458  1.00  0.00     0.209 C 
BRANCH   7   8
ATOM      8  C   UNL     1      11.570   6.921  40.730  1.00  0.00     0.258 C 
ATOM      9  O   UNL     1      10.680   7.757  40.713  1.00  0.00    -0.300 OA
ENDBRANCH   7   8
BRANCH   7  10
ATOM     10  O   UNL     1      12.891   7.590  38.845  1.00  0.00    -0.383 OA
ATOM     11  H   UNL     1      13.870   7.486  38.964  1.00  0.00     0.211 HD
ENDBRANCH   7  10
ENDBRANCH   6   7
BRANCH   6  12
ATOM     12  O   UNL     1       9.993   6.179  38.620  1.00  0.00    -0.387 OA
ATOM     13  H   UNL     1       9.984   6.912  39.288  1.00  0.00     0.211 HD
ENDBRANCH   6  12
ENDBRANCH   1   6
BRANCH   1  14
ATOM     14  O   UNL     1      11.012   3.707  39.765  1.00  0.00    -0.388 OA
ATOM     15  H   UNL     1      11.596   4.102  40.463  1.00  0.00     0.211 HD
ENDBRANCH   1  14
TORSDOF 8
ENDMDL
MODEL 7
REMARK VINA RESULT:    -4.491     16.462     17.739
REMARK INTER + INTRA:          -6.636
REMARK INTER:                  -6.163
REMARK INTRA:                  -0.473
REMARK UNBOUND:                -0.570
REMARK SMILES C[C@@H](O)[C@H](O)[C@@H](O)[C@@H](O)C=O
REMARK SMILES IDX 4 1 2 2 1 3 3 4 6 6 8 7 10 8 11 9 9 10 7 12 5 14
REMARK H PARENT 3 5 9 11 7 13 5 15
REMARK Flexibility Score: inf
ROOT
ATOM      1  C   UNL     1      11.310   3.009  37.553  1.00  0.00     0.174 C 
ENDROOT
BRANCH   1   2
ATOM      2  C   UNL     1      11.949   2.729  36.161  1.00  0.00     0.142 C 
ATOM      3  C   UNL     1      12.883   1.512  36.148  1.00  0.00     0.041 C 
BRANCH   2   4
ATOM      4  O   UNL     1      10.944   2.564  35.191  1.00  0.00    -0.391 OA
ATOM      5  H   UNL     1      10.795   3.447  34.761  1.00  0.00     0.211 HD
ENDBRANCH   2   4
ENDBRANCH   1   2
BRANCH   1   6
ATOM      6  C   UNL     1      11.666   4.423  38.134  1.00  0.00     0.181 C 
BRANCH   6   7
ATOM      7  C   UNL     1      11.238   4.604  39.621  1.00  0.00     0.209 C 
BRANCH   7   8
ATOM      8  C   UNL     1      12.139   5.529  40.404  1.00  0.00     0.258 C 
ATOM      9  O   UNL     1      12.466   6.617  39.958  1.00  0.00    -0.300 OA
ENDBRANCH   7   8
BRANCH   7  10
ATOM     10  O   UNL     1      11.128   3.360  40.267  1.00  0.00    -0.383 OA
ATOM     11  H   UNL     1      10.168   3.108  40.285  1.00  0.00     0.211 HD
ENDBRANCH   7  10
ENDBRANCH   6   7
BRANCH   6  12
ATOM     12  O   UNL     1      11.146   5.463  37.340  1.00  0.00    -0.387 OA
ATOM     13  H   UNL     1      11.688   6.277  37.505  1.00  0.00     0.211 HD
ENDBRANCH   6  12
ENDBRANCH   1   6
BRANCH   1  14
ATOM     14  O   UNL     1       9.915   2.849  37.455  1.00  0.00    -0.388 OA
ATOM     15  H   UNL     1       9.744   2.062  36.875  1.00  0.00     0.211 HD
ENDBRANCH   1  14
TORSDOF 8
ENDMDL
MODEL 8
REMARK VINA RESULT:    -4.481      1.990      2.926
REMARK INTER + INTRA:          -6.622
REMARK INTER:                  -6.119
REMARK INTRA:                  -0.503
REMARK UNBOUND:                -0.570
REMARK SMILES C[C@@H](O)[C@H](O)[C@@H](O)[C@@H](O)C=O
REMARK SMILES IDX 4 1 2 2 1 3 3 4 6 6 8 7 10 8 11 9 9 10 7 12 5 14
REMARK H PARENT 3 5 9 11 7 13 5 15
REMARK Flexibility Score: inf
ROOT
ATOM      1  C   UNL     1      21.915  -7.801  38.805  1.00  0.00     0.174 C 
ENDROOT
BRANCH   1   2
ATOM      2  C   UNL     1      21.079  -7.803  40.118  1.00  0.00     0.142 C 
ATOM      3  C   UNL     1      19.767  -7.015  40.011  1.00  0.00     0.041 C 
BRANCH   2   4
ATOM      4  O   UNL     1      20.804  -9.125  40.515  1.00  0.00    -0.391 OA
ATOM      5  H   UNL     1      21.661  -9.627  40.495  1.00  0.00     0.211 HD
ENDBRANCH   2   4
ENDBRANCH   1   2
BRANCH   1   6
ATOM      6  C   UNL     1      23.186  -6.882  38.872  1.00  0.00     0.181 C 
BRANCH   6   7
ATOM      7  C   UNL     1      24.308  -7.447  39.793  1.00  0.00     0.209 C 
BRANCH   7   8
ATOM      8  C   UNL     1      25.389  -6.444  40.117  1.00  0.00     0.258 C 
ATOM      9  O   UNL     1      25.134  -5.414  40.721  1.00  0.00    -0.300 OA
ENDBRANCH   7   8
BRANCH   7  10
ATOM     10  O   UNL     1      24.867  -8.615  39.244  1.00  0.00    -0.383 OA
ATOM     11  H   UNL     1      25.787  -8.710  39.603  1.00  0.00     0.211 HD
ENDBRANCH   7  10
ENDBRANCH   6   7
BRANCH   6  12
ATOM     12  O   UNL     1      22.860  -5.562  39.244  1.00  0.00    -0.387 OA
ATOM     13  H   UNL     1      22.765  -5.024  38.417  1.00  0.00     0.211 HD
ENDBRANCH   6  12
ENDBRANCH   1   6
BRANCH   1  14
ATOM     14  O   UNL     1      22.276  -9.125  38.491  1.00  0.00    -0.388 OA
ATOM     15  H   UNL     1      21.709  -9.416  37.730  1.00  0.00     0.211 HD
ENDBRANCH   1  14
TORSDOF 8
ENDMDL
MODEL 9
REMARK VINA RESULT:    -4.439     16.262     18.214
REMARK INTER + INTRA:          -6.566
REMARK INTER:                  -5.989
REMARK INTRA:                  -0.577
REMARK UNBOUND:                -0.570
REMARK SMILES C[C@@H](O)[C@H](O)[C@@H](O)[C@@H](O)C=O
REMARK SMILES IDX 4 1 2 2 1 3 3 4 6 6 8 7 10 8 11 9 9 10 7 12 5 14
REMARK H PARENT 3 5 9 11 7 13 5 15
REMARK Flexibility Score: inf
ROOT
ATOM      1  C   UNL     1      11.899   3.949  39.339  1.00  0.00     0.174 C 
ENDROOT
BRANCH   1   2
ATOM      2  C   UNL     1      12.405   2.672  38.607  1.00  0.00     0.142 C 
ATOM      3  C   UNL     1      11.800   1.371  39.153  1.00  0.00     0.041 C 
BRANCH   2   4
ATOM      4  O   UNL     1      12.147   2.770  37.227  1.00  0.00    -0.391 OA
ATOM      5  H   UNL     1      12.858   3.338  36.830  1.00  0.00     0.211 HD
ENDBRANCH   2   4
ENDBRANCH   1   2
BRANCH   1   6
ATOM      6  C   UNL     1      11.213   4.989  38.385  1.00  0.00     0.181 C 
BRANCH   6   7
ATOM      7  C   UNL     1      10.917   6.355  39.072  1.00  0.00     0.209 C 
BRANCH   7   8
ATOM      8  C   UNL     1      12.130   6.988  39.711  1.00  0.00     0.258 C 
ATOM      9  O   UNL     1      13.070   7.375  39.034  1.00  0.00    -0.300 OA
ENDBRANCH   7   8
BRANCH   7  10
ATOM     10  O   UNL     1       9.875   6.232  40.009  1.00  0.00    -0.383 OA
ATOM     11  H   UNL     1       9.461   7.126  40.123  1.00  0.00     0.211 HD
ENDBRANCH   7  10
ENDBRANCH   6   7
BRANCH   6  12
ATOM     12  O   UNL     1      10.043   4.469  37.796  1.00  0.00    -0.387 OA
ATOM     13  H   UNL     1      10.193   3.507  37.611  1.00  0.00     0.211 HD
ENDBRANCH   6  12
ENDBRANCH   1   6
BRANCH   1  14
ATOM     14  O   UNL     1      11.021   3.566  40.371  1.00  0.00    -0.388 OA
ATOM     15  H   UNL     1      10.098   3.611  40.009  1.00  0.00     0.211 HD
ENDBRANCH   1  14
TORSDOF 8
ENDMDL
