MODEL 1
REMARK VINA RESULT:    -7.489      0.000      0.000
REMARK INTER + INTRA:          -9.927
REMARK INTER:                  -9.459
REMARK INTRA:                  -0.469
REMARK UNBOUND:                -0.469
REMARK SMILES Oc1cc(O)cc(CCc2ccccc2O)c1
REMARK SMILES IDX 9 1 10 2 12 3 13 4 11 5 14 6 15 7 16 8 8 10 7 11 6 12 17 13
REMARK SMILES IDX 4 14 2 15 3 16 5 17 1 19
REMARK H PARENT 16 9 5 18 1 20
REMARK Flexibility Score: inf
ROOT
ATOM      1  C   UNL     1     -12.728  -0.065 -10.750  1.00  0.00     0.044 C 
ENDROOT
BRANCH   1   2
ATOM      2  C   UNL     1     -13.243  -1.454 -10.466  1.00  0.00    -0.006 A 
ATOM      3  C   UNL     1     -15.123  -2.962 -10.137  1.00  0.00     0.001 A 
ATOM      4  C   UNL     1     -14.244  -4.039 -10.012  1.00  0.00     0.004 A 
ATOM      5  C   UNL     1     -14.628  -1.675 -10.368  1.00  0.00     0.007 A 
ATOM      6  C   UNL     1     -12.866  -3.833 -10.123  1.00  0.00     0.046 A 
ATOM      7  C   UNL     1     -12.360  -2.546 -10.356  1.00  0.00     0.118 A 
BRANCH   7   8
ATOM      8  O   UNL     1     -10.984  -2.352 -10.479  1.00  0.00    -0.508 OA
ATOM      9  H   UNL     1     -10.587  -1.431 -10.619  1.00  0.00     0.293 HD
ENDBRANCH   7   8
ENDBRANCH   1   2
BRANCH   1  10
ATOM     10  C   UNL     1     -13.757   0.988 -10.330  1.00  0.00     0.040 C 
BRANCH  10  11
ATOM     11  C   UNL     1     -13.099   2.078  -9.527  1.00  0.00    -0.040 A 
ATOM     12  C   UNL     1     -11.706   2.089  -9.355  1.00  0.00     0.050 A 
ATOM     13  C   UNL     1     -13.868   3.125  -8.991  1.00  0.00     0.050 A 
ATOM     14  C   UNL     1     -11.089   3.118  -8.637  1.00  0.00     0.119 A 
ATOM     15  C   UNL     1     -13.252   4.158  -8.271  1.00  0.00     0.119 A 
ATOM     16  C   UNL     1     -11.865   4.151  -8.093  1.00  0.00     0.092 A 
BRANCH  14  17
ATOM     17  O   UNL     1      -9.706   3.107  -8.472  1.00  0.00    -0.508 OA
ATOM     18  H   UNL     1      -9.079   3.007  -9.263  1.00  0.00     0.293 HD
ENDBRANCH  14  17
BRANCH  15  19
ATOM     19  O   UNL     1     -14.008   5.195  -7.731  1.00  0.00    -0.508 OA
ATOM     20  H   UNL     1     -14.322   5.175  -6.767  1.00  0.00     0.293 HD
ENDBRANCH  15  19
ENDBRANCH  10  11
ENDBRANCH   1  10
TORSDOF 6
ENDMDL
MODEL 2
REMARK VINA RESULT:    -7.472      0.032      2.035
REMARK INTER + INTRA:          -9.906
REMARK INTER:                  -9.442
REMARK INTRA:                  -0.464
REMARK UNBOUND:                -0.469
REMARK SMILES Oc1cc(O)cc(CCc2ccccc2O)c1
REMARK SMILES IDX 9 1 10 2 12 3 13 4 11 5 14 6 15 7 16 8 8 10 7 11 6 12 17 13
REMARK SMILES IDX 4 14 2 15 3 16 5 17 1 19
REMARK H PARENT 16 9 5 18 1 20
REMARK Flexibility Score: inf
ROOT
ATOM      1  C   UNL     1     -12.773  -0.056 -10.748  1.00  0.00     0.044 C 
ENDROOT
BRANCH   1   2
ATOM      2  C   UNL     1     -13.263  -1.454 -10.465  1.00  0.00    -0.006 A 
ATOM      3  C   UNL     1     -15.117  -2.998 -10.149  1.00  0.00     0.001 A 
ATOM      4  C   UNL     1     -14.217  -4.057 -10.012  1.00  0.00     0.004 A 
ATOM      5  C   UNL     1     -14.645  -1.703 -10.380  1.00  0.00     0.007 A 
ATOM      6  C   UNL     1     -12.843  -3.824 -10.110  1.00  0.00     0.046 A 
ATOM      7  C   UNL     1     -12.360  -2.528 -10.342  1.00  0.00     0.118 A 
BRANCH   7   8
ATOM      8  O   UNL     1     -10.987  -2.308 -10.452  1.00  0.00    -0.508 OA
ATOM      9  H   UNL     1     -10.613  -1.559 -11.023  1.00  0.00     0.293 HD
ENDBRANCH   7   8
ENDBRANCH   1   2
BRANCH   1  10
ATOM     10  C   UNL     1     -13.798   0.980 -10.280  1.00  0.00     0.040 C 
BRANCH  10  11
ATOM     11  C   UNL     1     -13.117   2.102  -9.544  1.00  0.00    -0.040 A 
ATOM     12  C   UNL     1     -13.873   3.145  -8.985  1.00  0.00     0.050 A 
ATOM     13  C   UNL     1     -11.724   2.087  -9.363  1.00  0.00     0.050 A 
ATOM     14  C   UNL     1     -13.245   4.172  -8.273  1.00  0.00     0.119 A 
ATOM     15  C   UNL     1     -11.093   3.114  -8.649  1.00  0.00     0.119 A 
ATOM     16  C   UNL     1     -11.853   4.156  -8.108  1.00  0.00     0.092 A 
BRANCH  14  17
ATOM     17  O   UNL     1     -14.012   5.200  -7.731  1.00  0.00    -0.508 OA
ATOM     18  H   UNL     1     -14.165   6.068  -8.234  1.00  0.00     0.293 HD
ENDBRANCH  14  17
BRANCH  15  19
ATOM     19  O   UNL     1      -9.711   3.109  -8.471  1.00  0.00    -0.508 OA
ATOM     20  H   UNL     1      -9.272   2.548  -7.750  1.00  0.00     0.293 HD
ENDBRANCH  15  19
ENDBRANCH  10  11
ENDBRANCH   1  10
TORSDOF 6
ENDMDL
MODEL 3
REMARK VINA RESULT:    -7.455      1.759      6.344
REMARK INTER + INTRA:          -9.885
REMARK INTER:                  -9.394
REMARK INTRA:                  -0.492
REMARK UNBOUND:                -0.469
REMARK SMILES Oc1cc(O)cc(CCc2ccccc2O)c1
REMARK SMILES IDX 9 1 10 2 12 3 13 4 11 5 14 6 15 7 16 8 8 10 7 11 6 12 17 13
REMARK SMILES IDX 4 14 2 15 3 16 5 17 1 19
REMARK H PARENT 16 9 5 18 1 20
REMARK Flexibility Score: inf
ROOT
ATOM      1  C   UNL     1     -11.009   1.349  -9.653  1.00  0.00     0.044 C 
ENDROOT
BRANCH   1   2
ATOM      2  C   UNL     1     -11.856   2.430  -9.031  1.00  0.00    -0.006 A 
ATOM      3  C   UNL     1     -14.058   3.340  -8.541  1.00  0.00     0.001 A 
ATOM      4  C   UNL     1     -13.472   4.385  -7.825  1.00  0.00     0.004 A 
ATOM      5  C   UNL     1     -13.257   2.363  -9.138  1.00  0.00     0.007 A 
ATOM      6  C   UNL     1     -12.083   4.453  -7.699  1.00  0.00     0.046 A 
ATOM      7  C   UNL     1     -11.269   3.477  -8.293  1.00  0.00     0.118 A 
BRANCH   7   8
ATOM      8  O   UNL     1      -9.883   3.545  -8.151  1.00  0.00    -0.508 OA
ATOM      9  H   UNL     1      -9.311   4.099  -8.776  1.00  0.00     0.293 HD
ENDBRANCH   7   8
ENDBRANCH   1   2
BRANCH   1  10
ATOM     10  C   UNL     1     -11.855   0.457 -10.567  1.00  0.00     0.040 C 
BRANCH  10  11
ATOM     11  C   UNL     1     -11.538  -0.994 -10.329  1.00  0.00    -0.040 A 
ATOM     12  C   UNL     1     -10.262  -1.377  -9.885  1.00  0.00     0.050 A 
ATOM     13  C   UNL     1     -12.532  -1.973 -10.495  1.00  0.00     0.050 A 
ATOM     14  C   UNL     1      -9.974  -2.722  -9.632  1.00  0.00     0.119 A 
ATOM     15  C   UNL     1     -12.246  -3.321 -10.242  1.00  0.00     0.119 A 
ATOM     16  C   UNL     1     -10.968  -3.694  -9.815  1.00  0.00     0.092 A 
BRANCH  14  17
ATOM     17  O   UNL     1      -8.700  -3.083  -9.199  1.00  0.00    -0.508 OA
ATOM     18  H   UNL     1      -8.566  -3.706  -8.410  1.00  0.00     0.293 HD
ENDBRANCH  14  17
BRANCH  15  19
ATOM     19  O   UNL     1     -13.226  -4.298 -10.412  1.00  0.00    -0.508 OA
ATOM     20  H   UNL     1     -13.691  -4.432 -11.302  1.00  0.00     0.293 HD
ENDBRANCH  15  19
ENDBRANCH  10  11
ENDBRANCH   1  10
TORSDOF 6
ENDMDL
MODEL 4
REMARK VINA RESULT:    -7.213      1.730      6.377
REMARK INTER + INTRA:          -9.580
REMARK INTER:                  -9.117
REMARK INTRA:                  -0.463
REMARK UNBOUND:                -0.469
REMARK SMILES Oc1cc(O)cc(CCc2ccccc2O)c1
REMARK SMILES IDX 9 1 10 2 12 3 13 4 11 5 14 6 15 7 16 8 8 10 7 11 6 12 17 13
REMARK SMILES IDX 4 14 2 15 3 16 5 17 1 19
REMARK H PARENT 16 9 5 18 1 20
REMARK Flexibility Score: inf
ROOT
ATOM      1  C   UNL     1     -14.359   1.126  -9.676  1.00  0.00     0.044 C 
ENDROOT
BRANCH   1   2
ATOM      2  C   UNL     1     -13.585   2.350  -9.258  1.00  0.00    -0.006 A 
ATOM      3  C   UNL     1     -11.756   3.905  -9.650  1.00  0.00     0.001 A 
ATOM      4  C   UNL     1     -12.161   4.667  -8.552  1.00  0.00     0.004 A 
ATOM      5  C   UNL     1     -12.466   2.755 -10.006  1.00  0.00     0.007 A 
ATOM      6  C   UNL     1     -13.280   4.282  -7.810  1.00  0.00     0.046 A 
ATOM      7  C   UNL     1     -14.000   3.131  -8.159  1.00  0.00     0.118 A 
BRANCH   7   8
ATOM      8  O   UNL     1     -15.125   2.762  -7.421  1.00  0.00    -0.508 OA
ATOM      9  H   UNL     1     -15.407   3.272  -6.593  1.00  0.00     0.293 HD
ENDBRANCH   7   8
ENDBRANCH   1   2
BRANCH   1  10
ATOM     10  C   UNL     1     -13.752   0.508 -10.938  1.00  0.00     0.040 C 
BRANCH  10  11
ATOM     11  C   UNL     1     -12.948  -0.717 -10.592  1.00  0.00    -0.040 A 
ATOM     12  C   UNL     1     -13.555  -1.983 -10.587  1.00  0.00     0.050 A 
ATOM     13  C   UNL     1     -11.573  -0.610 -10.326  1.00  0.00     0.050 A 
ATOM     14  C   UNL     1     -12.804  -3.126 -10.297  1.00  0.00     0.119 A 
ATOM     15  C   UNL     1     -10.818  -1.754 -10.036  1.00  0.00     0.119 A 
ATOM     16  C   UNL     1     -11.434  -3.009 -10.019  1.00  0.00     0.092 A 
BRANCH  14  17
ATOM     17  O   UNL     1     -13.425  -4.373 -10.291  1.00  0.00    -0.508 OA
ATOM     18  H   UNL     1     -13.750  -4.798  -9.429  1.00  0.00     0.293 HD
ENDBRANCH  14  17
BRANCH  15  19
ATOM     19  O   UNL     1      -9.455  -1.655  -9.765  1.00  0.00    -0.508 OA
ATOM     20  H   UNL     1      -9.091  -1.788  -8.829  1.00  0.00     0.293 HD
ENDBRANCH  15  19
ENDBRANCH  10  11
ENDBRANCH   1  10
TORSDOF 6
ENDMDL
MODEL 5
REMARK VINA RESULT:    -7.200      1.718      6.225
REMARK INTER + INTRA:          -9.563
REMARK INTER:                  -9.120
REMARK INTRA:                  -0.444
REMARK UNBOUND:                -0.469
REMARK SMILES Oc1cc(O)cc(CCc2ccccc2O)c1
REMARK SMILES IDX 9 1 10 2 12 3 13 4 11 5 14 6 15 7 16 8 8 10 7 11 6 12 17 13
REMARK SMILES IDX 4 14 2 15 3 16 5 17 1 19
REMARK H PARENT 16 9 5 18 1 20
REMARK Flexibility Score: inf
ROOT
ATOM      1  C   UNL     1     -14.365   1.098  -9.648  1.00  0.00     0.044 C 
ENDROOT
BRANCH   1   2
ATOM      2  C   UNL     1     -13.580   2.319  -9.241  1.00  0.00    -0.006 A 
ATOM      3  C   UNL     1     -11.732   3.849  -9.643  1.00  0.00     0.001 A 
ATOM      4  C   UNL     1     -12.135   4.629  -8.557  1.00  0.00     0.004 A 
ATOM      5  C   UNL     1     -12.453   2.702  -9.989  1.00  0.00     0.007 A 
ATOM      6  C   UNL     1     -13.262   4.266  -7.816  1.00  0.00     0.046 A 
ATOM      7  C   UNL     1     -13.992   3.117  -8.155  1.00  0.00     0.118 A 
BRANCH   7   8
ATOM      8  O   UNL     1     -15.125   2.770  -7.418  1.00  0.00    -0.508 OA
ATOM      9  H   UNL     1     -15.060   2.473  -6.452  1.00  0.00     0.293 HD
ENDBRANCH   7   8
ENDBRANCH   1   2
BRANCH   1  10
ATOM     10  C   UNL     1     -13.812   0.510 -10.949  1.00  0.00     0.040 C 
BRANCH  10  11
ATOM     11  C   UNL     1     -13.011  -0.733 -10.669  1.00  0.00    -0.040 A 
ATOM     12  C   UNL     1     -11.637  -0.642 -10.393  1.00  0.00     0.050 A 
ATOM     13  C   UNL     1     -13.642  -1.987 -10.626  1.00  0.00     0.050 A 
ATOM     14  C   UNL     1     -10.897  -1.792 -10.100  1.00  0.00     0.119 A 
ATOM     15  C   UNL     1     -12.902  -3.141 -10.332  1.00  0.00     0.119 A 
ATOM     16  C   UNL     1     -11.532  -3.042 -10.073  1.00  0.00     0.092 A 
BRANCH  14  17
ATOM     17  O   UNL     1      -9.534  -1.682  -9.835  1.00  0.00    -0.508 OA
ATOM     18  H   UNL     1      -9.047  -2.371  -9.271  1.00  0.00     0.293 HD
ENDBRANCH  14  17
BRANCH  15  19
ATOM     19  O   UNL     1     -13.520  -4.389 -10.294  1.00  0.00    -0.508 OA
ATOM     20  H   UNL     1     -13.376  -5.028  -9.520  1.00  0.00     0.293 HD
ENDBRANCH  15  19
ENDBRANCH  10  11
ENDBRANCH   1  10
TORSDOF 6
ENDMDL
MODEL 6
REMARK VINA RESULT:    -7.129      2.849      6.725
REMARK INTER + INTRA:          -9.473
REMARK INTER:                  -9.008
REMARK INTRA:                  -0.465
REMARK UNBOUND:                -0.469
REMARK SMILES Oc1cc(O)cc(CCc2ccccc2O)c1
REMARK SMILES IDX 9 1 10 2 12 3 13 4 11 5 14 6 15 7 16 8 8 10 7 11 6 12 17 13
REMARK SMILES IDX 4 14 2 15 3 16 5 17 1 19
REMARK H PARENT 16 9 5 18 1 20
REMARK Flexibility Score: inf
ROOT
ATOM      1  C   UNL     1     -10.537  -0.246  -9.610  1.00  0.00     0.044 C 
ENDROOT
BRANCH   1   2
ATOM      2  C   UNL     1     -11.718   0.687  -9.705  1.00  0.00    -0.006 A 
ATOM      3  C   UNL     1     -14.038   1.069 -10.329  1.00  0.00     0.001 A 
ATOM      4  C   UNL     1     -13.963   2.371  -9.832  1.00  0.00     0.004 A 
ATOM      5  C   UNL     1     -12.924   0.227 -10.262  1.00  0.00     0.007 A 
ATOM      6  C   UNL     1     -12.774   2.834  -9.262  1.00  0.00     0.046 A 
ATOM      7  C   UNL     1     -11.651   1.997  -9.189  1.00  0.00     0.118 A 
BRANCH   7   8
ATOM      8  O   UNL     1     -10.472   2.463  -8.606  1.00  0.00    -0.508 OA
ATOM      9  H   UNL     1      -9.575   2.039  -8.810  1.00  0.00     0.293 HD
ENDBRANCH   7   8
ENDBRANCH   1   2
BRANCH   1  10
ATOM     10  C   UNL     1     -10.883  -1.616 -10.199  1.00  0.00     0.040 C 
BRANCH  10  11
ATOM     11  C   UNL     1     -10.226  -2.713  -9.404  1.00  0.00    -0.040 A 
ATOM     12  C   UNL     1     -10.482  -2.842  -8.029  1.00  0.00     0.050 A 
ATOM     13  C   UNL     1      -9.396  -3.649 -10.042  1.00  0.00     0.050 A 
ATOM     14  C   UNL     1      -9.898  -3.879  -7.295  1.00  0.00     0.119 A 
ATOM     15  C   UNL     1      -8.810  -4.690  -9.308  1.00  0.00     0.119 A 
ATOM     16  C   UNL     1      -9.059  -4.802  -7.937  1.00  0.00     0.092 A 
BRANCH  14  17
ATOM     17  O   UNL     1     -10.159  -3.987  -5.931  1.00  0.00    -0.508 OA
ATOM     18  H   UNL     1     -10.903  -4.579  -5.580  1.00  0.00     0.293 HD
ENDBRANCH  14  17
BRANCH  15  19
ATOM     19  O   UNL     1      -7.980  -5.619  -9.933  1.00  0.00    -0.508 OA
ATOM     20  H   UNL     1      -8.296  -6.161 -10.728  1.00  0.00     0.293 HD
ENDBRANCH  15  19
ENDBRANCH  10  11
ENDBRANCH   1  10
TORSDOF 6
ENDMDL
MODEL 7
REMARK VINA RESULT:    -7.020      2.837      6.496
REMARK INTER + INTRA:          -9.335
REMARK INTER:                  -8.846
REMARK INTRA:                  -0.490
REMARK UNBOUND:                -0.469
REMARK SMILES Oc1cc(O)cc(CCc2ccccc2O)c1
REMARK SMILES IDX 9 1 10 2 12 3 13 4 11 5 14 6 15 7 16 8 8 10 7 11 6 12 17 13
REMARK SMILES IDX 4 14 2 15 3 16 5 17 1 19
REMARK H PARENT 16 9 5 18 1 20
REMARK Flexibility Score: inf
ROOT
ATOM      1  C   UNL     1     -10.521  -0.194  -9.535  1.00  0.00     0.044 C 
ENDROOT
BRANCH   1   2
ATOM      2  C   UNL     1     -11.719   0.714  -9.651  1.00  0.00    -0.006 A 
ATOM      3  C   UNL     1     -14.046   1.041 -10.282  1.00  0.00     0.001 A 
ATOM      4  C   UNL     1     -13.993   2.355  -9.815  1.00  0.00     0.004 A 
ATOM      5  C   UNL     1     -12.917   0.221 -10.197  1.00  0.00     0.007 A 
ATOM      6  C   UNL     1     -12.813   2.852  -9.257  1.00  0.00     0.046 A 
ATOM      7  C   UNL     1     -11.675   2.037  -9.166  1.00  0.00     0.118 A 
BRANCH   7   8
ATOM      8  O   UNL     1     -10.505   2.537  -8.593  1.00  0.00    -0.508 OA
ATOM      9  H   UNL     1      -9.838   1.931  -8.133  1.00  0.00     0.293 HD
ENDBRANCH   7   8
ENDBRANCH   1   2
BRANCH   1  10
ATOM     10  C   UNL     1     -10.783  -1.525 -10.247  1.00  0.00     0.040 C 
BRANCH  10  11
ATOM     11  C   UNL     1     -10.211  -2.669  -9.454  1.00  0.00    -0.040 A 
ATOM     12  C   UNL     1      -9.370  -3.609 -10.071  1.00  0.00     0.050 A 
ATOM     13  C   UNL     1     -10.469  -2.775  -8.077  1.00  0.00     0.050 A 
ATOM     14  C   UNL     1      -8.812  -4.654  -9.330  1.00  0.00     0.119 A 
ATOM     15  C   UNL     1      -9.910  -3.822  -7.331  1.00  0.00     0.119 A 
ATOM     16  C   UNL     1      -9.086  -4.761  -7.958  1.00  0.00     0.092 A 
BRANCH  14  17
ATOM     17  O   UNL     1      -7.985  -5.580  -9.962  1.00  0.00    -0.508 OA
ATOM     18  H   UNL     1      -8.114  -5.825 -10.937  1.00  0.00     0.293 HD
ENDBRANCH  14  17
BRANCH  15  19
ATOM     19  O   UNL     1     -10.167  -3.937  -5.966  1.00  0.00    -0.508 OA
ATOM     20  H   UNL     1     -11.061  -4.267  -5.622  1.00  0.00     0.293 HD
ENDBRANCH  15  19
ENDBRANCH  10  11
ENDBRANCH   1  10
TORSDOF 6
ENDMDL
MODEL 8
REMARK VINA RESULT:    -6.732      2.355      3.266
REMARK INTER + INTRA:          -8.972
REMARK INTER:                  -8.525
REMARK INTRA:                  -0.447
REMARK UNBOUND:                -0.469
REMARK SMILES Oc1cc(O)cc(CCc2ccccc2O)c1
REMARK SMILES IDX 9 1 10 2 12 3 13 4 11 5 14 6 15 7 16 8 8 10 7 11 6 12 17 13
REMARK SMILES IDX 4 14 2 15 3 16 5 17 1 19
REMARK H PARENT 16 9 5 18 1 20
REMARK Flexibility Score: inf
ROOT
ATOM      1  C   UNL     1     -11.979  -1.964 -10.186  1.00  0.00     0.044 C 
ENDROOT
BRANCH   1   2
ATOM      2  C   UNL     1     -10.739  -2.515  -9.530  1.00  0.00    -0.006 A 
ATOM      3  C   UNL     1      -9.060  -2.373  -7.775  1.00  0.00     0.001 A 
ATOM      4  C   UNL     1      -8.471  -3.551  -8.236  1.00  0.00     0.004 A 
ATOM      5  C   UNL     1     -10.191  -1.857  -8.414  1.00  0.00     0.007 A 
ATOM      6  C   UNL     1      -9.015  -4.221  -9.334  1.00  0.00     0.046 A 
ATOM      7  C   UNL     1     -10.150  -3.713  -9.982  1.00  0.00     0.118 A 
BRANCH   7   8
ATOM      8  O   UNL     1     -10.695  -4.397 -11.070  1.00  0.00    -0.508 OA
ATOM      9  H   UNL     1     -10.137  -4.639 -11.879  1.00  0.00     0.293 HD
ENDBRANCH   7   8
ENDBRANCH   1   2
BRANCH   1  10
ATOM     10  C   UNL     1     -11.649  -0.704 -10.992  1.00  0.00     0.040 C 
BRANCH  10  11
ATOM     11  C   UNL     1     -12.003   0.532 -10.209  1.00  0.00    -0.040 A 
ATOM     12  C   UNL     1     -10.998   1.285  -9.582  1.00  0.00     0.050 A 
ATOM     13  C   UNL     1     -13.335   0.972 -10.145  1.00  0.00     0.050 A 
ATOM     14  C   UNL     1     -11.320   2.451  -8.880  1.00  0.00     0.119 A 
ATOM     15  C   UNL     1     -13.661   2.140  -9.443  1.00  0.00     0.119 A 
ATOM     16  C   UNL     1     -12.655   2.876  -8.810  1.00  0.00     0.092 A 
BRANCH  14  17
ATOM     17  O   UNL     1     -10.309   3.181  -8.260  1.00  0.00    -0.508 OA
ATOM     18  H   UNL     1      -9.618   2.732  -7.669  1.00  0.00     0.293 HD
ENDBRANCH  14  17
BRANCH  15  19
ATOM     19  O   UNL     1     -14.982   2.580  -9.370  1.00  0.00    -0.508 OA
ATOM     20  H   UNL     1     -15.759   1.941  -9.491  1.00  0.00     0.293 HD
ENDBRANCH  15  19
ENDBRANCH  10  11
ENDBRANCH   1  10
TORSDOF 6
ENDMDL
MODEL 9
REMARK VINA RESULT:    -4.561      1.645      6.604
REMARK INTER + INTRA:          -6.230
REMARK INTER:                  -5.715
REMARK INTRA:                  -0.515
REMARK UNBOUND:                -0.469
REMARK SMILES Oc1cc(O)cc(CCc2ccccc2O)c1
REMARK SMILES IDX 9 1 10 2 12 3 13 4 11 5 14 6 15 7 16 8 8 10 7 11 6 12 17 13
REMARK SMILES IDX 4 14 2 15 3 16 5 17 1 19
REMARK H PARENT 16 9 5 18 1 20
REMARK Flexibility Score: inf
ROOT
ATOM      1  C   UNL     1     -10.941   1.134  -9.258  1.00  0.00     0.044 C 
ENDROOT
BRANCH   1   2
ATOM      2  C   UNL     1     -11.801   2.333  -8.950  1.00  0.00    -0.006 A 
ATOM      3  C   UNL     1     -14.002   3.366  -8.872  1.00  0.00     0.001 A 
ATOM      4  C   UNL     1     -13.446   4.522  -8.321  1.00  0.00     0.004 A 
ATOM      5  C   UNL     1     -13.186   2.274  -9.181  1.00  0.00     0.007 A 
ATOM      6  C   UNL     1     -12.073   4.587  -8.074  1.00  0.00     0.046 A 
ATOM      7  C   UNL     1     -11.246   3.496  -8.379  1.00  0.00     0.118 A 
BRANCH   7   8
ATOM      8  O   UNL     1      -9.877   3.565  -8.115  1.00  0.00    -0.508 OA
ATOM      9  H   UNL     1      -9.457   3.051  -7.350  1.00  0.00     0.293 HD
ENDBRANCH   7   8
ENDBRANCH   1   2
BRANCH   1  10
ATOM     10  C   UNL     1     -11.377   0.480 -10.572  1.00  0.00     0.040 C 
BRANCH  10  11
ATOM     11  C   UNL     1     -11.611  -0.994 -10.376  1.00  0.00    -0.040 A 
ATOM     12  C   UNL     1     -12.800  -1.589 -10.828  1.00  0.00     0.050 A 
ATOM     13  C   UNL     1     -10.618  -1.797  -9.790  1.00  0.00     0.050 A 
ATOM     14  C   UNL     1     -13.006  -2.964 -10.676  1.00  0.00     0.119 A 
ATOM     15  C   UNL     1     -10.822  -3.175  -9.637  1.00  0.00     0.119 A 
ATOM     16  C   UNL     1     -12.015  -3.755 -10.077  1.00  0.00     0.092 A 
BRANCH  14  17
ATOM     17  O   UNL     1     -14.195  -3.534 -11.125  1.00  0.00    -0.508 OA
ATOM     18  H   UNL     1     -14.319  -4.540 -11.160  1.00  0.00     0.293 HD
ENDBRANCH  14  17
BRANCH  15  19
ATOM     19  O   UNL     1      -9.844  -3.976  -9.051  1.00  0.00    -0.508 OA
ATOM     20  H   UNL     1      -9.954  -4.343  -8.113  1.00  0.00     0.293 HD
ENDBRANCH  15  19
ENDBRANCH  10  11
ENDBRANCH   1  10
TORSDOF 6
ENDMDL
