MODEL 1
REMARK VINA RESULT:    -4.493      0.000      0.000
REMARK INTER + INTRA:          -4.493
REMARK INTER:                  -4.493
REMARK INTRA:                   0.000
REMARK UNBOUND:                 0.000
REMARK SMILES CC1=CC[C@H]2[C@H](C1)C2(C)C
REMARK SMILES IDX 1 1 2 2 3 3 4 4 5 5 6 6 7 7 8 8 9 9 10 10
REMARK H PARENT
REMARK Flexibility Score: inf
ROOT
ATOM      1  C   UNL     1       7.107  -2.624  17.503  1.00  0.00     0.039 C 
ATOM      2  C   UNL     1       5.739  -2.404  16.925  1.00  0.00    -0.077 C 
ATOM      3  C   UNL     1       5.605  -2.163  15.587  1.00  0.00    -0.028 C 
ATOM      4  C   UNL     1       4.240  -1.957  14.935  1.00  0.00     0.031 C 
ATOM      5  C   UNL     1       3.187  -2.621  15.828  1.00  0.00     0.003 C 
ATOM      6  C   UNL     1       3.344  -1.787  17.155  1.00  0.00     0.003 C 
ATOM      7  C   UNL     1       4.508  -2.519  17.833  1.00  0.00     0.034 C 
ATOM      8  C   UNL     1       1.981  -2.164  16.620  1.00  0.00    -0.029 C 
ATOM      9  C   UNL     1       1.229  -3.233  17.418  1.00  0.00     0.012 C 
ATOM     10  C   UNL     1       1.154  -1.046  15.979  1.00  0.00     0.012 C 
ENDROOT
TORSDOF 0
ENDMDL
MODEL 2
REMARK VINA RESULT:    -4.451      0.908      2.224
REMARK INTER + INTRA:          -4.451
REMARK INTER:                  -4.451
REMARK INTRA:                   0.000
REMARK UNBOUND:                 0.000
REMARK SMILES CC1=CC[C@H]2[C@H](C1)C2(C)C
REMARK SMILES IDX 1 1 2 2 3 3 4 4 5 5 6 6 7 7 8 8 9 9 10 10
REMARK H PARENT
REMARK Flexibility Score: inf
ROOT
ATOM      1  C   UNL     1       7.695  -2.661  17.114  1.00  0.00     0.039 C 
ATOM      2  C   UNL     1       6.205  -2.563  17.272  1.00  0.00    -0.077 C 
ATOM      3  C   UNL     1       5.645  -2.759  18.502  1.00  0.00    -0.028 C 
ATOM      4  C   UNL     1       4.140  -2.648  18.732  1.00  0.00     0.031 C 
ATOM      5  C   UNL     1       3.558  -1.770  17.619  1.00  0.00     0.003 C 
ATOM      6  C   UNL     1       3.903  -2.627  16.344  1.00  0.00     0.003 C 
ATOM      7  C   UNL     1       5.343  -2.181  16.063  1.00  0.00     0.034 C 
ATOM      8  C   UNL     1       2.560  -1.949  16.495  1.00  0.00    -0.029 C 
ATOM      9  C   UNL     1       2.319  -0.744  15.582  1.00  0.00     0.012 C 
ATOM     10  C   UNL     1       1.361  -2.847  16.813  1.00  0.00     0.012 C 
ENDROOT
TORSDOF 0
ENDMDL
MODEL 3
REMARK VINA RESULT:    -4.362      1.620      4.331
REMARK INTER + INTRA:          -4.362
REMARK INTER:                  -4.362
REMARK INTRA:                   0.000
REMARK UNBOUND:                 0.000
REMARK SMILES CC1=CC[C@H]2[C@H](C1)C2(C)C
REMARK SMILES IDX 1 1 2 2 3 3 4 4 5 5 6 6 7 7 8 8 9 9 10 10
REMARK H PARENT
REMARK Flexibility Score: inf
ROOT
ATOM      1  C   UNL     1       0.929  -4.682  18.579  1.00  0.00     0.039 C 
ATOM      2  C   UNL     1       2.226  -3.981  18.297  1.00  0.00    -0.077 C 
ATOM      3  C   UNL     1       2.372  -3.280  17.133  1.00  0.00    -0.028 C 
ATOM      4  C   UNL     1       3.656  -2.525  16.799  1.00  0.00     0.031 C 
ATOM      5  C   UNL     1       4.381  -2.224  18.116  1.00  0.00     0.003 C 
ATOM      6  C   UNL     1       4.667  -3.680  18.644  1.00  0.00     0.003 C 
ATOM      7  C   UNL     1       3.344  -4.009  19.346  1.00  0.00     0.034 C 
ATOM      8  C   UNL     1       5.710  -2.590  18.739  1.00  0.00    -0.029 C 
ATOM      9  C   UNL     1       5.987  -2.058  20.148  1.00  0.00     0.012 C 
ATOM     10  C   UNL     1       6.894  -2.676  17.770  1.00  0.00     0.012 C 
ENDROOT
TORSDOF 0
ENDMDL
MODEL 4
REMARK VINA RESULT:    -4.347      1.580      4.225
REMARK INTER + INTRA:          -4.347
REMARK INTER:                  -4.347
REMARK INTRA:                   0.000
REMARK UNBOUND:                 0.000
REMARK SMILES CC1=CC[C@H]2[C@H](C1)C2(C)C
REMARK SMILES IDX 1 1 2 2 3 3 4 4 5 5 6 6 7 7 8 8 9 9 10 10
REMARK H PARENT
REMARK Flexibility Score: inf
ROOT
ATOM      1  C   UNL     1      -0.513  -1.939  19.365  1.00  0.00     0.039 C 
ATOM      2  C   UNL     1       0.719  -2.253  18.566  1.00  0.00    -0.077 C 
ATOM      3  C   UNL     1       1.726  -2.974  19.140  1.00  0.00    -0.028 C 
ATOM      4  C   UNL     1       2.993  -3.347  18.373  1.00  0.00     0.031 C 
ATOM      5  C   UNL     1       2.662  -3.314  16.877  1.00  0.00     0.003 C 
ATOM      6  C   UNL     1       2.274  -1.800  16.684  1.00  0.00     0.003 C 
ATOM      7  C   UNL     1       0.799  -1.814  17.099  1.00  0.00     0.034 C 
ATOM      8  C   UNL     1       3.130  -2.527  15.672  1.00  0.00    -0.029 C 
ATOM      9  C   UNL     1       2.454  -2.838  14.334  1.00  0.00     0.012 C 
ATOM     10  C   UNL     1       4.622  -2.179  15.647  1.00  0.00     0.012 C 
ENDROOT
TORSDOF 0
ENDMDL
MODEL 5
REMARK VINA RESULT:    -4.339      1.295      2.423
REMARK INTER + INTRA:          -4.339
REMARK INTER:                  -4.339
REMARK INTRA:                   0.000
REMARK UNBOUND:                 0.000
REMARK SMILES CC1=CC[C@H]2[C@H](C1)C2(C)C
REMARK SMILES IDX 1 1 2 2 3 3 4 4 5 5 6 6 7 7 8 8 9 9 10 10
REMARK H PARENT
REMARK Flexibility Score: inf
ROOT
ATOM      1  C   UNL     1       6.355  -2.658  17.931  1.00  0.00     0.039 C 
ATOM      2  C   UNL     1       4.973  -2.462  17.378  1.00  0.00    -0.077 C 
ATOM      3  C   UNL     1       3.903  -2.456  18.227  1.00  0.00    -0.028 C 
ATOM      4  C   UNL     1       2.476  -2.237  17.730  1.00  0.00     0.031 C 
ATOM      5  C   UNL     1       2.554  -1.493  16.393  1.00  0.00     0.003 C 
ATOM      6  C   UNL     1       3.337  -2.535  15.510  1.00  0.00     0.003 C 
ATOM      7  C   UNL     1       4.790  -2.207  15.877  1.00  0.00     0.034 C 
ATOM      8  C   UNL     1       2.152  -1.775  14.961  1.00  0.00    -0.029 C 
ATOM      9  C   UNL     1       2.479  -0.697  13.924  1.00  0.00     0.012 C 
ATOM     10  C   UNL     1       0.847  -2.557  14.782  1.00  0.00     0.012 C 
ENDROOT
TORSDOF 0
ENDMDL
MODEL 6
REMARK VINA RESULT:    -4.329      1.384      2.559
REMARK INTER + INTRA:          -4.329
REMARK INTER:                  -4.329
REMARK INTRA:                   0.000
REMARK UNBOUND:                 0.000
REMARK SMILES CC1=CC[C@H]2[C@H](C1)C2(C)C
REMARK SMILES IDX 1 1 2 2 3 3 4 4 5 5 6 6 7 7 8 8 9 9 10 10
REMARK H PARENT
REMARK Flexibility Score: inf
ROOT
ATOM      1  C   UNL     1       5.077  -2.234  15.619  1.00  0.00     0.039 C 
ATOM      2  C   UNL     1       3.717  -2.202  16.254  1.00  0.00    -0.077 C 
ATOM      3  C   UNL     1       2.732  -1.438  15.695  1.00  0.00    -0.028 C 
ATOM      4  C   UNL     1       1.322  -1.383  16.278  1.00  0.00     0.031 C 
ATOM      5  C   UNL     1       1.102  -2.660  17.095  1.00  0.00     0.003 C 
ATOM      6  C   UNL     1       2.210  -2.507  18.204  1.00  0.00     0.003 C 
ATOM      7  C   UNL     1       3.436  -3.076  17.482  1.00  0.00     0.034 C 
ATOM      8  C   UNL     1       0.820  -2.994  18.544  1.00  0.00    -0.029 C 
ATOM      9  C   UNL     1       0.708  -4.478  18.905  1.00  0.00     0.012 C 
ATOM     10  C   UNL     1      -0.098  -2.015  19.283  1.00  0.00     0.012 C 
ENDROOT
TORSDOF 0
ENDMDL
MODEL 7
REMARK VINA RESULT:    -4.324      1.642      3.368
REMARK INTER + INTRA:          -4.324
REMARK INTER:                  -4.324
REMARK INTRA:                   0.000
REMARK UNBOUND:                 0.000
REMARK SMILES CC1=CC[C@H]2[C@H](C1)C2(C)C
REMARK SMILES IDX 1 1 2 2 3 3 4 4 5 5 6 6 7 7 8 8 9 9 10 10
REMARK H PARENT
REMARK Flexibility Score: inf
ROOT
ATOM      1  C   UNL     1       3.210  -0.762  14.757  1.00  0.00     0.039 C 
ATOM      2  C   UNL     1       2.845  -1.615  15.937  1.00  0.00    -0.077 C 
ATOM      3  C   UNL     1       3.822  -2.307  16.595  1.00  0.00    -0.028 C 
ATOM      4  C   UNL     1       3.518  -3.172  17.817  1.00  0.00     0.031 C 
ATOM      5  C   UNL     1       2.215  -2.661  18.441  1.00  0.00     0.003 C 
ATOM      6  C   UNL     1       1.196  -2.912  17.267  1.00  0.00     0.003 C 
ATOM      7  C   UNL     1       1.391  -1.646  16.425  1.00  0.00     0.034 C 
ATOM      8  C   UNL     1       0.835  -3.224  18.702  1.00  0.00    -0.029 C 
ATOM      9  C   UNL     1      -0.187  -2.284  19.347  1.00  0.00     0.012 C 
ATOM     10  C   UNL     1       0.788  -4.702  19.100  1.00  0.00     0.012 C 
ENDROOT
TORSDOF 0
ENDMDL
MODEL 8
REMARK VINA RESULT:    -4.308      1.582      4.507
REMARK INTER + INTRA:          -4.308
REMARK INTER:                  -4.308
REMARK INTRA:                   0.000
REMARK UNBOUND:                 0.000
REMARK SMILES CC1=CC[C@H]2[C@H](C1)C2(C)C
REMARK SMILES IDX 1 1 2 2 3 3 4 4 5 5 6 6 7 7 8 8 9 9 10 10
REMARK H PARENT
REMARK Flexibility Score: inf
ROOT
ATOM      1  C   UNL     1       1.296  -2.888  16.111  1.00  0.00     0.039 C 
ATOM      2  C   UNL     1       2.397  -3.058  17.118  1.00  0.00    -0.077 C 
ATOM      3  C   UNL     1       2.302  -4.045  18.058  1.00  0.00    -0.028 C 
ATOM      4  C   UNL     1       3.399  -4.285  19.093  1.00  0.00     0.031 C 
ATOM      5  C   UNL     1       4.705  -3.711  18.534  1.00  0.00     0.003 C 
ATOM      6  C   UNL     1       4.336  -2.186  18.402  1.00  0.00     0.003 C 
ATOM      7  C   UNL     1       3.640  -2.163  17.036  1.00  0.00     0.034 C 
ATOM      8  C   UNL     1       5.681  -2.626  18.934  1.00  0.00    -0.029 C 
ATOM      9  C   UNL     1       6.873  -2.386  18.003  1.00  0.00     0.012 C 
ATOM     10  C   UNL     1       5.916  -2.470  20.440  1.00  0.00     0.012 C 
ENDROOT
TORSDOF 0
ENDMDL
MODEL 9
REMARK VINA RESULT:    -4.294      1.785      3.426
REMARK INTER + INTRA:          -4.294
REMARK INTER:                  -4.294
REMARK INTRA:                   0.000
REMARK UNBOUND:                 0.000
REMARK SMILES CC1=CC[C@H]2[C@H](C1)C2(C)C
REMARK SMILES IDX 1 1 2 2 3 3 4 4 5 5 6 6 7 7 8 8 9 9 10 10
REMARK H PARENT
REMARK Flexibility Score: inf
ROOT
ATOM      1  C   UNL     1       4.219  -1.619  14.717  1.00  0.00     0.039 C 
ATOM      2  C   UNL     1       3.668  -2.287  15.943  1.00  0.00    -0.077 C 
ATOM      3  C   UNL     1       2.352  -2.651  15.977  1.00  0.00    -0.028 C 
ATOM      4  C   UNL     1       1.739  -3.357  17.184  1.00  0.00     0.031 C 
ATOM      5  C   UNL     1       2.872  -4.045  17.952  1.00  0.00     0.003 C 
ATOM      6  C   UNL     1       3.752  -2.808  18.370  1.00  0.00     0.003 C 
ATOM      7  C   UNL     1       4.606  -2.609  17.113  1.00  0.00     0.034 C 
ATOM      8  C   UNL     1       3.477  -3.938  19.335  1.00  0.00    -0.029 C 
ATOM      9  C   UNL     1       4.668  -4.850  19.644  1.00  0.00     0.012 C 
ATOM     10  C   UNL     1       2.487  -3.658  20.470  1.00  0.00     0.012 C 
ENDROOT
TORSDOF 0
ENDMDL
