MODEL 1
REMARK VINA RESULT:    -3.318      0.000      0.000
REMARK INTER + INTRA:          -4.741
REMARK INTER:                  -4.288
REMARK INTRA:                  -0.453
REMARK UNBOUND:                -0.453
REMARK SMILES CCCCCCC(=O)[O-]
REMARK SMILES IDX 5 1 6 2 7 3 8 4 9 5 4 6 3 7 2 8 1 9
REMARK H PARENT
REMARK Flexibility Score: inf
ROOT
ATOM      1  C   UNL     1     -34.265  25.525  31.359  1.00  0.00     0.006 C 
ENDROOT
BRANCH   1   2
ATOM      2  C   UNL     1     -34.080  24.768  32.679  1.00  0.00     0.053 C 
BRANCH   2   3
ATOM      3  C   UNL     1     -34.544  23.352  32.537  1.00  0.00     0.041 C 
ATOM      4  O   UNL     1     -35.751  23.105  32.280  1.00  0.00    -0.550 OA
ATOM      5  O   UNL     1     -33.634  22.308  32.641  1.00  0.00    -0.550 OA
ENDBRANCH   2   3
ENDBRANCH   1   2
BRANCH   1   6
ATOM      6  C   UNL     1     -33.316  25.032  30.255  1.00  0.00     0.000 C 
BRANCH   6   7
ATOM      7  C   UNL     1     -31.837  25.133  30.657  1.00  0.00    -0.000 C 
BRANCH   7   8
ATOM      8  C   UNL     1     -31.111  23.805  30.414  1.00  0.00    -0.003 C 
ATOM      9  C   UNL     1     -31.916  22.895  29.490  1.00  0.00     0.004 C 
ENDBRANCH   7   8
ENDBRANCH   6   7
ENDBRANCH   1   6
TORSDOF 5
ENDMDL
MODEL 2
REMARK VINA RESULT:    -3.303      1.483      2.332
REMARK INTER + INTRA:          -4.721
REMARK INTER:                  -4.541
REMARK INTRA:                  -0.180
REMARK UNBOUND:                -0.453
REMARK SMILES CCCCCCC(=O)[O-]
REMARK SMILES IDX 5 1 6 2 7 3 8 4 9 5 4 6 3 7 2 8 1 9
REMARK H PARENT
REMARK Flexibility Score: inf
ROOT
ATOM      1  C   UNL     1     -32.259  25.284  30.749  1.00  0.00     0.006 C 
ENDROOT
BRANCH   1   2
ATOM      2  C   UNL     1     -33.783  25.373  30.604  1.00  0.00     0.053 C 
BRANCH   2   3
ATOM      3  C   UNL     1     -34.452  25.019  31.895  1.00  0.00     0.041 C 
ATOM      4  O   UNL     1     -34.133  25.615  32.957  1.00  0.00    -0.550 OA
ATOM      5  O   UNL     1     -35.461  24.066  31.917  1.00  0.00    -0.550 OA
ENDBRANCH   2   3
ENDBRANCH   1   2
BRANCH   1   6
ATOM      6  C   UNL     1     -31.612  24.402  29.670  1.00  0.00     0.000 C 
BRANCH   6   7
ATOM      7  C   UNL     1     -32.011  22.925  29.795  1.00  0.00    -0.000 C 
BRANCH   7   8
ATOM      8  C   UNL     1     -31.267  22.066  28.765  1.00  0.00    -0.003 C 
ATOM      9  C   UNL     1     -30.043  22.795  28.220  1.00  0.00     0.004 C 
ENDBRANCH   7   8
ENDBRANCH   6   7
ENDBRANCH   1   6
TORSDOF 5
ENDMDL
MODEL 3
REMARK VINA RESULT:    -3.259      2.167      3.114
REMARK INTER + INTRA:          -4.664
REMARK INTER:                  -4.447
REMARK INTRA:                  -0.217
REMARK UNBOUND:                -0.453
REMARK SMILES CCCCCCC(=O)[O-]
REMARK SMILES IDX 5 1 6 2 7 3 8 4 9 5 4 6 3 7 2 8 1 9
REMARK H PARENT
REMARK Flexibility Score: inf
ROOT
ATOM      1  C   UNL     1     -31.598  24.374  29.594  1.00  0.00     0.006 C 
ENDROOT
BRANCH   1   2
ATOM      2  C   UNL     1     -31.986  25.125  30.873  1.00  0.00     0.053 C 
BRANCH   2   3
ATOM      3  C   UNL     1     -33.470  25.112  31.057  1.00  0.00     0.041 C 
ATOM      4  O   UNL     1     -34.209  25.781  30.288  1.00  0.00    -0.550 OA
ATOM      5  O   UNL     1     -34.042  24.321  32.045  1.00  0.00    -0.550 OA
ENDBRANCH   2   3
ENDBRANCH   1   2
BRANCH   1   6
ATOM      6  C   UNL     1     -31.767  22.853  29.726  1.00  0.00     0.000 C 
BRANCH   6   7
ATOM      7  C   UNL     1     -31.163  22.085  28.542  1.00  0.00    -0.000 C 
BRANCH   7   8
ATOM      8  C   UNL     1     -29.680  22.433  28.361  1.00  0.00    -0.003 C 
ATOM      9  C   UNL     1     -29.323  22.579  26.885  1.00  0.00     0.004 C 
ENDBRANCH   7   8
ENDBRANCH   6   7
ENDBRANCH   1   6
TORSDOF 5
ENDMDL
MODEL 4
REMARK VINA RESULT:    -3.187      1.544      3.405
REMARK INTER + INTRA:          -4.571
REMARK INTER:                  -4.164
REMARK INTRA:                  -0.407
REMARK UNBOUND:                -0.453
REMARK SMILES CCCCCCC(=O)[O-]
REMARK SMILES IDX 5 1 6 2 7 3 8 4 9 5 4 6 3 7 2 8 1 9
REMARK H PARENT
REMARK Flexibility Score: inf
ROOT
ATOM      1  C   UNL     1     -31.527  24.285  29.583  1.00  0.00     0.006 C 
ENDROOT
BRANCH   1   2
ATOM      2  C   UNL     1     -32.027  22.842  29.720  1.00  0.00     0.053 C 
BRANCH   2   3
ATOM      3  C   UNL     1     -31.609  22.267  31.036  1.00  0.00     0.041 C 
ATOM      4  O   UNL     1     -32.474  21.829  31.839  1.00  0.00    -0.550 OA
ATOM      5  O   UNL     1     -30.261  22.169  31.355  1.00  0.00    -0.550 OA
ENDBRANCH   2   3
ENDBRANCH   1   2
BRANCH   1   6
ATOM      6  C   UNL     1     -32.004  25.189  30.731  1.00  0.00     0.000 C 
BRANCH   6   7
ATOM      7  C   UNL     1     -33.520  25.433  30.701  1.00  0.00    -0.000 C 
BRANCH   7   8
ATOM      8  C   UNL     1     -34.131  25.264  32.097  1.00  0.00    -0.003 C 
ATOM      9  C   UNL     1     -35.143  24.122  32.122  1.00  0.00     0.004 C 
ENDBRANCH   7   8
ENDBRANCH   6   7
ENDBRANCH   1   6
TORSDOF 5
ENDMDL
MODEL 5
REMARK VINA RESULT:    -3.142      1.572      2.342
REMARK INTER + INTRA:          -4.514
REMARK INTER:                  -4.115
REMARK INTRA:                  -0.399
REMARK UNBOUND:                -0.453
REMARK SMILES CCCCCCC(=O)[O-]
REMARK SMILES IDX 5 1 6 2 7 3 8 4 9 5 4 6 3 7 2 8 1 9
REMARK H PARENT
REMARK Flexibility Score: inf
ROOT
ATOM      1  C   UNL     1     -32.243  25.212  30.726  1.00  0.00     0.006 C 
ENDROOT
BRANCH   1   2
ATOM      2  C   UNL     1     -33.766  25.373  30.659  1.00  0.00     0.053 C 
BRANCH   2   3
ATOM      3  C   UNL     1     -34.401  24.853  31.910  1.00  0.00     0.041 C 
ATOM      4  O   UNL     1     -33.877  25.087  33.030  1.00  0.00    -0.550 OA
ATOM      5  O   UNL     1     -35.599  24.153  31.842  1.00  0.00    -0.550 OA
ENDBRANCH   2   3
ENDBRANCH   1   2
BRANCH   1   6
ATOM      6  C   UNL     1     -31.701  24.255  29.654  1.00  0.00     0.000 C 
BRANCH   6   7
ATOM      7  C   UNL     1     -31.920  22.778  30.012  1.00  0.00    -0.000 C 
BRANCH   7   8
ATOM      8  C   UNL     1     -31.352  22.460  31.400  1.00  0.00    -0.003 C 
ATOM      9  C   UNL     1     -32.379  21.730  32.263  1.00  0.00     0.004 C 
ENDBRANCH   7   8
ENDBRANCH   6   7
ENDBRANCH   1   6
TORSDOF 5
ENDMDL
MODEL 6
REMARK VINA RESULT:    -3.120      3.023      4.535
REMARK INTER + INTRA:          -4.485
REMARK INTER:                  -4.285
REMARK INTRA:                  -0.201
REMARK UNBOUND:                -0.453
REMARK SMILES CCCCCCC(=O)[O-]
REMARK SMILES IDX 5 1 6 2 7 3 8 4 9 5 4 6 3 7 2 8 1 9
REMARK H PARENT
REMARK Flexibility Score: inf
ROOT
ATOM      1  C   UNL     1     -31.406  24.432  29.663  1.00  0.00     0.006 C 
ENDROOT
BRANCH   1   2
ATOM      2  C   UNL     1     -31.800  22.966  29.443  1.00  0.00     0.053 C 
BRANCH   2   3
ATOM      3  C   UNL     1     -30.753  22.259  28.642  1.00  0.00     0.041 C 
ATOM      4  O   UNL     1     -29.533  22.424  28.909  1.00  0.00    -0.550 OA
ATOM      5  O   UNL     1     -31.124  21.379  27.634  1.00  0.00    -0.550 OA
ENDBRANCH   2   3
ENDBRANCH   1   2
BRANCH   1   6
ATOM      6  C   UNL     1     -32.203  25.096  30.796  1.00  0.00     0.000 C 
BRANCH   6   7
ATOM      7  C   UNL     1     -33.678  25.317  30.433  1.00  0.00    -0.000 C 
BRANCH   7   8
ATOM      8  C   UNL     1     -34.596  24.904  31.589  1.00  0.00    -0.003 C 
ATOM      9  C   UNL     1     -33.911  25.105  32.938  1.00  0.00     0.004 C 
ENDBRANCH   7   8
ENDBRANCH   6   7
ENDBRANCH   1   6
TORSDOF 5
ENDMDL
MODEL 7
REMARK VINA RESULT:    -3.021      8.122      8.805
REMARK INTER + INTRA:          -4.357
REMARK INTER:                  -4.269
REMARK INTRA:                  -0.088
REMARK UNBOUND:                -0.453
REMARK SMILES CCCCCCC(=O)[O-]
REMARK SMILES IDX 5 1 6 2 7 3 8 4 9 5 4 6 3 7 2 8 1 9
REMARK H PARENT
REMARK Flexibility Score: inf
ROOT
ATOM      1  C   UNL     1     -31.803  19.512  24.971  1.00  0.00     0.006 C 
ENDROOT
BRANCH   1   2
ATOM      2  C   UNL     1     -33.296  19.403  24.637  1.00  0.00     0.053 C 
BRANCH   2   3
ATOM      3  C   UNL     1     -33.785  18.010  24.881  1.00  0.00     0.041 C 
ATOM      4  O   UNL     1     -33.809  17.174  23.941  1.00  0.00    -0.550 OA
ATOM      5  O   UNL     1     -34.167  17.621  26.159  1.00  0.00    -0.550 OA
ENDBRANCH   2   3
ENDBRANCH   1   2
BRANCH   1   6
ATOM      6  C   UNL     1     -30.958  19.958  23.768  1.00  0.00     0.000 C 
BRANCH   6   7
ATOM      7  C   UNL     1     -29.874  20.976  24.151  1.00  0.00    -0.000 C 
BRANCH   7   8
ATOM      8  C   UNL     1     -29.292  21.653  22.904  1.00  0.00    -0.003 C 
ATOM      9  C   UNL     1     -27.802  21.937  23.074  1.00  0.00     0.004 C 
ENDBRANCH   7   8
ENDBRANCH   6   7
ENDBRANCH   1   6
TORSDOF 5
ENDMDL
MODEL 8
REMARK VINA RESULT:    -2.932      8.268      9.342
REMARK INTER + INTRA:          -4.242
REMARK INTER:                  -4.046
REMARK INTRA:                  -0.196
REMARK UNBOUND:                -0.453
REMARK SMILES CCCCCCC(=O)[O-]
REMARK SMILES IDX 5 1 6 2 7 3 8 4 9 5 4 6 3 7 2 8 1 9
REMARK H PARENT
REMARK Flexibility Score: inf
ROOT
ATOM      1  C   UNL     1     -33.952  17.491  24.962  1.00  0.00     0.006 C 
ENDROOT
BRANCH   1   2
ATOM      2  C   UNL     1     -32.915  18.498  25.473  1.00  0.00     0.053 C 
BRANCH   2   3
ATOM      3  C   UNL     1     -32.870  19.698  24.581  1.00  0.00     0.041 C 
ATOM      4  O   UNL     1     -33.923  20.343  24.333  1.00  0.00    -0.550 OA
ATOM      5  O   UNL     1     -31.657  20.135  24.063  1.00  0.00    -0.550 OA
ENDBRANCH   2   3
ENDBRANCH   1   2
BRANCH   1   6
ATOM      6  C   UNL     1     -34.650  16.730  26.100  1.00  0.00     0.000 C 
BRANCH   6   7
ATOM      7  C   UNL     1     -33.967  15.394  26.425  1.00  0.00    -0.000 C 
BRANCH   7   8
ATOM      8  C   UNL     1     -34.003  15.111  27.931  1.00  0.00    -0.003 C 
ATOM      9  C   UNL     1     -32.685  15.496  28.597  1.00  0.00     0.004 C 
ENDBRANCH   7   8
ENDBRANCH   6   7
ENDBRANCH   1   6
TORSDOF 5
ENDMDL
MODEL 9
REMARK VINA RESULT:    -2.856      8.812      9.773
REMARK INTER + INTRA:          -4.144
REMARK INTER:                  -3.948
REMARK INTRA:                  -0.196
REMARK UNBOUND:                -0.453
REMARK SMILES CCCCCCC(=O)[O-]
REMARK SMILES IDX 5 1 6 2 7 3 8 4 9 5 4 6 3 7 2 8 1 9
REMARK H PARENT
REMARK Flexibility Score: inf
ROOT
ATOM      1  C   UNL     1     -33.192  19.647  24.364  1.00  0.00     0.006 C 
ENDROOT
BRANCH   1   2
ATOM      2  C   UNL     1     -31.701  19.949  24.558  1.00  0.00     0.053 C 
BRANCH   2   3
ATOM      3  C   UNL     1     -30.940  19.641  23.307  1.00  0.00     0.041 C 
ATOM      4  O   UNL     1     -30.180  20.506  22.800  1.00  0.00    -0.550 OA
ATOM      5  O   UNL     1     -31.032  18.381  22.729  1.00  0.00    -0.550 OA
ENDBRANCH   2   3
ENDBRANCH   1   2
BRANCH   1   6
ATOM      6  C   UNL     1     -33.712  18.579  25.339  1.00  0.00     0.000 C 
BRANCH   6   7
ATOM      7  C   UNL     1     -33.943  17.221  24.660  1.00  0.00    -0.000 C 
BRANCH   7   8
ATOM      8  C   UNL     1     -33.600  16.067  25.610  1.00  0.00    -0.003 C 
ATOM      9  C   UNL     1     -34.583  16.001  26.776  1.00  0.00     0.004 C 
ENDBRANCH   7   8
ENDBRANCH   6   7
ENDBRANCH   1   6
TORSDOF 5
ENDMDL
