MODEL 1
REMARK VINA RESULT:    -4.424      0.000      0.000
REMARK INTER + INTRA:          -5.010
REMARK INTER:                  -5.200
REMARK INTRA:                   0.190
REMARK UNBOUND:                 0.190
REMARK SMILES O=c1c(O)c(-c2ccc(O)cc2)oc2cc(O)cc(O)c12
REMARK SMILES IDX 5 1 3 2 2 3 1 4 21 5 19 6 18 7 16 8 15 9 14 10 13 11 6 12
REMARK SMILES IDX 7 13 8 14 9 15 12 16 11 17 10 18 4 20 20 22 17 24
REMARK H PARENT 10 19 4 21 20 23 17 25
REMARK Flexibility Score: inf
ROOT
ATOM      1  C   UNL     1      32.448  11.466  36.100  1.00  0.00     0.180 A 
ATOM      2  C   UNL     1      31.431  10.726  36.733  1.00  0.00     0.208 A 
ATOM      3  C   UNL     1      30.956  11.157  37.982  1.00  0.00     0.238 A 
ATOM      4  O   UNL     1      30.038  10.509  38.554  1.00  0.00    -0.285 OA
ATOM      5  C   UNL     1      31.516  12.303  38.582  1.00  0.00     0.111 A 
ATOM      6  C   UNL     1      31.096  12.801  39.840  1.00  0.00     0.134 A 
ATOM      7  C   UNL     1      31.711  13.944  40.375  1.00  0.00     0.093 A 
ATOM      8  C   UNL     1      32.733  14.596  39.681  1.00  0.00     0.123 A 
ATOM      9  C   UNL     1      33.150  14.108  38.438  1.00  0.00     0.094 A 
ATOM     10  C   UNL     1      32.550  12.972  37.887  1.00  0.00     0.146 A 
ATOM     11  O   UNL     1      32.963  12.533  36.703  1.00  0.00    -0.452 OA
ENDROOT
BRANCH   1  12
ATOM     12  C   UNL     1      32.988  11.085  34.774  1.00  0.00     0.021 A 
ATOM     13  C   UNL     1      32.110  10.628  33.777  1.00  0.00     0.016 A 
ATOM     14  C   UNL     1      32.601  10.241  32.526  1.00  0.00     0.047 A 
ATOM     15  C   UNL     1      33.972  10.292  32.261  1.00  0.00     0.115 A 
ATOM     16  C   UNL     1      34.369  11.115  34.509  1.00  0.00     0.016 A 
ATOM     17  C   UNL     1      34.856  10.726  33.257  1.00  0.00     0.047 A 
BRANCH  15  18
ATOM     18  O   UNL     1      34.447   9.904  31.009  1.00  0.00    -0.508 OA
ATOM     19  H   UNL     1      35.375  10.158  30.693  1.00  0.00     0.293 HD
ENDBRANCH  15  18
ENDBRANCH   1  12
BRANCH   2  20
ATOM     20  O   UNL     1      30.927   9.565  36.140  1.00  0.00    -0.502 OA
ATOM     21  H   UNL     1      30.153   9.581  35.486  1.00  0.00     0.293 HD
ENDBRANCH   2  20
BRANCH   6  22
ATOM     22  O   UNL     1      30.079  12.174  40.558  1.00  0.00    -0.507 OA
ATOM     23  H   UNL     1      29.122  12.506  40.529  1.00  0.00     0.293 HD
ENDBRANCH   6  22
BRANCH   8  24
ATOM     24  O   UNL     1      33.327  15.727  40.235  1.00  0.00    -0.508 OA
ATOM     25  H   UNL     1      34.235  15.684  40.681  1.00  0.00     0.293 HD
ENDBRANCH   8  24
TORSDOF 5
ENDMDL
MODEL 2
REMARK VINA RESULT:    -4.069      1.215      6.447
REMARK INTER + INTRA:          -4.593
REMARK INTER:                  -5.028
REMARK INTRA:                   0.435
REMARK UNBOUND:                 0.190
REMARK SMILES O=c1c(O)c(-c2ccc(O)cc2)oc2cc(O)cc(O)c12
REMARK SMILES IDX 5 1 3 2 2 3 1 4 21 5 19 6 18 7 16 8 15 9 14 10 13 11 6 12
REMARK SMILES IDX 7 13 8 14 9 15 12 16 11 17 10 18 4 20 20 22 17 24
REMARK H PARENT 10 19 4 21 20 23 17 25
REMARK Flexibility Score: inf
ROOT
ATOM      1  C   UNL     1      32.105  12.095  36.758  1.00  0.00     0.180 A 
ATOM      2  C   UNL     1      31.117  11.103  36.602  1.00  0.00     0.208 A 
ATOM      3  C   UNL     1      31.194  10.236  35.501  1.00  0.00     0.238 A 
ATOM      4  O   UNL     1      30.322   9.337  35.356  1.00  0.00    -0.285 OA
ATOM      5  C   UNL     1      32.239  10.388  34.566  1.00  0.00     0.111 A 
ATOM      6  C   UNL     1      32.386   9.559  33.427  1.00  0.00     0.134 A 
ATOM      7  C   UNL     1      33.449   9.781  32.539  1.00  0.00     0.093 A 
ATOM      8  C   UNL     1      34.365  10.811  32.765  1.00  0.00     0.123 A 
ATOM      9  C   UNL     1      34.225  11.632  33.889  1.00  0.00     0.094 A 
ATOM     10  C   UNL     1      33.174  11.427  34.787  1.00  0.00     0.146 A 
ATOM     11  O   UNL     1      33.067  12.219  35.849  1.00  0.00    -0.452 OA
ENDROOT
BRANCH   1  12
ATOM     12  C   UNL     1      32.102  13.034  37.903  1.00  0.00     0.021 A 
ATOM     13  C   UNL     1      30.895  13.308  38.568  1.00  0.00     0.016 A 
ATOM     14  C   UNL     1      30.865  14.209  39.637  1.00  0.00     0.047 A 
ATOM     15  C   UNL     1      32.035  14.856  40.045  1.00  0.00     0.115 A 
ATOM     16  C   UNL     1      33.272  13.704  38.304  1.00  0.00     0.016 A 
ATOM     17  C   UNL     1      33.238  14.605  39.374  1.00  0.00     0.047 A 
BRANCH  15  18
ATOM     18  O   UNL     1      31.991  15.751  41.113  1.00  0.00    -0.508 OA
ATOM     19  H   UNL     1      31.475  16.620  41.054  1.00  0.00     0.293 HD
ENDBRANCH  15  18
ENDBRANCH   1  12
BRANCH   2  20
ATOM     20  O   UNL     1      30.064  11.005  37.515  1.00  0.00    -0.502 OA
ATOM     21  H   UNL     1      29.381  11.743  37.638  1.00  0.00     0.293 HD
ENDBRANCH   2  20
BRANCH   6  22
ATOM     22  O   UNL     1      31.488   8.523  33.173  1.00  0.00    -0.507 OA
ATOM     23  H   UNL     1      30.502   8.606  33.393  1.00  0.00     0.293 HD
ENDBRANCH   6  22
BRANCH   8  24
ATOM     24  O   UNL     1      35.410  11.010  31.867  1.00  0.00    -0.508 OA
ATOM     25  H   UNL     1      35.975  10.239  31.531  1.00  0.00     0.293 HD
ENDBRANCH   8  24
TORSDOF 5
ENDMDL
MODEL 3
REMARK VINA RESULT:    -2.244      1.496      3.219
REMARK INTER + INTRA:          -2.448
REMARK INTER:                  -2.292
REMARK INTRA:                  -0.156
REMARK UNBOUND:                 0.190
REMARK SMILES O=c1c(O)c(-c2ccc(O)cc2)oc2cc(O)cc(O)c12
REMARK SMILES IDX 5 1 3 2 2 3 1 4 21 5 19 6 18 7 16 8 15 9 14 10 13 11 6 12
REMARK SMILES IDX 7 13 8 14 9 15 12 16 11 17 10 18 4 20 20 22 17 24
REMARK H PARENT 10 19 4 21 20 23 17 25
REMARK Flexibility Score: inf
ROOT
ATOM      1  C   UNL     1      32.249  11.175  36.217  1.00  0.00     0.180 A 
ATOM      2  C   UNL     1      32.178  12.513  36.653  1.00  0.00     0.208 A 
ATOM      3  C   UNL     1      31.723  12.779  37.953  1.00  0.00     0.238 A 
ATOM      4  O   UNL     1      31.665  13.972  38.359  1.00  0.00    -0.285 OA
ATOM      5  C   UNL     1      31.329  11.712  38.786  1.00  0.00     0.111 A 
ATOM      6  C   UNL     1      30.854  11.895  40.108  1.00  0.00     0.134 A 
ATOM      7  C   UNL     1      30.472  10.781  40.870  1.00  0.00     0.093 A 
ATOM      8  C   UNL     1      30.554   9.492  40.340  1.00  0.00     0.123 A 
ATOM      9  C   UNL     1      31.022   9.305  39.034  1.00  0.00     0.094 A 
ATOM     10  C   UNL     1      31.409  10.401  38.259  1.00  0.00     0.146 A 
ATOM     11  O   UNL     1      31.854  10.195  37.024  1.00  0.00    -0.452 OA
ENDROOT
BRANCH   1  12
ATOM     12  C   UNL     1      32.736  10.813  34.866  1.00  0.00     0.021 A 
ATOM     13  C   UNL     1      34.081  11.047  34.532  1.00  0.00     0.016 A 
ATOM     14  C   UNL     1      34.557  10.735  33.255  1.00  0.00     0.047 A 
ATOM     15  C   UNL     1      33.695  10.199  32.293  1.00  0.00     0.115 A 
ATOM     16  C   UNL     1      31.868  10.293  33.889  1.00  0.00     0.016 A 
ATOM     17  C   UNL     1      32.348   9.982  32.612  1.00  0.00     0.047 A 
BRANCH  15  18
ATOM     18  O   UNL     1      34.184   9.891  31.025  1.00  0.00    -0.508 OA
ATOM     19  H   UNL     1      33.751  10.261  30.187  1.00  0.00     0.293 HD
ENDBRANCH  15  18
ENDBRANCH   1  12
BRANCH   2  20
ATOM     20  O   UNL     1      32.528  13.556  35.791  1.00  0.00    -0.502 OA
ATOM     21  H   UNL     1      32.035  13.733  34.924  1.00  0.00     0.293 HD
ENDBRANCH   2  20
BRANCH   6  22
ATOM     22  O   UNL     1      30.760  13.169  40.667  1.00  0.00    -0.507 OA
ATOM     23  H   UNL     1      30.329  13.940  40.168  1.00  0.00     0.293 HD
ENDBRANCH   6  22
BRANCH   8  24
ATOM     24  O   UNL     1      30.167   8.403  41.117  1.00  0.00    -0.508 OA
ATOM     25  H   UNL     1      30.316   8.387  42.119  1.00  0.00     0.293 HD
ENDBRANCH   8  24
TORSDOF 5
ENDMDL
MODEL 4
REMARK VINA RESULT:    -1.580     16.352     21.263
REMARK INTER + INTRA:          -1.667
REMARK INTER:                  -1.574
REMARK INTRA:                  -0.093
REMARK UNBOUND:                 0.190
REMARK SMILES O=c1c(O)c(-c2ccc(O)cc2)oc2cc(O)cc(O)c12
REMARK SMILES IDX 5 1 3 2 2 3 1 4 21 5 19 6 18 7 16 8 15 9 14 10 13 11 6 12
REMARK SMILES IDX 7 13 8 14 9 15 12 16 11 17 10 18 4 20 20 22 17 24
REMARK H PARENT 10 19 4 21 20 23 17 25
REMARK Flexibility Score: inf
ROOT
ATOM      1  C   UNL     1      44.913   3.308  23.632  1.00  0.00     0.180 A 
ATOM      2  C   UNL     1      45.544   2.112  23.237  1.00  0.00     0.208 A 
ATOM      3  C   UNL     1      46.715   2.186  22.466  1.00  0.00     0.238 A 
ATOM      4  O   UNL     1      47.295   1.123  22.115  1.00  0.00    -0.285 OA
ATOM      5  C   UNL     1      47.222   3.447  22.089  1.00  0.00     0.111 A 
ATOM      6  C   UNL     1      48.394   3.608  21.309  1.00  0.00     0.134 A 
ATOM      7  C   UNL     1      48.828   4.897  20.967  1.00  0.00     0.093 A 
ATOM      8  C   UNL     1      48.118   6.024  21.385  1.00  0.00     0.123 A 
ATOM      9  C   UNL     1      46.960   5.871  22.156  1.00  0.00     0.094 A 
ATOM     10  C   UNL     1      46.510   4.595  22.509  1.00  0.00     0.146 A 
ATOM     11  O   UNL     1      45.411   4.478  23.245  1.00  0.00    -0.452 OA
ENDROOT
BRANCH   1  12
ATOM     12  C   UNL     1      43.686   3.312  24.461  1.00  0.00     0.021 A 
ATOM     13  C   UNL     1      42.508   2.736  23.955  1.00  0.00     0.016 A 
ATOM     14  C   UNL     1      41.332   2.749  24.711  1.00  0.00     0.047 A 
ATOM     15  C   UNL     1      41.313   3.349  25.973  1.00  0.00     0.115 A 
ATOM     16  C   UNL     1      43.656   3.932  25.724  1.00  0.00     0.016 A 
ATOM     17  C   UNL     1      42.477   3.944  26.477  1.00  0.00     0.047 A 
BRANCH  15  18
ATOM     18  O   UNL     1      40.134   3.354  26.716  1.00  0.00    -0.508 OA
ATOM     19  H   UNL     1      39.844   4.168  27.244  1.00  0.00     0.293 HD
ENDBRANCH  15  18
ENDBRANCH   1  12
BRANCH   2  20
ATOM     20  O   UNL     1      44.995   0.875  23.583  1.00  0.00    -0.502 OA
ATOM     21  H   UNL     1      45.382  -0.002  23.255  1.00  0.00     0.293 HD
ENDBRANCH   2  20
BRANCH   6  22
ATOM     22  O   UNL     1      49.125   2.503  20.875  1.00  0.00    -0.507 OA
ATOM     23  H   UNL     1      48.757   1.856  20.187  1.00  0.00     0.293 HD
ENDBRANCH   6  22
BRANCH   8  24
ATOM     24  O   UNL     1      48.570   7.293  21.030  1.00  0.00    -0.508 OA
ATOM     25  H   UNL     1      48.269   7.743  20.174  1.00  0.00     0.293 HD
ENDBRANCH   8  24
TORSDOF 5
ENDMDL
