MODEL 1
REMARK VINA RESULT:    -2.960      0.000      0.000
REMARK INTER + INTRA:          -3.220
REMARK INTER:                  -3.220
REMARK INTRA:                   0.000
REMARK UNBOUND:                 0.000
REMARK SMILES [NH3+]CC(=O)[O-]
REMARK SMILES IDX 2 1 1 2 3 6 4 7 5 8
REMARK H PARENT 1 3 1 4 1 5
REMARK Flexibility Score: inf
ROOT
ATOM      1  C   UNL     1     -27.378  -6.679  14.832  1.00  0.00     0.312 C 
ENDROOT
BRANCH   1   2
ATOM      2  N   UNL     1     -27.829  -6.205  13.526  1.00  0.00    -0.353 N 
ATOM      3  H   UNL     1     -27.301  -5.344  13.254  1.00  0.00     0.344 HD
ATOM      4  H   UNL     1     -27.685  -6.950  12.805  1.00  0.00     0.344 HD
ATOM      5  H   UNL     1     -28.847  -5.976  13.577  1.00  0.00     0.344 HD
ENDBRANCH   1   2
BRANCH   1   6
ATOM      6  C   UNL     1     -26.312  -7.719  14.680  1.00  0.00     0.096 C 
ATOM      7  O   UNL     1     -25.113  -7.377  14.513  1.00  0.00    -0.544 OA
ATOM      8  O   UNL     1     -26.638  -9.067  14.773  1.00  0.00    -0.544 OA
ENDBRANCH   1   6
TORSDOF 2
ENDMDL
MODEL 2
REMARK VINA RESULT:    -2.936      3.964      4.227
REMARK INTER + INTRA:          -3.193
REMARK INTER:                  -3.193
REMARK INTRA:                   0.000
REMARK UNBOUND:                 0.000
REMARK SMILES [NH3+]CC(=O)[O-]
REMARK SMILES IDX 2 1 1 2 3 6 4 7 5 8
REMARK H PARENT 1 3 1 4 1 5
REMARK Flexibility Score: inf
ROOT
ATOM      1  C   UNL     1     -23.844  -4.882  16.251  1.00  0.00     0.312 C 
ENDROOT
BRANCH   1   2
ATOM      2  N   UNL     1     -23.384  -3.618  15.682  1.00  0.00    -0.353 N 
ATOM      3  H   UNL     1     -23.052  -3.765  14.701  1.00  0.00     0.344 HD
ATOM      4  H   UNL     1     -24.160  -2.917  15.691  1.00  0.00     0.344 HD
ATOM      5  H   UNL     1     -22.591  -3.253  16.256  1.00  0.00     0.344 HD
ENDBRANCH   1   2
BRANCH   1   6
ATOM      6  C   UNL     1     -23.133  -6.038  15.618  1.00  0.00     0.096 C 
ATOM      7  O   UNL     1     -21.997  -6.385  16.032  1.00  0.00    -0.544 OA
ATOM      8  O   UNL     1     -23.749  -6.763  14.605  1.00  0.00    -0.544 OA
ENDBRANCH   1   6
TORSDOF 2
ENDMDL
MODEL 3
REMARK VINA RESULT:    -2.828      5.380      5.587
REMARK INTER + INTRA:          -3.076
REMARK INTER:                  -3.076
REMARK INTRA:                   0.000
REMARK UNBOUND:                 0.000
REMARK SMILES [NH3+]CC(=O)[O-]
REMARK SMILES IDX 2 1 1 2 3 6 4 7 5 8
REMARK H PARENT 1 3 1 4 1 5
REMARK Flexibility Score: inf
ROOT
ATOM      1  C   UNL     1     -22.414  -6.397  15.727  1.00  0.00     0.312 C 
ENDROOT
BRANCH   1   2
ATOM      2  N   UNL     1     -21.075  -6.809  16.142  1.00  0.00    -0.353 N 
ATOM      3  H   UNL     1     -20.875  -7.776  15.797  1.00  0.00     0.344 HD
ATOM      4  H   UNL     1     -20.361  -6.144  15.762  1.00  0.00     0.344 HD
ATOM      5  H   UNL     1     -21.022  -6.804  17.185  1.00  0.00     0.344 HD
ENDBRANCH   1   2
BRANCH   1   6
ATOM      6  C   UNL     1     -22.875  -5.217  16.525  1.00  0.00     0.096 C 
ATOM      7  O   UNL     1     -22.574  -5.120  17.743  1.00  0.00    -0.544 OA
ATOM      8  O   UNL     1     -23.594  -4.200  15.910  1.00  0.00    -0.544 OA
ENDBRANCH   1   6
TORSDOF 2
ENDMDL
MODEL 4
REMARK VINA RESULT:    -2.811      5.034      5.252
REMARK INTER + INTRA:          -3.057
REMARK INTER:                  -3.057
REMARK INTRA:                   0.000
REMARK UNBOUND:                 0.000
REMARK SMILES [NH3+]CC(=O)[O-]
REMARK SMILES IDX 2 1 1 2 3 6 4 7 5 8
REMARK H PARENT 1 3 1 4 1 5
REMARK Flexibility Score: inf
ROOT
ATOM      1  C   UNL     1     -22.987  -4.923  18.066  1.00  0.00     0.312 C 
ENDROOT
BRANCH   1   2
ATOM      2  N   UNL     1     -24.315  -4.552  18.549  1.00  0.00    -0.353 N 
ATOM      3  H   UNL     1     -24.277  -4.334  19.571  1.00  0.00     0.344 HD
ATOM      4  H   UNL     1     -24.668  -3.719  18.023  1.00  0.00     0.344 HD
ATOM      5  H   UNL     1     -24.970  -5.351  18.398  1.00  0.00     0.344 HD
ENDBRANCH   1   2
BRANCH   1   6
ATOM      6  C   UNL     1     -22.984  -5.059  16.575  1.00  0.00     0.096 C 
ATOM      7  O   UNL     1     -23.514  -4.171  15.857  1.00  0.00    -0.544 OA
ATOM      8  O   UNL     1     -22.352  -6.142  15.977  1.00  0.00    -0.544 OA
ENDBRANCH   1   6
TORSDOF 2
ENDMDL
MODEL 5
REMARK VINA RESULT:    -2.803      2.101      2.295
REMARK INTER + INTRA:          -3.049
REMARK INTER:                  -3.049
REMARK INTRA:                   0.000
REMARK UNBOUND:                 0.000
REMARK SMILES [NH3+]CC(=O)[O-]
REMARK SMILES IDX 2 1 1 2 3 6 4 7 5 8
REMARK H PARENT 1 3 1 4 1 5
REMARK Flexibility Score: inf
ROOT
ATOM      1  C   UNL     1     -26.923  -9.075  15.120  1.00  0.00     0.312 C 
ENDROOT
BRANCH   1   2
ATOM      2  N   UNL     1     -28.101  -9.010  15.982  1.00  0.00    -0.353 N 
ATOM      3  H   UNL     1     -28.945  -9.344  15.461  1.00  0.00     0.344 HD
ATOM      4  H   UNL     1     -27.955  -9.600  16.834  1.00  0.00     0.344 HD
ATOM      5  H   UNL     1     -28.255  -8.020  16.278  1.00  0.00     0.344 HD
ENDBRANCH   1   2
BRANCH   1   6
ATOM      6  C   UNL     1     -26.459  -7.699  14.754  1.00  0.00     0.096 C 
ATOM      7  O   UNL     1     -25.230  -7.461  14.621  1.00  0.00    -0.544 OA
ATOM      8  O   UNL     1     -27.386  -6.694  14.509  1.00  0.00    -0.544 OA
ENDBRANCH   1   6
TORSDOF 2
ENDMDL
MODEL 6
REMARK VINA RESULT:    -2.763      4.111      4.670
REMARK INTER + INTRA:          -3.005
REMARK INTER:                  -3.005
REMARK INTRA:                   0.000
REMARK UNBOUND:                 0.000
REMARK SMILES [NH3+]CC(=O)[O-]
REMARK SMILES IDX 2 1 1 2 3 6 4 7 5 8
REMARK H PARENT 1 3 1 4 1 5
REMARK Flexibility Score: inf
ROOT
ATOM      1  C   UNL     1     -21.910  -7.124  15.520  1.00  0.00     0.312 C 
ENDROOT
BRANCH   1   2
ATOM      2  N   UNL     1     -21.749  -8.577  15.519  1.00  0.00    -0.353 N 
ATOM      3  H   UNL     1     -22.079  -8.974  14.609  1.00  0.00     0.344 HD
ATOM      4  H   UNL     1     -20.745  -8.826  15.671  1.00  0.00     0.344 HD
ATOM      5  H   UNL     1     -22.321  -8.985  16.293  1.00  0.00     0.344 HD
ENDBRANCH   1   2
BRANCH   1   6
ATOM      6  C   UNL     1     -23.306  -6.746  15.132  1.00  0.00     0.096 C 
ATOM      7  O   UNL     1     -23.976  -7.493  14.373  1.00  0.00    -0.544 OA
ATOM      8  O   UNL     1     -23.883  -5.593  15.651  1.00  0.00    -0.544 OA
ENDBRANCH   1   6
TORSDOF 2
ENDMDL
MODEL 7
REMARK VINA RESULT:    -2.749      5.775      6.096
REMARK INTER + INTRA:          -2.990
REMARK INTER:                  -2.990
REMARK INTRA:                   0.000
REMARK UNBOUND:                 0.000
REMARK SMILES [NH3+]CC(=O)[O-]
REMARK SMILES IDX 2 1 1 2 3 6 4 7 5 8
REMARK H PARENT 1 3 1 4 1 5
REMARK Flexibility Score: inf
ROOT
ATOM      1  C   UNL     1     -31.047 -11.712  14.246  1.00  0.00     0.312 C 
ENDROOT
BRANCH   1   2
ATOM      2  N   UNL     1     -30.397 -11.317  15.493  1.00  0.00    -0.353 N 
ATOM      3  H   UNL     1     -29.882 -12.130  15.903  1.00  0.00     0.344 HD
ATOM      4  H   UNL     1     -29.731 -10.530  15.316  1.00  0.00     0.344 HD
ATOM      5  H   UNL     1     -31.124 -10.999  16.173  1.00  0.00     0.344 HD
ENDBRANCH   1   2
BRANCH   1   6
ATOM      6  C   UNL     1     -30.041 -12.226  13.264  1.00  0.00     0.096 C 
ATOM      7  O   UNL     1     -28.819 -12.254  13.565  1.00  0.00    -0.544 OA
ATOM      8  O   UNL     1     -30.459 -12.723  12.035  1.00  0.00    -0.544 OA
ENDBRANCH   1   6
TORSDOF 2
ENDMDL
MODEL 8
REMARK VINA RESULT:    -2.688      6.362      6.834
REMARK INTER + INTRA:          -2.924
REMARK INTER:                  -2.924
REMARK INTRA:                   0.000
REMARK UNBOUND:                 0.000
REMARK SMILES [NH3+]CC(=O)[O-]
REMARK SMILES IDX 2 1 1 2 3 6 4 7 5 8
REMARK H PARENT 1 3 1 4 1 5
REMARK Flexibility Score: inf
ROOT
ATOM      1  C   UNL     1     -28.894 -12.002  10.218  1.00  0.00     0.312 C 
ENDROOT
BRANCH   1   2
ATOM      2  N   UNL     1     -27.737 -12.814   9.848  1.00  0.00    -0.353 N 
ATOM      3  H   UNL     1     -26.968 -12.680  10.544  1.00  0.00     0.344 HD
ATOM      4  H   UNL     1     -28.007 -13.825   9.809  1.00  0.00     0.344 HD
ATOM      5  H   UNL     1     -27.397 -12.518   8.906  1.00  0.00     0.344 HD
ENDBRANCH   1   2
BRANCH   1   6
ATOM      6  C   UNL     1     -29.369 -12.351  11.594  1.00  0.00     0.096 C 
ATOM      7  O   UNL     1     -30.567 -12.687  11.784  1.00  0.00    -0.544 OA
ATOM      8  O   UNL     1     -28.475 -12.356  12.658  1.00  0.00    -0.544 OA
ENDBRANCH   1   6
TORSDOF 2
ENDMDL
MODEL 9
REMARK VINA RESULT:    -2.650      2.222      2.670
REMARK INTER + INTRA:          -2.883
REMARK INTER:                  -2.883
REMARK INTRA:                   0.000
REMARK UNBOUND:                 0.000
REMARK SMILES [NH3+]CC(=O)[O-]
REMARK SMILES IDX 2 1 1 2 3 6 4 7 5 8
REMARK H PARENT 1 3 1 4 1 5
REMARK Flexibility Score: inf
ROOT
ATOM      1  C   UNL     1     -24.592  -7.142  14.114  1.00  0.00     0.312 C 
ENDROOT
BRANCH   1   2
ATOM      2  N   UNL     1     -23.948  -6.014  14.785  1.00  0.00    -0.353 N 
ATOM      3  H   UNL     1     -24.516  -5.146  14.650  1.00  0.00     0.344 HD
ATOM      4  H   UNL     1     -23.846  -6.215  15.806  1.00  0.00     0.344 HD
ATOM      5  H   UNL     1     -23.001  -5.866  14.372  1.00  0.00     0.344 HD
ENDBRANCH   1   2
BRANCH   1   6
ATOM      6  C   UNL     1     -25.892  -7.480  14.776  1.00  0.00     0.096 C 
ATOM      7  O   UNL     1     -26.315  -8.665  14.771  1.00  0.00    -0.544 OA
ATOM      8  O   UNL     1     -26.609  -6.495  15.444  1.00  0.00    -0.544 OA
ENDBRANCH   1   6
TORSDOF 2
ENDMDL
