MODEL 1
REMARK VINA RESULT:    -4.302      0.000      0.000
REMARK INTER + INTRA:          -4.428
REMARK INTER:                  -4.428
REMARK INTRA:                   0.000
REMARK UNBOUND:                 0.000
REMARK SMILES Oc1ccc2[nH]ccc2c1
REMARK SMILES IDX 3 1 4 2 5 3 9 4 8 5 7 6 6 7 10 8 2 9 1 11
REMARK H PARENT 6 10 1 12
REMARK Flexibility Score: inf
ROOT
ATOM      1  C   UNL     1      23.150  38.895  13.435  1.00  0.00     0.048 A 
ATOM      2  C   UNL     1      23.592  38.190  14.571  1.00  0.00     0.030 A 
ATOM      3  C   UNL     1      24.886  38.437  15.026  1.00  0.00     0.046 A 
ATOM      4  C   UNL     1      25.711  39.332  14.400  1.00  0.00     0.003 A 
ATOM      5  C   UNL     1      26.904  39.344  15.089  1.00  0.00     0.028 A 
ATOM      6  C   UNL     1      26.735  38.430  16.125  1.00  0.00     0.083 A 
ATOM      7  N   UNL     1      25.500  37.878  16.082  1.00  0.00    -0.361 N 
ATOM      8  C   UNL     1      25.305  40.045  13.275  1.00  0.00     0.056 A 
ATOM      9  C   UNL     1      24.004  39.821  12.787  1.00  0.00     0.116 A 
ATOM     10  H   UNL     1      25.110  37.166  16.738  1.00  0.00     0.166 HD
ENDROOT
BRANCH   9  11
ATOM     11  O   UNL     1      23.566  40.518  11.663  1.00  0.00    -0.508 OA
ATOM     12  H   UNL     1      23.976  41.406  11.399  1.00  0.00     0.293 HD
ENDBRANCH   9  11
TORSDOF 1
ENDMDL
MODEL 2
REMARK VINA RESULT:    -3.972      1.655      3.195
REMARK INTER + INTRA:          -4.088
REMARK INTER:                  -4.088
REMARK INTRA:                   0.000
REMARK UNBOUND:                 0.000
REMARK SMILES Oc1ccc2[nH]ccc2c1
REMARK SMILES IDX 3 1 4 2 5 3 9 4 8 5 7 6 6 7 10 8 2 9 1 11
REMARK H PARENT 6 10 1 12
REMARK Flexibility Score: inf
ROOT
ATOM      1  C   UNL     1      25.241  40.123  13.875  1.00  0.00     0.048 A 
ATOM      2  C   UNL     1      24.637  39.314  14.856  1.00  0.00     0.030 A 
ATOM      3  C   UNL     1      23.349  38.844  14.609  1.00  0.00     0.046 A 
ATOM      4  C   UNL     1      22.681  39.150  13.453  1.00  0.00     0.003 A 
ATOM      5  C   UNL     1      21.448  38.538  13.517  1.00  0.00     0.028 A 
ATOM      6  C   UNL     1      21.433  37.875  14.741  1.00  0.00     0.083 A 
ATOM      7  N   UNL     1      22.597  38.065  15.404  1.00  0.00    -0.361 N 
ATOM      8  C   UNL     1      23.249  39.946  12.463  1.00  0.00     0.056 A 
ATOM      9  C   UNL     1      24.550  40.440  12.679  1.00  0.00     0.116 A 
ATOM     10  H   UNL     1      22.854  37.683  16.341  1.00  0.00     0.166 HD
ENDROOT
BRANCH   9  11
ATOM     11  O   UNL     1      25.148  41.240  11.709  1.00  0.00    -0.508 OA
ATOM     12  H   UNL     1      26.142  41.186  11.518  1.00  0.00     0.293 HD
ENDBRANCH   9  11
TORSDOF 1
ENDMDL
MODEL 3
REMARK VINA RESULT:    -3.943      2.476      3.574
REMARK INTER + INTRA:          -4.058
REMARK INTER:                  -4.058
REMARK INTRA:                   0.000
REMARK UNBOUND:                 0.000
REMARK SMILES Oc1ccc2[nH]ccc2c1
REMARK SMILES IDX 3 1 4 2 5 3 9 4 8 5 7 6 6 7 10 8 2 9 1 11
REMARK H PARENT 6 10 1 12
REMARK Flexibility Score: inf
ROOT
ATOM      1  C   UNL     1      25.528  37.893  15.724  1.00  0.00     0.048 A 
ATOM      2  C   UNL     1      24.316  37.885  15.008  1.00  0.00     0.030 A 
ATOM      3  C   UNL     1      24.152  38.831  13.998  1.00  0.00     0.046 A 
ATOM      4  C   UNL     1      25.129  39.743  13.700  1.00  0.00     0.003 A 
ATOM      5  C   UNL     1      24.660  40.524  12.666  1.00  0.00     0.028 A 
ATOM      6  C   UNL     1      23.390  40.031  12.384  1.00  0.00     0.083 A 
ATOM      7  N   UNL     1      23.084  38.996  13.200  1.00  0.00    -0.361 N 
ATOM      8  C   UNL     1      26.338  39.777  14.389  1.00  0.00     0.056 A 
ATOM      9  C   UNL     1      26.539  38.837  15.416  1.00  0.00     0.116 A 
ATOM     10  H   UNL     1      22.198  38.443  13.205  1.00  0.00     0.166 HD
ENDROOT
BRANCH   9  11
ATOM     11  O   UNL     1      27.738  38.844  16.125  1.00  0.00    -0.508 OA
ATOM     12  H   UNL     1      28.146  37.988  16.482  1.00  0.00     0.293 HD
ENDBRANCH   9  11
TORSDOF 1
ENDMDL
MODEL 4
REMARK VINA RESULT:    -3.880      1.332      2.091
REMARK INTER + INTRA:          -3.994
REMARK INTER:                  -3.994
REMARK INTRA:                   0.000
REMARK UNBOUND:                 0.000
REMARK SMILES Oc1ccc2[nH]ccc2c1
REMARK SMILES IDX 3 1 4 2 5 3 9 4 8 5 7 6 6 7 10 8 2 9 1 11
REMARK H PARENT 6 10 1 12
REMARK Flexibility Score: inf
ROOT
ATOM      1  C   UNL     1      23.901  39.743  12.953  1.00  0.00     0.048 A 
ATOM      2  C   UNL     1      25.127  40.197  13.476  1.00  0.00     0.030 A 
ATOM      3  C   UNL     1      25.685  39.486  14.536  1.00  0.00     0.046 A 
ATOM      4  C   UNL     1      25.072  38.380  15.063  1.00  0.00     0.003 A 
ATOM      5  C   UNL     1      25.871  37.915  16.085  1.00  0.00     0.028 A 
ATOM      6  C   UNL     1      26.955  38.786  16.125  1.00  0.00     0.083 A 
ATOM      7  N   UNL     1      26.837  39.745  15.177  1.00  0.00    -0.361 N 
ATOM      8  C   UNL     1      23.860  37.905  14.569  1.00  0.00     0.056 A 
ATOM      9  C   UNL     1      23.267  38.599  13.498  1.00  0.00     0.116 A 
ATOM     10  H   UNL     1      27.506  40.523  14.986  1.00  0.00     0.166 HD
ENDROOT
BRANCH   9  11
ATOM     11  O   UNL     1      22.054  38.151  12.980  1.00  0.00    -0.508 OA
ATOM     12  H   UNL     1      21.268  38.778  12.857  1.00  0.00     0.293 HD
ENDBRANCH   9  11
TORSDOF 1
ENDMDL
MODEL 5
REMARK VINA RESULT:    -3.849      2.381      3.823
REMARK INTER + INTRA:          -3.962
REMARK INTER:                  -3.962
REMARK INTRA:                   0.000
REMARK UNBOUND:                 0.000
REMARK SMILES Oc1ccc2[nH]ccc2c1
REMARK SMILES IDX 3 1 4 2 5 3 9 4 8 5 7 6 6 7 10 8 2 9 1 11
REMARK H PARENT 6 10 1 12
REMARK Flexibility Score: inf
ROOT
ATOM      1  C   UNL     1      25.457  40.189  13.486  1.00  0.00     0.048 A 
ATOM      2  C   UNL     1      24.266  40.033  12.753  1.00  0.00     0.030 A 
ATOM      3  C   UNL     1      23.265  39.233  13.300  1.00  0.00     0.046 A 
ATOM      4  C   UNL     1      23.420  38.614  14.512  1.00  0.00     0.003 A 
ATOM      5  C   UNL     1      22.263  37.909  14.765  1.00  0.00     0.028 A 
ATOM      6  C   UNL     1      21.446  38.144  13.663  1.00  0.00     0.083 A 
ATOM      7  N   UNL     1      22.062  38.954  12.771  1.00  0.00    -0.361 N 
ATOM      8  C   UNL     1      24.585  38.749  15.263  1.00  0.00     0.056 A 
ATOM      9  C   UNL     1      25.618  39.549  14.740  1.00  0.00     0.116 A 
ATOM     10  H   UNL     1      21.678  39.290  11.861  1.00  0.00     0.166 HD
ENDROOT
BRANCH   9  11
ATOM     11  O   UNL     1      26.796  39.704  15.466  1.00  0.00    -0.508 OA
ATOM     12  H   UNL     1      27.701  39.509  15.053  1.00  0.00     0.293 HD
ENDBRANCH   9  11
TORSDOF 1
ENDMDL
MODEL 6
REMARK VINA RESULT:    -3.778     14.750     15.234
REMARK INTER + INTRA:          -3.888
REMARK INTER:                  -3.888
REMARK INTRA:                   0.000
REMARK UNBOUND:                 0.000
REMARK SMILES Oc1ccc2[nH]ccc2c1
REMARK SMILES IDX 3 1 4 2 5 3 9 4 8 5 7 6 6 7 10 8 2 9 1 11
REMARK H PARENT 6 10 1 12
REMARK Flexibility Score: inf
ROOT
ATOM      1  C   UNL     1      38.966  43.457  14.096  1.00  0.00     0.048 A 
ATOM      2  C   UNL     1      39.147  42.062  14.125  1.00  0.00     0.030 A 
ATOM      3  C   UNL     1      39.540  41.432  12.946  1.00  0.00     0.046 A 
ATOM      4  C   UNL     1      39.748  42.135  11.789  1.00  0.00     0.003 A 
ATOM      5  C   UNL     1      40.124  41.230  10.820  1.00  0.00     0.028 A 
ATOM      6  C   UNL     1      40.125  39.993  11.458  1.00  0.00     0.083 A 
ATOM      7  N   UNL     1      39.767  40.122  12.756  1.00  0.00    -0.361 N 
ATOM      8  C   UNL     1      39.578  43.515  11.726  1.00  0.00     0.056 A 
ATOM      9  C   UNL     1      39.180  44.185  12.899  1.00  0.00     0.116 A 
ATOM     10  H   UNL     1      39.687  39.357  13.462  1.00  0.00     0.166 HD
ENDROOT
BRANCH   9  11
ATOM     11  O   UNL     1      39.001  45.566  12.870  1.00  0.00    -0.508 OA
ATOM     12  H   UNL     1      38.156  45.996  13.227  1.00  0.00     0.293 HD
ENDBRANCH   9  11
TORSDOF 1
ENDMDL
MODEL 7
REMARK VINA RESULT:    -3.760     14.564     14.986
REMARK INTER + INTRA:          -3.870
REMARK INTER:                  -3.870
REMARK INTRA:                   0.000
REMARK UNBOUND:                 0.000
REMARK SMILES Oc1ccc2[nH]ccc2c1
REMARK SMILES IDX 3 1 4 2 5 3 9 4 8 5 7 6 6 7 10 8 2 9 1 11
REMARK H PARENT 6 10 1 12
REMARK Flexibility Score: inf
ROOT
ATOM      1  C   UNL     1      39.969  41.213  10.579  1.00  0.00     0.048 A 
ATOM      2  C   UNL     1      40.124  40.644  11.858  1.00  0.00     0.030 A 
ATOM      3  C   UNL     1      39.657  41.368  12.952  1.00  0.00     0.046 A 
ATOM      4  C   UNL     1      39.063  42.594  12.805  1.00  0.00     0.003 A 
ATOM      5  C   UNL     1      38.718  43.037  14.063  1.00  0.00     0.028 A 
ATOM      6  C   UNL     1      39.131  42.031  14.930  1.00  0.00     0.083 A 
ATOM      7  N   UNL     1      39.704  41.013  14.247  1.00  0.00    -0.361 N 
ATOM      8  C   UNL     1      38.894  43.183  11.555  1.00  0.00     0.056 A 
ATOM      9  C   UNL     1      39.355  42.480  10.426  1.00  0.00     0.116 A 
ATOM     10  H   UNL     1      40.100  40.134  14.648  1.00  0.00     0.166 HD
ENDROOT
BRANCH   9  11
ATOM     11  O   UNL     1      39.201  43.042   9.161  1.00  0.00    -0.508 OA
ATOM     12  H   UNL     1      38.830  42.505   8.385  1.00  0.00     0.293 HD
ENDBRANCH   9  11
TORSDOF 1
ENDMDL
MODEL 8
REMARK VINA RESULT:    -3.673      1.742      2.483
REMARK INTER + INTRA:          -3.781
REMARK INTER:                  -3.781
REMARK INTRA:                   0.000
REMARK UNBOUND:                 0.000
REMARK SMILES Oc1ccc2[nH]ccc2c1
REMARK SMILES IDX 3 1 4 2 5 3 9 4 8 5 7 6 6 7 10 8 2 9 1 11
REMARK H PARENT 6 10 1 12
REMARK Flexibility Score: inf
ROOT
ATOM      1  C   UNL     1      21.766  37.877  15.079  1.00  0.00     0.048 A 
ATOM      2  C   UNL     1      22.998  38.073  15.731  1.00  0.00     0.030 A 
ATOM      3  C   UNL     1      23.999  38.753  15.040  1.00  0.00     0.046 A 
ATOM      4  C   UNL     1      23.805  39.221  13.768  1.00  0.00     0.003 A 
ATOM      5  C   UNL     1      24.972  39.838  13.375  1.00  0.00     0.028 A 
ATOM      6  C   UNL     1      25.836  39.709  14.459  1.00  0.00     0.083 A 
ATOM      7  N   UNL     1      25.236  39.045  15.474  1.00  0.00    -0.361 N 
ATOM      8  C   UNL     1      22.599  39.044  13.095  1.00  0.00     0.056 A 
ATOM      9  C   UNL     1      21.565  38.361  13.762  1.00  0.00     0.116 A 
ATOM     10  H   UNL     1      25.654  38.810  16.401  1.00  0.00     0.166 HD
ENDROOT
BRANCH   9  11
ATOM     11  O   UNL     1      20.346  38.167  13.117  1.00  0.00    -0.508 OA
ATOM     12  H   UNL     1      19.484  38.057  13.638  1.00  0.00     0.293 HD
ENDBRANCH   9  11
TORSDOF 1
ENDMDL
MODEL 9
REMARK VINA RESULT:    -3.562     20.261     21.360
REMARK INTER + INTRA:          -3.667
REMARK INTER:                  -3.667
REMARK INTRA:                   0.000
REMARK UNBOUND:                 0.000
REMARK SMILES Oc1ccc2[nH]ccc2c1
REMARK SMILES IDX 3 1 4 2 5 3 9 4 8 5 7 6 6 7 10 8 2 9 1 11
REMARK H PARENT 6 10 1 12
REMARK Flexibility Score: inf
ROOT
ATOM      1  C   UNL     1      39.450  56.828  12.107  1.00  0.00     0.048 A 
ATOM      2  C   UNL     1      40.125  55.597  12.009  1.00  0.00     0.030 A 
ATOM      3  C   UNL     1      39.493  54.465  12.520  1.00  0.00     0.046 A 
ATOM      4  C   UNL     1      38.254  54.533  13.101  1.00  0.00     0.003 A 
ATOM      5  C   UNL     1      37.915  53.258  13.497  1.00  0.00     0.028 A 
ATOM      6  C   UNL     1      38.995  52.462  13.125  1.00  0.00     0.083 A 
ATOM      7  N   UNL     1      39.956  53.205  12.529  1.00  0.00    -0.361 N 
ATOM      8  C   UNL     1      37.559  55.735  13.213  1.00  0.00     0.056 A 
ATOM      9  C   UNL     1      38.169  56.899  12.708  1.00  0.00     0.116 A 
ATOM     10  H   UNL     1      40.868  52.863  12.154  1.00  0.00     0.166 HD
ENDROOT
BRANCH   9  11
ATOM     11  O   UNL     1      37.501  58.117  12.804  1.00  0.00    -0.508 OA
ATOM     12  H   UNL     1      36.618  58.199  13.296  1.00  0.00     0.293 HD
ENDBRANCH   9  11
TORSDOF 1
ENDMDL
