MODEL 1
REMARK VINA RESULT:    -3.192      0.000      0.000
REMARK INTER + INTRA:          -5.039
REMARK INTER:                  -4.871
REMARK INTRA:                  -0.168
REMARK UNBOUND:                -0.168
REMARK SMILES CC1=CCC[C@H](C)C(=O)C[C@H](C(C)C)C(=O)C1
REMARK SMILES IDX 8 1 9 2 6 3 7 4 5 5 4 6 3 7 2 8 1 9 10 11 11 12 15 13 16 14
REMARK SMILES IDX 17 15 12 17 13 18 14 19
REMARK H PARENT
REMARK Flexibility Score: 70.00
ROOT
ATOM      1  C   UNL     1      15.135  24.525  15.037  1.00  0.00     0.136 C 
ATOM      2  O   UNL     1      15.273  23.346  14.747  1.00  0.00    -0.299 OA
ENDROOT
BRANCH   1   3
ATOM      3  C   UNL     1      13.737  25.124  15.038  1.00  0.00     0.053 C 
ATOM      4  C   UNL     1      12.707  23.993  14.928  1.00  0.00     0.016 C 
BRANCH   3   5
ATOM      5  C   UNL     1      13.454  26.005  16.286  1.00  0.00     0.015 C 
BRANCH   5   6
ATOM      6  C   UNL     1      13.601  27.527  16.083  1.00  0.00     0.028 C 
BRANCH   6   7
ATOM      7  C   UNL     1      13.903  28.003  14.684  1.00  0.00    -0.028 C 
ATOM      8  C   UNL     1      15.102  28.439  14.231  1.00  0.00    -0.070 CG0
ATOM      9  C   UNL     1      15.123  29.136  12.892  1.00  0.00     0.039 C 
ATOM     10  G   UNL     1      16.405  28.276  14.995  1.00  0.00     0.000 G0
ENDBRANCH   6   7
ENDBRANCH   5   6
ENDBRANCH   3   5
ENDBRANCH   1   3
BRANCH   1  11
ATOM     11  C   UNL     1      16.339  25.312  15.518  1.00  0.00     0.087 C 
BRANCH  11  12
ATOM     12  C   UNL     1      17.304  25.818  14.404  1.00  0.00     0.066 C 
BRANCH  12  13
ATOM     13  C   UNL     1      17.342  27.334  14.260  1.00  0.00     0.140 C 
ATOM     14  O   UNL     1      18.219  27.822  13.562  1.00  0.00    -0.299 OA
BRANCH  13  15
ATOM     15  C   UNL     1      16.405  28.260  15.007  1.00  0.00     0.106 CG0
ATOM     16  G   UNL     1      15.109  28.445  14.236  1.00  0.00     0.000 G0
ENDBRANCH  13  15
ENDBRANCH  12  13
BRANCH  12  17
ATOM     17  C   UNL     1      18.742  25.231  14.569  1.00  0.00    -0.006 C 
ATOM     18  C   UNL     1      19.118  24.296  13.405  1.00  0.00     0.008 C 
ATOM     19  C   UNL     1      18.889  24.458  15.892  1.00  0.00     0.008 C 
ENDBRANCH  12  17
ENDBRANCH  11  12
ENDBRANCH   1  11
TORSDOF 1
ENDMDL
MODEL 2
REMARK VINA RESULT:    -2.972      2.132      3.090
REMARK INTER + INTRA:          -4.704
REMARK INTER:                  -4.537
REMARK INTRA:                  -0.167
REMARK UNBOUND:                -0.168
REMARK SMILES CC1=CCC[C@H](C)C(=O)C[C@H](C(C)C)C(=O)C1
REMARK SMILES IDX 8 1 9 2 6 3 7 4 5 5 4 6 3 7 2 8 1 9 10 11 11 12 15 13 16 14
REMARK SMILES IDX 17 15 12 17 13 18 14 19
REMARK H PARENT
REMARK Flexibility Score: 70.00
ROOT
ATOM      1  C   UNL     1      13.628  23.797  15.537  1.00  0.00     0.136 C 
ATOM      2  O   UNL     1      14.361  22.836  15.351  1.00  0.00    -0.299 OA
ENDROOT
BRANCH   1   3
ATOM      3  C   UNL     1      12.123  23.602  15.443  1.00  0.00     0.053 C 
ATOM      4  C   UNL     1      11.451  24.312  16.625  1.00  0.00     0.016 C 
BRANCH   3   5
ATOM      5  C   UNL     1      11.529  24.097  14.096  1.00  0.00     0.015 C 
BRANCH   5   6
ATOM      6  C   UNL     1      10.534  25.273  14.191  1.00  0.00     0.028 C 
BRANCH   6   7
ATOM      7  C   UNL     1      10.875  26.519  13.409  1.00  0.00    -0.028 C 
ATOM      8  C   UNL     1      11.667  27.532  13.829  1.00  0.00    -0.070 CG0
ATOM      9  C   UNL     1      11.647  28.806  13.020  1.00  0.00     0.039 C 
ATOM     10  G   UNL     1      12.554  27.458  15.061  1.00  0.00     0.000 G0
ENDBRANCH   6   7
ENDBRANCH   5   6
ENDBRANCH   3   5
ENDBRANCH   1   3
BRANCH   1  11
ATOM     11  C   UNL     1      14.235  25.111  15.988  1.00  0.00     0.087 C 
BRANCH  11  12
ATOM     12  C   UNL     1      14.792  26.023  14.854  1.00  0.00     0.066 C 
BRANCH  12  13
ATOM     13  C   UNL     1      14.016  27.319  14.664  1.00  0.00     0.140 C 
ATOM     14  O   UNL     1      14.621  28.292  14.237  1.00  0.00    -0.299 OA
BRANCH  13  15
ATOM     15  C   UNL     1      12.564  27.480  15.060  1.00  0.00     0.106 CG0
ATOM     16  G   UNL     1      11.674  27.521  13.829  1.00  0.00     0.000 G0
ENDBRANCH  13  15
ENDBRANCH  12  13
BRANCH  12  17
ATOM     17  C   UNL     1      16.319  26.299  15.027  1.00  0.00    -0.006 C 
ATOM     18  C   UNL     1      17.108  25.996  13.739  1.00  0.00     0.008 C 
ATOM     19  C   UNL     1      16.917  25.473  16.180  1.00  0.00     0.008 C 
ENDBRANCH  12  17
ENDBRANCH  11  12
ENDBRANCH   1  11
TORSDOF 1
ENDMDL
MODEL 3
REMARK VINA RESULT:    -2.851      6.402      8.630
REMARK INTER + INTRA:          -4.519
REMARK INTER:                  -4.833
REMARK INTRA:                   0.314
REMARK UNBOUND:                -0.168
REMARK SMILES CC1=CCC[C@H](C)C(=O)C[C@H](C(C)C)C(=O)C1
REMARK SMILES IDX 8 1 9 2 6 3 7 4 5 5 4 6 3 7 2 8 1 9 10 11 11 12 15 13 16 14
REMARK SMILES IDX 17 15 12 17 13 18 14 19
REMARK H PARENT
REMARK Flexibility Score: 70.00
ROOT
ATOM      1  C   UNL     1       9.093  29.991  15.707  1.00  0.00     0.136 C 
ATOM      2  O   UNL     1       9.865  30.929  15.841  1.00  0.00    -0.299 OA
ENDROOT
BRANCH   1   3
ATOM      3  C   UNL     1       8.029  29.757  16.769  1.00  0.00     0.053 C 
ATOM      4  C   UNL     1       7.600  31.109  17.354  1.00  0.00     0.016 C 
BRANCH   3   5
ATOM      5  C   UNL     1       6.798  28.976  16.234  1.00  0.00     0.015 C 
BRANCH   5   6
ATOM      6  C   UNL     1       6.597  27.559  16.810  1.00  0.00     0.028 C 
BRANCH   6   7
ATOM      7  C   UNL     1       5.837  26.577  15.953  1.00  0.00    -0.028 C 
ATOM      8  C   UNL     1       6.362  25.785  14.990  1.00  0.00    -0.070 CG0
ATOM      9  C   UNL     1       5.395  25.092  14.061  1.00  0.00     0.039 C 
ATOM     10  G   UNL     1       7.853  25.571  14.790  1.00  0.00     0.000 G0
ENDBRANCH   6   7
ENDBRANCH   5   6
ENDBRANCH   3   5
ENDBRANCH   1   3
BRANCH   1  11
ATOM     11  C   UNL     1       9.132  29.180  14.427  1.00  0.00     0.087 C 
BRANCH  11  12
ATOM     12  C   UNL     1       9.499  27.674  14.592  1.00  0.00     0.066 C 
BRANCH  12  13
ATOM     13  C   UNL     1       8.469  26.718  14.005  1.00  0.00     0.140 C 
ATOM     14  O   UNL     1       8.058  26.940  12.875  1.00  0.00    -0.299 OA
BRANCH  13  15
ATOM     15  C   UNL     1       7.869  25.567  14.785  1.00  0.00     0.106 CG0
ATOM     16  G   UNL     1       6.379  25.781  14.994  1.00  0.00     0.000 G0
ENDBRANCH  13  15
ENDBRANCH  12  13
BRANCH  12  17
ATOM     17  C   UNL     1      10.930  27.361  14.052  1.00  0.00    -0.006 C 
ATOM     18  C   UNL     1      11.214  25.848  14.019  1.00  0.00     0.008 C 
ATOM     19  C   UNL     1      12.017  28.051  14.897  1.00  0.00     0.008 C 
ENDBRANCH  12  17
ENDBRANCH  11  12
ENDBRANCH   1  11
TORSDOF 1
ENDMDL
MODEL 4
REMARK VINA RESULT:    -2.727      6.156      7.845
REMARK INTER + INTRA:          -4.330
REMARK INTER:                  -4.088
REMARK INTRA:                  -0.243
REMARK UNBOUND:                -0.168
REMARK SMILES CC1=CCC[C@H](C)C(=O)C[C@H](C(C)C)C(=O)C1
REMARK SMILES IDX 8 1 9 2 6 3 7 4 5 5 4 6 3 7 2 8 1 9 10 11 11 12 15 13 16 14
REMARK SMILES IDX 17 15 12 17 13 18 14 19
REMARK H PARENT
REMARK Flexibility Score: 70.00
ROOT
ATOM      1  C   UNL     1       6.802  26.057  14.897  1.00  0.00     0.136 C 
ATOM      2  O   UNL     1       6.451  25.372  13.947  1.00  0.00    -0.299 OA
ENDROOT
BRANCH   1   3
ATOM      3  C   UNL     1       5.748  26.832  15.673  1.00  0.00     0.053 C 
ATOM      4  C   UNL     1       6.344  27.284  17.013  1.00  0.00     0.016 C 
BRANCH   3   5
ATOM      5  C   UNL     1       5.184  28.046  14.886  1.00  0.00     0.015 C 
BRANCH   5   6
ATOM      6  C   UNL     1       5.921  29.386  15.095  1.00  0.00     0.028 C 
BRANCH   6   7
ATOM      7  C   UNL     1       6.909  29.794  14.030  1.00  0.00    -0.028 C 
ATOM      8  C   UNL     1       8.257  29.752  14.134  1.00  0.00    -0.070 CG0
ATOM      9  C   UNL     1       9.055  30.470  13.072  1.00  0.00     0.039 C 
ATOM     10  G   UNL     1       8.998  29.040  15.254  1.00  0.00     0.000 G0
ENDBRANCH   6   7
ENDBRANCH   5   6
ENDBRANCH   3   5
ENDBRANCH   1   3
BRANCH   1  11
ATOM     11  C   UNL     1       8.247  26.001  15.354  1.00  0.00     0.087 C 
BRANCH  11  12
ATOM     12  C   UNL     1       9.297  26.551  14.342  1.00  0.00     0.066 C 
BRANCH  12  13
ATOM     13  C   UNL     1       9.864  27.914  14.719  1.00  0.00     0.140 C 
ATOM     14  O   UNL     1      11.074  28.070  14.650  1.00  0.00    -0.299 OA
BRANCH  13  15
ATOM     15  C   UNL     1       9.012  29.046  15.255  1.00  0.00     0.106 CG0
ATOM     16  G   UNL     1       8.279  29.745  14.122  1.00  0.00     0.000 G0
ENDBRANCH  13  15
ENDBRANCH  12  13
BRANCH  12  17
ATOM     17  C   UNL     1      10.438  25.521  14.070  1.00  0.00    -0.006 C 
ATOM     18  C   UNL     1       9.964  24.364  13.171  1.00  0.00     0.008 C 
ATOM     19  C   UNL     1      10.995  24.934  15.379  1.00  0.00     0.008 C 
ENDBRANCH  12  17
ENDBRANCH  11  12
ENDBRANCH   1  11
TORSDOF 1
ENDMDL
MODEL 5
REMARK VINA RESULT:    -2.699      9.800     12.649
REMARK INTER + INTRA:          -4.288
REMARK INTER:                  -3.978
REMARK INTRA:                  -0.310
REMARK UNBOUND:                -0.168
REMARK SMILES CC1=CCC[C@H](C)C(=O)C[C@H](C(C)C)C(=O)C1
REMARK SMILES IDX 8 1 9 2 6 3 7 4 5 5 4 6 3 7 2 8 1 9 10 11 11 12 15 13 16 14
REMARK SMILES IDX 17 15 12 17 13 18 14 19
REMARK H PARENT
REMARK Flexibility Score: 70.00
ROOT
ATOM      1  C   UNL     1       5.711  28.745  16.435  1.00  0.00     0.136 C 
ATOM      2  O   UNL     1       6.491  28.828  17.373  1.00  0.00    -0.299 OA
ENDROOT
BRANCH   1   3
ATOM      3  C   UNL     1       6.268  28.637  15.024  1.00  0.00     0.053 C 
ATOM      4  C   UNL     1       7.157  29.855  14.742  1.00  0.00     0.016 C 
BRANCH   3   5
ATOM      5  C   UNL     1       7.049  27.318  14.777  1.00  0.00     0.015 C 
BRANCH   5   6
ATOM      6  C   UNL     1       6.634  26.116  15.650  1.00  0.00     0.028 C 
BRANCH   6   7
ATOM      7  C   UNL     1       5.714  25.100  15.019  1.00  0.00    -0.028 C 
ATOM      8  C   UNL     1       4.505  24.717  15.491  1.00  0.00    -0.070 CG0
ATOM      9  C   UNL     1       3.880  23.489  14.875  1.00  0.00     0.039 C 
ATOM     10  G   UNL     1       3.762  25.441  16.602  1.00  0.00     0.000 G0
ENDBRANCH   6   7
ENDBRANCH   5   6
ENDBRANCH   3   5
ENDBRANCH   1   3
BRANCH   1  11
ATOM     11  C   UNL     1       4.227  28.613  16.719  1.00  0.00     0.087 C 
BRANCH  11  12
ATOM     12  C   UNL     1       3.388  27.905  15.612  1.00  0.00     0.066 C 
BRANCH  12  13
ATOM     13  C   UNL     1       2.864  26.533  16.015  1.00  0.00     0.140 C 
ATOM     14  O   UNL     1       1.661  26.334  15.937  1.00  0.00    -0.299 OA
BRANCH  13  15
ATOM     15  C   UNL     1       3.748  25.445  16.587  1.00  0.00     0.106 CG0
ATOM     16  G   UNL     1       4.495  24.724  15.477  1.00  0.00     0.000 G0
ENDBRANCH  13  15
ENDBRANCH  12  13
BRANCH  12  17
ATOM     17  C   UNL     1       2.236  28.817  15.084  1.00  0.00    -0.006 C 
ATOM     18  C   UNL     1       2.252  28.931  13.548  1.00  0.00     0.008 C 
ATOM     19  C   UNL     1       2.312  30.231  15.687  1.00  0.00     0.008 C 
ENDBRANCH  12  17
ENDBRANCH  11  12
ENDBRANCH   1  11
TORSDOF 1
ENDMDL
MODEL 6
REMARK VINA RESULT:    -2.649      8.980     11.774
REMARK INTER + INTRA:          -4.212
REMARK INTER:                  -3.925
REMARK INTRA:                  -0.286
REMARK UNBOUND:                -0.168
REMARK SMILES CC1=CCC[C@H](C)C(=O)C[C@H](C(C)C)C(=O)C1
REMARK SMILES IDX 8 1 9 2 6 3 7 4 5 5 4 6 3 7 2 8 1 9 10 11 11 12 15 13 16 14
REMARK SMILES IDX 17 15 12 17 13 18 14 19
REMARK H PARENT
REMARK Flexibility Score: 70.00
ROOT
ATOM      1  C   UNL     1       6.142  28.845  16.792  1.00  0.00     0.136 C 
ATOM      2  O   UNL     1       6.637  27.926  17.427  1.00  0.00    -0.299 OA
ENDROOT
BRANCH   1   3
ATOM      3  C   UNL     1       7.060  29.818  16.067  1.00  0.00     0.053 C 
ATOM      4  C   UNL     1       7.646  30.806  17.084  1.00  0.00     0.016 C 
BRANCH   3   5
ATOM      5  C   UNL     1       8.192  29.110  15.276  1.00  0.00     0.015 C 
BRANCH   5   6
ATOM      6  C   UNL     1       7.746  28.297  14.043  1.00  0.00     0.028 C 
BRANCH   6   7
ATOM      7  C   UNL     1       7.469  26.829  14.257  1.00  0.00    -0.028 C 
ATOM      8  C   UNL     1       6.263  26.222  14.160  1.00  0.00    -0.070 CG0
ATOM      9  C   UNL     1       6.154  24.814  14.692  1.00  0.00     0.039 C 
ATOM     10  G   UNL     1       5.031  26.880  13.563  1.00  0.00     0.000 G0
ENDBRANCH   6   7
ENDBRANCH   5   6
ENDBRANCH   3   5
ENDBRANCH   1   3
BRANCH   1  11
ATOM     11  C   UNL     1       4.634  28.905  16.634  1.00  0.00     0.087 C 
BRANCH  11  12
ATOM     12  C   UNL     1       4.104  28.798  15.172  1.00  0.00     0.066 C 
BRANCH  12  13
ATOM     13  C   UNL     1       4.074  27.376  14.627  1.00  0.00     0.140 C 
ATOM     14  O   UNL     1       3.292  26.584  15.132  1.00  0.00    -0.299 OA
BRANCH  13  15
ATOM     15  C   UNL     1       5.024  26.881  13.556  1.00  0.00     0.106 CG0
ATOM     16  G   UNL     1       6.247  26.234  14.183  1.00  0.00     0.000 G0
ENDBRANCH  13  15
ENDBRANCH  12  13
BRANCH  12  17
ATOM     17  C   UNL     1       2.717  29.495  15.005  1.00  0.00    -0.006 C 
ATOM     18  C   UNL     1       2.608  30.241  13.662  1.00  0.00     0.008 C 
ATOM     19  C   UNL     1       2.442  30.490  16.147  1.00  0.00     0.008 C 
ENDBRANCH  12  17
ENDBRANCH  11  12
ENDBRANCH   1  11
TORSDOF 1
ENDMDL
MODEL 7
REMARK VINA RESULT:    -2.611      7.776     10.094
REMARK INTER + INTRA:          -4.152
REMARK INTER:                  -4.549
REMARK INTRA:                   0.397
REMARK UNBOUND:                -0.168
REMARK SMILES CC1=CCC[C@H](C)C(=O)C[C@H](C(C)C)C(=O)C1
REMARK SMILES IDX 8 1 9 2 6 3 7 4 5 5 4 6 3 7 2 8 1 9 10 11 11 12 15 13 16 14
REMARK SMILES IDX 17 15 12 17 13 18 14 19
REMARK H PARENT
REMARK Flexibility Score: 70.00
ROOT
ATOM      1  C   UNL     1       4.532  27.692  16.223  1.00  0.00     0.136 C 
ATOM      2  O   UNL     1       3.468  28.143  15.825  1.00  0.00    -0.299 OA
ENDROOT
BRANCH   1   3
ATOM      3  C   UNL     1       4.841  26.221  15.988  1.00  0.00     0.053 C 
ATOM      4  C   UNL     1       4.028  25.374  16.976  1.00  0.00     0.016 C 
BRANCH   3   5
ATOM      5  C   UNL     1       4.571  25.769  14.527  1.00  0.00     0.015 C 
BRANCH   5   6
ATOM      6  C   UNL     1       5.815  25.380  13.702  1.00  0.00     0.028 C 
BRANCH   6   7
ATOM      7  C   UNL     1       7.159  25.573  14.361  1.00  0.00    -0.028 C 
ATOM      8  C   UNL     1       7.963  26.654  14.233  1.00  0.00    -0.070 CG0
ATOM      9  C   UNL     1       9.379  26.525  14.738  1.00  0.00     0.039 C 
ATOM     10  G   UNL     1       7.523  27.965  13.604  1.00  0.00     0.000 G0
ENDBRANCH   6   7
ENDBRANCH   5   6
ENDBRANCH   3   5
ENDBRANCH   1   3
BRANCH   1  11
ATOM     11  C   UNL     1       5.562  28.637  16.812  1.00  0.00     0.087 C 
BRANCH  11  12
ATOM     12  C   UNL     1       6.967  28.610  16.138  1.00  0.00     0.066 C 
BRANCH  12  13
ATOM     13  C   UNL     1       6.942  28.903  14.644  1.00  0.00     0.140 C 
ATOM     14  O   UNL     1       6.369  29.915  14.267  1.00  0.00    -0.299 OA
BRANCH  13  15
ATOM     15  C   UNL     1       7.516  27.961  13.606  1.00  0.00     0.106 CG0
ATOM     16  G   UNL     1       7.962  26.660  14.253  1.00  0.00     0.000 G0
ENDBRANCH  13  15
ENDBRANCH  12  13
BRANCH  12  17
ATOM     17  C   UNL     1       7.984  29.535  16.878  1.00  0.00    -0.006 C 
ATOM     18  C   UNL     1       7.295  30.758  17.510  1.00  0.00     0.008 C 
ATOM     19  C   UNL     1       9.094  30.026  15.932  1.00  0.00     0.008 C 
ENDBRANCH  12  17
ENDBRANCH  11  12
ENDBRANCH   1  11
TORSDOF 1
ENDMDL
MODEL 8
REMARK VINA RESULT:    -2.581      3.184      5.656
REMARK INTER + INTRA:          -4.106
REMARK INTER:                  -3.817
REMARK INTRA:                  -0.289
REMARK UNBOUND:                -0.168
REMARK SMILES CC1=CCC[C@H](C)C(=O)C[C@H](C(C)C)C(=O)C1
REMARK SMILES IDX 8 1 9 2 6 3 7 4 5 5 4 6 3 7 2 8 1 9 10 11 11 12 15 13 16 14
REMARK SMILES IDX 17 15 12 17 13 18 14 19
REMARK H PARENT
REMARK Flexibility Score: 70.00
ROOT
ATOM      1  C   UNL     1      10.921  25.689  15.060  1.00  0.00     0.136 C 
ATOM      2  O   UNL     1       9.929  25.517  15.753  1.00  0.00    -0.299 OA
ENDROOT
BRANCH   1   3
ATOM      3  C   UNL     1      12.147  24.823  15.302  1.00  0.00     0.053 C 
ATOM      4  C   UNL     1      11.773  23.679  16.254  1.00  0.00     0.016 C 
BRANCH   3   5
ATOM      5  C   UNL     1      12.766  24.265  13.992  1.00  0.00     0.015 C 
BRANCH   5   6
ATOM      6  C   UNL     1      14.090  24.917  13.541  1.00  0.00     0.028 C 
BRANCH   6   7
ATOM      7  C   UNL     1      14.560  26.117  14.326  1.00  0.00    -0.028 C 
ATOM      8  C   UNL     1      14.375  27.414  13.988  1.00  0.00    -0.070 CG0
ATOM      9  C   UNL     1      15.168  28.447  14.750  1.00  0.00     0.039 C 
ATOM     10  G   UNL     1      13.433  27.875  12.888  1.00  0.00     0.000 G0
ENDBRANCH   6   7
ENDBRANCH   5   6
ENDBRANCH   3   5
ENDBRANCH   1   3
BRANCH   1  11
ATOM     11  C   UNL     1      10.848  26.659  13.897  1.00  0.00     0.087 C 
BRANCH  11  12
ATOM     12  C   UNL     1      11.156  28.148  14.239  1.00  0.00     0.066 C 
BRANCH  12  13
ATOM     13  C   UNL     1      12.322  28.735  13.453  1.00  0.00     0.140 C 
ATOM     14  O   UNL     1      12.305  29.933  13.212  1.00  0.00    -0.299 OA
BRANCH  13  15
ATOM     15  C   UNL     1      13.446  27.893  12.887  1.00  0.00     0.106 CG0
ATOM     16  G   UNL     1      14.366  27.412  13.996  1.00  0.00     0.000 G0
ENDBRANCH  13  15
ENDBRANCH  12  13
BRANCH  12  17
ATOM     17  C   UNL     1       9.886  29.047  14.119  1.00  0.00    -0.006 C 
ATOM     18  C   UNL     1       9.450  29.610  15.485  1.00  0.00     0.008 C 
ATOM     19  C   UNL     1       8.705  28.279  13.501  1.00  0.00     0.008 C 
ENDBRANCH  12  17
ENDBRANCH  11  12
ENDBRANCH   1  11
TORSDOF 1
ENDMDL
MODEL 9
REMARK VINA RESULT:    -2.421     10.645     12.654
REMARK INTER + INTRA:          -3.863
REMARK INTER:                  -3.596
REMARK INTRA:                  -0.267
REMARK UNBOUND:                -0.168
REMARK SMILES CC1=CCC[C@H](C)C(=O)C[C@H](C(C)C)C(=O)C1
REMARK SMILES IDX 8 1 9 2 6 3 7 4 5 5 4 6 3 7 2 8 1 9 10 11 11 12 15 13 16 14
REMARK SMILES IDX 17 15 12 17 13 18 14 19
REMARK H PARENT
REMARK Flexibility Score: 70.00
ROOT
ATOM      1  C   UNL     1      18.356  16.178  14.210  1.00  0.00     0.136 C 
ATOM      2  O   UNL     1      19.306  16.946  14.176  1.00  0.00    -0.299 OA
ENDROOT
BRANCH   1   3
ATOM      3  C   UNL     1      17.072  16.626  14.892  1.00  0.00     0.053 C 
ATOM      4  C   UNL     1      17.394  17.768  15.865  1.00  0.00     0.016 C 
BRANCH   3   5
ATOM      5  C   UNL     1      15.968  17.055  13.889  1.00  0.00     0.015 C 
BRANCH   5   6
ATOM      6  C   UNL     1      14.835  16.033  13.656  1.00  0.00     0.028 C 
BRANCH   6   7
ATOM      7  C   UNL     1      14.637  14.981  14.719  1.00  0.00    -0.028 C 
ATOM      8  C   UNL     1      15.024  13.687  14.643  1.00  0.00    -0.070 CG0
ATOM      9  C   UNL     1      14.478  12.740  15.684  1.00  0.00     0.039 C 
ATOM     10  G   UNL     1      15.956  13.144  13.572  1.00  0.00     0.000 G0
ENDBRANCH   6   7
ENDBRANCH   5   6
ENDBRANCH   3   5
ENDBRANCH   1   3
BRANCH   1  11
ATOM     11  C   UNL     1      18.440  14.866  13.455  1.00  0.00     0.087 C 
BRANCH  11  12
ATOM     12  C   UNL     1      18.478  13.581  14.336  1.00  0.00     0.066 C 
BRANCH  12  13
ATOM     13  C   UNL     1      17.266  12.674  14.160  1.00  0.00     0.140 C 
ATOM     14  O   UNL     1      17.388  11.493  14.450  1.00  0.00    -0.299 OA
BRANCH  13  15
ATOM     15  C   UNL     1      15.957  13.148  13.566  1.00  0.00     0.106 CG0
ATOM     16  G   UNL     1      15.038  13.683  14.652  1.00  0.00     0.000 G0
ENDBRANCH  13  15
ENDBRANCH  12  13
BRANCH  12  17
ATOM     17  C   UNL     1      19.809  12.786  14.148  1.00  0.00    -0.006 C 
ATOM     18  C   UNL     1      20.585  12.645  15.471  1.00  0.00     0.008 C 
ATOM     19  C   UNL     1      20.724  13.453  13.106  1.00  0.00     0.008 C 
ENDBRANCH  12  17
ENDBRANCH  11  12
ENDBRANCH   1  11
TORSDOF 1
ENDMDL
