MODEL 1
REMARK VINA RESULT:    -7.235      0.000      0.000
REMARK INTER + INTRA:          -9.340
REMARK INTER:                  -8.927
REMARK INTRA:                  -0.413
REMARK UNBOUND:                -0.413
REMARK SMILES COc1cc(-c2oc3cc(O)cc(O)c3c(=O)c2O)ccc1O
REMARK SMILES IDX 6 1 18 2 16 3 17 4 15 5 13 6 12 7 10 8 9 9 8 10 7 11 5 12
REMARK SMILES IDX 3 13 22 14 4 15 21 16 20 17 2 18 1 19 23 20 19 22 14 24
REMARK SMILES IDX 11 26
REMARK H PARENT 23 21 19 23 14 25 11 27
REMARK Flexibility Score: inf
ROOT
ATOM      1  C   UNL     1     -15.991 -46.278  -1.454  1.00  0.00     0.180 A 
ATOM      2  C   UNL     1     -17.115 -45.530  -1.844  1.00  0.00     0.208 A 
ATOM      3  C   UNL     1     -17.929 -44.957  -0.854  1.00  0.00     0.238 A 
ATOM      4  O   UNL     1     -18.964 -44.334  -1.207  1.00  0.00    -0.285 OA
ATOM      5  C   UNL     1     -17.601 -45.126   0.512  1.00  0.00     0.111 A 
ATOM      6  C   UNL     1     -18.331 -44.556   1.598  1.00  0.00     0.134 A 
ATOM      7  C   UNL     1     -17.991 -44.897   2.914  1.00  0.00     0.093 A 
ATOM      8  C   UNL     1     -16.907 -45.735   3.183  1.00  0.00     0.123 A 
ATOM      9  C   UNL     1     -16.150 -46.247   2.132  1.00  0.00     0.094 A 
ATOM     10  C   UNL     1     -16.487 -45.955   0.808  1.00  0.00     0.146 A 
ATOM     11  O   UNL     1     -15.746 -46.473  -0.164  1.00  0.00    -0.452 OA
ENDROOT
BRANCH   1  12
ATOM     12  C   UNL     1     -15.072 -46.890  -2.441  1.00  0.00     0.025 A 
ATOM     13  C   UNL     1     -13.094 -46.786  -3.877  1.00  0.00     0.161 A 
ATOM     14  C   UNL     1     -13.321 -48.112  -4.272  1.00  0.00     0.157 A 
ATOM     15  C   UNL     1     -13.971 -46.180  -2.954  1.00  0.00     0.062 A 
ATOM     16  C   UNL     1     -14.404 -48.827  -3.745  1.00  0.00     0.051 A 
ATOM     17  C   UNL     1     -15.269 -48.223  -2.831  1.00  0.00     0.016 A 
BRANCH  13  18
ATOM     18  O   UNL     1     -11.992 -46.107  -4.418  1.00  0.00    -0.493 OA
ATOM     19  C   UNL     1     -10.881 -45.640  -3.659  1.00  0.00     0.278 C 
ENDBRANCH  13  18
BRANCH  14  20
ATOM     20  O   UNL     1     -12.459 -48.715  -5.186  1.00  0.00    -0.504 OA
ATOM     21  H   UNL     1     -12.201 -48.257  -6.053  1.00  0.00     0.293 HD
ENDBRANCH  14  20
ENDBRANCH   1  12
BRANCH   2  22
ATOM     22  O   UNL     1     -17.434 -45.393  -3.198  1.00  0.00    -0.502 OA
ATOM     23  H   UNL     1     -18.300 -44.973  -3.514  1.00  0.00     0.293 HD
ENDBRANCH   2  22
BRANCH   6  24
ATOM     24  O   UNL     1     -19.373 -43.638   1.442  1.00  0.00    -0.507 OA
ATOM     25  H   UNL     1     -19.250 -42.665   1.202  1.00  0.00     0.293 HD
ENDBRANCH   6  24
BRANCH   8  26
ATOM     26  O   UNL     1     -16.566 -46.056   4.496  1.00  0.00    -0.508 OA
ATOM     27  H   UNL     1     -17.035 -46.800   4.998  1.00  0.00     0.293 HD
ENDBRANCH   8  26
TORSDOF 6
ENDMDL
MODEL 2
REMARK VINA RESULT:    -7.140      6.226      8.821
REMARK INTER + INTRA:          -9.222
REMARK INTER:                  -8.814
REMARK INTRA:                  -0.408
REMARK UNBOUND:                -0.413
REMARK SMILES COc1cc(-c2oc3cc(O)cc(O)c3c(=O)c2O)ccc1O
REMARK SMILES IDX 6 1 18 2 16 3 17 4 15 5 13 6 12 7 10 8 9 9 8 10 7 11 5 12
REMARK SMILES IDX 3 13 22 14 4 15 21 16 20 17 2 18 1 19 23 20 19 22 14 24
REMARK SMILES IDX 11 26
REMARK H PARENT 23 21 19 23 14 25 11 27
REMARK Flexibility Score: inf
ROOT
ATOM      1  C   UNL     1     -11.791 -43.049  -7.023  1.00  0.00     0.180 A 
ATOM      2  C   UNL     1     -12.091 -44.412  -7.191  1.00  0.00     0.208 A 
ATOM      3  C   UNL     1     -11.938 -45.282  -6.099  1.00  0.00     0.238 A 
ATOM      4  O   UNL     1     -12.157 -46.509  -6.269  1.00  0.00    -0.285 OA
ATOM      5  C   UNL     1     -11.503 -44.776  -4.851  1.00  0.00     0.111 A 
ATOM      6  C   UNL     1     -11.353 -45.559  -3.667  1.00  0.00     0.134 A 
ATOM      7  C   UNL     1     -10.790 -44.980  -2.523  1.00  0.00     0.093 A 
ATOM      8  C   UNL     1     -10.434 -43.629  -2.500  1.00  0.00     0.123 A 
ATOM      9  C   UNL     1     -10.634 -42.842  -3.631  1.00  0.00     0.094 A 
ATOM     10  C   UNL     1     -11.158 -43.400  -4.799  1.00  0.00     0.146 A 
ATOM     11  O   UNL     1     -11.322 -42.616  -5.859  1.00  0.00    -0.452 OA
ENDROOT
BRANCH   1  12
ATOM     12  C   UNL     1     -11.951 -42.067  -8.121  1.00  0.00     0.025 A 
ATOM     13  C   UNL     1     -13.295 -40.440  -9.357  1.00  0.00     0.161 A 
ATOM     14  C   UNL     1     -12.194 -40.170 -10.183  1.00  0.00     0.157 A 
ATOM     15  C   UNL     1     -13.166 -41.386  -8.321  1.00  0.00     0.062 A 
ATOM     16  C   UNL     1     -10.977 -40.831  -9.970  1.00  0.00     0.051 A 
ATOM     17  C   UNL     1     -10.855 -41.767  -8.943  1.00  0.00     0.016 A 
BRANCH  13  18
ATOM     18  O   UNL     1     -14.492 -39.748  -9.594  1.00  0.00    -0.493 OA
ATOM     19  C   UNL     1     -15.742 -40.372  -9.870  1.00  0.00     0.278 C 
ENDBRANCH  13  18
BRANCH  14  20
ATOM     20  O   UNL     1     -12.316 -39.237 -11.211  1.00  0.00    -0.504 OA
ATOM     21  H   UNL     1     -13.001 -38.491 -11.171  1.00  0.00     0.293 HD
ENDBRANCH  14  20
ENDBRANCH   1  12
BRANCH   2  22
ATOM     22  O   UNL     1     -12.499 -44.894  -8.438  1.00  0.00    -0.502 OA
ATOM     23  H   UNL     1     -12.265 -45.824  -8.765  1.00  0.00     0.293 HD
ENDBRANCH   2  22
BRANCH   6  24
ATOM     24  O   UNL     1     -11.760 -46.891  -3.555  1.00  0.00    -0.507 OA
ATOM     25  H   UNL     1     -12.429 -47.340  -4.163  1.00  0.00     0.293 HD
ENDBRANCH   6  24
BRANCH   8  26
ATOM     26  O   UNL     1      -9.890 -43.057  -1.352  1.00  0.00    -0.508 OA
ATOM     27  H   UNL     1     -10.153 -42.127  -1.047  1.00  0.00     0.293 HD
ENDBRANCH   8  26
TORSDOF 6
ENDMDL
MODEL 3
REMARK VINA RESULT:    -6.974      5.222      9.772
REMARK INTER + INTRA:          -9.018
REMARK INTER:                  -8.650
REMARK INTRA:                  -0.367
REMARK UNBOUND:                -0.413
REMARK SMILES COc1cc(-c2oc3cc(O)cc(O)c3c(=O)c2O)ccc1O
REMARK SMILES IDX 6 1 18 2 16 3 17 4 15 5 13 6 12 7 10 8 9 9 8 10 7 11 5 12
REMARK SMILES IDX 3 13 22 14 4 15 21 16 20 17 2 18 1 19 23 20 19 22 14 24
REMARK SMILES IDX 11 26
REMARK H PARENT 23 21 19 23 14 25 11 27
REMARK Flexibility Score: inf
ROOT
ATOM      1  C   UNL     1     -11.256 -42.878  -5.708  1.00  0.00     0.180 A 
ATOM      2  C   UNL     1     -10.798 -43.809  -6.657  1.00  0.00     0.208 A 
ATOM      3  C   UNL     1     -11.020 -43.556  -8.020  1.00  0.00     0.238 A 
ATOM      4  O   UNL     1     -10.656 -44.418  -8.862  1.00  0.00    -0.285 OA
ATOM      5  C   UNL     1     -11.682 -42.370  -8.419  1.00  0.00     0.111 A 
ATOM      6  C   UNL     1     -11.924 -41.993  -9.774  1.00  0.00     0.134 A 
ATOM      7  C   UNL     1     -12.704 -40.862 -10.047  1.00  0.00     0.093 A 
ATOM      8  C   UNL     1     -13.194 -40.059  -9.014  1.00  0.00     0.123 A 
ATOM      9  C   UNL     1     -12.912 -40.385  -7.690  1.00  0.00     0.094 A 
ATOM     10  C   UNL     1     -12.168 -41.527  -7.385  1.00  0.00     0.146 A 
ATOM     11  O   UNL     1     -11.931 -41.808  -6.109  1.00  0.00    -0.452 OA
ENDROOT
BRANCH   1  12
ATOM     12  C   UNL     1     -11.037 -43.063  -4.255  1.00  0.00     0.025 A 
ATOM     13  C   UNL     1     -11.808 -43.783  -2.049  1.00  0.00     0.161 A 
ATOM     14  C   UNL     1     -10.557 -43.449  -1.511  1.00  0.00     0.157 A 
ATOM     15  C   UNL     1     -12.041 -43.594  -3.426  1.00  0.00     0.062 A 
ATOM     16  C   UNL     1      -9.548 -42.941  -2.340  1.00  0.00     0.051 A 
ATOM     17  C   UNL     1      -9.784 -42.756  -3.703  1.00  0.00     0.016 A 
BRANCH  13  18
ATOM     18  O   UNL     1     -12.788 -44.301  -1.188  1.00  0.00    -0.493 OA
ATOM     19  C   UNL     1     -13.351 -45.604  -1.298  1.00  0.00     0.278 C 
ENDBRANCH  13  18
BRANCH  14  20
ATOM     20  O   UNL     1     -10.322 -43.631  -0.149  1.00  0.00    -0.504 OA
ATOM     21  H   UNL     1     -11.082 -43.675   0.519  1.00  0.00     0.293 HD
ENDBRANCH  14  20
ENDBRANCH   1  12
BRANCH   2  22
ATOM     22  O   UNL     1     -10.166 -44.984  -6.242  1.00  0.00    -0.502 OA
ATOM     23  H   UNL     1     -10.430 -45.897  -6.591  1.00  0.00     0.293 HD
ENDBRANCH   2  22
BRANCH   6  24
ATOM     24  O   UNL     1     -11.405 -42.673 -10.878  1.00  0.00    -0.507 OA
ATOM     25  H   UNL     1     -10.591 -43.270 -10.855  1.00  0.00     0.293 HD
ENDBRANCH   6  24
BRANCH   8  26
ATOM     26  O   UNL     1     -13.955 -38.925  -9.296  1.00  0.00    -0.508 OA
ATOM     27  H   UNL     1     -14.822 -38.734  -8.808  1.00  0.00     0.293 HD
ENDBRANCH   8  26
TORSDOF 6
ENDMDL
MODEL 4
REMARK VINA RESULT:    -6.957      5.847      9.436
REMARK INTER + INTRA:          -8.997
REMARK INTER:                  -8.829
REMARK INTRA:                  -0.167
REMARK UNBOUND:                -0.413
REMARK SMILES COc1cc(-c2oc3cc(O)cc(O)c3c(=O)c2O)ccc1O
REMARK SMILES IDX 6 1 18 2 16 3 17 4 15 5 13 6 12 7 10 8 9 9 8 10 7 11 5 12
REMARK SMILES IDX 3 13 22 14 4 15 21 16 20 17 2 18 1 19 23 20 19 22 14 24
REMARK SMILES IDX 11 26
REMARK H PARENT 23 21 19 23 14 25 11 27
REMARK Flexibility Score: inf
ROOT
ATOM      1  C   UNL     1     -11.870 -43.287  -7.034  1.00  0.00     0.180 A 
ATOM      2  C   UNL     1     -11.214 -43.282  -8.278  1.00  0.00     0.208 A 
ATOM      3  C   UNL     1     -11.909 -42.835  -9.412  1.00  0.00     0.238 A 
ATOM      4  O   UNL     1     -11.335 -42.883 -10.531  1.00  0.00    -0.285 OA
ATOM      5  C   UNL     1     -13.245 -42.384  -9.288  1.00  0.00     0.111 A 
ATOM      6  C   UNL     1     -14.031 -41.871 -10.363  1.00  0.00     0.134 A 
ATOM      7  C   UNL     1     -15.383 -41.576 -10.151  1.00  0.00     0.093 A 
ATOM      8  C   UNL     1     -15.960 -41.714  -8.886  1.00  0.00     0.123 A 
ATOM      9  C   UNL     1     -15.186 -42.156  -7.816  1.00  0.00     0.094 A 
ATOM     10  C   UNL     1     -13.844 -42.493  -8.005  1.00  0.00     0.146 A 
ATOM     11  O   UNL     1     -13.144 -42.921  -6.961  1.00  0.00    -0.452 OA
ENDROOT
BRANCH   1  12
ATOM     12  C   UNL     1     -11.194 -43.721  -5.789  1.00  0.00     0.025 A 
ATOM     13  C   UNL     1     -10.992 -45.236  -3.880  1.00  0.00     0.161 A 
ATOM     14  C   UNL     1      -9.847 -44.543  -3.462  1.00  0.00     0.157 A 
ATOM     15  C   UNL     1     -11.659 -44.824  -5.051  1.00  0.00     0.062 A 
ATOM     16  C   UNL     1      -9.370 -43.458  -4.208  1.00  0.00     0.051 A 
ATOM     17  C   UNL     1     -10.035 -43.054  -5.367  1.00  0.00     0.016 A 
BRANCH  13  18
ATOM     18  O   UNL     1     -11.431 -46.325  -3.112  1.00  0.00    -0.493 OA
ATOM     19  C   UNL     1     -12.403 -47.274  -3.541  1.00  0.00     0.278 C 
ENDBRANCH  13  18
BRANCH  14  20
ATOM     20  O   UNL     1      -9.184 -44.944  -2.303  1.00  0.00    -0.504 OA
ATOM     21  H   UNL     1      -9.180 -44.369  -1.469  1.00  0.00     0.293 HD
ENDBRANCH  14  20
ENDBRANCH   1  12
BRANCH   2  22
ATOM     22  O   UNL     1      -9.902 -43.752  -8.382  1.00  0.00    -0.502 OA
ATOM     23  H   UNL     1      -9.636 -44.691  -8.111  1.00  0.00     0.293 HD
ENDBRANCH   2  22
BRANCH   6  24
ATOM     24  O   UNL     1     -13.529 -41.610 -11.641  1.00  0.00    -0.507 OA
ATOM     25  H   UNL     1     -13.100 -42.299 -12.242  1.00  0.00     0.293 HD
ENDBRANCH   6  24
BRANCH   8  26
ATOM     26  O   UNL     1     -17.303 -41.403  -8.680  1.00  0.00    -0.508 OA
ATOM     27  H   UNL     1     -18.009 -42.125  -8.606  1.00  0.00     0.293 HD
ENDBRANCH   8  26
TORSDOF 6
ENDMDL
MODEL 5
REMARK VINA RESULT:    -6.922      4.995      7.126
REMARK INTER + INTRA:          -8.954
REMARK INTER:                  -8.597
REMARK INTRA:                  -0.357
REMARK UNBOUND:                -0.413
REMARK SMILES COc1cc(-c2oc3cc(O)cc(O)c3c(=O)c2O)ccc1O
REMARK SMILES IDX 6 1 18 2 16 3 17 4 15 5 13 6 12 7 10 8 9 9 8 10 7 11 5 12
REMARK SMILES IDX 3 13 22 14 4 15 21 16 20 17 2 18 1 19 23 20 19 22 14 24
REMARK SMILES IDX 11 26
REMARK H PARENT 23 21 19 23 14 25 11 27
REMARK Flexibility Score: inf
ROOT
ATOM      1  C   UNL     1     -15.124 -43.673  -6.006  1.00  0.00     0.180 A 
ATOM      2  C   UNL     1     -16.267 -43.834  -5.203  1.00  0.00     0.208 A 
ATOM      3  C   UNL     1     -16.328 -44.921  -4.317  1.00  0.00     0.238 A 
ATOM      4  O   UNL     1     -17.375 -45.091  -3.640  1.00  0.00    -0.285 OA
ATOM      5  C   UNL     1     -15.241 -45.824  -4.233  1.00  0.00     0.111 A 
ATOM      6  C   UNL     1     -15.178 -46.936  -3.341  1.00  0.00     0.134 A 
ATOM      7  C   UNL     1     -14.111 -47.838  -3.436  1.00  0.00     0.093 A 
ATOM      8  C   UNL     1     -13.072 -47.630  -4.346  1.00  0.00     0.123 A 
ATOM      9  C   UNL     1     -13.094 -46.515  -5.179  1.00  0.00     0.094 A 
ATOM     10  C   UNL     1     -14.163 -45.618  -5.133  1.00  0.00     0.146 A 
ATOM     11  O   UNL     1     -14.150 -44.572  -5.953  1.00  0.00    -0.452 OA
ENDROOT
BRANCH   1  12
ATOM     12  C   UNL     1     -14.977 -42.537  -6.946  1.00  0.00     0.025 A 
ATOM     13  C   UNL     1     -14.021 -40.368  -7.548  1.00  0.00     0.161 A 
ATOM     14  C   UNL     1     -14.681 -40.429  -8.784  1.00  0.00     0.157 A 
ATOM     15  C   UNL     1     -14.167 -41.430  -6.634  1.00  0.00     0.062 A 
ATOM     16  C   UNL     1     -15.469 -41.542  -9.105  1.00  0.00     0.051 A 
ATOM     17  C   UNL     1     -15.610 -42.591  -8.196  1.00  0.00     0.016 A 
BRANCH  13  18
ATOM     18  O   UNL     1     -13.231 -39.242  -7.268  1.00  0.00    -0.493 OA
ATOM     19  C   UNL     1     -13.644 -38.151  -6.452  1.00  0.00     0.278 C 
ENDBRANCH  13  18
BRANCH  14  20
ATOM     20  O   UNL     1     -14.543 -39.380  -9.691  1.00  0.00    -0.504 OA
ATOM     21  H   UNL     1     -13.913 -38.606  -9.515  1.00  0.00     0.293 HD
ENDBRANCH  14  20
ENDBRANCH   1  12
BRANCH   2  22
ATOM     22  O   UNL     1     -17.338 -42.943  -5.317  1.00  0.00    -0.502 OA
ATOM     23  H   UNL     1     -17.307 -42.128  -5.918  1.00  0.00     0.293 HD
ENDBRANCH   2  22
BRANCH   6  24
ATOM     24  O   UNL     1     -16.116 -47.184  -2.335  1.00  0.00    -0.507 OA
ATOM     25  H   UNL     1     -15.889 -47.490  -1.400  1.00  0.00     0.293 HD
ENDBRANCH   6  24
BRANCH   8  26
ATOM     26  O   UNL     1     -12.005 -48.525  -4.422  1.00  0.00    -0.508 OA
ATOM     27  H   UNL     1     -12.152 -49.510  -4.608  1.00  0.00     0.293 HD
ENDBRANCH   8  26
TORSDOF 6
ENDMDL
MODEL 6
REMARK VINA RESULT:    -6.904      3.219      4.287
REMARK INTER + INTRA:          -8.931
REMARK INTER:                  -8.542
REMARK INTRA:                  -0.388
REMARK UNBOUND:                -0.413
REMARK SMILES COc1cc(-c2oc3cc(O)cc(O)c3c(=O)c2O)ccc1O
REMARK SMILES IDX 6 1 18 2 16 3 17 4 15 5 13 6 12 7 10 8 9 9 8 10 7 11 5 12
REMARK SMILES IDX 3 13 22 14 4 15 21 16 20 17 2 18 1 19 23 20 19 22 14 24
REMARK SMILES IDX 11 26
REMARK H PARENT 23 21 19 23 14 25 11 27
REMARK Flexibility Score: inf
ROOT
ATOM      1  C   UNL     1     -15.060 -44.499  -0.474  1.00  0.00     0.180 A 
ATOM      2  C   UNL     1     -15.962 -44.967   0.498  1.00  0.00     0.208 A 
ATOM      3  C   UNL     1     -15.657 -44.779   1.855  1.00  0.00     0.238 A 
ATOM      4  O   UNL     1     -16.442 -45.246   2.721  1.00  0.00    -0.285 OA
ATOM      5  C   UNL     1     -14.464 -44.112   2.224  1.00  0.00     0.111 A 
ATOM      6  C   UNL     1     -14.075 -43.831   3.568  1.00  0.00     0.134 A 
ATOM      7  C   UNL     1     -12.811 -43.283   3.821  1.00  0.00     0.093 A 
ATOM      8  C   UNL     1     -11.950 -42.946   2.774  1.00  0.00     0.123 A 
ATOM      9  C   UNL     1     -12.346 -43.161   1.456  1.00  0.00     0.094 A 
ATOM     10  C   UNL     1     -13.585 -43.740   1.174  1.00  0.00     0.146 A 
ATOM     11  O   UNL     1     -13.919 -43.937  -0.097  1.00  0.00    -0.452 OA
ENDROOT
BRANCH   1  12
ATOM     12  C   UNL     1     -15.325 -44.638  -1.925  1.00  0.00     0.025 A 
ATOM     13  C   UNL     1     -15.183 -45.901  -4.015  1.00  0.00     0.161 A 
ATOM     14  C   UNL     1     -15.898 -44.886  -4.667  1.00  0.00     0.157 A 
ATOM     15  C   UNL     1     -14.905 -45.775  -2.639  1.00  0.00     0.062 A 
ATOM     16  C   UNL     1     -16.336 -43.764  -3.952  1.00  0.00     0.051 A 
ATOM     17  C   UNL     1     -16.057 -43.644  -2.590  1.00  0.00     0.016 A 
BRANCH  13  18
ATOM     18  O   UNL     1     -14.772 -47.015  -4.763  1.00  0.00    -0.493 OA
ATOM     19  C   UNL     1     -14.424 -48.278  -4.203  1.00  0.00     0.278 C 
ENDBRANCH  13  18
BRANCH  14  20
ATOM     20  O   UNL     1     -16.174 -45.004  -6.028  1.00  0.00    -0.504 OA
ATOM     21  H   UNL     1     -15.470 -44.807  -6.731  1.00  0.00     0.293 HD
ENDBRANCH  14  20
ENDBRANCH   1  12
BRANCH   2  22
ATOM     22  O   UNL     1     -17.124 -45.641   0.112  1.00  0.00    -0.502 OA
ATOM     23  H   UNL     1     -17.983 -45.157  -0.118  1.00  0.00     0.293 HD
ENDBRANCH   2  22
BRANCH   6  24
ATOM     24  O   UNL     1     -14.896 -44.044   4.679  1.00  0.00    -0.507 OA
ATOM     25  H   UNL     1     -15.617 -43.410   4.991  1.00  0.00     0.293 HD
ENDBRANCH   6  24
BRANCH   8  26
ATOM     26  O   UNL     1     -10.701 -42.386   3.034  1.00  0.00    -0.508 OA
ATOM     27  H   UNL     1      -9.994 -42.308   2.313  1.00  0.00     0.293 HD
ENDBRANCH   8  26
TORSDOF 6
ENDMDL
MODEL 7
REMARK VINA RESULT:    -6.882      5.764      9.172
REMARK INTER + INTRA:          -8.904
REMARK INTER:                  -8.625
REMARK INTRA:                  -0.279
REMARK UNBOUND:                -0.413
REMARK SMILES COc1cc(-c2oc3cc(O)cc(O)c3c(=O)c2O)ccc1O
REMARK SMILES IDX 6 1 18 2 16 3 17 4 15 5 13 6 12 7 10 8 9 9 8 10 7 11 5 12
REMARK SMILES IDX 3 13 22 14 4 15 21 16 20 17 2 18 1 19 23 20 19 22 14 24
REMARK SMILES IDX 11 26
REMARK H PARENT 23 21 19 23 14 25 11 27
REMARK Flexibility Score: inf
ROOT
ATOM      1  C   UNL     1     -12.566 -42.907  -6.273  1.00  0.00     0.180 A 
ATOM      2  C   UNL     1     -13.924 -43.270  -6.298  1.00  0.00     0.208 A 
ATOM      3  C   UNL     1     -14.735 -42.799  -7.343  1.00  0.00     0.238 A 
ATOM      4  O   UNL     1     -15.961 -43.083  -7.331  1.00  0.00    -0.285 OA
ATOM      5  C   UNL     1     -14.176 -41.986  -8.358  1.00  0.00     0.111 A 
ATOM      6  C   UNL     1     -14.895 -41.487  -9.485  1.00  0.00     0.134 A 
ATOM      7  C   UNL     1     -14.273 -40.584 -10.357  1.00  0.00     0.093 A 
ATOM      8  C   UNL     1     -12.938 -40.214 -10.177  1.00  0.00     0.123 A 
ATOM      9  C   UNL     1     -12.210 -40.743  -9.115  1.00  0.00     0.094 A 
ATOM     10  C   UNL     1     -12.813 -41.617  -8.208  1.00  0.00     0.146 A 
ATOM     11  O   UNL     1     -12.086 -42.089  -7.202  1.00  0.00    -0.452 OA
ENDROOT
BRANCH   1  12
ATOM     12  C   UNL     1     -11.643 -43.385  -5.218  1.00  0.00     0.025 A 
ATOM     13  C   UNL     1     -10.887 -43.421  -2.892  1.00  0.00     0.161 A 
ATOM     14  C   UNL     1      -9.904 -44.361  -3.235  1.00  0.00     0.157 A 
ATOM     15  C   UNL     1     -11.760 -42.940  -3.888  1.00  0.00     0.062 A 
ATOM     16  C   UNL     1      -9.802 -44.822  -4.554  1.00  0.00     0.051 A 
ATOM     17  C   UNL     1     -10.669 -44.342  -5.536  1.00  0.00     0.016 A 
BRANCH  13  18
ATOM     18  O   UNL     1     -10.965 -42.994  -1.558  1.00  0.00    -0.493 OA
ATOM     19  C   UNL     1     -11.912 -43.479  -0.611  1.00  0.00     0.278 C 
ENDBRANCH  13  18
BRANCH  14  20
ATOM     20  O   UNL     1      -9.036 -44.838  -2.255  1.00  0.00    -0.504 OA
ATOM     21  H   UNL     1      -8.505 -44.208  -1.664  1.00  0.00     0.293 HD
ENDBRANCH  14  20
ENDBRANCH   1  12
BRANCH   2  22
ATOM     22  O   UNL     1     -14.461 -44.056  -5.275  1.00  0.00    -0.502 OA
ATOM     23  H   UNL     1     -14.719 -43.674  -4.373  1.00  0.00     0.293 HD
ENDBRANCH   2  22
BRANCH   6  24
ATOM     24  O   UNL     1     -16.202 -41.864  -9.806  1.00  0.00    -0.507 OA
ATOM     25  H   UNL     1     -16.533 -42.049 -10.742  1.00  0.00     0.293 HD
ENDBRANCH   6  24
BRANCH   8  26
ATOM     26  O   UNL     1     -12.323 -39.327 -11.059  1.00  0.00    -0.508 OA
ATOM     27  H   UNL     1     -12.376 -38.325 -10.926  1.00  0.00     0.293 HD
ENDBRANCH   8  26
TORSDOF 6
ENDMDL
MODEL 8
REMARK VINA RESULT:    -6.818      5.156      6.985
REMARK INTER + INTRA:          -8.825
REMARK INTER:                  -8.427
REMARK INTRA:                  -0.397
REMARK UNBOUND:                -0.413
REMARK SMILES COc1cc(-c2oc3cc(O)cc(O)c3c(=O)c2O)ccc1O
REMARK SMILES IDX 6 1 18 2 16 3 17 4 15 5 13 6 12 7 10 8 9 9 8 10 7 11 5 12
REMARK SMILES IDX 3 13 22 14 4 15 21 16 20 17 2 18 1 19 23 20 19 22 14 24
REMARK SMILES IDX 11 26
REMARK H PARENT 23 21 19 23 14 25 11 27
REMARK Flexibility Score: inf
ROOT
ATOM      1  C   UNL     1     -14.948 -43.170  -5.768  1.00  0.00     0.180 A 
ATOM      2  C   UNL     1     -14.214 -44.369  -5.760  1.00  0.00     0.208 A 
ATOM      3  C   UNL     1     -14.556 -45.370  -4.837  1.00  0.00     0.238 A 
ATOM      4  O   UNL     1     -13.862 -46.419  -4.798  1.00  0.00    -0.285 OA
ATOM      5  C   UNL     1     -15.636 -45.167  -3.945  1.00  0.00     0.111 A 
ATOM      6  C   UNL     1     -16.095 -46.129  -2.996  1.00  0.00     0.134 A 
ATOM      7  C   UNL     1     -17.088 -45.772  -2.075  1.00  0.00     0.093 A 
ATOM      8  C   UNL     1     -17.683 -44.508  -2.112  1.00  0.00     0.123 A 
ATOM      9  C   UNL     1     -17.284 -43.583  -3.073  1.00  0.00     0.094 A 
ATOM     10  C   UNL     1     -16.271 -43.897  -3.982  1.00  0.00     0.146 A 
ATOM     11  O   UNL     1     -15.912 -42.983  -4.875  1.00  0.00    -0.452 OA
ENDROOT
BRANCH   1  12
ATOM     12  C   UNL     1     -14.663 -42.079  -6.728  1.00  0.00     0.025 A 
ATOM     13  C   UNL     1     -15.016 -40.977  -8.883  1.00  0.00     0.161 A 
ATOM     14  C   UNL     1     -14.134 -39.958  -8.498  1.00  0.00     0.157 A 
ATOM     15  C   UNL     1     -15.283 -42.034  -7.990  1.00  0.00     0.062 A 
ATOM     16  C   UNL     1     -13.532 -39.990  -7.233  1.00  0.00     0.051 A 
ATOM     17  C   UNL     1     -13.800 -41.038  -6.353  1.00  0.00     0.016 A 
BRANCH  13  18
ATOM     18  O   UNL     1     -15.608 -40.904 -10.153  1.00  0.00    -0.493 OA
ATOM     19  C   UNL     1     -16.091 -42.027 -10.884  1.00  0.00     0.278 C 
ENDBRANCH  13  18
BRANCH  14  20
ATOM     20  O   UNL     1     -13.863 -38.912  -9.379  1.00  0.00    -0.504 OA
ATOM     21  H   UNL     1     -14.284 -37.998  -9.261  1.00  0.00     0.293 HD
ENDBRANCH  14  20
ENDBRANCH   1  12
BRANCH   2  22
ATOM     22  O   UNL     1     -13.138 -44.540  -6.635  1.00  0.00    -0.502 OA
ATOM     23  H   UNL     1     -12.520 -43.780  -6.893  1.00  0.00     0.293 HD
ENDBRANCH   2  22
BRANCH   6  24
ATOM     24  O   UNL     1     -15.633 -47.447  -2.934  1.00  0.00    -0.507 OA
ATOM     25  H   UNL     1     -16.027 -48.219  -3.450  1.00  0.00     0.293 HD
ENDBRANCH   6  24
BRANCH   8  26
ATOM     26  O   UNL     1     -18.682 -44.166  -1.202  1.00  0.00    -0.508 OA
ATOM     27  H   UNL     1     -19.289 -43.370  -1.356  1.00  0.00     0.293 HD
ENDBRANCH   8  26
TORSDOF 6
ENDMDL
MODEL 9
REMARK VINA RESULT:    -6.766      3.534      8.961
REMARK INTER + INTRA:          -8.761
REMARK INTER:                  -8.362
REMARK INTRA:                  -0.399
REMARK UNBOUND:                -0.413
REMARK SMILES COc1cc(-c2oc3cc(O)cc(O)c3c(=O)c2O)ccc1O
REMARK SMILES IDX 6 1 18 2 16 3 17 4 15 5 13 6 12 7 10 8 9 9 8 10 7 11 5 12
REMARK SMILES IDX 3 13 22 14 4 15 21 16 20 17 2 18 1 19 23 20 19 22 14 24
REMARK SMILES IDX 11 26
REMARK H PARENT 23 21 19 23 14 25 11 27
REMARK Flexibility Score: inf
ROOT
ATOM      1  C   UNL     1     -11.918 -45.600  -5.189  1.00  0.00     0.180 A 
ATOM      2  C   UNL     1     -10.684 -45.171  -4.667  1.00  0.00     0.208 A 
ATOM      3  C   UNL     1      -9.869 -44.335  -5.446  1.00  0.00     0.238 A 
ATOM      4  O   UNL     1      -8.743 -43.999  -4.996  1.00  0.00    -0.285 OA
ATOM      5  C   UNL     1     -10.303 -43.925  -6.729  1.00  0.00     0.111 A 
ATOM      6  C   UNL     1      -9.577 -43.046  -7.588  1.00  0.00     0.134 A 
ATOM      7  C   UNL     1     -10.041 -42.812  -8.889  1.00  0.00     0.093 A 
ATOM      8  C   UNL     1     -11.239 -43.374  -9.338  1.00  0.00     0.123 A 
ATOM      9  C   UNL     1     -11.985 -44.184  -8.487  1.00  0.00     0.094 A 
ATOM     10  C   UNL     1     -11.530 -44.466  -7.197  1.00  0.00     0.146 A 
ATOM     11  O   UNL     1     -12.267 -45.252  -6.421  1.00  0.00    -0.452 OA
ENDROOT
BRANCH   1  12
ATOM     12  C   UNL     1     -12.842 -46.462  -4.416  1.00  0.00     0.025 A 
ATOM     13  C   UNL     1     -14.783 -46.750  -2.956  1.00  0.00     0.161 A 
ATOM     14  C   UNL     1     -14.607 -48.140  -3.009  1.00  0.00     0.157 A 
ATOM     15  C   UNL     1     -13.900 -45.914  -3.668  1.00  0.00     0.062 A 
ATOM     16  C   UNL     1     -13.568 -48.688  -3.773  1.00  0.00     0.051 A 
ATOM     17  C   UNL     1     -12.696 -47.855  -4.476  1.00  0.00     0.016 A 
BRANCH  13  18
ATOM     18  O   UNL     1     -15.842 -46.240  -2.190  1.00  0.00    -0.493 OA
ATOM     19  C   UNL     1     -17.015 -45.643  -2.734  1.00  0.00     0.278 C 
ENDBRANCH  13  18
BRANCH  14  20
ATOM     20  O   UNL     1     -15.475 -48.972  -2.305  1.00  0.00    -0.504 OA
ATOM     21  H   UNL     1     -16.207 -48.595  -1.714  1.00  0.00     0.293 HD
ENDBRANCH  14  20
ENDBRANCH   1  12
BRANCH   2  22
ATOM     22  O   UNL     1     -10.265 -45.605  -3.406  1.00  0.00    -0.502 OA
ATOM     23  H   UNL     1      -9.993 -44.963  -2.672  1.00  0.00     0.293 HD
ENDBRANCH   2  22
BRANCH   6  24
ATOM     24  O   UNL     1      -8.419 -42.362  -7.207  1.00  0.00    -0.507 OA
ATOM     25  H   UNL     1      -7.579 -42.301  -7.763  1.00  0.00     0.293 HD
ENDBRANCH   6  24
BRANCH   8  26
ATOM     26  O   UNL     1     -11.701 -43.123 -10.629  1.00  0.00    -0.508 OA
ATOM     27  H   UNL     1     -11.942 -43.876 -11.261  1.00  0.00     0.293 HD
ENDBRANCH   8  26
TORSDOF 6
ENDMDL
