MODEL 1
REMARK VINA RESULT:    -2.328      0.000      0.000
REMARK INTER + INTRA:          -2.955
REMARK INTER:                  -2.668
REMARK INTRA:                  -0.287
REMARK UNBOUND:                -0.287
REMARK SMILES O=C1C[C@H](c2ccc(O)cc2)Oc2cc(O)cc(O)c21
REMARK SMILES IDX 3 1 4 2 12 3 13 4 14 5 15 6 17 7 18 8 20 9 2 10 1 11 5 12
REMARK SMILES IDX 6 13 11 14 7 15 10 16 8 17 9 18 19 20 16 22
REMARK H PARENT 9 19 19 21 16 23
REMARK Flexibility Score: inf
ROOT
ATOM      1  C   UNL     1      15.201  -0.901  27.787  1.00  0.00     0.131 C 
ATOM      2  C   UNL     1      16.147   0.179  27.248  1.00  0.00     0.211 C 
ATOM      3  O   UNL     1      17.359  -0.417  26.786  1.00  0.00    -0.484 OA
ATOM      4  C   UNL     1      18.032  -1.390  27.532  1.00  0.00     0.138 A 
ATOM      5  C   UNL     1      19.352  -1.699  27.201  1.00  0.00     0.093 A 
ATOM      6  C   UNL     1      20.060  -2.648  27.942  1.00  0.00     0.123 A 
ATOM      7  C   UNL     1      19.449  -3.275  29.028  1.00  0.00     0.093 A 
ATOM      8  C   UNL     1      18.128  -2.977  29.383  1.00  0.00     0.133 A 
ATOM      9  C   UNL     1      17.380  -2.054  28.596  1.00  0.00     0.102 A 
ATOM     10  C   UNL     1      15.920  -1.793  28.762  1.00  0.00     0.174 C 
ATOM     11  O   UNL     1      15.235  -2.386  29.634  1.00  0.00    -0.294 OA
ENDROOT
BRANCH   2  12
ATOM     12  C   UNL     1      15.493   0.956  26.131  1.00  0.00    -0.007 A 
ATOM     13  C   UNL     1      15.219   0.333  24.902  1.00  0.00     0.011 A 
ATOM     14  C   UNL     1      15.201   2.324  26.285  1.00  0.00     0.011 A 
ATOM     15  C   UNL     1      14.641   1.058  23.855  1.00  0.00     0.046 A 
ATOM     16  C   UNL     1      14.623   3.045  25.237  1.00  0.00     0.046 A 
ATOM     17  C   UNL     1      14.340   2.413  24.019  1.00  0.00     0.115 A 
BRANCH  17  18
ATOM     18  O   UNL     1      13.764   3.123  22.967  1.00  0.00    -0.508 OA
ATOM     19  H   UNL     1      12.849   3.547  23.054  1.00  0.00     0.293 HD
ENDBRANCH  17  18
ENDBRANCH   2  12
BRANCH   8  20
ATOM     20  O   UNL     1      17.624  -3.607  30.524  1.00  0.00    -0.507 OA
ATOM     21  H   UNL     1      16.645  -3.764  30.704  1.00  0.00     0.293 HD
ENDBRANCH   8  20
BRANCH   6  22
ATOM     22  O   UNL     1      21.377  -2.967  27.614  1.00  0.00    -0.508 OA
ATOM     23  H   UNL     1      22.021  -2.266  27.269  1.00  0.00     0.293 HD
ENDBRANCH   6  22
TORSDOF 4
ENDMDL
MODEL 2
REMARK VINA RESULT:    -1.710      4.620      6.600
REMARK INTER + INTRA:          -2.247
REMARK INTER:                  -1.953
REMARK INTRA:                  -0.293
REMARK UNBOUND:                -0.287
REMARK SMILES O=C1C[C@H](c2ccc(O)cc2)Oc2cc(O)cc(O)c21
REMARK SMILES IDX 3 1 4 2 12 3 13 4 14 5 15 6 17 7 18 8 20 9 2 10 1 11 5 12
REMARK SMILES IDX 6 13 11 14 7 15 10 16 8 17 9 18 19 20 16 22
REMARK H PARENT 9 19 19 21 16 23
REMARK Flexibility Score: inf
ROOT
ATOM      1  C   UNL     1      17.608  -4.672  26.737  1.00  0.00     0.131 C 
ATOM      2  C   UNL     1      16.087  -4.840  26.628  1.00  0.00     0.211 C 
ATOM      3  O   UNL     1      15.491  -3.621  26.186  1.00  0.00    -0.484 OA
ATOM      4  C   UNL     1      15.853  -2.384  26.731  1.00  0.00     0.138 A 
ATOM      5  C   UNL     1      15.029  -1.281  26.504  1.00  0.00     0.093 A 
ATOM      6  C   UNL     1      15.348  -0.038  27.055  1.00  0.00     0.123 A 
ATOM      7  C   UNL     1      16.487   0.095  27.849  1.00  0.00     0.093 A 
ATOM      8  C   UNL     1      17.326  -0.999  28.096  1.00  0.00     0.133 A 
ATOM      9  C   UNL     1      17.039  -2.256  27.490  1.00  0.00     0.102 A 
ATOM     10  C   UNL     1      17.948  -3.439  27.527  1.00  0.00     0.174 C 
ATOM     11  O   UNL     1      19.058  -3.403  28.116  1.00  0.00    -0.294 OA
ENDROOT
BRANCH   2  12
ATOM     12  C   UNL     1      15.738  -5.961  25.680  1.00  0.00    -0.007 A 
ATOM     13  C   UNL     1      15.717  -5.735  24.293  1.00  0.00     0.011 A 
ATOM     14  C   UNL     1      15.375  -7.228  26.171  1.00  0.00     0.011 A 
ATOM     15  C   UNL     1      15.364  -6.763  23.413  1.00  0.00     0.046 A 
ATOM     16  C   UNL     1      15.022  -8.254  25.290  1.00  0.00     0.046 A 
ATOM     17  C   UNL     1      15.018  -8.024  23.907  1.00  0.00     0.115 A 
BRANCH  17  18
ATOM     18  O   UNL     1      14.669  -9.039  23.019  1.00  0.00    -0.508 OA
ATOM     19  H   UNL     1      13.817  -9.575  23.137  1.00  0.00     0.293 HD
ENDBRANCH  17  18
ENDBRANCH   2  12
BRANCH   8  20
ATOM     20  O   UNL     1      18.406  -0.784  28.956  1.00  0.00    -0.507 OA
ATOM     21  H   UNL     1      18.322  -0.579  29.939  1.00  0.00     0.293 HD
ENDBRANCH   8  20
BRANCH   6  22
ATOM     22  O   UNL     1      14.534   1.070  26.828  1.00  0.00    -0.508 OA
ATOM     23  H   UNL     1      13.701   1.236  27.379  1.00  0.00     0.293 HD
ENDBRANCH   6  22
TORSDOF 4
ENDMDL
MODEL 3
REMARK VINA RESULT:    -1.284      9.048     10.286
REMARK INTER + INTRA:          -1.758
REMARK INTER:                  -1.464
REMARK INTRA:                  -0.294
REMARK UNBOUND:                -0.287
REMARK SMILES O=C1C[C@H](c2ccc(O)cc2)Oc2cc(O)cc(O)c21
REMARK SMILES IDX 3 1 4 2 12 3 13 4 14 5 15 6 17 7 18 8 20 9 2 10 1 11 5 12
REMARK SMILES IDX 6 13 11 14 7 15 10 16 8 17 9 18 19 20 16 22
REMARK H PARENT 9 19 19 21 16 23
REMARK Flexibility Score: inf
ROOT
ATOM      1  C   UNL     1      13.084  -9.267  27.530  1.00  0.00     0.131 C 
ATOM      2  C   UNL     1      14.570  -9.312  27.155  1.00  0.00     0.211 C 
ATOM      3  O   UNL     1      14.986 -10.663  26.962  1.00  0.00    -0.484 OA
ATOM      4  C   UNL     1      14.632 -11.678  27.858  1.00  0.00     0.138 A 
ATOM      5  C   UNL     1      15.318 -12.892  27.805  1.00  0.00     0.093 A 
ATOM      6  C   UNL     1      15.006 -13.916  28.702  1.00  0.00     0.123 A 
ATOM      7  C   UNL     1      14.016 -13.716  29.664  1.00  0.00     0.093 A 
ATOM      8  C   UNL     1      13.319 -12.504  29.741  1.00  0.00     0.133 A 
ATOM      9  C   UNL     1      13.591 -11.477  28.792  1.00  0.00     0.102 A 
ATOM     10  C   UNL     1      12.795 -10.221  28.656  1.00  0.00     0.174 C 
ATOM     11  O   UNL     1      11.805  -9.981  29.393  1.00  0.00    -0.294 OA
ENDROOT
BRANCH   2  12
ATOM     12  C   UNL     1      14.833  -8.505  25.907  1.00  0.00    -0.007 A 
ATOM     13  C   UNL     1      14.619  -9.073  24.639  1.00  0.00     0.011 A 
ATOM     14  C   UNL     1      15.347  -7.198  25.993  1.00  0.00     0.011 A 
ATOM     15  C   UNL     1      14.891  -8.339  23.481  1.00  0.00     0.046 A 
ATOM     16  C   UNL     1      15.617  -6.467  24.833  1.00  0.00     0.046 A 
ATOM     17  C   UNL     1      15.388  -7.036  23.573  1.00  0.00     0.115 A 
BRANCH  17  18
ATOM     18  O   UNL     1      15.653  -6.316  22.410  1.00  0.00    -0.508 OA
ATOM     19  H   UNL     1      16.600  -6.173  22.080  1.00  0.00     0.293 HD
ENDBRANCH  17  18
ENDBRANCH   2  12
BRANCH   8  20
ATOM     20  O   UNL     1      12.392 -12.373  30.779  1.00  0.00    -0.507 OA
ATOM     21  H   UNL     1      12.635 -12.218  31.744  1.00  0.00     0.293 HD
ENDBRANCH   8  20
BRANCH   6  22
ATOM     22  O   UNL     1      15.682 -15.134  28.652  1.00  0.00    -0.508 OA
ATOM     23  H   UNL     1      15.184 -16.014  28.593  1.00  0.00     0.293 HD
ENDBRANCH   6  22
TORSDOF 4
ENDMDL
MODEL 4
REMARK VINA RESULT:    -0.669     11.468     14.111
REMARK INTER + INTRA:          -1.054
REMARK INTER:                  -0.768
REMARK INTRA:                  -0.286
REMARK UNBOUND:                -0.287
REMARK SMILES O=C1C[C@H](c2ccc(O)cc2)Oc2cc(O)cc(O)c21
REMARK SMILES IDX 3 1 4 2 12 3 13 4 14 5 15 6 17 7 18 8 20 9 2 10 1 11 5 12
REMARK SMILES IDX 6 13 11 14 7 15 10 16 8 17 9 18 19 20 16 22
REMARK H PARENT 9 19 19 21 16 23
REMARK Flexibility Score: inf
ROOT
ATOM      1  C   UNL     1      14.999 -12.369  29.593  1.00  0.00     0.131 C 
ATOM      2  C   UNL     1      14.064 -13.525  29.218  1.00  0.00     0.211 C 
ATOM      3  O   UNL     1      12.864 -13.015  28.639  1.00  0.00    -0.484 OA
ATOM      4  C   UNL     1      12.176 -11.934  29.200  1.00  0.00     0.138 A 
ATOM      5  C   UNL     1      10.864 -11.686  28.794  1.00  0.00     0.093 A 
ATOM      6  C   UNL     1      10.140 -10.630  29.353  1.00  0.00     0.123 A 
ATOM      7  C   UNL     1      10.729  -9.832  30.334  1.00  0.00     0.093 A 
ATOM      8  C   UNL     1      12.042 -10.064  30.762  1.00  0.00     0.133 A 
ATOM      9  C   UNL     1      12.805 -11.102  30.154  1.00  0.00     0.102 A 
ATOM     10  C   UNL     1      14.261 -11.330  30.392  1.00  0.00     0.174 C 
ATOM     11  O   UNL     1      14.928 -10.599  31.169  1.00  0.00    -0.294 OA
ENDROOT
BRANCH   2  12
ATOM     12  C   UNL     1      14.741 -14.473  28.260  1.00  0.00    -0.007 A 
ATOM     13  C   UNL     1      15.064 -14.053  26.958  1.00  0.00     0.011 A 
ATOM     14  C   UNL     1      15.007 -15.803  28.634  1.00  0.00     0.011 A 
ATOM     15  C   UNL     1      15.664 -14.938  26.057  1.00  0.00     0.046 A 
ATOM     16  C   UNL     1      15.606 -16.685  27.731  1.00  0.00     0.046 A 
ATOM     17  C   UNL     1      15.938 -16.254  26.440  1.00  0.00     0.115 A 
BRANCH  17  18
ATOM     18  O   UNL     1      16.536 -17.125  25.532  1.00  0.00    -0.508 OA
ATOM     19  H   UNL     1      16.779 -16.828  24.595  1.00  0.00     0.293 HD
ENDBRANCH  17  18
ENDBRANCH   2  12
BRANCH   8  20
ATOM     20  O   UNL     1      12.522  -9.255  31.795  1.00  0.00    -0.507 OA
ATOM     21  H   UNL     1      13.008  -9.595  32.609  1.00  0.00     0.293 HD
ENDBRANCH   8  20
BRANCH   6  22
ATOM     22  O   UNL     1       8.832 -10.373  28.949  1.00  0.00    -0.508 OA
ATOM     23  H   UNL     1       8.081 -11.026  29.138  1.00  0.00     0.293 HD
ENDBRANCH   6  22
TORSDOF 4
ENDMDL
MODEL 5
REMARK VINA RESULT:    -0.244      2.924      6.353
REMARK INTER + INTRA:          -0.567
REMARK INTER:                  -0.286
REMARK INTRA:                  -0.280
REMARK UNBOUND:                -0.287
REMARK SMILES O=C1C[C@H](c2ccc(O)cc2)Oc2cc(O)cc(O)c21
REMARK SMILES IDX 3 1 4 2 12 3 13 4 14 5 15 6 17 7 18 8 20 9 2 10 1 11 5 12
REMARK SMILES IDX 6 13 11 14 7 15 10 16 8 17 9 18 19 20 16 22
REMARK H PARENT 9 19 19 21 16 23
REMARK Flexibility Score: inf
ROOT
ATOM      1  C   UNL     1      16.352  -1.620  28.362  1.00  0.00     0.131 C 
ATOM      2  C   UNL     1      15.423  -2.149  27.262  1.00  0.00     0.211 C 
ATOM      3  O   UNL     1      15.404  -1.242  26.160  1.00  0.00    -0.484 OA
ATOM      4  C   UNL     1      15.279   0.139  26.344  1.00  0.00     0.138 A 
ATOM      5  C   UNL     1      14.945   0.937  25.249  1.00  0.00     0.093 A 
ATOM      6  C   UNL     1      14.787   2.316  25.405  1.00  0.00     0.123 A 
ATOM      7  C   UNL     1      14.949   2.893  26.665  1.00  0.00     0.093 A 
ATOM      8  C   UNL     1      15.278   2.112  27.779  1.00  0.00     0.133 A 
ATOM      9  C   UNL     1      15.498   0.714  27.617  1.00  0.00     0.102 A 
ATOM     10  C   UNL     1      16.028  -0.187  28.683  1.00  0.00     0.174 C 
ATOM     11  O   UNL     1      16.320   0.243  29.828  1.00  0.00    -0.294 OA
ENDROOT
BRANCH   2  12
ATOM     12  C   UNL     1      15.864  -3.517  26.801  1.00  0.00    -0.007 A 
ATOM     13  C   UNL     1      14.970  -4.350  26.106  1.00  0.00     0.011 A 
ATOM     14  C   UNL     1      17.149  -3.998  27.109  1.00  0.00     0.011 A 
ATOM     15  C   UNL     1      15.364  -5.630  25.705  1.00  0.00     0.046 A 
ATOM     16  C   UNL     1      17.540  -5.277  26.706  1.00  0.00     0.046 A 
ATOM     17  C   UNL     1      16.648  -6.097  26.001  1.00  0.00     0.115 A 
BRANCH  17  18
ATOM     18  O   UNL     1      17.028  -7.374  25.594  1.00  0.00    -0.508 OA
ATOM     19  H   UNL     1      16.579  -7.836  24.812  1.00  0.00     0.293 HD
ENDBRANCH  17  18
ENDBRANCH   2  12
BRANCH   8  20
ATOM     20  O   UNL     1      15.353   2.770  29.010  1.00  0.00    -0.507 OA
ATOM     21  H   UNL     1      16.196   3.167  29.395  1.00  0.00     0.293 HD
ENDBRANCH   8  20
BRANCH   6  22
ATOM     22  O   UNL     1      14.459   3.121  24.316  1.00  0.00    -0.508 OA
ATOM     23  H   UNL     1      13.579   3.619  24.272  1.00  0.00     0.293 HD
ENDBRANCH   6  22
TORSDOF 4
ENDMDL
MODEL 6
REMARK VINA RESULT:     0.117     15.219     17.770
REMARK INTER + INTRA:          -0.153
REMARK INTER:                   0.158
REMARK INTRA:                  -0.311
REMARK UNBOUND:                -0.287
REMARK SMILES O=C1C[C@H](c2ccc(O)cc2)Oc2cc(O)cc(O)c21
REMARK SMILES IDX 3 1 4 2 12 3 13 4 14 5 15 6 17 7 18 8 20 9 2 10 1 11 5 12
REMARK SMILES IDX 6 13 11 14 7 15 10 16 8 17 9 18 19 20 16 22
REMARK H PARENT 9 19 19 21 16 23
REMARK Flexibility Score: inf
ROOT
ATOM      1  C   UNL     1      24.353  -9.358  13.693  1.00  0.00     0.131 C 
ATOM      2  C   UNL     1      25.124 -10.053  14.822  1.00  0.00     0.211 C 
ATOM      3  O   UNL     1      24.668  -9.581  16.088  1.00  0.00    -0.484 OA
ATOM      4  C   UNL     1      24.468  -8.219  16.339  1.00  0.00     0.138 A 
ATOM      5  C   UNL     1      24.338  -7.789  17.660  1.00  0.00     0.093 A 
ATOM      6  C   UNL     1      24.163  -6.433  17.946  1.00  0.00     0.123 A 
ATOM      7  C   UNL     1      24.136  -5.505  16.905  1.00  0.00     0.093 A 
ATOM      8  C   UNL     1      24.271  -5.911  15.572  1.00  0.00     0.133 A 
ATOM      9  C   UNL     1      24.391  -7.298  15.269  1.00  0.00     0.102 A 
ATOM     10  C   UNL     1      24.357  -7.867  13.890  1.00  0.00     0.174 C 
ATOM     11  O   UNL     1      24.220  -7.137  12.875  1.00  0.00    -0.294 OA
ENDROOT
BRANCH   2  12
ATOM     12  C   UNL     1      24.964 -11.551  14.738  1.00  0.00    -0.007 A 
ATOM     13  C   UNL     1      24.906 -12.323  15.911  1.00  0.00     0.011 A 
ATOM     14  C   UNL     1      24.928 -12.200  13.490  1.00  0.00     0.011 A 
ATOM     15  C   UNL     1      24.788 -13.714  15.837  1.00  0.00     0.046 A 
ATOM     16  C   UNL     1      24.810 -13.590  13.419  1.00  0.00     0.046 A 
ATOM     17  C   UNL     1      24.738 -14.351  14.593  1.00  0.00     0.115 A 
BRANCH  17  18
ATOM     18  O   UNL     1      24.621 -15.739  14.534  1.00  0.00    -0.508 OA
ATOM     19  H   UNL     1      24.684 -16.311  15.368  1.00  0.00     0.293 HD
ENDBRANCH  17  18
ENDBRANCH   2  12
BRANCH   8  20
ATOM     20  O   UNL     1      24.298  -4.903  14.604  1.00  0.00    -0.507 OA
ATOM     21  H   UNL     1      23.480  -4.450  14.229  1.00  0.00     0.293 HD
ENDBRANCH   8  20
BRANCH   6  22
ATOM     22  O   UNL     1      24.026  -5.996  19.262  1.00  0.00    -0.508 OA
ATOM     23  H   UNL     1      24.680  -5.341  19.673  1.00  0.00     0.293 HD
ENDBRANCH   6  22
TORSDOF 4
ENDMDL
MODEL 7
REMARK VINA RESULT:     0.496     10.148     11.771
REMARK INTER + INTRA:           0.281
REMARK INTER:                   0.558
REMARK INTRA:                  -0.276
REMARK UNBOUND:                -0.287
REMARK SMILES O=C1C[C@H](c2ccc(O)cc2)Oc2cc(O)cc(O)c21
REMARK SMILES IDX 3 1 4 2 12 3 13 4 14 5 15 6 17 7 18 8 20 9 2 10 1 11 5 12
REMARK SMILES IDX 6 13 11 14 7 15 10 16 8 17 9 18 19 20 16 22
REMARK H PARENT 9 19 19 21 16 23
REMARK Flexibility Score: inf
ROOT
ATOM      1  C   UNL     1      13.945 -11.107  29.318  1.00  0.00     0.131 C 
ATOM      2  C   UNL     1      15.057 -11.041  28.263  1.00  0.00     0.211 C 
ATOM      3  O   UNL     1      15.088 -12.252  27.509  1.00  0.00    -0.484 OA
ATOM      4  C   UNL     1      15.013 -13.506  28.124  1.00  0.00     0.138 A 
ATOM      5  C   UNL     1      15.368 -14.638  27.391  1.00  0.00     0.093 A 
ATOM      6  C   UNL     1      15.328 -15.903  27.984  1.00  0.00     0.123 A 
ATOM      7  C   UNL     1      14.946 -16.028  29.320  1.00  0.00     0.093 A 
ATOM      8  C   UNL     1      14.592 -14.906  30.078  1.00  0.00     0.133 A 
ATOM      9  C   UNL     1      14.574 -13.620  29.463  1.00  0.00     0.102 A 
ATOM     10  C   UNL     1      14.043 -12.383  30.108  1.00  0.00     0.174 C 
ATOM     11  O   UNL     1      13.565 -12.395  31.271  1.00  0.00    -0.294 OA
ENDROOT
BRANCH   2  12
ATOM     12  C   UNL     1      14.853  -9.861  27.343  1.00  0.00    -0.007 A 
ATOM     13  C   UNL     1      15.942  -9.314  26.644  1.00  0.00     0.011 A 
ATOM     14  C   UNL     1      13.588  -9.260  27.217  1.00  0.00     0.011 A 
ATOM     15  C   UNL     1      15.764  -8.203  25.815  1.00  0.00     0.046 A 
ATOM     16  C   UNL     1      13.412  -8.149  26.388  1.00  0.00     0.046 A 
ATOM     17  C   UNL     1      14.501  -7.619  25.683  1.00  0.00     0.115 A 
BRANCH  17  18
ATOM     18  O   UNL     1      14.337  -6.511  24.853  1.00  0.00    -0.508 OA
ATOM     19  H   UNL     1      15.122  -6.094  24.367  1.00  0.00     0.293 HD
ENDBRANCH  17  18
ENDBRANCH   2  12
BRANCH   8  20
ATOM     20  O   UNL     1      14.288 -15.123  31.424  1.00  0.00    -0.507 OA
ATOM     21  H   UNL     1      14.500 -15.970  31.928  1.00  0.00     0.293 HD
ENDBRANCH   8  20
BRANCH   6  22
ATOM     22  O   UNL     1      15.675 -17.039  27.257  1.00  0.00    -0.508 OA
ATOM     23  H   UNL     1      16.252 -17.769  27.659  1.00  0.00     0.293 HD
ENDBRANCH   6  22
TORSDOF 4
ENDMDL
MODEL 8
REMARK VINA RESULT:     0.558      4.628      6.054
REMARK INTER + INTRA:           0.352
REMARK INTER:                   0.643
REMARK INTRA:                  -0.291
REMARK UNBOUND:                -0.287
REMARK SMILES O=C1C[C@H](c2ccc(O)cc2)Oc2cc(O)cc(O)c21
REMARK SMILES IDX 3 1 4 2 12 3 13 4 14 5 15 6 17 7 18 8 20 9 2 10 1 11 5 12
REMARK SMILES IDX 6 13 11 14 7 15 10 16 8 17 9 18 19 20 16 22
REMARK H PARENT 9 19 19 21 16 23
REMARK Flexibility Score: inf
ROOT
ATOM      1  C   UNL     1      15.013  -3.701  26.394  1.00  0.00     0.131 C 
ATOM      2  C   UNL     1      16.150  -4.321  25.574  1.00  0.00     0.211 C 
ATOM      3  O   UNL     1      17.320  -4.451  26.380  1.00  0.00    -0.484 OA
ATOM      4  C   UNL     1      17.764  -3.414  27.207  1.00  0.00     0.138 A 
ATOM      5  C   UNL     1      19.063  -3.466  27.715  1.00  0.00     0.093 A 
ATOM      6  C   UNL     1      19.545  -2.434  28.523  1.00  0.00     0.123 A 
ATOM      7  C   UNL     1      18.729  -1.339  28.807  1.00  0.00     0.093 A 
ATOM      8  C   UNL     1      17.425  -1.261  28.304  1.00  0.00     0.133 A 
ATOM      9  C   UNL     1      16.906  -2.337  27.528  1.00  0.00     0.102 A 
ATOM     10  C   UNL     1      15.483  -2.455  27.092  1.00  0.00     0.174 C 
ATOM     11  O   UNL     1      14.625  -1.584  27.388  1.00  0.00    -0.294 OA
ENDROOT
BRANCH   2  12
ATOM     12  C   UNL     1      15.745  -5.669  25.027  1.00  0.00    -0.007 A 
ATOM     13  C   UNL     1      15.705  -6.792  25.871  1.00  0.00     0.011 A 
ATOM     14  C   UNL     1      15.457  -5.831  23.660  1.00  0.00     0.011 A 
ATOM     15  C   UNL     1      15.359  -8.047  25.362  1.00  0.00     0.046 A 
ATOM     16  C   UNL     1      15.112  -7.086  23.154  1.00  0.00     0.046 A 
ATOM     17  C   UNL     1      15.061  -8.199  24.005  1.00  0.00     0.115 A 
BRANCH  17  18
ATOM     18  O   UNL     1      14.718  -9.456  23.511  1.00  0.00    -0.508 OA
ATOM     19  H   UNL     1      15.362  -9.997  22.948  1.00  0.00     0.293 HD
ENDBRANCH  17  18
ENDBRANCH   2  12
BRANCH   8  20
ATOM     20  O   UNL     1      16.707  -0.096  28.588  1.00  0.00    -0.507 OA
ATOM     21  H   UNL     1      15.839   0.163  28.145  1.00  0.00     0.293 HD
ENDBRANCH   8  20
BRANCH   6  22
ATOM     22  O   UNL     1      20.838  -2.481  29.039  1.00  0.00    -0.508 OA
ATOM     23  H   UNL     1      21.557  -3.056  28.617  1.00  0.00     0.293 HD
ENDBRANCH   6  22
TORSDOF 4
ENDMDL
