MODEL 1
REMARK VINA RESULT:    -2.268      0.000      0.000
REMARK INTER + INTRA:          -2.576
REMARK INTER:                  -2.401
REMARK INTRA:                  -0.176
REMARK UNBOUND:                -0.176
REMARK SMILES CC1=CC[C@@H](C(C)C)C=C1
REMARK SMILES IDX 1 1 2 2 3 3 4 4 5 5 9 6 10 7 6 8 7 9 8 10
REMARK H PARENT
REMARK Flexibility Score: inf
ROOT
ATOM      1  C   UNL     1     -17.360   0.623  17.548  1.00  0.00     0.044 C 
ATOM      2  C   UNL     1     -16.550  -0.576  17.150  1.00  0.00    -0.055 C 
ATOM      3  C   UNL     1     -16.840  -1.247  16.027  1.00  0.00    -0.023 C 
ATOM      4  C   UNL     1     -15.949  -2.364  15.545  1.00  0.00     0.035 C 
ATOM      5  C   UNL     1     -15.317  -3.133  16.733  1.00  0.00     0.018 C 
ATOM      6  C   UNL     1     -14.753  -2.133  17.729  1.00  0.00    -0.023 C 
ATOM      7  C   UNL     1     -15.374  -0.970  17.954  1.00  0.00    -0.001 C 
ENDROOT
BRANCH   5   8
ATOM      8  C   UNL     1     -14.233  -4.165  16.286  1.00  0.00    -0.010 C 
ATOM      9  C   UNL     1     -12.989  -3.490  15.680  1.00  0.00     0.008 C 
ATOM     10  C   UNL     1     -14.802  -5.159  15.256  1.00  0.00     0.008 C 
ENDBRANCH   5   8
TORSDOF 1
ENDMDL
MODEL 2
REMARK VINA RESULT:    -1.971      0.529      1.634
REMARK INTER + INTRA:          -2.262
REMARK INTER:                  -2.108
REMARK INTRA:                  -0.154
REMARK UNBOUND:                -0.176
REMARK SMILES CC1=CC[C@@H](C(C)C)C=C1
REMARK SMILES IDX 1 1 2 2 3 3 4 4 5 5 9 6 10 7 6 8 7 9 8 10
REMARK H PARENT
REMARK Flexibility Score: inf
ROOT
ATOM      1  C   UNL     1     -17.598   0.622  17.498  1.00  0.00     0.044 C 
ATOM      2  C   UNL     1     -16.649  -0.517  17.268  1.00  0.00    -0.055 C 
ATOM      3  C   UNL     1     -15.772  -0.870  18.217  1.00  0.00    -0.023 C 
ATOM      4  C   UNL     1     -14.912  -2.098  18.054  1.00  0.00     0.035 C 
ATOM      5  C   UNL     1     -14.539  -2.331  16.568  1.00  0.00     0.018 C 
ATOM      6  C   UNL     1     -15.791  -2.202  15.715  1.00  0.00    -0.023 C 
ATOM      7  C   UNL     1     -16.738  -1.309  16.023  1.00  0.00    -0.001 C 
ENDROOT
BRANCH   5   8
ATOM      8  C   UNL     1     -13.821  -3.697  16.324  1.00  0.00    -0.010 C 
ATOM      9  C   UNL     1     -12.518  -3.544  15.519  1.00  0.00     0.008 C 
ATOM     10  C   UNL     1     -14.742  -4.686  15.583  1.00  0.00     0.008 C 
ENDBRANCH   5   8
TORSDOF 1
ENDMDL
MODEL 3
REMARK VINA RESULT:    -1.807      3.015      4.332
REMARK INTER + INTRA:          -2.088
REMARK INTER:                  -1.967
REMARK INTRA:                  -0.122
REMARK UNBOUND:                -0.176
REMARK SMILES CC1=CC[C@@H](C(C)C)C=C1
REMARK SMILES IDX 1 1 2 2 3 3 4 4 5 5 9 6 10 7 6 8 7 9 8 10
REMARK H PARENT
REMARK Flexibility Score: inf
ROOT
ATOM      1  C   UNL     1     -13.896  -1.590  23.236  1.00  0.00     0.044 C 
ATOM      2  C   UNL     1     -14.074  -1.893  21.778  1.00  0.00    -0.055 C 
ATOM      3  C   UNL     1     -13.047  -1.757  20.927  1.00  0.00    -0.023 C 
ATOM      4  C   UNL     1     -13.175  -2.192  19.489  1.00  0.00     0.035 C 
ATOM      5  C   UNL     1     -14.617  -1.976  18.961  1.00  0.00     0.018 C 
ATOM      6  C   UNL     1     -15.605  -2.526  19.977  1.00  0.00    -0.023 C 
ATOM      7  C   UNL     1     -15.363  -2.425  21.288  1.00  0.00    -0.001 C 
ENDROOT
BRANCH   5   8
ATOM      8  C   UNL     1     -14.849  -2.596  17.546  1.00  0.00    -0.010 C 
ATOM      9  C   UNL     1     -13.559  -2.652  16.707  1.00  0.00     0.008 C 
ATOM     10  C   UNL     1     -15.911  -1.805  16.759  1.00  0.00     0.008 C 
ENDBRANCH   5   8
TORSDOF 1
ENDMDL
MODEL 4
REMARK VINA RESULT:    -1.265      2.057      3.531
REMARK INTER + INTRA:          -1.515
REMARK INTER:                  -1.321
REMARK INTRA:                  -0.194
REMARK UNBOUND:                -0.176
REMARK SMILES CC1=CC[C@@H](C(C)C)C=C1
REMARK SMILES IDX 1 1 2 2 3 3 4 4 5 5 9 6 10 7 6 8 7 9 8 10
REMARK H PARENT
REMARK Flexibility Score: inf
ROOT
ATOM      1  C   UNL     1     -14.074  -2.045  21.864  1.00  0.00     0.044 C 
ATOM      2  C   UNL     1     -14.297  -2.207  20.390  1.00  0.00    -0.055 C 
ATOM      3  C   UNL     1     -13.256  -2.363  19.559  1.00  0.00    -0.023 C 
ATOM      4  C   UNL     1     -13.474  -2.667  18.099  1.00  0.00     0.035 C 
ATOM      5  C   UNL     1     -14.758  -1.979  17.566  1.00  0.00     0.018 C 
ATOM      6  C   UNL     1     -15.898  -2.235  18.539  1.00  0.00    -0.023 C 
ATOM      7  C   UNL     1     -15.674  -2.279  19.856  1.00  0.00    -0.001 C 
ENDROOT
BRANCH   5   8
ATOM      8  C   UNL     1     -15.133  -2.426  16.117  1.00  0.00    -0.010 C 
ATOM      9  C   UNL     1     -16.525  -1.925  15.687  1.00  0.00     0.008 C 
ATOM     10  C   UNL     1     -15.101  -3.960  15.981  1.00  0.00     0.008 C 
ENDBRANCH   5   8
TORSDOF 1
ENDMDL
MODEL 5
REMARK VINA RESULT:    -1.119      0.943      4.377
REMARK INTER + INTRA:          -1.360
REMARK INTER:                  -1.226
REMARK INTRA:                  -0.134
REMARK UNBOUND:                -0.176
REMARK SMILES CC1=CC[C@@H](C(C)C)C=C1
REMARK SMILES IDX 1 1 2 2 3 3 4 4 5 5 9 6 10 7 6 8 7 9 8 10
REMARK H PARENT
REMARK Flexibility Score: inf
ROOT
ATOM      1  C   UNL     1     -14.642  -4.726  15.677  1.00  0.00     0.044 C 
ATOM      2  C   UNL     1     -15.136  -3.417  16.218  1.00  0.00    -0.055 C 
ATOM      3  C   UNL     1     -16.059  -2.712  15.550  1.00  0.00    -0.023 C 
ATOM      4  C   UNL     1     -16.665  -1.469  16.151  1.00  0.00     0.035 C 
ATOM      5  C   UNL     1     -15.637  -0.711  17.030  1.00  0.00     0.018 C 
ATOM      6  C   UNL     1     -14.946  -1.701  17.952  1.00  0.00    -0.023 C 
ATOM      7  C   UNL     1     -14.667  -2.941  17.537  1.00  0.00    -0.001 C 
ENDROOT
BRANCH   5   8
ATOM      8  C   UNL     1     -16.273   0.469  17.832  1.00  0.00    -0.010 C 
ATOM      9  C   UNL     1     -17.778   0.630  17.553  1.00  0.00     0.008 C 
ATOM     10  C   UNL     1     -15.570   1.803  17.512  1.00  0.00     0.008 C 
ENDBRANCH   5   8
TORSDOF 1
ENDMDL
MODEL 6
REMARK VINA RESULT:    -1.038      2.118      3.898
REMARK INTER + INTRA:          -1.275
REMARK INTER:                  -1.096
REMARK INTRA:                  -0.178
REMARK UNBOUND:                -0.176
REMARK SMILES CC1=CC[C@@H](C(C)C)C=C1
REMARK SMILES IDX 1 1 2 2 3 3 4 4 5 5 9 6 10 7 6 8 7 9 8 10
REMARK H PARENT
REMARK Flexibility Score: inf
ROOT
ATOM      1  C   UNL     1     -16.477  -1.621  15.286  1.00  0.00     0.044 C 
ATOM      2  C   UNL     1     -15.765  -1.798  16.595  1.00  0.00    -0.055 C 
ATOM      3  C   UNL     1     -14.725  -2.638  16.693  1.00  0.00    -0.023 C 
ATOM      4  C   UNL     1     -13.916  -2.718  17.962  1.00  0.00     0.035 C 
ATOM      5  C   UNL     1     -14.801  -2.477  19.211  1.00  0.00     0.018 C 
ATOM      6  C   UNL     1     -15.666  -1.249  18.978  1.00  0.00    -0.023 C 
ATOM      7  C   UNL     1     -16.155  -0.980  17.762  1.00  0.00    -0.001 C 
ENDROOT
BRANCH   5   8
ATOM      8  C   UNL     1     -13.976  -2.351  20.531  1.00  0.00    -0.010 C 
ATOM      9  C   UNL     1     -14.865  -2.369  21.788  1.00  0.00     0.008 C 
ATOM     10  C   UNL     1     -13.138  -1.058  20.542  1.00  0.00     0.008 C 
ENDBRANCH   5   8
TORSDOF 1
ENDMDL
MODEL 7
REMARK VINA RESULT:    -0.751      2.896      4.706
REMARK INTER + INTRA:          -0.970
REMARK INTER:                  -0.839
REMARK INTRA:                  -0.131
REMARK UNBOUND:                -0.176
REMARK SMILES CC1=CC[C@@H](C(C)C)C=C1
REMARK SMILES IDX 1 1 2 2 3 3 4 4 5 5 9 6 10 7 6 8 7 9 8 10
REMARK H PARENT
REMARK Flexibility Score: inf
ROOT
ATOM      1  C   UNL     1     -15.009  -2.289  15.951  1.00  0.00     0.044 C 
ATOM      2  C   UNL     1     -14.836  -2.335  17.441  1.00  0.00    -0.055 C 
ATOM      3  C   UNL     1     -15.889  -2.156  18.252  1.00  0.00    -0.023 C 
ATOM      4  C   UNL     1     -15.753  -2.340  19.742  1.00  0.00     0.035 C 
ATOM      5  C   UNL     1     -14.348  -1.911  20.237  1.00  0.00     0.018 C 
ATOM      6  C   UNL     1     -13.294  -2.526  19.331  1.00  0.00    -0.023 C 
ATOM      7  C   UNL     1     -13.516  -2.662  18.019  1.00  0.00    -0.001 C 
ENDROOT
BRANCH   5   8
ATOM      8  C   UNL     1     -14.092  -2.270  21.735  1.00  0.00    -0.010 C 
ATOM      9  C   UNL     1     -14.655  -1.210  22.701  1.00  0.00     0.008 C 
ATOM     10  C   UNL     1     -12.588  -2.440  22.018  1.00  0.00     0.008 C 
ENDBRANCH   5   8
TORSDOF 1
ENDMDL
MODEL 8
REMARK VINA RESULT:    -0.663      1.022      4.510
REMARK INTER + INTRA:          -0.877
REMARK INTER:                  -0.749
REMARK INTRA:                  -0.128
REMARK UNBOUND:                -0.176
REMARK SMILES CC1=CC[C@@H](C(C)C)C=C1
REMARK SMILES IDX 1 1 2 2 3 3 4 4 5 5 9 6 10 7 6 8 7 9 8 10
REMARK H PARENT
REMARK Flexibility Score: inf
ROOT
ATOM      1  C   UNL     1     -14.894  -5.014  15.789  1.00  0.00     0.044 C 
ATOM      2  C   UNL     1     -15.275  -3.597  16.101  1.00  0.00    -0.055 C 
ATOM      3  C   UNL     1     -14.600  -2.901  17.027  1.00  0.00    -0.023 C 
ATOM      4  C   UNL     1     -14.882  -1.437  17.248  1.00  0.00     0.035 C 
ATOM      5  C   UNL     1     -16.378  -1.109  17.011  1.00  0.00     0.018 C 
ATOM      6  C   UNL     1     -16.826  -1.745  15.705  1.00  0.00    -0.023 C 
ATOM      7  C   UNL     1     -16.344  -2.934  15.325  1.00  0.00    -0.001 C 
ENDROOT
BRANCH   5   8
ATOM      8  C   UNL     1     -16.679   0.424  17.031  1.00  0.00    -0.010 C 
ATOM      9  C   UNL     1     -15.503   1.249  17.587  1.00  0.00     0.008 C 
ATOM     10  C   UNL     1     -17.934   0.735  17.868  1.00  0.00     0.008 C 
ENDBRANCH   5   8
TORSDOF 1
ENDMDL
