MODEL 1
REMARK VINA RESULT:    -4.751      0.000      0.000
REMARK INTER + INTRA:          -6.313
REMARK INTER:                  -6.140
REMARK INTRA:                  -0.173
REMARK UNBOUND:                -0.173
REMARK SMILES CCO[C@H]1O[C@@H](CO)[C@@H](O)[C@@H](O)[C@@H]1O
REMARK SMILES IDX 4 1 13 2 11 3 9 4 6 5 5 6 3 7 2 8 1 9 14 10 12 12 7 14 8 15
REMARK SMILES IDX 10 17
REMARK H PARENT 14 11 12 13 8 16 10 18
REMARK Flexibility Score: inf
ROOT
ATOM      1  C   UNL     1      16.762   4.843  41.881  1.00  0.00     0.281 C 
ATOM      2  C   UNL     1      15.282   5.284  42.043  1.00  0.00     0.202 C 
ATOM      3  C   UNL     1      14.980   6.649  41.373  1.00  0.00     0.179 C 
ATOM      4  C   UNL     1      16.265   7.426  41.024  1.00  0.00     0.177 C 
ATOM      5  C   UNL     1      17.339   7.183  42.114  1.00  0.00     0.178 C 
ATOM      6  O   UNL     1      17.715   5.819  42.292  1.00  0.00    -0.341 OA
ENDROOT
BRANCH   1   7
ATOM      7  O   UNL     1      17.022   4.493  40.531  1.00  0.00    -0.350 OA
BRANCH   7   8
ATOM      8  C   UNL     1      16.980   3.094  40.345  1.00  0.00     0.160 C 
ATOM      9  C   UNL     1      18.361   2.515  40.603  1.00  0.00     0.035 C 
ENDBRANCH   7   8
ENDBRANCH   1   7
BRANCH   2  10
ATOM     10  O   UNL     1      14.912   5.292  43.401  1.00  0.00    -0.385 OA
ATOM     11  H   UNL     1      15.736   5.216  43.946  1.00  0.00     0.211 HD
ENDBRANCH   2  10
BRANCH   3  12
ATOM     12  O   UNL     1      14.201   6.450  40.220  1.00  0.00    -0.387 OA
ATOM     13  H   UNL     1      14.559   7.060  39.522  1.00  0.00     0.211 HD
ENDBRANCH   3  12
BRANCH   5  14
ATOM     14  C   UNL     1      18.614   7.999  41.846  1.00  0.00     0.191 C 
BRANCH  14  15
ATOM     15  O   UNL     1      18.634   9.175  42.609  1.00  0.00    -0.394 OA
ATOM     16  H   UNL     1      19.508   9.612  42.436  1.00  0.00     0.210 HD
ENDBRANCH  14  15
ENDBRANCH   5  14
BRANCH   4  17
ATOM     17  O   UNL     1      16.743   7.039  39.757  1.00  0.00    -0.387 OA
ATOM     18  H   UNL     1      16.373   7.680  39.095  1.00  0.00     0.211 HD
ENDBRANCH   4  17
TORSDOF 7
ENDMDL
MODEL 2
REMARK VINA RESULT:    -4.674      1.657      2.517
REMARK INTER + INTRA:          -6.213
REMARK INTER:                  -5.842
REMARK INTRA:                  -0.371
REMARK UNBOUND:                -0.173
REMARK SMILES CCO[C@H]1O[C@@H](CO)[C@@H](O)[C@@H](O)[C@@H]1O
REMARK SMILES IDX 4 1 13 2 11 3 9 4 6 5 5 6 3 7 2 8 1 9 14 10 12 12 7 14 8 15
REMARK SMILES IDX 10 17
REMARK H PARENT 14 11 12 13 8 16 10 18
REMARK Flexibility Score: inf
ROOT
ATOM      1  C   UNL     1      16.359   6.307  41.969  1.00  0.00     0.281 C 
ATOM      2  C   UNL     1      16.162   7.538  41.043  1.00  0.00     0.202 C 
ATOM      3  C   UNL     1      17.418   8.444  40.966  1.00  0.00     0.179 C 
ATOM      4  C   UNL     1      18.432   8.136  42.086  1.00  0.00     0.177 C 
ATOM      5  C   UNL     1      17.678   7.760  43.387  1.00  0.00     0.178 C 
ATOM      6  O   UNL     1      16.823   6.625  43.278  1.00  0.00    -0.341 OA
ENDROOT
BRANCH   1   7
ATOM      7  O   UNL     1      17.263   5.389  41.375  1.00  0.00    -0.350 OA
BRANCH   7   8
ATOM      8  C   UNL     1      16.579   4.407  40.625  1.00  0.00     0.160 C 
ATOM      9  C   UNL     1      17.506   3.226  40.386  1.00  0.00     0.035 C 
ENDBRANCH   7   8
ENDBRANCH   1   7
BRANCH   2  10
ATOM     10  O   UNL     1      15.028   8.275  41.429  1.00  0.00    -0.385 OA
ATOM     11  H   UNL     1      15.062   9.154  40.974  1.00  0.00     0.211 HD
ENDBRANCH   2  10
BRANCH   3  12
ATOM     12  O   UNL     1      18.027   8.306  39.705  1.00  0.00    -0.387 OA
ATOM     13  H   UNL     1      18.925   8.724  39.773  1.00  0.00     0.211 HD
ENDBRANCH   3  12
BRANCH   5  14
ATOM     14  C   UNL     1      18.649   7.517  44.554  1.00  0.00     0.191 C 
BRANCH  14  15
ATOM     15  O   UNL     1      19.876   8.160  44.335  1.00  0.00    -0.394 OA
ATOM     16  H   UNL     1      20.026   8.759  45.111  1.00  0.00     0.210 HD
ENDBRANCH  14  15
ENDBRANCH   5  14
BRANCH   4  17
ATOM     17  O   UNL     1      19.297   7.098  41.693  1.00  0.00    -0.387 OA
ATOM     18  H   UNL     1      20.110   7.162  42.258  1.00  0.00     0.211 HD
ENDBRANCH   4  17
TORSDOF 7
ENDMDL
MODEL 3
REMARK VINA RESULT:    -4.632      8.706     10.629
REMARK INTER + INTRA:          -6.159
REMARK INTER:                  -5.810
REMARK INTRA:                  -0.349
REMARK UNBOUND:                -0.173
REMARK SMILES CCO[C@H]1O[C@@H](CO)[C@@H](O)[C@@H](O)[C@@H]1O
REMARK SMILES IDX 4 1 13 2 11 3 9 4 6 5 5 6 3 7 2 8 1 9 14 10 12 12 7 14 8 15
REMARK SMILES IDX 10 17
REMARK H PARENT 14 11 12 13 8 16 10 18
REMARK Flexibility Score: inf
ROOT
ATOM      1  C   UNL     1      10.324  -0.023  41.016  1.00  0.00     0.281 C 
ATOM      2  C   UNL     1       9.269  -0.232  42.137  1.00  0.00     0.202 C 
ATOM      3  C   UNL     1       8.513  -1.580  42.013  1.00  0.00     0.179 C 
ATOM      4  C   UNL     1       8.706  -2.234  40.630  1.00  0.00     0.177 C 
ATOM      5  C   UNL     1       8.767  -1.139  39.536  1.00  0.00     0.178 C 
ATOM      6  O   UNL     1       9.819  -0.190  39.695  1.00  0.00    -0.341 OA
ENDROOT
BRANCH   1   7
ATOM      7  O   UNL     1      11.415  -0.910  41.202  1.00  0.00    -0.350 OA
BRANCH   7   8
ATOM      8  C   UNL     1      12.594  -0.211  41.541  1.00  0.00     0.160 C 
ATOM      9  C   UNL     1      13.777  -1.164  41.472  1.00  0.00     0.035 C 
ENDBRANCH   7   8
ENDBRANCH   1   7
BRANCH   2  10
ATOM     10  O   UNL     1       8.371   0.851  42.182  1.00  0.00    -0.385 OA
ATOM     11  H   UNL     1       7.675   0.646  42.857  1.00  0.00     0.211 HD
ENDBRANCH   2  10
BRANCH   3  12
ATOM     12  O   UNL     1       8.934  -2.456  43.030  1.00  0.00    -0.387 OA
ATOM     13  H   UNL     1       8.126  -2.936  43.349  1.00  0.00     0.211 HD
ENDBRANCH   3  12
BRANCH   5  14
ATOM     14  C   UNL     1       8.884  -1.750  38.129  1.00  0.00     0.191 C 
BRANCH  14  15
ATOM     15  O   UNL     1       8.416  -3.072  38.110  1.00  0.00    -0.394 OA
ATOM     16  H   UNL     1       8.420  -3.389  39.050  1.00  0.00     0.210 HD
ENDBRANCH  14  15
ENDBRANCH   5  14
BRANCH   4  17
ATOM     17  O   UNL     1       9.875  -3.019  40.617  1.00  0.00    -0.387 OA
ATOM     18  H   UNL     1      10.087  -3.216  39.668  1.00  0.00     0.211 HD
ENDBRANCH   4  17
TORSDOF 7
ENDMDL
MODEL 4
REMARK VINA RESULT:    -4.607      7.299      9.379
REMARK INTER + INTRA:          -6.126
REMARK INTER:                  -5.918
REMARK INTRA:                  -0.209
REMARK UNBOUND:                -0.173
REMARK SMILES CCO[C@H]1O[C@@H](CO)[C@@H](O)[C@@H](O)[C@@H]1O
REMARK SMILES IDX 4 1 13 2 11 3 9 4 6 5 5 6 3 7 2 8 1 9 14 10 12 12 7 14 8 15
REMARK SMILES IDX 10 17
REMARK H PARENT 14 11 12 13 8 16 10 18
REMARK Flexibility Score: inf
ROOT
ATOM      1  C   UNL     1      11.841  -0.013  40.492  1.00  0.00     0.281 C 
ATOM      2  C   UNL     1      11.131   1.350  40.717  1.00  0.00     0.202 C 
ATOM      3  C   UNL     1       9.897   1.243  41.649  1.00  0.00     0.179 C 
ATOM      4  C   UNL     1       9.436  -0.216  41.845  1.00  0.00     0.177 C 
ATOM      5  C   UNL     1       9.636  -1.010  40.529  1.00  0.00     0.178 C 
ATOM      6  O   UNL     1      10.980  -1.060  40.056  1.00  0.00    -0.341 OA
ENDROOT
BRANCH   1   7
ATOM      7  O   UNL     1      12.494  -0.425  41.682  1.00  0.00    -0.350 OA
BRANCH   7   8
ATOM      8  C   UNL     1      13.664  -1.163  41.398  1.00  0.00     0.160 C 
ATOM      9  C   UNL     1      14.777  -0.204  41.009  1.00  0.00     0.035 C 
ENDBRANCH   7   8
ENDBRANCH   1   7
BRANCH   2  10
ATOM     10  O   UNL     1      10.788   1.940  39.486  1.00  0.00    -0.385 OA
ATOM     11  H   UNL     1      11.606   1.992  38.930  1.00  0.00     0.211 HD
ENDBRANCH   2  10
BRANCH   3  12
ATOM     12  O   UNL     1      10.187   1.834  42.891  1.00  0.00    -0.387 OA
ATOM     13  H   UNL     1      11.107   2.204  42.826  1.00  0.00     0.211 HD
ENDBRANCH   3  12
BRANCH   5  14
ATOM     14  C   UNL     1       9.120  -2.453  40.655  1.00  0.00     0.191 C 
BRANCH  14  15
ATOM     15  O   UNL     1       7.718  -2.492  40.657  1.00  0.00    -0.394 OA
ATOM     16  H   UNL     1       7.419  -1.934  41.421  1.00  0.00     0.210 HD
ENDBRANCH  14  15
ENDBRANCH   5  14
BRANCH   4  17
ATOM     17  O   UNL     1      10.145  -0.816  42.903  1.00  0.00    -0.387 OA
ATOM     18  H   UNL     1      10.459  -1.701  42.581  1.00  0.00     0.211 HD
ENDBRANCH   4  17
TORSDOF 7
ENDMDL
MODEL 5
REMARK VINA RESULT:    -4.463      1.568      3.774
REMARK INTER + INTRA:          -5.941
REMARK INTER:                  -5.472
REMARK INTRA:                  -0.469
REMARK UNBOUND:                -0.173
REMARK SMILES CCO[C@H]1O[C@@H](CO)[C@@H](O)[C@@H](O)[C@@H]1O
REMARK SMILES IDX 4 1 13 2 11 3 9 4 6 5 5 6 3 7 2 8 1 9 14 10 12 12 7 14 8 15
REMARK SMILES IDX 10 17
REMARK H PARENT 14 11 12 13 8 16 10 18
REMARK Flexibility Score: inf
ROOT
ATOM      1  C   UNL     1      16.625   7.090  40.340  1.00  0.00     0.281 C 
ATOM      2  C   UNL     1      17.641   8.257  40.462  1.00  0.00     0.202 C 
ATOM      3  C   UNL     1      17.699   8.863  41.888  1.00  0.00     0.179 C 
ATOM      4  C   UNL     1      16.500   8.432  42.756  1.00  0.00     0.177 C 
ATOM      5  C   UNL     1      15.227   8.330  41.878  1.00  0.00     0.178 C 
ATOM      6  O   UNL     1      15.314   7.401  40.800  1.00  0.00    -0.341 OA
ENDROOT
BRANCH   1   7
ATOM      7  O   UNL     1      17.099   5.954  41.046  1.00  0.00    -0.350 OA
BRANCH   7   8
ATOM      8  C   UNL     1      16.328   4.808  40.755  1.00  0.00     0.160 C 
ATOM      9  C   UNL     1      17.250   3.606  40.625  1.00  0.00     0.035 C 
ENDBRANCH   7   8
ENDBRANCH   1   7
BRANCH   2  10
ATOM     10  O   UNL     1      17.376   9.250  39.500  1.00  0.00    -0.385 OA
ATOM     11  H   UNL     1      16.475   9.621  39.680  1.00  0.00     0.211 HD
ENDBRANCH   2  10
BRANCH   3  12
ATOM     12  O   UNL     1      18.907   8.499  42.509  1.00  0.00    -0.387 OA
ATOM     13  H   UNL     1      19.026   7.524  42.358  1.00  0.00     0.211 HD
ENDBRANCH   3  12
BRANCH   5  14
ATOM     14  C   UNL     1      13.988   7.975  42.717  1.00  0.00     0.191 C 
BRANCH  14  15
ATOM     15  O   UNL     1      13.832   6.586  42.828  1.00  0.00    -0.394 OA
ATOM     16  H   UNL     1      13.452   6.413  43.728  1.00  0.00     0.210 HD
ENDBRANCH  14  15
ENDBRANCH   5  14
BRANCH   4  17
ATOM     17  O   UNL     1      16.769   7.204  43.389  1.00  0.00    -0.387 OA
ATOM     18  H   UNL     1      17.700   6.950  43.157  1.00  0.00     0.211 HD
ENDBRANCH   4  17
TORSDOF 7
ENDMDL
MODEL 6
REMARK VINA RESULT:    -4.404      2.116      4.822
REMARK INTER + INTRA:          -5.864
REMARK INTER:                  -5.457
REMARK INTRA:                  -0.408
REMARK UNBOUND:                -0.173
REMARK SMILES CCO[C@H]1O[C@@H](CO)[C@@H](O)[C@@H](O)[C@@H]1O
REMARK SMILES IDX 4 1 13 2 11 3 9 4 6 5 5 6 3 7 2 8 1 9 14 10 12 12 7 14 8 15
REMARK SMILES IDX 10 17
REMARK H PARENT 14 11 12 13 8 16 10 18
REMARK Flexibility Score: inf
ROOT
ATOM      1  C   UNL     1      16.152   8.786  42.650  1.00  0.00     0.281 C 
ATOM      2  C   UNL     1      17.473   9.154  41.921  1.00  0.00     0.202 C 
ATOM      3  C   UNL     1      17.850   8.146  40.805  1.00  0.00     0.179 C 
ATOM      4  C   UNL     1      17.051   6.832  40.909  1.00  0.00     0.177 C 
ATOM      5  C   UNL     1      16.823   6.473  42.399  1.00  0.00     0.178 C 
ATOM      6  O   UNL     1      16.109   7.453  43.150  1.00  0.00    -0.341 OA
ENDROOT
BRANCH   1   7
ATOM      7  O   UNL     1      15.046   8.984  41.784  1.00  0.00    -0.350 OA
BRANCH   7   8
ATOM      8  C   UNL     1      14.689  10.348  41.710  1.00  0.00     0.160 C 
ATOM      9  C   UNL     1      13.173  10.468  41.700  1.00  0.00     0.035 C 
ENDBRANCH   7   8
ENDBRANCH   1   7
BRANCH   2  10
ATOM     10  O   UNL     1      18.524   9.306  42.844  1.00  0.00    -0.385 OA
ATOM     11  H   UNL     1      19.198   8.602  42.663  1.00  0.00     0.211 HD
ENDBRANCH   2  10
BRANCH   3  12
ATOM     12  O   UNL     1      17.654   8.738  39.544  1.00  0.00    -0.387 OA
ATOM     13  H   UNL     1      18.439   8.493  38.987  1.00  0.00     0.211 HD
ENDBRANCH   3  12
BRANCH   5  14
ATOM     14  C   UNL     1      16.093   5.128  42.553  1.00  0.00     0.191 C 
BRANCH  14  15
ATOM     15  O   UNL     1      16.247   4.334  41.408  1.00  0.00    -0.394 OA
ATOM     16  H   UNL     1      15.802   3.468  41.600  1.00  0.00     0.210 HD
ENDBRANCH  14  15
ENDBRANCH   5  14
BRANCH   4  17
ATOM     17  O   UNL     1      15.823   6.949  40.230  1.00  0.00    -0.387 OA
ATOM     18  H   UNL     1      15.148   6.444  40.754  1.00  0.00     0.211 HD
ENDBRANCH   4  17
TORSDOF 7
ENDMDL
MODEL 7
REMARK VINA RESULT:    -4.386      2.278      3.818
REMARK INTER + INTRA:          -5.841
REMARK INTER:                  -5.304
REMARK INTRA:                  -0.537
REMARK UNBOUND:                -0.173
REMARK SMILES CCO[C@H]1O[C@@H](CO)[C@@H](O)[C@@H](O)[C@@H]1O
REMARK SMILES IDX 4 1 13 2 11 3 9 4 6 5 5 6 3 7 2 8 1 9 14 10 12 12 7 14 8 15
REMARK SMILES IDX 10 17
REMARK H PARENT 14 11 12 13 8 16 10 18
REMARK Flexibility Score: inf
ROOT
ATOM      1  C   UNL     1      16.771   6.801  42.357  1.00  0.00     0.281 C 
ATOM      2  C   UNL     1      16.850   6.793  40.807  1.00  0.00     0.202 C 
ATOM      3  C   UNL     1      16.992   8.213  40.201  1.00  0.00     0.179 C 
ATOM      4  C   UNL     1      16.658   9.320  41.220  1.00  0.00     0.177 C 
ATOM      5  C   UNL     1      15.505   8.853  42.144  1.00  0.00     0.178 C 
ATOM      6  O   UNL     1      15.777   7.670  42.891  1.00  0.00    -0.341 OA
ENDROOT
BRANCH   1   7
ATOM      7  O   UNL     1      18.030   7.155  42.908  1.00  0.00    -0.350 OA
BRANCH   7   8
ATOM      8  C   UNL     1      17.995   7.146  44.320  1.00  0.00     0.160 C 
ATOM      9  C   UNL     1      19.159   7.966  44.853  1.00  0.00     0.035 C 
ENDBRANCH   7   8
ENDBRANCH   1   7
BRANCH   2  10
ATOM     10  O   UNL     1      15.746   6.115  40.256  1.00  0.00    -0.385 OA
ATOM     11  H   UNL     1      14.925   6.459  40.691  1.00  0.00     0.211 HD
ENDBRANCH   2  10
BRANCH   3  12
ATOM     12  O   UNL     1      18.294   8.388  39.700  1.00  0.00    -0.387 OA
ATOM     13  H   UNL     1      18.437   9.366  39.605  1.00  0.00     0.211 HD
ENDBRANCH   3  12
BRANCH   5  14
ATOM     14  C   UNL     1      15.087   9.956  43.131  1.00  0.00     0.191 C 
BRANCH  14  15
ATOM     15  O   UNL     1      16.007  10.070  44.183  1.00  0.00    -0.394 OA
ATOM     16  H   UNL     1      16.892   9.812  43.816  1.00  0.00     0.210 HD
ENDBRANCH  14  15
ENDBRANCH   5  14
BRANCH   4  17
ATOM     17  O   UNL     1      17.799   9.652  41.975  1.00  0.00    -0.387 OA
ATOM     18  H   UNL     1      17.950  10.627  41.866  1.00  0.00     0.211 HD
ENDBRANCH   4  17
TORSDOF 7
ENDMDL
MODEL 8
REMARK VINA RESULT:    -4.378      2.277      4.615
REMARK INTER + INTRA:          -5.831
REMARK INTER:                  -5.390
REMARK INTRA:                  -0.441
REMARK UNBOUND:                -0.173
REMARK SMILES CCO[C@H]1O[C@@H](CO)[C@@H](O)[C@@H](O)[C@@H]1O
REMARK SMILES IDX 4 1 13 2 11 3 9 4 6 5 5 6 3 7 2 8 1 9 14 10 12 12 7 14 8 15
REMARK SMILES IDX 10 17
REMARK H PARENT 14 11 12 13 8 16 10 18
REMARK Flexibility Score: inf
ROOT
ATOM      1  C   UNL     1      17.010   9.231  41.392  1.00  0.00     0.281 C 
ATOM      2  C   UNL     1      17.096   8.212  40.223  1.00  0.00     0.202 C 
ATOM      3  C   UNL     1      17.001   6.739  40.696  1.00  0.00     0.179 C 
ATOM      4  C   UNL     1      17.212   6.598  42.217  1.00  0.00     0.177 C 
ATOM      5  C   UNL     1      18.266   7.626  42.698  1.00  0.00     0.178 C 
ATOM      6  O   UNL     1      17.931   8.990  42.451  1.00  0.00    -0.341 OA
ENDROOT
BRANCH   1   7
ATOM      7  O   UNL     1      15.695   9.250  41.926  1.00  0.00    -0.350 OA
BRANCH   7   8
ATOM      8  C   UNL     1      15.412  10.485  42.549  1.00  0.00     0.160 C 
ATOM      9  C   UNL     1      14.198  11.113  41.884  1.00  0.00     0.035 C 
ENDBRANCH   7   8
ENDBRANCH   1   7
BRANCH   2  10
ATOM     10  O   UNL     1      18.260   8.427  39.461  1.00  0.00    -0.385 OA
ATOM     11  H   UNL     1      18.022   9.006  38.693  1.00  0.00     0.211 HD
ENDBRANCH   2  10
BRANCH   3  12
ATOM     12  O   UNL     1      15.757   6.199  40.323  1.00  0.00    -0.387 OA
ATOM     13  H   UNL     1      15.699   5.298  40.737  1.00  0.00     0.211 HD
ENDBRANCH   3  12
BRANCH   5  14
ATOM     14  C   UNL     1      18.563   7.472  44.199  1.00  0.00     0.191 C 
BRANCH  14  15
ATOM     15  O   UNL     1      17.593   8.120  44.978  1.00  0.00    -0.394 OA
ATOM     16  H   UNL     1      17.418   8.994  44.543  1.00  0.00     0.210 HD
ENDBRANCH  14  15
ENDBRANCH   5  14
BRANCH   4  17
ATOM     17  O   UNL     1      15.993   6.775  42.899  1.00  0.00    -0.387 OA
ATOM     18  H   UNL     1      16.204   6.836  43.867  1.00  0.00     0.211 HD
ENDBRANCH   4  17
TORSDOF 7
ENDMDL
MODEL 9
REMARK VINA RESULT:    -4.354      1.828      3.298
REMARK INTER + INTRA:          -5.800
REMARK INTER:                  -5.521
REMARK INTRA:                  -0.279
REMARK UNBOUND:                -0.173
REMARK SMILES CCO[C@H]1O[C@@H](CO)[C@@H](O)[C@@H](O)[C@@H]1O
REMARK SMILES IDX 4 1 13 2 11 3 9 4 6 5 5 6 3 7 2 8 1 9 14 10 12 12 7 14 8 15
REMARK SMILES IDX 10 17
REMARK H PARENT 14 11 12 13 8 16 10 18
REMARK Flexibility Score: inf
ROOT
ATOM      1  C   UNL     1      14.733   6.670  42.144  1.00  0.00     0.281 C 
ATOM      2  C   UNL     1      14.635   5.367  41.305  1.00  0.00     0.202 C 
ATOM      3  C   UNL     1      15.992   4.942  40.687  1.00  0.00     0.179 C 
ATOM      4  C   UNL     1      17.035   6.075  40.731  1.00  0.00     0.177 C 
ATOM      5  C   UNL     1      16.338   7.440  40.504  1.00  0.00     0.178 C 
ATOM      6  O   UNL     1      15.331   7.766  41.460  1.00  0.00    -0.341 OA
ENDROOT
BRANCH   1   7
ATOM      7  O   UNL     1      15.458   6.427  43.339  1.00  0.00    -0.350 OA
BRANCH   7   8
ATOM      8  C   UNL     1      14.766   5.536  44.189  1.00  0.00     0.160 C 
ATOM      9  C   UNL     1      15.659   5.172  45.364  1.00  0.00     0.035 C 
ENDBRANCH   7   8
ENDBRANCH   1   7
BRANCH   2  10
ATOM     10  O   UNL     1      13.642   5.486  40.315  1.00  0.00    -0.385 OA
ATOM     11  H   UNL     1      13.942   6.165  39.658  1.00  0.00     0.211 HD
ENDBRANCH   2  10
BRANCH   3  12
ATOM     12  O   UNL     1      16.480   3.803  41.352  1.00  0.00    -0.387 OA
ATOM     13  H   UNL     1      17.454   3.753  41.160  1.00  0.00     0.211 HD
ENDBRANCH   3  12
BRANCH   5  14
ATOM     14  C   UNL     1      17.352   8.595  40.465  1.00  0.00     0.191 C 
BRANCH  14  15
ATOM     15  O   UNL     1      18.246   8.449  39.394  1.00  0.00    -0.394 OA
ATOM     16  H   UNL     1      18.319   9.339  38.962  1.00  0.00     0.210 HD
ENDBRANCH  14  15
ENDBRANCH   5  14
BRANCH   4  17
ATOM     17  O   UNL     1      17.722   6.064  41.960  1.00  0.00    -0.387 OA
ATOM     18  H   UNL     1      18.693   6.052  41.755  1.00  0.00     0.211 HD
ENDBRANCH   4  17
TORSDOF 7
ENDMDL
