MODEL 1
REMARK VINA RESULT:    -4.004      0.000      0.000
REMARK INTER + INTRA:          -5.677
REMARK INTER:                  -5.408
REMARK INTRA:                  -0.269
REMARK UNBOUND:                -0.269
REMARK SMILES CCCCCCCC(=O)[O-]
REMARK SMILES IDX 5 1 6 2 7 3 8 4 9 5 10 6 4 7 3 8 2 9 1 10
REMARK H PARENT
REMARK Flexibility Score: inf
ROOT
ATOM      1  C   UNL     1      16.399  12.503 -20.959  1.00  0.00     0.000 C 
ENDROOT
BRANCH   1   2
ATOM      2  C   UNL     1      17.168  13.292 -19.890  1.00  0.00     0.006 C 
BRANCH   2   3
ATOM      3  C   UNL     1      16.233  14.077 -18.961  1.00  0.00     0.053 C 
BRANCH   3   4
ATOM      4  C   UNL     1      16.932  14.515 -17.711  1.00  0.00     0.041 C 
ATOM      5  O   UNL     1      16.799  15.694 -17.289  1.00  0.00    -0.550 OA
ATOM      6  O   UNL     1      17.759  13.631 -17.030  1.00  0.00    -0.550 OA
ENDBRANCH   3   4
ENDBRANCH   2   3
ENDBRANCH   1   2
BRANCH   1   7
ATOM      7  C   UNL     1      14.902  12.848 -20.924  1.00  0.00     0.000 C 
BRANCH   7   8
ATOM      8  C   UNL     1      14.158  12.382 -22.186  1.00  0.00    -0.000 C 
BRANCH   8   9
ATOM      9  C   UNL     1      13.064  11.349 -21.878  1.00  0.00    -0.003 C 
ATOM     10  C   UNL     1      12.685  11.375 -20.400  1.00  0.00     0.004 C 
ENDBRANCH   8   9
ENDBRANCH   7   8
ENDBRANCH   1   7
TORSDOF 6
ENDMDL
MODEL 2
REMARK VINA RESULT:    -3.844      4.242      5.342
REMARK INTER + INTRA:          -5.462
REMARK INTER:                  -5.125
REMARK INTRA:                  -0.337
REMARK UNBOUND:                -0.269
REMARK SMILES CCCCCCCC(=O)[O-]
REMARK SMILES IDX 5 1 6 2 7 3 8 4 9 5 10 6 4 7 3 8 2 9 1 10
REMARK H PARENT
REMARK Flexibility Score: inf
ROOT
ATOM      1  C   UNL     1      15.973  17.391 -17.076  1.00  0.00     0.000 C 
ENDROOT
BRANCH   1   2
ATOM      2  C   UNL     1      16.218  15.992 -16.494  1.00  0.00     0.006 C 
BRANCH   2   3
ATOM      3  C   UNL     1      17.119  15.138 -17.395  1.00  0.00     0.053 C 
BRANCH   3   4
ATOM      4  C   UNL     1      17.222  13.728 -16.899  1.00  0.00     0.041 C 
ATOM      5  O   UNL     1      17.910  12.882 -17.528  1.00  0.00    -0.550 OA
ATOM      6  O   UNL     1      16.531  13.340 -15.757  1.00  0.00    -0.550 OA
ENDBRANCH   3   4
ENDBRANCH   2   3
ENDBRANCH   1   2
BRANCH   1   7
ATOM      7  C   UNL     1      14.484  17.765 -16.996  1.00  0.00     0.000 C 
BRANCH   7   8
ATOM      8  C   UNL     1      13.870  17.458 -15.621  1.00  0.00    -0.000 C 
BRANCH   8   9
ATOM      9  C   UNL     1      12.494  16.783 -15.726  1.00  0.00    -0.003 C 
ATOM     10  C   UNL     1      12.455  15.796 -16.890  1.00  0.00     0.004 C 
ENDBRANCH   8   9
ENDBRANCH   7   8
ENDBRANCH   1   7
TORSDOF 6
ENDMDL
MODEL 3
REMARK VINA RESULT:    -3.815      4.653      5.737
REMARK INTER + INTRA:          -5.422
REMARK INTER:                  -5.032
REMARK INTRA:                  -0.390
REMARK UNBOUND:                -0.269
REMARK SMILES CCCCCCCC(=O)[O-]
REMARK SMILES IDX 5 1 6 2 7 3 8 4 9 5 10 6 4 7 3 8 2 9 1 10
REMARK H PARENT
REMARK Flexibility Score: inf
ROOT
ATOM      1  C   UNL     1      15.750  17.393 -17.636  1.00  0.00     0.000 C 
ENDROOT
BRANCH   1   2
ATOM      2  C   UNL     1      14.524  17.939 -16.891  1.00  0.00     0.006 C 
BRANCH   2   3
ATOM      3  C   UNL     1      14.098  17.032 -15.729  1.00  0.00     0.053 C 
BRANCH   3   4
ATOM      4  C   UNL     1      12.829  16.297 -16.037  1.00  0.00     0.041 C 
ATOM      5  O   UNL     1      11.780  16.540 -15.385  1.00  0.00    -0.550 OA
ATOM      6  O   UNL     1      12.813  15.318 -17.023  1.00  0.00    -0.550 OA
ENDBRANCH   3   4
ENDBRANCH   2   3
ENDBRANCH   1   2
BRANCH   1   7
ATOM      7  C   UNL     1      16.403  16.245 -16.851  1.00  0.00     0.000 C 
BRANCH   7   8
ATOM      8  C   UNL     1      17.093  15.219 -17.764  1.00  0.00    -0.000 C 
BRANCH   8   9
ATOM      9  C   UNL     1      17.354  13.881 -17.058  1.00  0.00    -0.003 C 
ATOM     10  C   UNL     1      16.328  13.633 -15.956  1.00  0.00     0.004 C 
ENDBRANCH   8   9
ENDBRANCH   7   8
ENDBRANCH   1   7
TORSDOF 6
ENDMDL
MODEL 4
REMARK VINA RESULT:    -3.757      3.494      5.038
REMARK INTER + INTRA:          -5.343
REMARK INTER:                  -4.828
REMARK INTRA:                  -0.515
REMARK UNBOUND:                -0.269
REMARK SMILES CCCCCCCC(=O)[O-]
REMARK SMILES IDX 5 1 6 2 7 3 8 4 9 5 10 6 4 7 3 8 2 9 1 10
REMARK H PARENT
REMARK Flexibility Score: inf
ROOT
ATOM      1  C   UNL     1      13.893  14.013 -17.209  1.00  0.00     0.000 C 
ENDROOT
BRANCH   1   2
ATOM      2  C   UNL     1      15.049  13.933 -16.203  1.00  0.00     0.006 C 
BRANCH   2   3
ATOM      3  C   UNL     1      16.157  14.950 -16.507  1.00  0.00     0.053 C 
BRANCH   3   4
ATOM      4  C   UNL     1      17.192  14.383 -17.430  1.00  0.00     0.041 C 
ATOM      5  O   UNL     1      17.869  13.380 -17.085  1.00  0.00    -0.550 OA
ATOM      6  O   UNL     1      17.431  14.984 -18.660  1.00  0.00    -0.550 OA
ENDBRANCH   3   4
ENDBRANCH   2   3
ENDBRANCH   1   2
BRANCH   1   7
ATOM      7  C   UNL     1      13.528  15.475 -17.510  1.00  0.00     0.000 C 
BRANCH   7   8
ATOM      8  C   UNL     1      12.176  15.884 -16.906  1.00  0.00    -0.000 C 
BRANCH   8   9
ATOM      9  C   UNL     1      12.329  16.732 -15.634  1.00  0.00    -0.003 C 
ATOM     10  C   UNL     1      13.594  17.585 -15.693  1.00  0.00     0.004 C 
ENDBRANCH   8   9
ENDBRANCH   7   8
ENDBRANCH   1   7
TORSDOF 6
ENDMDL
MODEL 5
REMARK VINA RESULT:    -3.726      3.241      4.596
REMARK INTER + INTRA:          -5.302
REMARK INTER:                  -4.886
REMARK INTRA:                  -0.417
REMARK UNBOUND:                -0.269
REMARK SMILES CCCCCCCC(=O)[O-]
REMARK SMILES IDX 5 1 6 2 7 3 8 4 9 5 10 6 4 7 3 8 2 9 1 10
REMARK H PARENT
REMARK Flexibility Score: inf
ROOT
ATOM      1  C   UNL     1      11.107  11.343 -20.103  1.00  0.00     0.000 C 
ENDROOT
BRANCH   1   2
ATOM      2  C   UNL     1      10.583  12.649 -19.488  1.00  0.00     0.006 C 
BRANCH   2   3
ATOM      3  C   UNL     1      10.972  12.794 -18.011  1.00  0.00     0.053 C 
BRANCH   3   4
ATOM      4  C   UNL     1      11.887  13.959 -17.790  1.00  0.00     0.041 C 
ATOM      5  O   UNL     1      13.135  13.795 -17.789  1.00  0.00    -0.550 OA
ATOM      6  O   UNL     1      11.360  15.222 -17.554  1.00  0.00    -0.550 OA
ENDBRANCH   3   4
ENDBRANCH   2   3
ENDBRANCH   1   2
BRANCH   1   7
ATOM      7  C   UNL     1      12.630  11.401 -20.296  1.00  0.00     0.000 C 
BRANCH   7   8
ATOM      8  C   UNL     1      13.042  11.344 -21.776  1.00  0.00    -0.000 C 
BRANCH   8   9
ATOM      9  C   UNL     1      13.950  12.514 -22.181  1.00  0.00    -0.003 C 
ATOM     10  C   UNL     1      13.525  13.805 -21.486  1.00  0.00     0.004 C 
ENDBRANCH   8   9
ENDBRANCH   7   8
ENDBRANCH   1   7
TORSDOF 6
ENDMDL
MODEL 6
REMARK VINA RESULT:    -3.715      1.143      1.739
REMARK INTER + INTRA:          -5.287
REMARK INTER:                  -4.961
REMARK INTRA:                  -0.326
REMARK UNBOUND:                -0.269
REMARK SMILES CCCCCCCC(=O)[O-]
REMARK SMILES IDX 5 1 6 2 7 3 8 4 9 5 10 6 4 7 3 8 2 9 1 10
REMARK H PARENT
REMARK Flexibility Score: inf
ROOT
ATOM      1  C   UNL     1      14.544  14.516 -19.385  1.00  0.00     0.000 C 
ENDROOT
BRANCH   1   2
ATOM      2  C   UNL     1      15.967  13.953 -19.506  1.00  0.00     0.006 C 
BRANCH   2   3
ATOM      3  C   UNL     1      17.002  14.833 -18.794  1.00  0.00     0.053 C 
BRANCH   3   4
ATOM      4  C   UNL     1      17.086  14.519 -17.332  1.00  0.00     0.041 C 
ATOM      5  O   UNL     1      16.441  15.205 -16.497  1.00  0.00    -0.550 OA
ATOM      6  O   UNL     1      17.904  13.487 -16.888  1.00  0.00    -0.550 OA
ENDBRANCH   3   4
ENDBRANCH   2   3
ENDBRANCH   1   2
BRANCH   1   7
ATOM      7  C   UNL     1      13.655  14.011 -20.532  1.00  0.00     0.000 C 
BRANCH   7   8
ATOM      8  C   UNL     1      13.045  12.629 -20.244  1.00  0.00    -0.000 C 
BRANCH   8   9
ATOM      9  C   UNL     1      13.388  11.595 -21.327  1.00  0.00    -0.003 C 
ATOM     10  C   UNL     1      14.151  12.241 -22.480  1.00  0.00     0.004 C 
ENDBRANCH   8   9
ENDBRANCH   7   8
ENDBRANCH   1   7
TORSDOF 6
ENDMDL
MODEL 7
REMARK VINA RESULT:    -3.697      3.617      5.497
REMARK INTER + INTRA:          -5.263
REMARK INTER:                  -4.608
REMARK INTRA:                  -0.655
REMARK UNBOUND:                -0.269
REMARK SMILES CCCCCCCC(=O)[O-]
REMARK SMILES IDX 5 1 6 2 7 3 8 4 9 5 10 6 4 7 3 8 2 9 1 10
REMARK H PARENT
REMARK Flexibility Score: inf
ROOT
ATOM      1  C   UNL     1      14.800  16.967 -16.275  1.00  0.00     0.000 C 
ENDROOT
BRANCH   1   2
ATOM      2  C   UNL     1      14.078  16.356 -17.485  1.00  0.00     0.006 C 
BRANCH   2   3
ATOM      3  C   UNL     1      13.102  15.245 -17.080  1.00  0.00     0.053 C 
BRANCH   3   4
ATOM      4  C   UNL     1      13.302  14.005 -17.897  1.00  0.00     0.041 C 
ATOM      5  O   UNL     1      14.084  14.015 -18.883  1.00  0.00    -0.550 OA
ATOM      6  O   UNL     1      12.599  12.847 -17.589  1.00  0.00    -0.550 OA
ENDBRANCH   3   4
ENDBRANCH   2   3
ENDBRANCH   1   2
BRANCH   1   7
ATOM      7  C   UNL     1      16.231  16.420 -16.158  1.00  0.00     0.000 C 
BRANCH   7   8
ATOM      8  C   UNL     1      16.754  15.839 -17.481  1.00  0.00    -0.000 C 
BRANCH   8   9
ATOM      9  C   UNL     1      17.294  14.410 -17.327  1.00  0.00    -0.003 C 
ATOM     10  C   UNL     1      16.601  13.683 -16.178  1.00  0.00     0.004 C 
ENDBRANCH   8   9
ENDBRANCH   7   8
ENDBRANCH   1   7
TORSDOF 6
ENDMDL
MODEL 8
REMARK VINA RESULT:    -3.685      1.666      2.072
REMARK INTER + INTRA:          -5.246
REMARK INTER:                  -4.833
REMARK INTRA:                  -0.414
REMARK UNBOUND:                -0.269
REMARK SMILES CCCCCCCC(=O)[O-]
REMARK SMILES IDX 5 1 6 2 7 3 8 4 9 5 10 6 4 7 3 8 2 9 1 10
REMARK H PARENT
REMARK Flexibility Score: inf
ROOT
ATOM      1  C   UNL     1      13.447  14.955 -20.459  1.00  0.00     0.000 C 
ENDROOT
BRANCH   1   2
ATOM      2  C   UNL     1      14.401  14.432 -19.375  1.00  0.00     0.006 C 
BRANCH   2   3
ATOM      3  C   UNL     1      15.588  15.376 -19.141  1.00  0.00     0.053 C 
BRANCH   3   4
ATOM      4  C   UNL     1      16.859  14.619 -18.905  1.00  0.00     0.041 C 
ATOM      5  O   UNL     1      17.488  14.755 -17.823  1.00  0.00    -0.550 OA
ATOM      6  O   UNL     1      17.367  13.788 -19.896  1.00  0.00    -0.550 OA
ENDBRANCH   3   4
ENDBRANCH   2   3
ENDBRANCH   1   2
BRANCH   1   7
ATOM      7  C   UNL     1      13.399  13.994 -21.657  1.00  0.00     0.000 C 
BRANCH   7   8
ATOM      8  C   UNL     1      14.205  12.707 -21.416  1.00  0.00    -0.000 C 
BRANCH   8   9
ATOM      9  C   UNL     1      13.346  11.440 -21.545  1.00  0.00    -0.003 C 
ATOM     10  C   UNL     1      12.341  11.340 -20.400  1.00  0.00     0.004 C 
ENDBRANCH   8   9
ENDBRANCH   7   8
ENDBRANCH   1   7
TORSDOF 6
ENDMDL
MODEL 9
REMARK VINA RESULT:    -3.676      2.987      5.005
REMARK INTER + INTRA:          -5.234
REMARK INTER:                  -4.787
REMARK INTRA:                  -0.447
REMARK UNBOUND:                -0.269
REMARK SMILES CCCCCCCC(=O)[O-]
REMARK SMILES IDX 5 1 6 2 7 3 8 4 9 5 10 6 4 7 3 8 2 9 1 10
REMARK H PARENT
REMARK Flexibility Score: inf
ROOT
ATOM      1  C   UNL     1      16.299  15.167 -16.434  1.00  0.00     0.000 C 
ENDROOT
BRANCH   1   2
ATOM      2  C   UNL     1      17.241  14.334 -17.315  1.00  0.00     0.006 C 
BRANCH   2   3
ATOM      3  C   UNL     1      17.183  14.756 -18.789  1.00  0.00     0.053 C 
BRANCH   3   4
ATOM      4  C   UNL     1      16.249  13.890 -19.578  1.00  0.00     0.041 C 
ATOM      5  O   UNL     1      15.004  14.053 -19.487  1.00  0.00    -0.550 OA
ATOM      6  O   UNL     1      16.753  12.881 -20.388  1.00  0.00    -0.550 OA
ENDBRANCH   3   4
ENDBRANCH   2   3
ENDBRANCH   1   2
BRANCH   1   7
ATOM      7  C   UNL     1      16.368  16.655 -16.812  1.00  0.00     0.000 C 
BRANCH   7   8
ATOM      8  C   UNL     1      14.982  17.318 -16.860  1.00  0.00    -0.000 C 
BRANCH   8   9
ATOM      9  C   UNL     1      13.837  16.294 -16.866  1.00  0.00    -0.003 C 
ATOM     10  C   UNL     1      12.829  16.592 -15.759  1.00  0.00     0.004 C 
ENDBRANCH   8   9
ENDBRANCH   7   8
ENDBRANCH   1   7
TORSDOF 6
ENDMDL
