MODEL 1
REMARK VINA RESULT:    -4.948      0.000      0.000
REMARK INTER + INTRA:          -6.320
REMARK INTER:                  -6.105
REMARK INTRA:                  -0.216
REMARK UNBOUND:                -0.216
REMARK SMILES C=CC[C@@H](C)C(=O)CC
REMARK SMILES IDX 4 1 5 2 6 3 7 4 8 5 9 6 3 7 2 8 1 9
REMARK H PARENT
REMARK Flexibility Score: inf
ROOT
ATOM      1  C   UNL     1      19.909 202.038  14.656  1.00  0.00     0.057 C 
ATOM      2  C   UNL     1      19.234 201.284  13.507  1.00  0.00     0.016 C 
ENDROOT
BRANCH   1   3
ATOM      3  C   UNL     1      19.191 203.348  14.910  1.00  0.00     0.135 C 
ATOM      4  O   UNL     1      18.838 204.041  13.965  1.00  0.00    -0.299 OA
BRANCH   3   5
ATOM      5  C   UNL     1      18.888 203.810  16.311  1.00  0.00     0.072 C 
ATOM      6  C   UNL     1      18.872 205.333  16.387  1.00  0.00     0.012 C 
ENDBRANCH   3   5
ENDBRANCH   1   3
BRANCH   1   7
ATOM      7  C   UNL     1      19.946 201.168  15.929  1.00  0.00     0.038 C 
BRANCH   7   8
ATOM      8  C   UNL     1      19.819 199.700  15.616  1.00  0.00    -0.034 C 
ATOM      9  C   UNL     1      19.156 198.863  16.419  1.00  0.00     0.004 C 
ENDBRANCH   7   8
ENDBRANCH   1   7
TORSDOF 4
ENDMDL
MODEL 2
REMARK VINA RESULT:    -4.754      1.308      1.327
REMARK INTER + INTRA:          -6.081
REMARK INTER:                  -5.829
REMARK INTRA:                  -0.252
REMARK UNBOUND:                -0.216
REMARK SMILES C=CC[C@@H](C)C(=O)CC
REMARK SMILES IDX 4 1 5 2 6 3 7 4 8 5 9 6 3 7 2 8 1 9
REMARK H PARENT
REMARK Flexibility Score: inf
ROOT
ATOM      1  C   UNL     1      20.379 202.060  14.874  1.00  0.00     0.057 C 
ATOM      2  C   UNL     1      19.277 201.929  13.819  1.00  0.00     0.016 C 
ENDROOT
BRANCH   1   3
ATOM      3  C   UNL     1      20.478 203.498  15.345  1.00  0.00     0.135 C 
ATOM      4  O   UNL     1      21.528 203.911  15.819  1.00  0.00    -0.299 OA
BRANCH   3   5
ATOM      5  C   UNL     1      19.307 204.438  15.224  1.00  0.00     0.072 C 
ATOM      6  C   UNL     1      18.580 204.569  16.558  1.00  0.00     0.012 C 
ENDBRANCH   3   5
ENDBRANCH   1   3
BRANCH   1   7
ATOM      7  C   UNL     1      20.114 201.105  16.057  1.00  0.00     0.038 C 
BRANCH   7   8
ATOM      8  C   UNL     1      19.885 199.688  15.601  1.00  0.00    -0.034 C 
ATOM      9  C   UNL     1      19.228 198.803  16.355  1.00  0.00     0.004 C 
ENDBRANCH   7   8
ENDBRANCH   1   7
TORSDOF 4
ENDMDL
MODEL 3
REMARK VINA RESULT:    -4.657      1.416      3.886
REMARK INTER + INTRA:          -5.961
REMARK INTER:                  -5.649
REMARK INTRA:                  -0.312
REMARK UNBOUND:                -0.216
REMARK SMILES C=CC[C@@H](C)C(=O)CC
REMARK SMILES IDX 4 1 5 2 6 3 7 4 8 5 9 6 3 7 2 8 1 9
REMARK H PARENT
REMARK Flexibility Score: inf
ROOT
ATOM      1  C   UNL     1      20.155 202.770  14.159  1.00  0.00     0.057 C 
ATOM      2  C   UNL     1      21.437 203.031  14.955  1.00  0.00     0.016 C 
ENDROOT
BRANCH   1   3
ATOM      3  C   UNL     1      19.625 201.383  14.468  1.00  0.00     0.135 C 
ATOM      4  O   UNL     1      19.054 200.743  13.596  1.00  0.00    -0.299 OA
BRANCH   3   5
ATOM      5  C   UNL     1      19.804 200.769  15.831  1.00  0.00     0.072 C 
ATOM      6  C   UNL     1      19.915 199.251  15.730  1.00  0.00     0.012 C 
ENDBRANCH   3   5
ENDBRANCH   1   3
BRANCH   1   7
ATOM      7  C   UNL     1      19.097 203.850  14.465  1.00  0.00     0.038 C 
BRANCH   7   8
ATOM      8  C   UNL     1      19.277 204.447  15.836  1.00  0.00    -0.034 C 
ATOM      9  C   UNL     1      18.504 204.092  16.866  1.00  0.00     0.004 C 
ENDBRANCH   7   8
ENDBRANCH   1   7
TORSDOF 4
ENDMDL
MODEL 4
REMARK VINA RESULT:    -4.484      1.734      4.362
REMARK INTER + INTRA:          -5.748
REMARK INTER:                  -5.577
REMARK INTRA:                  -0.171
REMARK UNBOUND:                -0.216
REMARK SMILES C=CC[C@@H](C)C(=O)CC
REMARK SMILES IDX 4 1 5 2 6 3 7 4 8 5 9 6 3 7 2 8 1 9
REMARK H PARENT
REMARK Flexibility Score: inf
ROOT
ATOM      1  C   UNL     1      19.302 202.191  14.884  1.00  0.00     0.057 C 
ATOM      2  C   UNL     1      19.263 201.652  13.451  1.00  0.00     0.016 C 
ENDROOT
BRANCH   1   3
ATOM      3  C   UNL     1      20.020 201.209  15.788  1.00  0.00     0.135 C 
ATOM      4  O   UNL     1      20.582 201.611  16.798  1.00  0.00    -0.299 OA
BRANCH   3   5
ATOM      5  C   UNL     1      20.043 199.736  15.474  1.00  0.00     0.072 C 
ATOM      6  C   UNL     1      19.100 198.971  16.397  1.00  0.00     0.012 C 
ENDBRANCH   3   5
ENDBRANCH   1   3
BRANCH   1   7
ATOM      7  C   UNL     1      19.976 203.578  14.923  1.00  0.00     0.038 C 
BRANCH   7   8
ATOM      8  C   UNL     1      19.186 204.614  14.167  1.00  0.00    -0.034 C 
ATOM      9  C   UNL     1      19.633 205.863  14.006  1.00  0.00     0.004 C 
ENDBRANCH   7   8
ENDBRANCH   1   7
TORSDOF 4
ENDMDL
MODEL 5
REMARK VINA RESULT:    -4.456      1.187      1.577
REMARK INTER + INTRA:          -5.714
REMARK INTER:                  -5.462
REMARK INTRA:                  -0.252
REMARK UNBOUND:                -0.216
REMARK SMILES C=CC[C@@H](C)C(=O)CC
REMARK SMILES IDX 4 1 5 2 6 3 7 4 8 5 9 6 3 7 2 8 1 9
REMARK H PARENT
REMARK Flexibility Score: inf
ROOT
ATOM      1  C   UNL     1      20.897 203.240  15.817  1.00  0.00     0.057 C 
ATOM      2  C   UNL     1      21.719 202.841  14.587  1.00  0.00     0.016 C 
ENDROOT
BRANCH   1   3
ATOM      3  C   UNL     1      19.790 204.194  15.414  1.00  0.00     0.135 C 
ATOM      4  O   UNL     1      19.591 204.427  14.229  1.00  0.00    -0.299 OA
BRANCH   3   5
ATOM      5  C   UNL     1      18.916 204.852  16.449  1.00  0.00     0.072 C 
ATOM      6  C   UNL     1      19.350 206.295  16.685  1.00  0.00     0.012 C 
ENDBRANCH   3   5
ENDBRANCH   1   3
BRANCH   1   7
ATOM      7  C   UNL     1      20.327 201.990  16.518  1.00  0.00     0.038 C 
BRANCH   7   8
ATOM      8  C   UNL     1      19.810 200.974  15.533  1.00  0.00    -0.034 C 
ATOM      9  C   UNL     1      19.885 199.661  15.769  1.00  0.00     0.004 C 
ENDBRANCH   7   8
ENDBRANCH   1   7
TORSDOF 4
ENDMDL
MODEL 6
REMARK VINA RESULT:    -4.455      1.436      2.224
REMARK INTER + INTRA:          -5.712
REMARK INTER:                  -5.526
REMARK INTRA:                  -0.186
REMARK UNBOUND:                -0.216
REMARK SMILES C=CC[C@@H](C)C(=O)CC
REMARK SMILES IDX 4 1 5 2 6 3 7 4 8 5 9 6 3 7 2 8 1 9
REMARK H PARENT
REMARK Flexibility Score: inf
ROOT
ATOM      1  C   UNL     1      18.914 203.263  15.093  1.00  0.00     0.057 C 
ATOM      2  C   UNL     1      18.928 203.596  16.588  1.00  0.00     0.016 C 
ENDROOT
BRANCH   1   3
ATOM      3  C   UNL     1      19.233 204.503  14.282  1.00  0.00     0.135 C 
ATOM      4  O   UNL     1      18.587 204.751  13.273  1.00  0.00    -0.299 OA
BRANCH   3   5
ATOM      5  C   UNL     1      20.325 205.449  14.705  1.00  0.00     0.072 C 
ATOM      6  C   UNL     1      20.332 206.695  13.825  1.00  0.00     0.012 C 
ENDBRANCH   3   5
ENDBRANCH   1   3
BRANCH   1   7
ATOM      7  C   UNL     1      19.908 202.124  14.783  1.00  0.00     0.038 C 
BRANCH   7   8
ATOM      8  C   UNL     1      19.947 201.091  15.878  1.00  0.00    -0.034 C 
ATOM      9  C   UNL     1      19.856 199.784  15.617  1.00  0.00     0.004 C 
ENDBRANCH   7   8
ENDBRANCH   1   7
TORSDOF 4
ENDMDL
MODEL 7
REMARK VINA RESULT:    -4.391      1.172      4.212
REMARK INTER + INTRA:          -5.634
REMARK INTER:                  -5.432
REMARK INTRA:                  -0.201
REMARK UNBOUND:                -0.216
REMARK SMILES C=CC[C@@H](C)C(=O)CC
REMARK SMILES IDX 4 1 5 2 6 3 7 4 8 5 9 6 3 7 2 8 1 9
REMARK H PARENT
REMARK Flexibility Score: inf
ROOT
ATOM      1  C   UNL     1      18.745 203.344  15.035  1.00  0.00     0.057 C 
ATOM      2  C   UNL     1      18.886 204.299  13.846  1.00  0.00     0.016 C 
ENDROOT
BRANCH   1   3
ATOM      3  C   UNL     1      19.413 202.020  14.718  1.00  0.00     0.135 C 
ATOM      4  O   UNL     1      19.385 201.584  13.576  1.00  0.00    -0.299 OA
BRANCH   3   5
ATOM      5  C   UNL     1      20.126 201.234  15.787  1.00  0.00     0.072 C 
ATOM      6  C   UNL     1      19.837 199.743  15.645  1.00  0.00     0.012 C 
ENDBRANCH   3   5
ENDBRANCH   1   3
BRANCH   1   7
ATOM      7  C   UNL     1      19.339 203.975  16.311  1.00  0.00     0.038 C 
BRANCH   7   8
ATOM      8  C   UNL     1      19.912 205.344  16.053  1.00  0.00    -0.034 C 
ATOM      9  C   UNL     1      19.576 206.401  16.797  1.00  0.00     0.004 C 
ENDBRANCH   7   8
ENDBRANCH   1   7
TORSDOF 4
ENDMDL
MODEL 8
REMARK VINA RESULT:    -4.199      1.821      4.281
REMARK INTER + INTRA:          -5.396
REMARK INTER:                  -5.119
REMARK INTRA:                  -0.277
REMARK UNBOUND:                -0.216
REMARK SMILES C=CC[C@@H](C)C(=O)CC
REMARK SMILES IDX 4 1 5 2 6 3 7 4 8 5 9 6 3 7 2 8 1 9
REMARK H PARENT
REMARK Flexibility Score: inf
ROOT
ATOM      1  C   UNL     1      20.079 202.981  15.748  1.00  0.00     0.057 C 
ATOM      2  C   UNL     1      19.086 203.946  16.401  1.00  0.00     0.016 C 
ENDROOT
BRANCH   1   3
ATOM      3  C   UNL     1      19.429 202.287  14.567  1.00  0.00     0.135 C 
ATOM      4  O   UNL     1      18.979 202.952  13.644  1.00  0.00    -0.299 OA
BRANCH   3   5
ATOM      5  C   UNL     1      19.340 200.785  14.501  1.00  0.00     0.072 C 
ATOM      6  C   UNL     1      20.065 200.147  15.681  1.00  0.00     0.012 C 
ENDBRANCH   3   5
ENDBRANCH   1   3
BRANCH   1   7
ATOM      7  C   UNL     1      21.359 203.728  15.319  1.00  0.00     0.038 C 
BRANCH   7   8
ATOM      8  C   UNL     1      21.135 205.212  15.194  1.00  0.00    -0.034 C 
ATOM      9  C   UNL     1      21.885 205.973  14.393  1.00  0.00     0.004 C 
ENDBRANCH   7   8
ENDBRANCH   1   7
TORSDOF 4
ENDMDL
MODEL 9
REMARK VINA RESULT:    -4.102      2.741      3.459
REMARK INTER + INTRA:          -5.277
REMARK INTER:                  -5.076
REMARK INTRA:                  -0.201
REMARK UNBOUND:                -0.216
REMARK SMILES C=CC[C@@H](C)C(=O)CC
REMARK SMILES IDX 4 1 5 2 6 3 7 4 8 5 9 6 3 7 2 8 1 9
REMARK H PARENT
REMARK Flexibility Score: inf
ROOT
ATOM      1  C   UNL     1      20.205 204.383  14.999  1.00  0.00     0.057 C 
ATOM      2  C   UNL     1      19.038 204.467  15.988  1.00  0.00     0.016 C 
ENDROOT
BRANCH   1   3
ATOM      3  C   UNL     1      21.127 205.572  15.183  1.00  0.00     0.135 C 
ATOM      4  O   UNL     1      21.631 205.786  16.278  1.00  0.00    -0.299 OA
BRANCH   3   5
ATOM      5  C   UNL     1      21.450 206.491  14.034  1.00  0.00     0.072 C 
ATOM      6  C   UNL     1      22.942 206.459  13.719  1.00  0.00     0.012 C 
ENDBRANCH   3   5
ENDBRANCH   1   3
BRANCH   1   7
ATOM      7  C   UNL     1      20.968 203.054  15.173  1.00  0.00     0.038 C 
BRANCH   7   8
ATOM      8  C   UNL     1      20.304 202.145  16.173  1.00  0.00    -0.034 C 
ATOM      9  C   UNL     1      20.119 200.844  15.930  1.00  0.00     0.004 C 
ENDBRANCH   7   8
ENDBRANCH   1   7
TORSDOF 4
ENDMDL
