MODEL 1
REMARK VINA RESULT:    -7.731      0.000      0.000
REMARK INTER + INTRA:         -10.150
REMARK INTER:                  -9.538
REMARK INTRA:                  -0.611
REMARK UNBOUND:                -0.611
REMARK SMILES CC(C)=CCC[C@@H](C)[C@H]1C=CC(C)=CC1
REMARK SMILES IDX 6 1 7 2 8 3 9 4 13 5 12 6 14 7 11 8 15 9 10 10 5 11 4 12
REMARK SMILES IDX 2 13 1 14 3 15
REMARK H PARENT
REMARK Flexibility Score: inf
ROOT
ATOM      1  C   UNL     1       0.210 -17.937  15.474  1.00  0.00     0.008 C 
ENDROOT
BRANCH   1   2
ATOM      2  C   UNL     1       1.466 -18.762  15.080  1.00  0.00    -0.007 C 
ATOM      3  C   UNL     1       1.741 -18.652  13.569  1.00  0.00     0.008 C 
BRANCH   2   4
ATOM      4  C   UNL     1       2.734 -18.368  15.896  1.00  0.00     0.018 C 
ATOM      5  C   UNL     1       6.182 -16.176  17.387  1.00  0.00     0.044 C 
ATOM      6  C   UNL     1       4.941 -16.781  16.801  1.00  0.00    -0.055 C 
ATOM      7  C   UNL     1       3.765 -16.661  17.437  1.00  0.00    -0.023 C 
ATOM      8  C   UNL     1       5.002 -17.458  15.486  1.00  0.00    -0.001 C 
ATOM      9  C   UNL     1       2.487 -17.129  16.792  1.00  0.00     0.035 C 
ATOM     10  C   UNL     1       3.962 -18.163  15.030  1.00  0.00    -0.023 C 
ENDBRANCH   2   4
ENDBRANCH   1   2
BRANCH   1  11
ATOM     11  C   UNL     1      -0.849 -17.916  14.361  1.00  0.00     0.027 C 
BRANCH  11  12
ATOM     12  C   UNL     1      -1.604 -16.610  14.367  1.00  0.00    -0.028 C 
ATOM     13  C   UNL     1      -2.152 -16.041  13.270  1.00  0.00    -0.080 C 
ATOM     14  C   UNL     1      -2.845 -14.712  13.423  1.00  0.00     0.039 C 
ATOM     15  C   UNL     1      -2.104 -16.705  11.914  1.00  0.00     0.039 C 
ENDBRANCH  11  12
ENDBRANCH   1  11
TORSDOF 4
ENDMDL
MODEL 2
REMARK VINA RESULT:    -7.573      3.988      7.248
REMARK INTER + INTRA:          -9.955
REMARK INTER:                  -9.273
REMARK INTRA:                  -0.682
REMARK UNBOUND:                -0.611
REMARK SMILES CC(C)=CCC[C@@H](C)[C@H]1C=CC(C)=CC1
REMARK SMILES IDX 6 1 7 2 8 3 9 4 13 5 12 6 14 7 11 8 15 9 10 10 5 11 4 12
REMARK SMILES IDX 2 13 1 14 3 15
REMARK H PARENT
REMARK Flexibility Score: inf
ROOT
ATOM      1  C   UNL     1      -2.205 -16.003   9.023  1.00  0.00     0.008 C 
ENDROOT
BRANCH   1   2
ATOM      2  C   UNL     1      -2.980 -15.721  10.339  1.00  0.00    -0.007 C 
ATOM      3  C   UNL     1      -4.318 -16.484  10.361  1.00  0.00     0.008 C 
BRANCH   2   4
ATOM      4  C   UNL     1      -2.148 -16.043  11.618  1.00  0.00     0.018 C 
ATOM      5  C   UNL     1      -1.046 -17.303  15.632  1.00  0.00     0.044 C 
ATOM      6  C   UNL     1      -1.577 -16.954  14.273  1.00  0.00    -0.055 C 
ATOM      7  C   UNL     1      -1.472 -17.830  13.261  1.00  0.00    -0.023 C 
ATOM      8  C   UNL     1      -2.274 -15.665  14.064  1.00  0.00    -0.001 C 
ATOM      9  C   UNL     1      -2.132 -17.558  11.933  1.00  0.00     0.035 C 
ATOM     10  C   UNL     1      -2.589 -15.250  12.833  1.00  0.00    -0.023 C 
ENDBRANCH   2   4
ENDBRANCH   1   2
BRANCH   1  11
ATOM     11  C   UNL     1      -2.414 -14.901   7.973  1.00  0.00     0.027 C 
BRANCH  11  12
ATOM     12  C   UNL     1      -3.353 -15.369   6.889  1.00  0.00    -0.028 C 
ATOM     13  C   UNL     1      -4.518 -14.761   6.575  1.00  0.00    -0.080 C 
ATOM     14  C   UNL     1      -5.374 -15.367   5.492  1.00  0.00     0.039 C 
ATOM     15  C   UNL     1      -4.972 -13.494   7.261  1.00  0.00     0.039 C 
ENDBRANCH  11  12
ENDBRANCH   1  11
TORSDOF 4
ENDMDL
MODEL 3
REMARK VINA RESULT:    -7.567      2.663      8.315
REMARK INTER + INTRA:          -9.948
REMARK INTER:                  -9.225
REMARK INTRA:                  -0.722
REMARK UNBOUND:                -0.611
REMARK SMILES CC(C)=CCC[C@@H](C)[C@H]1C=CC(C)=CC1
REMARK SMILES IDX 6 1 7 2 8 3 9 4 13 5 12 6 14 7 11 8 15 9 10 10 5 11 4 12
REMARK SMILES IDX 2 13 1 14 3 15
REMARK H PARENT
REMARK Flexibility Score: inf
ROOT
ATOM      1  C   UNL     1      -1.598 -16.851  12.315  1.00  0.00     0.008 C 
ENDROOT
BRANCH   1   2
ATOM      2  C   UNL     1      -2.920 -16.041  12.420  1.00  0.00    -0.007 C 
ATOM      3  C   UNL     1      -2.701 -14.739  13.213  1.00  0.00     0.008 C 
BRANCH   2   4
ATOM      4  C   UNL     1      -3.558 -15.733  11.032  1.00  0.00     0.018 C 
ATOM      5  C   UNL     1      -4.841 -16.098   6.892  1.00  0.00     0.044 C 
ATOM      6  C   UNL     1      -4.371 -16.145   8.316  1.00  0.00    -0.055 C 
ATOM      7  C   UNL     1      -5.220 -16.492   9.296  1.00  0.00    -0.023 C 
ATOM      8  C   UNL     1      -2.952 -15.869   8.633  1.00  0.00    -0.001 C 
ATOM      9  C   UNL     1      -4.731 -16.691  10.707  1.00  0.00     0.035 C 
ATOM     10  C   UNL     1      -2.550 -15.722   9.899  1.00  0.00    -0.023 C 
ENDBRANCH   2   4
ENDBRANCH   1   2
BRANCH   1  11
ATOM     11  C   UNL     1      -1.612 -18.110  13.196  1.00  0.00     0.027 C 
BRANCH  11  12
ATOM     12  C   UNL     1      -0.317 -18.240  13.960  1.00  0.00    -0.028 C 
ATOM     13  C   UNL     1      -0.142 -17.838  15.238  1.00  0.00    -0.080 C 
ATOM     14  C   UNL     1       1.222 -17.997  15.859  1.00  0.00     0.039 C 
ATOM     15  C   UNL     1      -1.271 -17.258  16.058  1.00  0.00     0.039 C 
ENDBRANCH  11  12
ENDBRANCH   1  11
TORSDOF 4
ENDMDL
MODEL 4
REMARK VINA RESULT:    -7.471      1.674      3.224
REMARK INTER + INTRA:          -9.829
REMARK INTER:                  -9.179
REMARK INTRA:                  -0.650
REMARK UNBOUND:                -0.611
REMARK SMILES CC(C)=CCC[C@@H](C)[C@H]1C=CC(C)=CC1
REMARK SMILES IDX 6 1 7 2 8 3 9 4 13 5 12 6 14 7 11 8 15 9 10 10 5 11 4 12
REMARK SMILES IDX 2 13 1 14 3 15
REMARK H PARENT
REMARK Flexibility Score: inf
ROOT
ATOM      1  C   UNL     1      -1.889 -16.232  14.398  1.00  0.00     0.008 C 
ENDROOT
BRANCH   1   2
ATOM      2  C   UNL     1      -1.267 -17.655  14.359  1.00  0.00    -0.007 C 
ATOM      3  C   UNL     1      -1.631 -18.375  13.047  1.00  0.00     0.008 C 
BRANCH   2   4
ATOM      4  C   UNL     1       0.277 -17.651  14.569  1.00  0.00     0.018 C 
ATOM      5  C   UNL     1       4.325 -18.900  15.554  1.00  0.00     0.044 C 
ATOM      6  C   UNL     1       2.887 -18.639  15.216  1.00  0.00    -0.055 C 
ATOM      7  C   UNL     1       2.461 -18.744  13.948  1.00  0.00    -0.023 C 
ATOM      8  C   UNL     1       1.922 -18.326  16.294  1.00  0.00    -0.001 C 
ATOM      9  C   UNL     1       0.995 -18.634  13.614  1.00  0.00     0.035 C 
ATOM     10  C   UNL     1       0.686 -17.909  16.006  1.00  0.00    -0.023 C 
ENDBRANCH   2   4
ENDBRANCH   1   2
BRANCH   1  11
ATOM     11  C   UNL     1      -2.860 -15.984  13.233  1.00  0.00     0.027 C 
BRANCH  11  12
ATOM     12  C   UNL     1      -2.455 -14.758  12.452  1.00  0.00    -0.028 C 
ATOM     13  C   UNL     1      -2.322 -14.720  11.108  1.00  0.00    -0.080 C 
ATOM     14  C   UNL     1      -1.872 -13.431  10.469  1.00  0.00     0.039 C 
ATOM     15  C   UNL     1      -2.628 -15.916  10.238  1.00  0.00     0.039 C 
ENDBRANCH  11  12
ENDBRANCH   1  11
TORSDOF 4
ENDMDL
MODEL 5
REMARK VINA RESULT:    -7.457      3.562      7.899
REMARK INTER + INTRA:          -9.812
REMARK INTER:                  -9.237
REMARK INTRA:                  -0.575
REMARK UNBOUND:                -0.611
REMARK SMILES CC(C)=CCC[C@@H](C)[C@H]1C=CC(C)=CC1
REMARK SMILES IDX 6 1 7 2 8 3 9 4 13 5 12 6 14 7 11 8 15 9 10 10 5 11 4 12
REMARK SMILES IDX 2 13 1 14 3 15
REMARK H PARENT
REMARK Flexibility Score: inf
ROOT
ATOM      1  C   UNL     1      -2.313 -14.379  12.837  1.00  0.00     0.008 C 
ENDROOT
BRANCH   1   2
ATOM      2  C   UNL     1      -2.648 -14.321  11.321  1.00  0.00    -0.007 C 
ATOM      3  C   UNL     1      -1.769 -13.279  10.605  1.00  0.00     0.008 C 
BRANCH   2   4
ATOM      4  C   UNL     1      -2.533 -15.707  10.618  1.00  0.00     0.018 C 
ATOM      5  C   UNL     1      -3.120 -19.005   7.843  1.00  0.00     0.044 C 
ATOM      6  C   UNL     1      -2.995 -17.766   8.680  1.00  0.00    -0.055 C 
ATOM      7  C   UNL     1      -1.982 -16.909   8.473  1.00  0.00    -0.023 C 
ATOM      8  C   UNL     1      -4.026 -17.457   9.696  1.00  0.00    -0.001 C 
ATOM      9  C   UNL     1      -1.926 -15.590   9.199  1.00  0.00     0.035 C 
ATOM     10  C   UNL     1      -3.844 -16.468  10.576  1.00  0.00    -0.023 C 
ENDBRANCH   2   4
ENDBRANCH   1   2
BRANCH   1  11
ATOM     11  C   UNL     1      -2.878 -15.636  13.514  1.00  0.00     0.027 C 
BRANCH  11  12
ATOM     12  C   UNL     1      -1.955 -16.115  14.607  1.00  0.00    -0.028 C 
ATOM     13  C   UNL     1      -1.268 -17.278  14.570  1.00  0.00    -0.080 C 
ATOM     14  C   UNL     1      -0.412 -17.643  15.756  1.00  0.00     0.039 C 
ATOM     15  C   UNL     1      -1.320 -18.202  13.376  1.00  0.00     0.039 C 
ENDBRANCH  11  12
ENDBRANCH   1  11
TORSDOF 4
ENDMDL
MODEL 6
REMARK VINA RESULT:    -7.413      5.980      8.080
REMARK INTER + INTRA:          -9.758
REMARK INTER:                  -8.269
REMARK INTRA:                  -1.489
REMARK UNBOUND:                -0.611
REMARK SMILES CC(C)=CCC[C@@H](C)[C@H]1C=CC(C)=CC1
REMARK SMILES IDX 6 1 7 2 8 3 9 4 13 5 12 6 14 7 11 8 15 9 10 10 5 11 4 12
REMARK SMILES IDX 2 13 1 14 3 15
REMARK H PARENT
REMARK Flexibility Score: inf
ROOT
ATOM      1  C   UNL     1      -5.030 -16.943   7.935  1.00  0.00     0.008 C 
ENDROOT
BRANCH   1   2
ATOM      2  C   UNL     1      -4.293 -18.027   8.768  1.00  0.00    -0.007 C 
ATOM      3  C   UNL     1      -3.003 -18.480   8.059  1.00  0.00     0.008 C 
BRANCH   2   4
ATOM      4  C   UNL     1      -3.982 -17.569  10.225  1.00  0.00     0.018 C 
ATOM      5  C   UNL     1      -2.817 -15.147  13.645  1.00  0.00     0.044 C 
ATOM      6  C   UNL     1      -3.231 -15.832  12.376  1.00  0.00    -0.055 C 
ATOM      7  C   UNL     1      -4.529 -15.913  12.044  1.00  0.00    -0.023 C 
ATOM      8  C   UNL     1      -2.200 -16.366  11.458  1.00  0.00    -0.001 C 
ATOM      9  C   UNL     1      -4.951 -16.462  10.705  1.00  0.00     0.035 C 
ATOM     10  C   UNL     1      -2.541 -17.139  10.422  1.00  0.00    -0.023 C 
ENDBRANCH   2   4
ENDBRANCH   1   2
BRANCH   1  11
ATOM     11  C   UNL     1      -4.058 -16.038   7.162  1.00  0.00     0.027 C 
BRANCH  11  12
ATOM     12  C   UNL     1      -3.768 -14.778   7.939  1.00  0.00    -0.028 C 
ATOM     13  C   UNL     1      -2.537 -14.400   8.348  1.00  0.00    -0.080 C 
ATOM     14  C   UNL     1      -2.407 -13.132   9.152  1.00  0.00     0.039 C 
ATOM     15  C   UNL     1      -1.300 -15.197   8.007  1.00  0.00     0.039 C 
ENDBRANCH  11  12
ENDBRANCH   1  11
TORSDOF 4
ENDMDL
MODEL 7
REMARK VINA RESULT:    -7.374      5.860      7.993
REMARK INTER + INTRA:          -9.710
REMARK INTER:                  -8.624
REMARK INTRA:                  -1.087
REMARK UNBOUND:                -0.611
REMARK SMILES CC(C)=CCC[C@@H](C)[C@H]1C=CC(C)=CC1
REMARK SMILES IDX 6 1 7 2 8 3 9 4 13 5 12 6 14 7 11 8 15 9 10 10 5 11 4 12
REMARK SMILES IDX 2 13 1 14 3 15
REMARK H PARENT
REMARK Flexibility Score: inf
ROOT
ATOM      1  C   UNL     1      -3.147 -17.629   8.351  1.00  0.00     0.008 C 
ENDROOT
BRANCH   1   2
ATOM      2  C   UNL     1      -2.042 -16.754   9.005  1.00  0.00    -0.007 C 
ATOM      3  C   UNL     1      -1.378 -15.839   7.959  1.00  0.00     0.008 C 
BRANCH   2   4
ATOM      4  C   UNL     1      -2.562 -15.916  10.212  1.00  0.00     0.018 C 
ATOM      5  C   UNL     1      -2.716 -13.668  13.932  1.00  0.00     0.044 C 
ATOM      6  C   UNL     1      -2.490 -14.423  12.656  1.00  0.00    -0.055 C 
ATOM      7  C   UNL     1      -2.330 -13.762  11.498  1.00  0.00    -0.023 C 
ATOM      8  C   UNL     1      -2.378 -15.899  12.683  1.00  0.00    -0.001 C 
ATOM      9  C   UNL     1      -1.952 -14.494  10.236  1.00  0.00     0.035 C 
ATOM     10  C   UNL     1      -2.363 -16.605  11.548  1.00  0.00    -0.023 C 
ENDBRANCH   2   4
ENDBRANCH   1   2
BRANCH   1  11
ATOM     11  C   UNL     1      -4.525 -16.949   8.380  1.00  0.00     0.027 C 
BRANCH  11  12
ATOM     12  C   UNL     1      -4.984 -16.613   6.983  1.00  0.00    -0.028 C 
ATOM     13  C   UNL     1      -5.031 -15.362   6.476  1.00  0.00    -0.080 C 
ATOM     14  C   UNL     1      -5.551 -15.175   5.074  1.00  0.00     0.039 C 
ATOM     15  C   UNL     1      -4.564 -14.160   7.264  1.00  0.00     0.039 C 
ENDBRANCH  11  12
ENDBRANCH   1  11
TORSDOF 4
ENDMDL
MODEL 8
REMARK VINA RESULT:    -7.347      7.041      8.231
REMARK INTER + INTRA:          -9.677
REMARK INTER:                  -8.156
REMARK INTRA:                  -1.521
REMARK UNBOUND:                -0.611
REMARK SMILES CC(C)=CCC[C@@H](C)[C@H]1C=CC(C)=CC1
REMARK SMILES IDX 6 1 7 2 8 3 9 4 13 5 12 6 14 7 11 8 15 9 10 10 5 11 4 12
REMARK SMILES IDX 2 13 1 14 3 15
REMARK H PARENT
REMARK Flexibility Score: inf
ROOT
ATOM      1  C   UNL     1      -4.824 -17.500   9.653  1.00  0.00     0.008 C 
ENDROOT
BRANCH   1   2
ATOM      2  C   UNL     1      -3.303 -17.812   9.588  1.00  0.00    -0.007 C 
ATOM      3  C   UNL     1      -2.916 -18.364   8.204  1.00  0.00     0.008 C 
BRANCH   2   4
ATOM      4  C   UNL     1      -2.414 -16.585   9.955  1.00  0.00     0.018 C 
ATOM      5  C   UNL     1      -0.877 -12.528  10.256  1.00  0.00     0.044 C 
ATOM      6  C   UNL     1      -1.557 -13.855  10.099  1.00  0.00    -0.055 C 
ATOM      7  C   UNL     1      -2.346 -14.330  11.077  1.00  0.00    -0.023 C 
ATOM      8  C   UNL     1      -1.409 -14.615   8.838  1.00  0.00    -0.001 C 
ATOM      9  C   UNL     1      -3.155 -15.585  10.875  1.00  0.00     0.035 C 
ATOM     10  C   UNL     1      -1.847 -15.874   8.742  1.00  0.00    -0.023 C 
ENDBRANCH   2   4
ENDBRANCH   1   2
BRANCH   1  11
ATOM     11  C   UNL     1      -5.398 -17.101   8.284  1.00  0.00     0.027 C 
BRANCH  11  12
ATOM     12  C   UNL     1      -5.384 -15.602   8.116  1.00  0.00    -0.028 C 
ATOM     13  C   UNL     1      -4.977 -14.964   6.997  1.00  0.00    -0.080 C 
ATOM     14  C   UNL     1      -4.982 -13.457   6.988  1.00  0.00     0.039 C 
ATOM     15  C   UNL     1      -4.541 -15.715   5.760  1.00  0.00     0.039 C 
ENDBRANCH  11  12
ENDBRANCH   1  11
TORSDOF 4
ENDMDL
MODEL 9
REMARK VINA RESULT:    -7.337      4.317      9.257
REMARK INTER + INTRA:          -9.664
REMARK INTER:                  -8.982
REMARK INTRA:                  -0.682
REMARK UNBOUND:                -0.611
REMARK SMILES CC(C)=CCC[C@@H](C)[C@H]1C=CC(C)=CC1
REMARK SMILES IDX 6 1 7 2 8 3 9 4 13 5 12 6 14 7 11 8 15 9 10 10 5 11 4 12
REMARK SMILES IDX 2 13 1 14 3 15
REMARK H PARENT
REMARK Flexibility Score: inf
ROOT
ATOM      1  C   UNL     1      -3.381 -15.793  11.831  1.00  0.00     0.008 C 
ENDROOT
BRANCH   1   2
ATOM      2  C   UNL     1      -3.159 -16.540  10.487  1.00  0.00    -0.007 C 
ATOM      3  C   UNL     1      -3.529 -18.030  10.622  1.00  0.00     0.008 C 
BRANCH   2   4
ATOM      4  C   UNL     1      -3.927 -15.893   9.295  1.00  0.00     0.018 C 
ATOM      5  C   UNL     1      -5.345 -14.993   5.283  1.00  0.00     0.044 C 
ATOM      6  C   UNL     1      -4.795 -15.453   6.601  1.00  0.00    -0.055 C 
ATOM      7  C   UNL     1      -5.495 -16.305   7.366  1.00  0.00    -0.023 C 
ATOM      8  C   UNL     1      -3.447 -15.016   7.028  1.00  0.00    -0.001 C 
ATOM      9  C   UNL     1      -4.894 -16.893   8.616  1.00  0.00     0.035 C 
ATOM     10  C   UNL     1      -3.011 -15.256   8.269  1.00  0.00    -0.023 C 
ENDBRANCH   2   4
ENDBRANCH   1   2
BRANCH   1  11
ATOM     11  C   UNL     1      -2.059 -15.430  12.524  1.00  0.00     0.027 C 
BRANCH  11  12
ATOM     12  C   UNL     1      -2.069 -15.884  13.963  1.00  0.00    -0.028 C 
ATOM     13  C   UNL     1      -1.624 -17.087  14.386  1.00  0.00    -0.080 C 
ATOM     14  C   UNL     1      -1.733 -17.417  15.852  1.00  0.00     0.039 C 
ATOM     15  C   UNL     1      -1.009 -18.092  13.440  1.00  0.00     0.039 C 
ENDBRANCH  11  12
ENDBRANCH   1  11
TORSDOF 4
ENDMDL
