MODEL 1
REMARK VINA RESULT:    -5.430      0.000      0.000
REMARK INTER + INTRA:         -12.490
REMARK INTER:                  -8.922
REMARK INTRA:                  -3.569
REMARK UNBOUND:                -3.569
REMARK SMILES C[C@H]1O[C@H](OC[C@H]2O[C@H](Oc3c(-c4ccc(O)c(O)c4)oc4cc(O)cc(O)c4c3=O)[C@H](O)[C@@H](O)[C@H]2O)[C@H](O)[C@@H](O)[C@H]1O
REMARK SMILES IDX 7 1 36 2 34 3 32 4 9 5 8 6 6 7 5 8 4 9 1 10 2 11 42 12 3 13
REMARK SMILES IDX 40 14 38 15 43 16 41 18 39 20 37 22 35 24 10 26 11 27 12 28
REMARK SMILES IDX 30 29 21 30 29 31 31 32 22 33 27 34 23 35 26 36 24 37 13 38
REMARK SMILES IDX 20 39 14 40 18 41 15 42 16 43 19 44 17 46 28 48 25 50 33 52
REMARK H PARENT 43 17 41 19 39 21 37 23 35 25 19 45 17 47 28 49 25 51 33 53
REMARK Flexibility Score: inf
ROOT
ATOM      1  C   UNL     1       5.830 -31.588  14.587  1.00  0.00     0.180 C 
ATOM      2  C   UNL     1       6.264 -31.339  13.120  1.00  0.00     0.177 C 
ATOM      3  C   UNL     1       7.208 -32.457  12.647  1.00  0.00     0.180 C 
ATOM      4  C   UNL     1       6.602 -33.836  12.935  1.00  0.00     0.214 C 
ATOM      5  C   UNL     1       6.055 -33.928  14.382  1.00  0.00     0.339 C 
ATOM      6  O   UNL     1       5.192 -32.852  14.718  1.00  0.00    -0.332 OA
ENDROOT
BRANCH   1   7
ATOM      7  C   UNL     1       4.862 -30.499  15.114  1.00  0.00     0.198 C 
BRANCH   7   8
ATOM      8  O   UNL     1       3.619 -31.056  15.494  1.00  0.00    -0.347 OA
BRANCH   8   9
ATOM      9  C   UNL     1       2.534 -30.411  14.847  1.00  0.00     0.281 C 
ATOM     10  C   UNL     1       0.664 -31.879  12.371  1.00  0.00     0.041 C 
ATOM     11  C   UNL     1       1.941 -32.073  13.202  1.00  0.00     0.150 C 
ATOM     12  C   UNL     1       1.704 -32.989  14.438  1.00  0.00     0.174 C 
ATOM     13  O   UNL     1       2.523 -30.795  13.477  1.00  0.00    -0.344 OA
ATOM     14  C   UNL     1       0.950 -32.268  15.584  1.00  0.00     0.179 C 
ATOM     15  C   UNL     1       1.184 -30.739  15.523  1.00  0.00     0.202 C 
BRANCH  12  16
ATOM     16  O   UNL     1       1.046 -34.171  14.059  1.00  0.00    -0.388 OA
ATOM     17  H   UNL     1       0.125 -33.911  13.789  1.00  0.00     0.211 HD
ENDBRANCH  12  16
BRANCH  14  18
ATOM     18  O   UNL     1      -0.436 -32.529  15.539  1.00  0.00    -0.387 OA
ATOM     19  H   UNL     1      -0.612 -32.992  14.677  1.00  0.00     0.211 HD
ENDBRANCH  14  18
BRANCH  15  20
ATOM     20  O   UNL     1       1.062 -30.116  16.779  1.00  0.00    -0.385 OA
ATOM     21  H   UNL     1       1.903 -30.252  17.291  1.00  0.00     0.211 HD
ENDBRANCH  15  20
ENDBRANCH   8   9
ENDBRANCH   7   8
ENDBRANCH   1   7
BRANCH   2  22
ATOM     22  O   UNL     1       5.163 -31.199  12.248  1.00  0.00    -0.387 OA
ATOM     23  H   UNL     1       4.336 -31.270  12.789  1.00  0.00     0.211 HD
ENDBRANCH   2  22
BRANCH   3  24
ATOM     24  O   UNL     1       7.459 -32.344  11.272  1.00  0.00    -0.387 OA
ATOM     25  H   UNL     1       6.674 -31.881  10.862  1.00  0.00     0.211 HD
ENDBRANCH   3  24
BRANCH   5  26
ATOM     26  O   UNL     1       7.118 -34.053  15.337  1.00  0.00    -0.454 OA
BRANCH  26  27
ATOM     27  C   UNL     1       7.129 -35.106  16.263  1.00  0.00     0.214 A 
ATOM     28  C   UNL     1       6.528 -34.964  17.521  1.00  0.00     0.180 A 
ATOM     29  C   UNL     1       7.695 -36.338  15.914  1.00  0.00     0.239 A 
ATOM     30  O   UNL     1       6.432 -36.010  18.327  1.00  0.00    -0.452 OA
ATOM     31  C   UNL     1       7.549 -37.449  16.776  1.00  0.00     0.111 A 
ATOM     32  O   UNL     1       8.339 -36.421  14.837  1.00  0.00    -0.285 OA
ATOM     33  C   UNL     1       6.907 -37.214  18.021  1.00  0.00     0.146 A 
ATOM     34  C   UNL     1       8.010 -38.773  16.488  1.00  0.00     0.134 A 
ATOM     35  C   UNL     1       6.768 -38.242  18.957  1.00  0.00     0.094 A 
ATOM     36  C   UNL     1       7.873 -39.776  17.456  1.00  0.00     0.093 A 
ATOM     37  C   UNL     1       7.260 -39.515  18.683  1.00  0.00     0.123 A 
BRANCH  28  38
ATOM     38  C   UNL     1       6.014 -33.668  17.993  1.00  0.00     0.025 A 
ATOM     39  C   UNL     1       4.632 -33.424  18.026  1.00  0.00     0.062 A 
ATOM     40  C   UNL     1       6.902 -32.640  18.326  1.00  0.00     0.016 A 
ATOM     41  C   UNL     1       4.133 -32.172  18.400  1.00  0.00     0.158 A 
ATOM     42  C   UNL     1       6.413 -31.393  18.718  1.00  0.00     0.051 A 
ATOM     43  C   UNL     1       5.037 -31.144  18.760  1.00  0.00     0.157 A 
BRANCH  41  44
ATOM     44  O   UNL     1       2.748 -31.995  18.403  1.00  0.00    -0.504 OA
ATOM     45  H   UNL     1       2.291 -31.116  18.207  1.00  0.00     0.293 HD
ENDBRANCH  41  44
BRANCH  43  46
ATOM     46  O   UNL     1       4.611 -29.876  19.162  1.00  0.00    -0.504 OA
ATOM     47  H   UNL     1       3.786 -29.419  18.808  1.00  0.00     0.293 HD
ENDBRANCH  43  46
ENDBRANCH  28  38
BRANCH  34  48
ATOM     48  O   UNL     1       8.572 -39.165  15.269  1.00  0.00    -0.507 OA
ATOM     49  H   UNL     1       9.215 -39.932  15.141  1.00  0.00     0.293 HD
ENDBRANCH  34  48
BRANCH  37  50
ATOM     50  O   UNL     1       7.124 -40.521  19.639  1.00  0.00    -0.508 OA
ATOM     51  H   UNL     1       7.792 -41.286  19.702  1.00  0.00     0.293 HD
ENDBRANCH  37  50
ENDBRANCH  26  27
ENDBRANCH   5  26
BRANCH   4  52
ATOM     52  O   UNL     1       7.556 -34.844  12.735  1.00  0.00    -0.384 OA
ATOM     53  H   UNL     1       8.209 -34.500  12.066  1.00  0.00     0.211 HD
ENDBRANCH   4  52
TORSDOF 16
ENDMDL
MODEL 2
REMARK VINA RESULT:    -5.258      3.101      6.476
REMARK INTER + INTRA:         -12.208
REMARK INTER:                  -9.207
REMARK INTRA:                  -3.001
REMARK UNBOUND:                -3.569
REMARK SMILES C[C@H]1O[C@H](OC[C@H]2O[C@H](Oc3c(-c4ccc(O)c(O)c4)oc4cc(O)cc(O)c4c3=O)[C@H](O)[C@@H](O)[C@H]2O)[C@H](O)[C@@H](O)[C@H]1O
REMARK SMILES IDX 7 1 36 2 34 3 32 4 9 5 8 6 6 7 5 8 4 9 1 10 2 11 42 12 3 13
REMARK SMILES IDX 40 14 38 15 43 16 41 18 39 20 37 22 35 24 10 26 11 27 12 28
REMARK SMILES IDX 30 29 21 30 29 31 31 32 22 33 27 34 23 35 26 36 24 37 13 38
REMARK SMILES IDX 20 39 14 40 18 41 15 42 16 43 19 44 17 46 28 48 25 50 33 52
REMARK H PARENT 43 17 41 19 39 21 37 23 35 25 19 45 17 47 28 49 25 51 33 53
REMARK Flexibility Score: inf
ROOT
ATOM      1  C   UNL     1       8.727 -34.503  15.391  1.00  0.00     0.180 C 
ATOM      2  C   UNL     1       9.486 -33.326  14.725  1.00  0.00     0.177 C 
ATOM      3  C   UNL     1       9.027 -33.154  13.266  1.00  0.00     0.180 C 
ATOM      4  C   UNL     1       7.497 -33.090  13.185  1.00  0.00     0.214 C 
ATOM      5  C   UNL     1       6.833 -34.218  14.013  1.00  0.00     0.339 C 
ATOM      6  O   UNL     1       7.323 -34.290  15.344  1.00  0.00    -0.332 OA
ENDROOT
BRANCH   1   7
ATOM      7  C   UNL     1       9.138 -34.714  16.869  1.00  0.00     0.198 C 
BRANCH   7   8
ATOM      8  O   UNL     1       8.044 -34.507  17.741  1.00  0.00    -0.347 OA
BRANCH   8   9
ATOM      9  C   UNL     1       8.208 -33.336  18.525  1.00  0.00     0.281 C 
ATOM     10  C   UNL     1       5.789 -30.923  18.854  1.00  0.00     0.041 C 
ATOM     11  C   UNL     1       6.139 -32.188  18.056  1.00  0.00     0.150 C 
ATOM     12  C   UNL     1       5.476 -33.462  18.655  1.00  0.00     0.174 C 
ATOM     13  O   UNL     1       7.557 -32.252  17.872  1.00  0.00    -0.344 OA
ATOM     14  C   UNL     1       6.183 -33.959  19.941  1.00  0.00     0.179 C 
ATOM     15  C   UNL     1       7.668 -33.523  19.960  1.00  0.00     0.202 C 
BRANCH  12  16
ATOM     16  O   UNL     1       4.105 -33.250  18.877  1.00  0.00    -0.388 OA
ATOM     17  H   UNL     1       3.950 -32.272  18.784  1.00  0.00     0.211 HD
ENDBRANCH  12  16
BRANCH  14  18
ATOM     18  O   UNL     1       5.543 -33.482  21.104  1.00  0.00    -0.387 OA
ATOM     19  H   UNL     1       6.239 -33.025  21.647  1.00  0.00     0.211 HD
ENDBRANCH  14  18
BRANCH  15  20
ATOM     20  O   UNL     1       8.482 -34.383  20.719  1.00  0.00    -0.385 OA
ATOM     21  H   UNL     1       9.196 -34.753  20.134  1.00  0.00     0.211 HD
ENDBRANCH  15  20
ENDBRANCH   8   9
ENDBRANCH   7   8
ENDBRANCH   1   7
BRANCH   2  22
ATOM     22  O   UNL     1       9.351 -32.121  15.446  1.00  0.00    -0.387 OA
ATOM     23  H   UNL     1       9.131 -32.350  16.385  1.00  0.00     0.211 HD
ENDBRANCH   2  22
BRANCH   3  24
ATOM     24  O   UNL     1       9.566 -31.984  12.713  1.00  0.00    -0.387 OA
ATOM     25  H   UNL     1       8.890 -31.257  12.835  1.00  0.00     0.211 HD
ENDBRANCH   3  24
BRANCH   5  26
ATOM     26  O   UNL     1       6.944 -35.487  13.354  1.00  0.00    -0.454 OA
BRANCH  26  27
ATOM     27  C   UNL     1       5.798 -36.208  12.990  1.00  0.00     0.214 A 
ATOM     28  C   UNL     1       5.104 -36.982  13.931  1.00  0.00     0.180 A 
ATOM     29  C   UNL     1       5.298 -36.114  11.686  1.00  0.00     0.239 A 
ATOM     30  O   UNL     1       3.952 -37.545  13.601  1.00  0.00    -0.452 OA
ATOM     31  C   UNL     1       4.049 -36.695  11.366  1.00  0.00     0.111 A 
ATOM     32  O   UNL     1       5.990 -35.523  10.817  1.00  0.00    -0.285 OA
ATOM     33  C   UNL     1       3.410 -37.443  12.391  1.00  0.00     0.146 A 
ATOM     34  C   UNL     1       3.401 -36.594  10.094  1.00  0.00     0.134 A 
ATOM     35  C   UNL     1       2.199 -38.096  12.147  1.00  0.00     0.094 A 
ATOM     36  C   UNL     1       2.198 -37.277   9.877  1.00  0.00     0.093 A 
ATOM     37  C   UNL     1       1.601 -38.026  10.892  1.00  0.00     0.123 A 
BRANCH  28  38
ATOM     38  C   UNL     1       5.632 -37.210  15.286  1.00  0.00     0.025 A 
ATOM     39  C   UNL     1       6.674 -38.126  15.496  1.00  0.00     0.062 A 
ATOM     40  C   UNL     1       5.037 -36.582  16.386  1.00  0.00     0.016 A 
ATOM     41  C   UNL     1       7.134 -38.408  16.786  1.00  0.00     0.158 A 
ATOM     42  C   UNL     1       5.500 -36.844  17.675  1.00  0.00     0.051 A 
ATOM     43  C   UNL     1       6.544 -37.751  17.892  1.00  0.00     0.157 A 
BRANCH  41  44
ATOM     44  O   UNL     1       8.168 -39.336  16.923  1.00  0.00    -0.504 OA
ATOM     45  H   UNL     1       8.939 -39.421  16.277  1.00  0.00     0.293 HD
ENDBRANCH  41  44
BRANCH  43  46
ATOM     46  O   UNL     1       6.963 -37.968  19.206  1.00  0.00    -0.504 OA
ATOM     47  H   UNL     1       6.596 -37.474  20.004  1.00  0.00     0.293 HD
ENDBRANCH  43  46
ENDBRANCH  28  38
BRANCH  34  48
ATOM     48  O   UNL     1       3.870 -35.815   9.031  1.00  0.00    -0.507 OA
ATOM     49  H   UNL     1       3.922 -36.112   8.068  1.00  0.00     0.293 HD
ENDBRANCH  34  48
BRANCH  37  50
ATOM     50  O   UNL     1       0.401 -38.699  10.668  1.00  0.00    -0.508 OA
ATOM     51  H   UNL     1       0.151 -39.043   9.743  1.00  0.00     0.293 HD
ENDBRANCH  37  50
ENDBRANCH  26  27
ENDBRANCH   5  26
BRANCH   4  52
ATOM     52  O   UNL     1       7.072 -33.182  11.851  1.00  0.00    -0.384 OA
ATOM     53  H   UNL     1       7.770 -32.746  11.290  1.00  0.00     0.211 HD
ENDBRANCH   4  52
TORSDOF 16
ENDMDL
MODEL 3
REMARK VINA RESULT:    -5.058      3.105      7.259
REMARK INTER + INTRA:         -11.880
REMARK INTER:                  -8.542
REMARK INTRA:                  -3.338
REMARK UNBOUND:                -3.569
REMARK SMILES C[C@H]1O[C@H](OC[C@H]2O[C@H](Oc3c(-c4ccc(O)c(O)c4)oc4cc(O)cc(O)c4c3=O)[C@H](O)[C@@H](O)[C@H]2O)[C@H](O)[C@@H](O)[C@H]1O
REMARK SMILES IDX 7 1 36 2 34 3 32 4 9 5 8 6 6 7 5 8 4 9 1 10 2 11 42 12 3 13
REMARK SMILES IDX 40 14 38 15 43 16 41 18 39 20 37 22 35 24 10 26 11 27 12 28
REMARK SMILES IDX 30 29 21 30 29 31 31 32 22 33 27 34 23 35 26 36 24 37 13 38
REMARK SMILES IDX 20 39 14 40 18 41 15 42 16 43 19 44 17 46 28 48 25 50 33 52
REMARK H PARENT 43 17 41 19 39 21 37 23 35 25 19 45 17 47 28 49 25 51 33 53
REMARK Flexibility Score: inf
ROOT
ATOM      1  C   UNL     1       5.159 -35.738  17.238  1.00  0.00     0.180 C 
ATOM      2  C   UNL     1       6.058 -36.953  17.583  1.00  0.00     0.177 C 
ATOM      3  C   UNL     1       5.841 -38.083  16.561  1.00  0.00     0.180 C 
ATOM      4  C   UNL     1       5.966 -37.549  15.129  1.00  0.00     0.214 C 
ATOM      5  C   UNL     1       5.154 -36.244  14.933  1.00  0.00     0.339 C 
ATOM      6  O   UNL     1       5.429 -35.266  15.925  1.00  0.00    -0.332 OA
ENDROOT
BRANCH   1   7
ATOM      7  C   UNL     1       5.347 -34.561  18.227  1.00  0.00     0.198 C 
BRANCH   7   8
ATOM      8  O   UNL     1       6.175 -33.554  17.676  1.00  0.00    -0.347 OA
BRANCH   8   9
ATOM      9  C   UNL     1       7.085 -33.039  18.633  1.00  0.00     0.281 C 
ATOM     10  C   UNL     1      10.485 -33.472  18.437  1.00  0.00     0.041 C 
ATOM     11  C   UNL     1       9.165 -33.934  17.802  1.00  0.00     0.150 C 
ATOM     12  C   UNL     1       8.819 -33.130  16.515  1.00  0.00     0.174 C 
ATOM     13  O   UNL     1       8.146 -33.972  18.806  1.00  0.00    -0.344 OA
ATOM     14  C   UNL     1       8.286 -31.708  16.822  1.00  0.00     0.179 C 
ATOM     15  C   UNL     1       7.630 -31.653  18.222  1.00  0.00     0.202 C 
BRANCH  12  16
ATOM     16  O   UNL     1       9.922 -33.086  15.647  1.00  0.00    -0.388 OA
ATOM     17  H   UNL     1      10.536 -33.815  15.929  1.00  0.00     0.211 HD
ENDBRANCH  12  16
BRANCH  14  18
ATOM     18  O   UNL     1       9.313 -30.742  16.750  1.00  0.00    -0.387 OA
ATOM     19  H   UNL     1       9.822 -30.927  15.917  1.00  0.00     0.211 HD
ENDBRANCH  14  18
BRANCH  15  20
ATOM     20  O   UNL     1       6.646 -30.651  18.327  1.00  0.00    -0.385 OA
ATOM     21  H   UNL     1       7.090 -29.781  18.509  1.00  0.00     0.211 HD
ENDBRANCH  15  20
ENDBRANCH   8   9
ENDBRANCH   7   8
ENDBRANCH   1   7
BRANCH   2  22
ATOM     22  O   UNL     1       7.422 -36.606  17.674  1.00  0.00    -0.387 OA
ATOM     23  H   UNL     1       7.502 -35.851  18.312  1.00  0.00     0.211 HD
ENDBRANCH   2  22
BRANCH   3  24
ATOM     24  O   UNL     1       6.778 -39.109  16.751  1.00  0.00    -0.387 OA
ATOM     25  H   UNL     1       7.687 -38.698  16.695  1.00  0.00     0.211 HD
ENDBRANCH   3  24
BRANCH   5  26
ATOM     26  O   UNL     1       3.747 -36.510  14.849  1.00  0.00    -0.454 OA
BRANCH  26  27
ATOM     27  C   UNL     1       2.992 -36.042  13.764  1.00  0.00     0.214 A 
ATOM     28  C   UNL     1       2.374 -34.784  13.807  1.00  0.00     0.180 A 
ATOM     29  C   UNL     1       2.898 -36.807  12.596  1.00  0.00     0.239 A 
ATOM     30  O   UNL     1       1.780 -34.304  12.725  1.00  0.00    -0.452 OA
ATOM     31  C   UNL     1       2.290 -36.259  11.443  1.00  0.00     0.111 A 
ATOM     32  O   UNL     1       3.347 -37.981  12.608  1.00  0.00    -0.285 OA
ATOM     33  C   UNL     1       1.708 -34.970  11.576  1.00  0.00     0.146 A 
ATOM     34  C   UNL     1       2.209 -36.913  10.172  1.00  0.00     0.134 A 
ATOM     35  C   UNL     1       1.039 -34.375  10.503  1.00  0.00     0.094 A 
ATOM     36  C   UNL     1       1.514 -36.298   9.123  1.00  0.00     0.093 A 
ATOM     37  C   UNL     1       0.930 -35.041   9.285  1.00  0.00     0.123 A 
BRANCH  28  38
ATOM     38  C   UNL     1       2.342 -33.978  15.038  1.00  0.00     0.025 A 
ATOM     39  C   UNL     1       3.274 -32.948  15.236  1.00  0.00     0.062 A 
ATOM     40  C   UNL     1       1.437 -34.291  16.058  1.00  0.00     0.016 A 
ATOM     41  C   UNL     1       3.303 -32.224  16.432  1.00  0.00     0.158 A 
ATOM     42  C   UNL     1       1.446 -33.563  17.248  1.00  0.00     0.051 A 
ATOM     43  C   UNL     1       2.369 -32.530  17.450  1.00  0.00     0.157 A 
BRANCH  41  44
ATOM     44  O   UNL     1       4.263 -31.220  16.565  1.00  0.00    -0.504 OA
ATOM     45  H   UNL     1       4.857 -31.111  17.374  1.00  0.00     0.293 HD
ENDBRANCH  41  44
BRANCH  43  46
ATOM     46  O   UNL     1       2.325 -31.838  18.662  1.00  0.00    -0.504 OA
ATOM     47  H   UNL     1       1.516 -31.801  19.262  1.00  0.00     0.293 HD
ENDBRANCH  43  46
ENDBRANCH  28  38
BRANCH  34  48
ATOM     48  O   UNL     1       2.817 -38.138   9.876  1.00  0.00    -0.507 OA
ATOM     49  H   UNL     1       3.003 -38.874  10.540  1.00  0.00     0.293 HD
ENDBRANCH  34  48
BRANCH  37  50
ATOM     50  O   UNL     1       0.244 -34.434   8.234  1.00  0.00    -0.508 OA
ATOM     51  H   UNL     1       0.448 -33.479   7.949  1.00  0.00     0.293 HD
ENDBRANCH  37  50
ENDBRANCH  26  27
ENDBRANCH   5  26
BRANCH   4  52
ATOM     52  O   UNL     1       5.529 -38.510  14.206  1.00  0.00    -0.384 OA
ATOM     53  H   UNL     1       5.033 -39.205  14.719  1.00  0.00     0.211 HD
ENDBRANCH   4  52
TORSDOF 16
ENDMDL
MODEL 4
REMARK VINA RESULT:    -5.016      2.522      5.097
REMARK INTER + INTRA:         -11.810
REMARK INTER:                  -8.927
REMARK INTRA:                  -2.883
REMARK UNBOUND:                -3.569
REMARK SMILES C[C@H]1O[C@H](OC[C@H]2O[C@H](Oc3c(-c4ccc(O)c(O)c4)oc4cc(O)cc(O)c4c3=O)[C@H](O)[C@@H](O)[C@H]2O)[C@H](O)[C@@H](O)[C@H]1O
REMARK SMILES IDX 7 1 36 2 34 3 32 4 9 5 8 6 6 7 5 8 4 9 1 10 2 11 42 12 3 13
REMARK SMILES IDX 40 14 38 15 43 16 41 18 39 20 37 22 35 24 10 26 11 27 12 28
REMARK SMILES IDX 30 29 21 30 29 31 31 32 22 33 27 34 23 35 26 36 24 37 13 38
REMARK SMILES IDX 20 39 14 40 18 41 15 42 16 43 19 44 17 46 28 48 25 50 33 52
REMARK H PARENT 43 17 41 19 39 21 37 23 35 25 19 45 17 47 28 49 25 51 33 53
REMARK Flexibility Score: inf
ROOT
ATOM      1  C   UNL     1       6.557 -31.974  13.461  1.00  0.00     0.180 C 
ATOM      2  C   UNL     1       6.890 -31.613  11.991  1.00  0.00     0.177 C 
ATOM      3  C   UNL     1       7.510 -32.824  11.273  1.00  0.00     0.180 C 
ATOM      4  C   UNL     1       6.644 -34.073  11.470  1.00  0.00     0.214 C 
ATOM      5  C   UNL     1       6.235 -34.256  12.953  1.00  0.00     0.339 C 
ATOM      6  O   UNL     1       5.670 -33.083  13.521  1.00  0.00    -0.332 OA
ENDROOT
BRANCH   1   7
ATOM      7  C   UNL     1       5.913 -30.795  14.232  1.00  0.00     0.198 C 
BRANCH   7   8
ATOM      8  O   UNL     1       5.192 -31.251  15.360  1.00  0.00    -0.347 OA
BRANCH   8   9
ATOM      9  C   UNL     1       5.187 -30.292  16.405  1.00  0.00     0.281 C 
ATOM     10  C   UNL     1       2.700 -30.072  18.761  1.00  0.00     0.041 C 
ATOM     11  C   UNL     1       3.058 -30.764  17.437  1.00  0.00     0.150 C 
ATOM     12  C   UNL     1       3.655 -32.184  17.660  1.00  0.00     0.174 C 
ATOM     13  O   UNL     1       3.846 -29.875  16.639  1.00  0.00    -0.344 OA
ATOM     14  C   UNL     1       5.124 -32.148  18.151  1.00  0.00     0.179 C 
ATOM     15  C   UNL     1       5.827 -30.846  17.698  1.00  0.00     0.202 C 
BRANCH  12  16
ATOM     16  O   UNL     1       2.844 -32.931  18.530  1.00  0.00    -0.388 OA
ATOM     17  H   UNL     1       2.974 -32.549  19.438  1.00  0.00     0.211 HD
ENDBRANCH  12  16
BRANCH  14  18
ATOM     18  O   UNL     1       5.205 -32.255  19.556  1.00  0.00    -0.387 OA
ATOM     19  H   UNL     1       5.374 -33.214  19.760  1.00  0.00     0.211 HD
ENDBRANCH  14  18
BRANCH  15  20
ATOM     20  O   UNL     1       7.221 -30.992  17.571  1.00  0.00    -0.385 OA
ATOM     21  H   UNL     1       7.650 -30.102  17.680  1.00  0.00     0.211 HD
ENDBRANCH  15  20
ENDBRANCH   8   9
ENDBRANCH   7   8
ENDBRANCH   1   7
BRANCH   2  22
ATOM     22  O   UNL     1       5.768 -31.125  11.289  1.00  0.00    -0.387 OA
ATOM     23  H   UNL     1       5.281 -31.903  10.914  1.00  0.00     0.211 HD
ENDBRANCH   2  22
BRANCH   3  24
ATOM     24  O   UNL     1       7.644 -32.569   9.900  1.00  0.00    -0.387 OA
ATOM     25  H   UNL     1       7.116 -31.746   9.696  1.00  0.00     0.211 HD
ENDBRANCH   3  24
BRANCH   5  26
ATOM     26  O   UNL     1       7.332 -34.734  13.744  1.00  0.00    -0.454 OA
BRANCH  26  27
ATOM     27  C   UNL     1       7.106 -35.368  14.974  1.00  0.00     0.214 A 
ATOM     28  C   UNL     1       6.699 -36.709  15.029  1.00  0.00     0.180 A 
ATOM     29  C   UNL     1       7.344 -34.680  16.169  1.00  0.00     0.239 A 
ATOM     30  O   UNL     1       6.621 -37.326  16.198  1.00  0.00    -0.452 OA
ATOM     31  C   UNL     1       7.289 -35.370  17.403  1.00  0.00     0.111 A 
ATOM     32  O   UNL     1       7.587 -33.447  16.116  1.00  0.00    -0.285 OA
ATOM     33  C   UNL     1       6.886 -36.731  17.357  1.00  0.00     0.146 A 
ATOM     34  C   UNL     1       7.593 -34.793  18.676  1.00  0.00     0.134 A 
ATOM     35  C   UNL     1       6.752 -37.474  18.533  1.00  0.00     0.094 A 
ATOM     36  C   UNL     1       7.429 -35.559  19.837  1.00  0.00     0.093 A 
ATOM     37  C   UNL     1       7.009 -36.889  19.769  1.00  0.00     0.123 A 
BRANCH  28  38
ATOM     38  C   UNL     1       6.327 -37.456  13.817  1.00  0.00     0.025 A 
ATOM     39  C   UNL     1       4.981 -37.739  13.543  1.00  0.00     0.062 A 
ATOM     40  C   UNL     1       7.322 -37.966  12.976  1.00  0.00     0.016 A 
ATOM     41  C   UNL     1       4.620 -38.513  12.435  1.00  0.00     0.158 A 
ATOM     42  C   UNL     1       6.971 -38.724  11.858  1.00  0.00     0.051 A 
ATOM     43  C   UNL     1       5.630 -39.005  11.574  1.00  0.00     0.157 A 
BRANCH  41  44
ATOM     44  O   UNL     1       3.262 -38.764  12.228  1.00  0.00    -0.504 OA
ATOM     45  H   UNL     1       2.519 -38.231  12.655  1.00  0.00     0.293 HD
ENDBRANCH  41  44
BRANCH  43  46
ATOM     46  O   UNL     1       5.344 -39.767  10.440  1.00  0.00    -0.504 OA
ATOM     47  H   UNL     1       4.685 -40.529  10.423  1.00  0.00     0.293 HD
ENDBRANCH  43  46
ENDBRANCH  28  38
BRANCH  34  48
ATOM     48  O   UNL     1       8.089 -33.497  18.857  1.00  0.00    -0.507 OA
ATOM     49  H   UNL     1       8.870 -33.096  18.362  1.00  0.00     0.293 HD
ENDBRANCH  34  48
BRANCH  37  50
ATOM     50  O   UNL     1       6.853 -37.645  20.930  1.00  0.00    -0.508 OA
ATOM     51  H   UNL     1       5.993 -38.157  21.118  1.00  0.00     0.293 HD
ENDBRANCH  37  50
ENDBRANCH  26  27
ENDBRANCH   5  26
BRANCH   4  52
ATOM     52  O   UNL     1       7.325 -35.218  11.032  1.00  0.00    -0.384 OA
ATOM     53  H   UNL     1       6.785 -35.617  10.297  1.00  0.00     0.211 HD
ENDBRANCH   4  52
TORSDOF 16
ENDMDL
MODEL 5
REMARK VINA RESULT:    -4.966     15.657     17.803
REMARK INTER + INTRA:         -11.728
REMARK INTER:                  -8.707
REMARK INTRA:                  -3.021
REMARK UNBOUND:                -3.569
REMARK SMILES C[C@H]1O[C@H](OC[C@H]2O[C@H](Oc3c(-c4ccc(O)c(O)c4)oc4cc(O)cc(O)c4c3=O)[C@H](O)[C@@H](O)[C@H]2O)[C@H](O)[C@@H](O)[C@H]1O
REMARK SMILES IDX 7 1 36 2 34 3 32 4 9 5 8 6 6 7 5 8 4 9 1 10 2 11 42 12 3 13
REMARK SMILES IDX 40 14 38 15 43 16 41 18 39 20 37 22 35 24 10 26 11 27 12 28
REMARK SMILES IDX 30 29 21 30 29 31 31 32 22 33 27 34 23 35 26 36 24 37 13 38
REMARK SMILES IDX 20 39 14 40 18 41 15 42 16 43 19 44 17 46 28 48 25 50 33 52
REMARK H PARENT 43 17 41 19 39 21 37 23 35 25 19 45 17 47 28 49 25 51 33 53
REMARK Flexibility Score: inf
ROOT
ATOM      1  C   UNL     1      -4.482 -48.117  10.590  1.00  0.00     0.180 C 
ATOM      2  C   UNL     1      -3.411 -48.884   9.773  1.00  0.00     0.177 C 
ATOM      3  C   UNL     1      -2.131 -49.061  10.607  1.00  0.00     0.180 C 
ATOM      4  C   UNL     1      -2.460 -49.647  11.986  1.00  0.00     0.214 C 
ATOM      5  C   UNL     1      -3.649 -48.909  12.651  1.00  0.00     0.339 C 
ATOM      6  O   UNL     1      -4.780 -48.801  11.800  1.00  0.00    -0.332 OA
ENDROOT
BRANCH   1   7
ATOM      7  C   UNL     1      -5.803 -47.922   9.804  1.00  0.00     0.198 C 
BRANCH   7   8
ATOM      8  O   UNL     1      -5.648 -48.276   8.443  1.00  0.00    -0.347 OA
BRANCH   8   9
ATOM      9  C   UNL     1      -6.305 -47.359   7.583  1.00  0.00     0.281 C 
ATOM     10  C   UNL     1      -4.768 -44.608   6.222  1.00  0.00     0.041 C 
ATOM     11  C   UNL     1      -4.563 -45.722   7.259  1.00  0.00     0.150 C 
ATOM     12  C   UNL     1      -3.756 -46.921   6.682  1.00  0.00     0.174 C 
ATOM     13  O   UNL     1      -5.822 -46.048   7.856  1.00  0.00    -0.344 OA
ATOM     14  C   UNL     1      -4.602 -47.817   5.743  1.00  0.00     0.179 C 
ATOM     15  C   UNL     1      -6.106 -47.723   6.095  1.00  0.00     0.202 C 
BRANCH  12  16
ATOM     16  O   UNL     1      -2.589 -46.471   6.043  1.00  0.00    -0.388 OA
ATOM     17  H   UNL     1      -2.237 -45.718   6.590  1.00  0.00     0.211 HD
ENDBRANCH  12  16
BRANCH  14  18
ATOM     18  O   UNL     1      -4.418 -47.469   4.388  1.00  0.00    -0.387 OA
ATOM     19  H   UNL     1      -5.295 -47.138   4.056  1.00  0.00     0.211 HD
ENDBRANCH  14  18
BRANCH  15  20
ATOM     20  O   UNL     1      -6.826 -48.878   5.737  1.00  0.00    -0.385 OA
ATOM     21  H   UNL     1      -6.356 -49.332   4.988  1.00  0.00     0.211 HD
ENDBRANCH  15  20
ENDBRANCH   8   9
ENDBRANCH   7   8
ENDBRANCH   1   7
BRANCH   2  22
ATOM     22  O   UNL     1      -3.883 -50.125   9.296  1.00  0.00    -0.387 OA
ATOM     23  H   UNL     1      -3.343 -50.840   9.719  1.00  0.00     0.211 HD
ENDBRANCH   2  22
BRANCH   3  24
ATOM     24  O   UNL     1      -1.227 -49.910   9.952  1.00  0.00    -0.387 OA
ATOM     25  H   UNL     1      -1.450 -49.890   8.978  1.00  0.00     0.211 HD
ENDBRANCH   3  24
BRANCH   5  26
ATOM     26  O   UNL     1      -3.254 -47.622  13.148  1.00  0.00    -0.454 OA
BRANCH  26  27
ATOM     27  C   UNL     1      -3.749 -47.144  14.370  1.00  0.00     0.214 A 
ATOM     28  C   UNL     1      -4.736 -46.149  14.407  1.00  0.00     0.180 A 
ATOM     29  C   UNL     1      -3.299 -47.701  15.572  1.00  0.00     0.239 A 
ATOM     30  O   UNL     1      -5.285 -45.808  15.564  1.00  0.00    -0.452 OA
ATOM     31  C   UNL     1      -3.924 -47.347  16.791  1.00  0.00     0.111 A 
ATOM     32  O   UNL     1      -2.328 -48.501  15.539  1.00  0.00    -0.285 OA
ATOM     33  C   UNL     1      -4.928 -46.345  16.727  1.00  0.00     0.146 A 
ATOM     34  C   UNL     1      -3.606 -47.911  18.067  1.00  0.00     0.134 A 
ATOM     35  C   UNL     1      -5.560 -45.894  17.889  1.00  0.00     0.094 A 
ATOM     36  C   UNL     1      -4.244 -47.423  19.214  1.00  0.00     0.093 A 
ATOM     37  C   UNL     1      -5.212 -46.420  19.129  1.00  0.00     0.123 A 
BRANCH  28  38
ATOM     38  C   UNL     1      -5.174 -45.446  13.191  1.00  0.00     0.025 A 
ATOM     39  C   UNL     1      -6.479 -45.615  12.705  1.00  0.00     0.062 A 
ATOM     40  C   UNL     1      -4.263 -44.674  12.461  1.00  0.00     0.016 A 
ATOM     41  C   UNL     1      -6.885 -45.012  11.510  1.00  0.00     0.158 A 
ATOM     42  C   UNL     1      -4.664 -44.054  11.277  1.00  0.00     0.051 A 
ATOM     43  C   UNL     1      -5.966 -44.212  10.789  1.00  0.00     0.157 A 
BRANCH  41  44
ATOM     44  O   UNL     1      -8.195 -45.230  11.080  1.00  0.00    -0.504 OA
ATOM     45  H   UNL     1      -8.990 -44.698  11.402  1.00  0.00     0.293 HD
ENDBRANCH  41  44
BRANCH  43  46
ATOM     46  O   UNL     1      -6.305 -43.565   9.600  1.00  0.00    -0.504 OA
ATOM     47  H   UNL     1      -6.575 -44.042   8.755  1.00  0.00     0.293 HD
ENDBRANCH  43  46
ENDBRANCH  28  38
BRANCH  34  48
ATOM     48  O   UNL     1      -2.709 -48.966  18.262  1.00  0.00    -0.507 OA
ATOM     49  H   UNL     1      -2.622 -49.777  17.667  1.00  0.00     0.293 HD
ENDBRANCH  34  48
BRANCH  37  50
ATOM     50  O   UNL     1      -5.845 -45.944  20.277  1.00  0.00    -0.508 OA
ATOM     51  H   UNL     1      -5.392 -45.983  21.187  1.00  0.00     0.293 HD
ENDBRANCH  37  50
ENDBRANCH  26  27
ENDBRANCH   5  26
BRANCH   4  52
ATOM     52  O   UNL     1      -1.341 -49.578  12.829  1.00  0.00    -0.384 OA
ATOM     53  H   UNL     1      -1.062 -50.514  13.022  1.00  0.00     0.211 HD
ENDBRANCH   4  52
TORSDOF 16
ENDMDL
MODEL 6
REMARK VINA RESULT:    -4.925     15.517     18.370
REMARK INTER + INTRA:         -11.661
REMARK INTER:                 -10.058
REMARK INTRA:                  -1.603
REMARK UNBOUND:                -3.569
REMARK SMILES C[C@H]1O[C@H](OC[C@H]2O[C@H](Oc3c(-c4ccc(O)c(O)c4)oc4cc(O)cc(O)c4c3=O)[C@H](O)[C@@H](O)[C@H]2O)[C@H](O)[C@@H](O)[C@H]1O
REMARK SMILES IDX 7 1 36 2 34 3 32 4 9 5 8 6 6 7 5 8 4 9 1 10 2 11 42 12 3 13
REMARK SMILES IDX 40 14 38 15 43 16 41 18 39 20 37 22 35 24 10 26 11 27 12 28
REMARK SMILES IDX 30 29 21 30 29 31 31 32 22 33 27 34 23 35 26 36 24 37 13 38
REMARK SMILES IDX 20 39 14 40 18 41 15 42 16 43 19 44 17 46 28 48 25 50 33 52
REMARK H PARENT 43 17 41 19 39 21 37 23 35 25 19 45 17 47 28 49 25 51 33 53
REMARK Flexibility Score: inf
ROOT
ATOM      1  C   UNL     1      -0.117 -49.842   8.293  1.00  0.00     0.180 C 
ATOM      2  C   UNL     1      -0.672 -49.671   6.856  1.00  0.00     0.177 C 
ATOM      3  C   UNL     1      -2.182 -49.378   6.900  1.00  0.00     0.180 C 
ATOM      4  C   UNL     1      -2.482 -48.228   7.869  1.00  0.00     0.214 C 
ATOM      5  C   UNL     1      -1.752 -48.417   9.222  1.00  0.00     0.339 C 
ATOM      6  O   UNL     1      -0.364 -48.680   9.072  1.00  0.00    -0.332 OA
ENDROOT
BRANCH   1   7
ATOM      7  C   UNL     1       1.406 -50.125   8.312  1.00  0.00     0.198 C 
BRANCH   7   8
ATOM      8  O   UNL     1       2.152 -48.923   8.323  1.00  0.00    -0.347 OA
BRANCH   8   9
ATOM      9  C   UNL     1       3.302 -49.024   9.147  1.00  0.00     0.281 C 
ATOM     10  C   UNL     1       6.480 -49.441   7.920  1.00  0.00     0.041 C 
ATOM     11  C   UNL     1       5.005 -49.445   7.492  1.00  0.00     0.150 C 
ATOM     12  C   UNL     1       4.559 -48.074   6.907  1.00  0.00     0.174 C 
ATOM     13  O   UNL     1       4.205 -49.956   8.563  1.00  0.00    -0.344 OA
ATOM     14  C   UNL     1       4.340 -46.998   8.001  1.00  0.00     0.179 C 
ATOM     15  C   UNL     1       3.981 -47.652   9.357  1.00  0.00     0.202 C 
BRANCH  12  16
ATOM     16  O   UNL     1       5.468 -47.631   5.932  1.00  0.00    -0.388 OA
ATOM     17  H   UNL     1       5.489 -48.330   5.225  1.00  0.00     0.211 HD
ENDBRANCH  12  16
BRANCH  14  18
ATOM     18  O   UNL     1       5.481 -46.183   8.164  1.00  0.00    -0.387 OA
ATOM     19  H   UNL     1       5.825 -45.987   7.253  1.00  0.00     0.211 HD
ENDBRANCH  14  18
BRANCH  15  20
ATOM     20  O   UNL     1       3.218 -46.810  10.187  1.00  0.00    -0.385 OA
ATOM     21  H   UNL     1       2.430 -46.482   9.677  1.00  0.00     0.211 HD
ENDBRANCH  15  20
ENDBRANCH   8   9
ENDBRANCH   7   8
ENDBRANCH   1   7
BRANCH   2  22
ATOM     22  O   UNL     1       0.018 -48.681   6.126  1.00  0.00    -0.387 OA
ATOM     23  H   UNL     1      -0.619 -47.946   5.931  1.00  0.00     0.211 HD
ENDBRANCH   2  22
BRANCH   3  24
ATOM     24  O   UNL     1      -2.657 -49.039   5.625  1.00  0.00    -0.387 OA
ATOM     25  H   UNL     1      -3.516 -49.529   5.485  1.00  0.00     0.211 HD
ENDBRANCH   3  24
BRANCH   5  26
ATOM     26  O   UNL     1      -2.384 -49.427  10.022  1.00  0.00    -0.454 OA
BRANCH  26  27
ATOM     27  C   UNL     1      -2.552 -49.248  11.402  1.00  0.00     0.214 A 
ATOM     28  C   UNL     1      -3.807 -48.928  11.939  1.00  0.00     0.180 A 
ATOM     29  C   UNL     1      -1.471 -49.446  12.269  1.00  0.00     0.239 A 
ATOM     30  O   UNL     1      -3.973 -48.896  13.252  1.00  0.00    -0.452 OA
ATOM     31  C   UNL     1      -1.681 -49.441  13.668  1.00  0.00     0.111 A 
ATOM     32  O   UNL     1      -0.326 -49.609  11.776  1.00  0.00    -0.285 OA
ATOM     33  C   UNL     1      -2.991 -49.127  14.118  1.00  0.00     0.146 A 
ATOM     34  C   UNL     1      -0.672 -49.713  14.647  1.00  0.00     0.134 A 
ATOM     35  C   UNL     1      -3.275 -49.046  15.484  1.00  0.00     0.094 A 
ATOM     36  C   UNL     1      -0.985 -49.603  16.008  1.00  0.00     0.093 A 
ATOM     37  C   UNL     1      -2.274 -49.270  16.426  1.00  0.00     0.123 A 
BRANCH  28  38
ATOM     38  C   UNL     1      -4.956 -48.600  11.080  1.00  0.00     0.025 A 
ATOM     39  C   UNL     1      -5.338 -47.264  10.885  1.00  0.00     0.062 A 
ATOM     40  C   UNL     1      -5.730 -49.625  10.524  1.00  0.00     0.016 A 
ATOM     41  C   UNL     1      -6.473 -46.944  10.133  1.00  0.00     0.158 A 
ATOM     42  C   UNL     1      -6.854 -49.314   9.757  1.00  0.00     0.051 A 
ATOM     43  C   UNL     1      -7.237 -47.983   9.553  1.00  0.00     0.157 A 
BRANCH  41  44
ATOM     44  O   UNL     1      -6.800 -45.594   9.988  1.00  0.00    -0.504 OA
ATOM     45  H   UNL     1      -6.121 -44.847   9.981  1.00  0.00     0.293 HD
ENDBRANCH  41  44
BRANCH  43  46
ATOM     46  O   UNL     1      -8.370 -47.738   8.774  1.00  0.00    -0.504 OA
ATOM     47  H   UNL     1      -8.863 -46.859   8.756  1.00  0.00     0.293 HD
ENDBRANCH  43  46
ENDBRANCH  28  38
BRANCH  34  48
ATOM     48  O   UNL     1       0.630 -50.125  14.344  1.00  0.00    -0.507 OA
ATOM     49  H   UNL     1       0.957 -50.406  13.432  1.00  0.00     0.293 HD
ENDBRANCH  34  48
BRANCH  37  50
ATOM     50  O   UNL     1      -2.578 -49.168  17.783  1.00  0.00    -0.508 OA
ATOM     51  H   UNL     1      -2.915 -49.968  18.313  1.00  0.00     0.293 HD
ENDBRANCH  37  50
ENDBRANCH  26  27
ENDBRANCH   5  26
BRANCH   4  52
ATOM     52  O   UNL     1      -3.861 -48.124   8.097  1.00  0.00    -0.384 OA
ATOM     53  H   UNL     1      -4.294 -48.888   7.627  1.00  0.00     0.211 HD
ENDBRANCH   4  52
TORSDOF 16
ENDMDL
MODEL 7
REMARK VINA RESULT:    -4.913      2.744      7.300
REMARK INTER + INTRA:         -11.641
REMARK INTER:                  -8.755
REMARK INTRA:                  -2.885
REMARK UNBOUND:                -3.569
REMARK SMILES C[C@H]1O[C@H](OC[C@H]2O[C@H](Oc3c(-c4ccc(O)c(O)c4)oc4cc(O)cc(O)c4c3=O)[C@H](O)[C@@H](O)[C@H]2O)[C@H](O)[C@@H](O)[C@H]1O
REMARK SMILES IDX 7 1 36 2 34 3 32 4 9 5 8 6 6 7 5 8 4 9 1 10 2 11 42 12 3 13
REMARK SMILES IDX 40 14 38 15 43 16 41 18 39 20 37 22 35 24 10 26 11 27 12 28
REMARK SMILES IDX 30 29 21 30 29 31 31 32 22 33 27 34 23 35 26 36 24 37 13 38
REMARK SMILES IDX 20 39 14 40 18 41 15 42 16 43 19 44 17 46 28 48 25 50 33 52
REMARK H PARENT 43 17 41 19 39 21 37 23 35 25 19 45 17 47 28 49 25 51 33 53
REMARK Flexibility Score: inf
ROOT
ATOM      1  C   UNL     1       6.038 -33.306  14.692  1.00  0.00     0.180 C 
ATOM      2  C   UNL     1       6.574 -32.213  13.732  1.00  0.00     0.177 C 
ATOM      3  C   UNL     1       5.487 -31.156  13.468  1.00  0.00     0.180 C 
ATOM      4  C   UNL     1       4.895 -30.648  14.788  1.00  0.00     0.214 C 
ATOM      5  C   UNL     1       4.538 -31.817  15.741  1.00  0.00     0.339 C 
ATOM      6  O   UNL     1       5.608 -32.733  15.920  1.00  0.00    -0.332 OA
ENDROOT
BRANCH   1   7
ATOM      7  C   UNL     1       7.097 -34.392  15.007  1.00  0.00     0.198 C 
BRANCH   7   8
ATOM      8  O   UNL     1       6.804 -35.059  16.220  1.00  0.00    -0.347 OA
BRANCH   8   9
ATOM      9  C   UNL     1       7.983 -35.439  16.910  1.00  0.00     0.281 C 
ATOM     10  C   UNL     1       9.020 -33.972  19.835  1.00  0.00     0.041 C 
ATOM     11  C   UNL     1       7.995 -33.823  18.701  1.00  0.00     0.150 C 
ATOM     12  C   UNL     1       6.618 -34.449  19.068  1.00  0.00     0.174 C 
ATOM     13  O   UNL     1       8.578 -34.277  17.476  1.00  0.00    -0.344 OA
ATOM     14  C   UNL     1       6.623 -35.996  18.992  1.00  0.00     0.179 C 
ATOM     15  C   UNL     1       7.697 -36.498  17.998  1.00  0.00     0.202 C 
BRANCH  12  16
ATOM     16  O   UNL     1       6.190 -34.001  20.329  1.00  0.00    -0.388 OA
ATOM     17  H   UNL     1       5.531 -33.275  20.165  1.00  0.00     0.211 HD
ENDBRANCH  12  16
BRANCH  14  18
ATOM     18  O   UNL     1       6.851 -36.578  20.257  1.00  0.00    -0.387 OA
ATOM     19  H   UNL     1       7.172 -37.504  20.093  1.00  0.00     0.211 HD
ENDBRANCH  14  18
BRANCH  15  20
ATOM     20  O   UNL     1       7.383 -37.752  17.439  1.00  0.00    -0.385 OA
ATOM     21  H   UNL     1       6.417 -37.770  17.208  1.00  0.00     0.211 HD
ENDBRANCH  15  20
ENDBRANCH   8   9
ENDBRANCH   7   8
ENDBRANCH   1   7
BRANCH   2  22
ATOM     22  O   UNL     1       7.761 -31.615  14.204  1.00  0.00    -0.387 OA
ATOM     23  H   UNL     1       7.521 -31.013  14.955  1.00  0.00     0.211 HD
ENDBRANCH   2  22
BRANCH   3  24
ATOM     24  O   UNL     1       6.015 -30.071  12.754  1.00  0.00    -0.387 OA
ATOM     25  H   UNL     1       6.765 -30.419  12.192  1.00  0.00     0.211 HD
ENDBRANCH   3  24
BRANCH   5  26
ATOM     26  O   UNL     1       3.346 -32.493  15.317  1.00  0.00    -0.454 OA
BRANCH  26  27
ATOM     27  C   UNL     1       2.462 -33.044  16.256  1.00  0.00     0.214 A 
ATOM     28  C   UNL     1       2.309 -34.433  16.371  1.00  0.00     0.180 A 
ATOM     29  C   UNL     1       1.763 -32.207  17.133  1.00  0.00     0.239 A 
ATOM     30  O   UNL     1       1.573 -34.935  17.352  1.00  0.00    -0.452 OA
ATOM     31  C   UNL     1       1.012 -32.766  18.192  1.00  0.00     0.111 A 
ATOM     32  O   UNL     1       1.808 -30.964  16.943  1.00  0.00    -0.285 OA
ATOM     33  C   UNL     1       0.931 -34.184  18.241  1.00  0.00     0.146 A 
ATOM     34  C   UNL     1       0.326 -32.012  19.196  1.00  0.00     0.134 A 
ATOM     35  C   UNL     1       0.166 -34.821  19.221  1.00  0.00     0.094 A 
ATOM     36  C   UNL     1      -0.448 -32.680  20.153  1.00  0.00     0.093 A 
ATOM     37  C   UNL     1      -0.532 -34.073  20.166  1.00  0.00     0.123 A 
BRANCH  28  38
ATOM     38  C   UNL     1       2.928 -35.363  15.414  1.00  0.00     0.025 A 
ATOM     39  C   UNL     1       3.883 -36.295  15.847  1.00  0.00     0.062 A 
ATOM     40  C   UNL     1       2.633 -35.264  14.050  1.00  0.00     0.016 A 
ATOM     41  C   UNL     1       4.533 -37.134  14.936  1.00  0.00     0.158 A 
ATOM     42  C   UNL     1       3.264 -36.109  13.135  1.00  0.00     0.051 A 
ATOM     43  C   UNL     1       4.213 -37.046  13.561  1.00  0.00     0.157 A 
BRANCH  41  44
ATOM     44  O   UNL     1       5.479 -38.031  15.435  1.00  0.00    -0.504 OA
ATOM     45  H   UNL     1       5.400 -38.496  16.328  1.00  0.00     0.293 HD
ENDBRANCH  41  44
BRANCH  43  46
ATOM     46  O   UNL     1       4.807 -37.863  12.597  1.00  0.00    -0.504 OA
ATOM     47  H   UNL     1       4.929 -38.858  12.699  1.00  0.00     0.293 HD
ENDBRANCH  43  46
ENDBRANCH  28  38
BRANCH  34  48
ATOM     48  O   UNL     1       0.398 -30.620  19.323  1.00  0.00    -0.507 OA
ATOM     49  H   UNL     1       0.196 -29.955  18.592  1.00  0.00     0.293 HD
ENDBRANCH  34  48
BRANCH  37  50
ATOM     50  O   UNL     1      -1.302 -34.731  21.125  1.00  0.00    -0.508 OA
ATOM     51  H   UNL     1      -1.374 -34.381  22.078  1.00  0.00     0.293 HD
ENDBRANCH  37  50
ENDBRANCH  26  27
ENDBRANCH   5  26
BRANCH   4  52
ATOM     52  O   UNL     1       3.747 -29.879  14.548  1.00  0.00    -0.384 OA
ATOM     53  H   UNL     1       3.948 -28.951  14.850  1.00  0.00     0.211 HD
ENDBRANCH   4  52
TORSDOF 16
ENDMDL
MODEL 8
REMARK VINA RESULT:    -4.843      3.494      7.496
REMARK INTER + INTRA:         -11.526
REMARK INTER:                  -8.293
REMARK INTRA:                  -3.233
REMARK UNBOUND:                -3.569
REMARK SMILES C[C@H]1O[C@H](OC[C@H]2O[C@H](Oc3c(-c4ccc(O)c(O)c4)oc4cc(O)cc(O)c4c3=O)[C@H](O)[C@@H](O)[C@H]2O)[C@H](O)[C@@H](O)[C@H]1O
REMARK SMILES IDX 7 1 36 2 34 3 32 4 9 5 8 6 6 7 5 8 4 9 1 10 2 11 42 12 3 13
REMARK SMILES IDX 40 14 38 15 43 16 41 18 39 20 37 22 35 24 10 26 11 27 12 28
REMARK SMILES IDX 30 29 21 30 29 31 31 32 22 33 27 34 23 35 26 36 24 37 13 38
REMARK SMILES IDX 20 39 14 40 18 41 15 42 16 43 19 44 17 46 28 48 25 50 33 52
REMARK H PARENT 43 17 41 19 39 21 37 23 35 25 19 45 17 47 28 49 25 51 33 53
REMARK Flexibility Score: inf
ROOT
ATOM      1  C   UNL     1       7.759 -35.179  15.504  1.00  0.00     0.180 C 
ATOM      2  C   UNL     1       6.806 -36.304  15.984  1.00  0.00     0.177 C 
ATOM      3  C   UNL     1       5.870 -36.733  14.840  1.00  0.00     0.180 C 
ATOM      4  C   UNL     1       6.672 -37.038  13.569  1.00  0.00     0.214 C 
ATOM      5  C   UNL     1       7.706 -35.925  13.266  1.00  0.00     0.339 C 
ATOM      6  O   UNL     1       8.522 -35.606  14.384  1.00  0.00    -0.332 OA
ENDROOT
BRANCH   1   7
ATOM      7  C   UNL     1       8.738 -34.718  16.612  1.00  0.00     0.198 C 
BRANCH   7   8
ATOM      8  O   UNL     1       8.127 -34.753  17.887  1.00  0.00    -0.347 OA
BRANCH   8   9
ATOM      9  C   UNL     1       8.275 -33.524  18.577  1.00  0.00     0.281 C 
ATOM     10  C   UNL     1       5.841 -31.106  18.684  1.00  0.00     0.041 C 
ATOM     11  C   UNL     1       6.207 -32.429  17.993  1.00  0.00     0.150 C 
ATOM     12  C   UNL     1       5.542 -33.655  18.682  1.00  0.00     0.174 C 
ATOM     13  O   UNL     1       7.627 -32.498  17.833  1.00  0.00    -0.344 OA
ATOM     14  C   UNL     1       6.234 -34.045  20.012  1.00  0.00     0.179 C 
ATOM     15  C   UNL     1       7.716 -33.600  20.015  1.00  0.00     0.202 C 
BRANCH  12  16
ATOM     16  O   UNL     1       4.167 -33.434  18.868  1.00  0.00    -0.388 OA
ATOM     17  H   UNL     1       3.699 -34.235  18.511  1.00  0.00     0.211 HD
ENDBRANCH  12  16
BRANCH  14  18
ATOM     18  O   UNL     1       5.576 -33.482  21.125  1.00  0.00    -0.387 OA
ATOM     19  H   UNL     1       5.581 -32.497  20.992  1.00  0.00     0.211 HD
ENDBRANCH  14  18
BRANCH  15  20
ATOM     20  O   UNL     1       8.525 -34.393  20.851  1.00  0.00    -0.385 OA
ATOM     21  H   UNL     1       8.912 -33.820  21.564  1.00  0.00     0.211 HD
ENDBRANCH  15  20
ENDBRANCH   8   9
ENDBRANCH   7   8
ENDBRANCH   1   7
BRANCH   2  22
ATOM     22  O   UNL     1       7.503 -37.412  16.512  1.00  0.00    -0.387 OA
ATOM     23  H   UNL     1       7.648 -38.060  15.777  1.00  0.00     0.211 HD
ENDBRANCH   2  22
BRANCH   3  24
ATOM     24  O   UNL     1       5.134 -37.870  15.203  1.00  0.00    -0.387 OA
ATOM     25  H   UNL     1       4.659 -37.659  16.057  1.00  0.00     0.211 HD
ENDBRANCH   3  24
BRANCH   5  26
ATOM     26  O   UNL     1       7.072 -34.750  12.740  1.00  0.00    -0.454 OA
BRANCH  26  27
ATOM     27  C   UNL     1       7.595 -34.097  11.615  1.00  0.00     0.214 A 
ATOM     28  C   UNL     1       8.484 -33.021  11.755  1.00  0.00     0.180 A 
ATOM     29  C   UNL     1       7.278 -34.554  10.331  1.00  0.00     0.239 A 
ATOM     30  O   UNL     1       9.069 -32.506  10.685  1.00  0.00    -0.452 OA
ATOM     31  C   UNL     1       7.943 -34.012   9.206  1.00  0.00     0.111 A 
ATOM     32  O   UNL     1       6.389 -35.435  10.208  1.00  0.00    -0.285 OA
ATOM     33  C   UNL     1       8.841 -32.939   9.449  1.00  0.00     0.146 A 
ATOM     34  C   UNL     1       7.763 -34.456   7.857  1.00  0.00     0.134 A 
ATOM     35  C   UNL     1       9.499 -32.307   8.390  1.00  0.00     0.094 A 
ATOM     36  C   UNL     1       8.423 -33.788   6.818  1.00  0.00     0.093 A 
ATOM     37  C   UNL     1       9.282 -32.720   7.079  1.00  0.00     0.123 A 
BRANCH  28  38
ATOM     38  C   UNL     1       8.774 -32.422  13.068  1.00  0.00     0.025 A 
ATOM     39  C   UNL     1       7.815 -31.624  13.711  1.00  0.00     0.062 A 
ATOM     40  C   UNL     1      10.041 -32.572  13.642  1.00  0.00     0.016 A 
ATOM     41  C   UNL     1       8.106 -30.988  14.922  1.00  0.00     0.158 A 
ATOM     42  C   UNL     1      10.334 -31.956  14.860  1.00  0.00     0.051 A 
ATOM     43  C   UNL     1       9.381 -31.163  15.510  1.00  0.00     0.157 A 
BRANCH  41  44
ATOM     44  O   UNL     1       7.108 -30.201  15.502  1.00  0.00    -0.504 OA
ATOM     45  H   UNL     1       7.174 -29.797  16.425  1.00  0.00     0.293 HD
ENDBRANCH  41  44
BRANCH  43  46
ATOM     46  O   UNL     1       9.735 -30.576  16.726  1.00  0.00    -0.504 OA
ATOM     47  H   UNL     1      10.530 -29.969  16.849  1.00  0.00     0.293 HD
ENDBRANCH  43  46
ENDBRANCH  28  38
BRANCH  34  48
ATOM     48  O   UNL     1       6.984 -35.558   7.487  1.00  0.00    -0.507 OA
ATOM     49  H   UNL     1       6.987 -35.997   6.579  1.00  0.00     0.293 HD
ENDBRANCH  34  48
BRANCH  37  50
ATOM     50  O   UNL     1       9.938 -32.065   6.038  1.00  0.00    -0.508 OA
ATOM     51  H   UNL     1       9.547 -32.036   5.099  1.00  0.00     0.293 HD
ENDBRANCH  37  50
ENDBRANCH  26  27
ENDBRANCH   5  26
BRANCH   4  52
ATOM     52  O   UNL     1       5.813 -37.185  12.471  1.00  0.00    -0.384 OA
ATOM     53  H   UNL     1       6.082 -38.021  11.999  1.00  0.00     0.211 HD
ENDBRANCH   4  52
TORSDOF 16
ENDMDL
MODEL 9
REMARK VINA RESULT:    -4.739     15.679     18.433
REMARK INTER + INTRA:         -11.355
REMARK INTER:                  -8.226
REMARK INTRA:                  -3.130
REMARK UNBOUND:                -3.569
REMARK SMILES C[C@H]1O[C@H](OC[C@H]2O[C@H](Oc3c(-c4ccc(O)c(O)c4)oc4cc(O)cc(O)c4c3=O)[C@H](O)[C@@H](O)[C@H]2O)[C@H](O)[C@@H](O)[C@H]1O
REMARK SMILES IDX 7 1 36 2 34 3 32 4 9 5 8 6 6 7 5 8 4 9 1 10 2 11 42 12 3 13
REMARK SMILES IDX 40 14 38 15 43 16 41 18 39 20 37 22 35 24 10 26 11 27 12 28
REMARK SMILES IDX 30 29 21 30 29 31 31 32 22 33 27 34 23 35 26 36 24 37 13 38
REMARK SMILES IDX 20 39 14 40 18 41 15 42 16 43 19 44 17 46 28 48 25 50 33 52
REMARK H PARENT 43 17 41 19 39 21 37 23 35 25 19 45 17 47 28 49 25 51 33 53
REMARK Flexibility Score: inf
ROOT
ATOM      1  C   UNL     1      -6.835 -45.565   8.947  1.00  0.00     0.180 C 
ATOM      2  C   UNL     1      -7.087 -44.035   8.959  1.00  0.00     0.177 C 
ATOM      3  C   UNL     1      -6.601 -43.426  10.285  1.00  0.00     0.180 C 
ATOM      4  C   UNL     1      -5.163 -43.865  10.587  1.00  0.00     0.214 C 
ATOM      5  C   UNL     1      -4.979 -45.391  10.393  1.00  0.00     0.339 C 
ATOM      6  O   UNL     1      -5.457 -45.852   9.137  1.00  0.00    -0.332 OA
ENDROOT
BRANCH   1   7
ATOM      7  C   UNL     1      -7.292 -46.232   7.626  1.00  0.00     0.198 C 
BRANCH   7   8
ATOM      8  O   UNL     1      -6.308 -46.104   6.618  1.00  0.00    -0.347 OA
BRANCH   8   9
ATOM      9  C   UNL     1      -6.886 -45.857   5.346  1.00  0.00     0.281 C 
ATOM     10  C   UNL     1      -5.428 -43.866   2.960  1.00  0.00     0.041 C 
ATOM     11  C   UNL     1      -5.303 -44.282   4.433  1.00  0.00     0.150 C 
ATOM     12  C   UNL     1      -4.275 -45.434   4.633  1.00  0.00     0.174 C 
ATOM     13  O   UNL     1      -6.609 -44.512   4.970  1.00  0.00    -0.344 OA
ATOM     14  C   UNL     1      -4.825 -46.812   4.189  1.00  0.00     0.179 C 
ATOM     15  C   UNL     1      -6.370 -46.847   4.278  1.00  0.00     0.202 C 
BRANCH  12  16
ATOM     16  O   UNL     1      -3.064 -45.135   3.987  1.00  0.00    -0.388 OA
ATOM     17  H   UNL     1      -2.945 -44.150   4.048  1.00  0.00     0.211 HD
ENDBRANCH  12  16
BRANCH  14  18
ATOM     18  O   UNL     1      -4.427 -47.132   2.874  1.00  0.00    -0.387 OA
ATOM     19  H   UNL     1      -4.656 -46.347   2.307  1.00  0.00     0.211 HD
ENDBRANCH  14  18
BRANCH  15  20
ATOM     20  O   UNL     1      -6.879 -48.144   4.476  1.00  0.00    -0.385 OA
ATOM     21  H   UNL     1      -6.226 -48.670   5.009  1.00  0.00     0.211 HD
ENDBRANCH  15  20
ENDBRANCH   8   9
ENDBRANCH   7   8
ENDBRANCH   1   7
BRANCH   2  22
ATOM     22  O   UNL     1      -6.500 -43.383   7.854  1.00  0.00    -0.387 OA
ATOM     23  H   UNL     1      -6.236 -44.076   7.196  1.00  0.00     0.211 HD
ENDBRANCH   2  22
BRANCH   3  24
ATOM     24  O   UNL     1      -6.652 -42.025  10.234  1.00  0.00    -0.387 OA
ATOM     25  H   UNL     1      -7.608 -41.766  10.100  1.00  0.00     0.211 HD
ENDBRANCH   3  24
BRANCH   5  26
ATOM     26  O   UNL     1      -5.569 -46.131  11.471  1.00  0.00    -0.454 OA
BRANCH  26  27
ATOM     27  C   UNL     1      -4.793 -46.999  12.252  1.00  0.00     0.214 A 
ATOM     28  C   UNL     1      -4.399 -48.252  11.761  1.00  0.00     0.180 A 
ATOM     29  C   UNL     1      -4.354 -46.596  13.518  1.00  0.00     0.239 A 
ATOM     30  O   UNL     1      -3.557 -48.998  12.460  1.00  0.00    -0.452 OA
ATOM     31  C   UNL     1      -3.428 -47.394  14.230  1.00  0.00     0.111 A 
ATOM     32  O   UNL     1      -4.811 -45.529  14.003  1.00  0.00    -0.285 OA
ATOM     33  C   UNL     1      -3.071 -48.637  13.643  1.00  0.00     0.146 A 
ATOM     34  C   UNL     1      -2.846 -47.045  15.490  1.00  0.00     0.134 A 
ATOM     35  C   UNL     1      -2.205 -49.514  14.303  1.00  0.00     0.094 A 
ATOM     36  C   UNL     1      -1.998 -47.955  16.134  1.00  0.00     0.093 A 
ATOM     37  C   UNL     1      -1.680 -49.181  15.548  1.00  0.00     0.123 A 
BRANCH  28  38
ATOM     38  C   UNL     1      -4.913 -48.782  10.488  1.00  0.00     0.025 A 
ATOM     39  C   UNL     1      -4.094 -48.810   9.349  1.00  0.00     0.062 A 
ATOM     40  C   UNL     1      -6.251 -49.178  10.383  1.00  0.00     0.016 A 
ATOM     41  C   UNL     1      -4.594 -49.241   8.116  1.00  0.00     0.158 A 
ATOM     42  C   UNL     1      -6.753 -49.627   9.161  1.00  0.00     0.051 A 
ATOM     43  C   UNL     1      -5.941 -49.664   8.022  1.00  0.00     0.157 A 
BRANCH  41  44
ATOM     44  O   UNL     1      -3.726 -49.235   7.022  1.00  0.00    -0.504 OA
ATOM     45  H   UNL     1      -2.777 -48.893   7.057  1.00  0.00     0.293 HD
ENDBRANCH  41  44
BRANCH  43  46
ATOM     46  O   UNL     1      -6.502 -50.125   6.830  1.00  0.00    -0.504 OA
ATOM     47  H   UNL     1      -7.463 -49.976   6.564  1.00  0.00     0.293 HD
ENDBRANCH  43  46
ENDBRANCH  28  38
BRANCH  34  48
ATOM     48  O   UNL     1      -3.036 -45.817  16.133  1.00  0.00    -0.507 OA
ATOM     49  H   UNL     1      -3.858 -45.551  16.654  1.00  0.00     0.293 HD
ENDBRANCH  34  48
BRANCH  37  50
ATOM     50  O   UNL     1      -0.831 -50.079  16.194  1.00  0.00    -0.508 OA
ATOM     51  H   UNL     1      -1.189 -50.919  16.643  1.00  0.00     0.293 HD
ENDBRANCH  37  50
ENDBRANCH  26  27
ENDBRANCH   5  26
BRANCH   4  52
ATOM     52  O   UNL     1      -4.808 -43.518  11.898  1.00  0.00    -0.384 OA
ATOM     53  H   UNL     1      -4.519 -44.354  12.355  1.00  0.00     0.211 HD
ENDBRANCH   4  52
TORSDOF 16
ENDMDL
