MODEL 1
REMARK VINA RESULT:    -4.138      0.000      0.000
REMARK INTER + INTRA:          -7.227
REMARK INTER:                  -6.678
REMARK INTRA:                  -0.549
REMARK UNBOUND:                -0.549
REMARK SMILES CCCCCCCCCCCCO
REMARK SMILES IDX 7 1 6 2 5 3 4 4 3 5 2 6 1 7 8 8 9 9 10 10 11 11 12 12 13 13
REMARK H PARENT 13 14
REMARK Flexibility Score: inf
ROOT
ATOM      1  C   UNL     1      26.376  -0.485  20.142  1.00  0.00     0.000 C 
ENDROOT
BRANCH   1   2
ATOM      2  C   UNL     1      27.133   0.381  19.123  1.00  0.00    -0.000 C 
BRANCH   2   3
ATOM      3  C   UNL     1      26.896  -0.076  17.672  1.00  0.00    -0.000 C 
BRANCH   3   4
ATOM      4  C   UNL     1      25.943  -1.280  17.573  1.00  0.00    -0.000 C 
BRANCH   4   5
ATOM      5  C   UNL     1      26.498  -2.482  16.785  1.00  0.00    -0.000 C 
BRANCH   5   6
ATOM      6  C   UNL     1      25.570  -2.930  15.646  1.00  0.00    -0.003 C 
ATOM      7  C   UNL     1      24.186  -3.293  16.177  1.00  0.00     0.004 C 
ENDBRANCH   5   6
ENDBRANCH   4   5
ENDBRANCH   3   4
ENDBRANCH   2   3
ENDBRANCH   1   2
BRANCH   1   8
ATOM      8  C   UNL     1      27.234  -0.832  21.371  1.00  0.00     0.000 C 
BRANCH   8   9
ATOM      9  C   UNL     1      28.659  -0.256  21.285  1.00  0.00     0.000 C 
BRANCH   9  10
ATOM     10  C   UNL     1      29.154   0.452  22.562  1.00  0.00     0.002 C 
BRANCH  10  11
ATOM     11  C   UNL     1      29.038   1.986  22.544  1.00  0.00     0.028 C 
BRANCH  11  12
ATOM     12  C   UNL     1      29.384   2.628  23.892  1.00  0.00     0.156 C 
BRANCH  12  13
ATOM     13  O   UNL     1      28.921   3.950  23.930  1.00  0.00    -0.396 OA
ATOM     14  H   UNL     1      29.303   4.362  24.748  1.00  0.00     0.210 HD
ENDBRANCH  12  13
ENDBRANCH  11  12
ENDBRANCH  10  11
ENDBRANCH   9  10
ENDBRANCH   8   9
ENDBRANCH   1   8
TORSDOF 11
ENDMDL
MODEL 2
REMARK VINA RESULT:    -4.001      4.179      5.920
REMARK INTER + INTRA:          -7.006
REMARK INTER:                  -5.682
REMARK INTRA:                  -1.324
REMARK UNBOUND:                -0.549
REMARK SMILES CCCCCCCCCCCCO
REMARK SMILES IDX 7 1 6 2 5 3 4 4 3 5 2 6 1 7 8 8 9 9 10 10 11 11 12 12 13 13
REMARK H PARENT 13 14
REMARK Flexibility Score: inf
ROOT
ATOM      1  C   UNL     1      26.422   0.050  23.122  1.00  0.00     0.000 C 
ENDROOT
BRANCH   1   2
ATOM      2  C   UNL     1      27.381  -1.144  23.259  1.00  0.00    -0.000 C 
BRANCH   2   3
ATOM      3  C   UNL     1      28.395  -1.218  22.104  1.00  0.00    -0.000 C 
BRANCH   3   4
ATOM      4  C   UNL     1      29.821  -0.831  22.533  1.00  0.00    -0.000 C 
BRANCH   4   5
ATOM      5  C   UNL     1      30.285  -1.449  23.865  1.00  0.00    -0.000 C 
BRANCH   5   6
ATOM      6  C   UNL     1      31.419  -0.654  24.530  1.00  0.00    -0.003 C 
ATOM      7  C   UNL     1      31.866   0.507  23.646  1.00  0.00     0.004 C 
ENDBRANCH   5   6
ENDBRANCH   4   5
ENDBRANCH   3   4
ENDBRANCH   2   3
ENDBRANCH   1   2
BRANCH   1   8
ATOM      8  C   UNL     1      26.599   1.078  24.253  1.00  0.00     0.000 C 
BRANCH   8   9
ATOM      9  C   UNL     1      27.526   0.578  25.375  1.00  0.00     0.000 C 
BRANCH   9  10
ATOM     10  C   UNL     1      28.812   1.405  25.574  1.00  0.00     0.002 C 
BRANCH  10  11
ATOM     11  C   UNL     1      28.982   2.590  24.606  1.00  0.00     0.028 C 
BRANCH  11  12
ATOM     12  C   UNL     1      29.453   3.870  25.305  1.00  0.00     0.156 C 
BRANCH  12  13
ATOM     13  O   UNL     1      29.011   4.996  24.598  1.00  0.00    -0.396 OA
ATOM     14  H   UNL     1      28.117   4.769  24.232  1.00  0.00     0.210 HD
ENDBRANCH  12  13
ENDBRANCH  11  12
ENDBRANCH  10  11
ENDBRANCH   9  10
ENDBRANCH   8   9
ENDBRANCH   1   8
TORSDOF 11
ENDMDL
MODEL 3
REMARK VINA RESULT:    -3.998      2.877      6.358
REMARK INTER + INTRA:          -7.001
REMARK INTER:                  -5.676
REMARK INTRA:                  -1.325
REMARK UNBOUND:                -0.549
REMARK SMILES CCCCCCCCCCCCO
REMARK SMILES IDX 7 1 6 2 5 3 4 4 3 5 2 6 1 7 8 8 9 9 10 10 11 11 12 12 13 13
REMARK H PARENT 13 14
REMARK Flexibility Score: inf
ROOT
ATOM      1  C   UNL     1      29.910  -0.746  22.357  1.00  0.00     0.000 C 
ENDROOT
BRANCH   1   2
ATOM      2  C   UNL     1      30.174   0.287  23.463  1.00  0.00    -0.000 C 
BRANCH   2   3
ATOM      3  C   UNL     1      29.489   1.636  23.184  1.00  0.00    -0.000 C 
BRANCH   3   4
ATOM      4  C   UNL     1      28.226   1.853  24.035  1.00  0.00    -0.000 C 
BRANCH   4   5
ATOM      5  C   UNL     1      28.058   0.868  25.207  1.00  0.00    -0.000 C 
BRANCH   5   6
ATOM      6  C   UNL     1      26.721   0.113  25.166  1.00  0.00    -0.003 C 
ATOM      7  C   UNL     1      25.641   0.946  24.481  1.00  0.00     0.004 C 
ENDBRANCH   5   6
ENDBRANCH   4   5
ENDBRANCH   3   4
ENDBRANCH   2   3
ENDBRANCH   1   2
BRANCH   1   8
ATOM      8  C   UNL     1      28.934  -1.849  22.802  1.00  0.00     0.000 C 
BRANCH   8   9
ATOM      9  C   UNL     1      27.715  -1.977  21.870  1.00  0.00     0.000 C 
BRANCH   9  10
ATOM     10  C   UNL     1      27.010  -0.648  21.534  1.00  0.00     0.002 C 
BRANCH  10  11
ATOM     11  C   UNL     1      26.243  -0.635  20.200  1.00  0.00     0.028 C 
BRANCH  11  12
ATOM     12  C   UNL     1      27.092  -0.135  19.026  1.00  0.00     0.156 C 
BRANCH  12  13
ATOM     13  O   UNL     1      27.128   1.265  19.019  1.00  0.00    -0.396 OA
ATOM     14  H   UNL     1      26.226   1.572  18.742  1.00  0.00     0.210 HD
ENDBRANCH  12  13
ENDBRANCH  11  12
ENDBRANCH  10  11
ENDBRANCH   9  10
ENDBRANCH   8   9
ENDBRANCH   1   8
TORSDOF 11
ENDMDL
MODEL 4
REMARK VINA RESULT:    -3.989      0.899      1.612
REMARK INTER + INTRA:          -6.987
REMARK INTER:                  -6.179
REMARK INTRA:                  -0.808
REMARK UNBOUND:                -0.549
REMARK SMILES CCCCCCCCCCCCO
REMARK SMILES IDX 7 1 6 2 5 3 4 4 3 5 2 6 1 7 8 8 9 9 10 10 11 11 12 12 13 13
REMARK H PARENT 13 14
REMARK Flexibility Score: inf
ROOT
ATOM      1  C   UNL     1      27.195  -1.034  21.227  1.00  0.00     0.000 C 
ENDROOT
BRANCH   1   2
ATOM      2  C   UNL     1      26.292  -0.613  20.057  1.00  0.00    -0.000 C 
BRANCH   2   3
ATOM      3  C   UNL     1      27.047   0.209  18.998  1.00  0.00    -0.000 C 
BRANCH   3   4
ATOM      4  C   UNL     1      26.821  -0.308  17.566  1.00  0.00    -0.000 C 
BRANCH   4   5
ATOM      5  C   UNL     1      25.798  -1.453  17.446  1.00  0.00    -0.000 C 
BRANCH   5   6
ATOM      6  C   UNL     1      26.389  -2.715  16.800  1.00  0.00    -0.003 C 
ATOM      7  C   UNL     1      27.129  -3.564  17.830  1.00  0.00     0.004 C 
ENDBRANCH   5   6
ENDBRANCH   4   5
ENDBRANCH   3   4
ENDBRANCH   2   3
ENDBRANCH   1   2
BRANCH   1   8
ATOM      8  C   UNL     1      28.622  -0.475  21.100  1.00  0.00     0.000 C 
BRANCH   8   9
ATOM      9  C   UNL     1      28.958   0.556  22.193  1.00  0.00     0.000 C 
BRANCH   9  10
ATOM     10  C   UNL     1      27.926   0.652  23.336  1.00  0.00     0.002 C 
BRANCH  10  11
ATOM     11  C   UNL     1      28.192   1.768  24.362  1.00  0.00     0.028 C 
BRANCH  11  12
ATOM     12  C   UNL     1      29.306   2.727  23.928  1.00  0.00     0.156 C 
BRANCH  12  13
ATOM     13  O   UNL     1      28.927   4.052  24.179  1.00  0.00    -0.396 OA
ATOM     14  H   UNL     1      28.077   4.203  23.689  1.00  0.00     0.210 HD
ENDBRANCH  12  13
ENDBRANCH  11  12
ENDBRANCH  10  11
ENDBRANCH   9  10
ENDBRANCH   8   9
ENDBRANCH   1   8
TORSDOF 11
ENDMDL
MODEL 5
REMARK VINA RESULT:    -3.927      2.744      6.539
REMARK INTER + INTRA:          -6.886
REMARK INTER:                  -5.523
REMARK INTRA:                  -1.363
REMARK UNBOUND:                -0.549
REMARK SMILES CCCCCCCCCCCCO
REMARK SMILES IDX 7 1 6 2 5 3 4 4 3 5 2 6 1 7 8 8 9 9 10 10 11 11 12 12 13 13
REMARK H PARENT 13 14
REMARK Flexibility Score: inf
ROOT
ATOM      1  C   UNL     1      26.118  -0.101  22.970  1.00  0.00     0.000 C 
ENDROOT
BRANCH   1   2
ATOM      2  C   UNL     1      26.126   0.559  24.357  1.00  0.00    -0.000 C 
BRANCH   2   3
ATOM      3  C   UNL     1      27.280   0.054  25.242  1.00  0.00    -0.000 C 
BRANCH   3   4
ATOM      4  C   UNL     1      28.477   1.021  25.272  1.00  0.00    -0.000 C 
BRANCH   4   5
ATOM      5  C   UNL     1      29.766   0.474  24.632  1.00  0.00    -0.000 C 
BRANCH   5   6
ATOM      6  C   UNL     1      30.143   1.201  23.333  1.00  0.00    -0.003 C 
ATOM      7  C   UNL     1      29.175   2.345  23.044  1.00  0.00     0.004 C 
ENDBRANCH   5   6
ENDBRANCH   4   5
ENDBRANCH   3   4
ENDBRANCH   2   3
ENDBRANCH   1   2
BRANCH   1   8
ATOM      8  C   UNL     1      26.820  -1.469  22.964  1.00  0.00     0.000 C 
BRANCH   8   9
ATOM      9  C   UNL     1      28.002  -1.529  21.979  1.00  0.00     0.000 C 
BRANCH   9  10
ATOM     10  C   UNL     1      27.921  -0.534  20.803  1.00  0.00     0.002 C 
BRANCH  10  11
ATOM     11  C   UNL     1      27.140  -1.037  19.576  1.00  0.00     0.028 C 
BRANCH  11  12
ATOM     12  C   UNL     1      27.013   0.021  18.474  1.00  0.00     0.156 C 
BRANCH  12  13
ATOM     13  O   UNL     1      27.129   1.305  19.022  1.00  0.00    -0.396 OA
ATOM     14  H   UNL     1      27.676   1.215  19.845  1.00  0.00     0.210 HD
ENDBRANCH  12  13
ENDBRANCH  11  12
ENDBRANCH  10  11
ENDBRANCH   9  10
ENDBRANCH   8   9
ENDBRANCH   1   8
TORSDOF 11
ENDMDL
MODEL 6
REMARK VINA RESULT:    -3.894      2.252      3.513
REMARK INTER + INTRA:          -6.833
REMARK INTER:                  -6.013
REMARK INTRA:                  -0.821
REMARK UNBOUND:                -0.549
REMARK SMILES CCCCCCCCCCCCO
REMARK SMILES IDX 7 1 6 2 5 3 4 4 3 5 2 6 1 7 8 8 9 9 10 10 11 11 12 12 13 13
REMARK H PARENT 13 14
REMARK Flexibility Score: inf
ROOT
ATOM      1  C   UNL     1      29.549  -1.192  22.534  1.00  0.00     0.000 C 
ENDROOT
BRANCH   1   2
ATOM      2  C   UNL     1      28.183  -1.896  22.565  1.00  0.00    -0.000 C 
BRANCH   2   3
ATOM      3  C   UNL     1      27.009  -0.903  22.593  1.00  0.00    -0.000 C 
BRANCH   3   4
ATOM      4  C   UNL     1      26.405  -0.651  21.199  1.00  0.00    -0.000 C 
BRANCH   4   5
ATOM      5  C   UNL     1      26.937  -1.574  20.088  1.00  0.00    -0.000 C 
BRANCH   5   6
ATOM      6  C   UNL     1      27.747  -0.821  19.022  1.00  0.00    -0.003 C 
ATOM      7  C   UNL     1      26.876   0.195  18.288  1.00  0.00     0.004 C 
ENDBRANCH   5   6
ENDBRANCH   4   5
ENDBRANCH   3   4
ENDBRANCH   2   3
ENDBRANCH   1   2
BRANCH   1   8
ATOM      8  C   UNL     1      29.956  -0.639  23.911  1.00  0.00     0.000 C 
BRANCH   8   9
ATOM      9  C   UNL     1      30.370   0.844  23.858  1.00  0.00     0.000 C 
BRANCH   9  10
ATOM     10  C   UNL     1      29.565   1.710  22.869  1.00  0.00     0.002 C 
BRANCH  10  11
ATOM     11  C   UNL     1      28.677   2.786  23.519  1.00  0.00     0.028 C 
BRANCH  11  12
ATOM     12  C   UNL     1      29.385   3.546  24.646  1.00  0.00     0.156 C 
BRANCH  12  13
ATOM     13  O   UNL     1      29.041   4.903  24.603  1.00  0.00    -0.396 OA
ATOM     14  H   UNL     1      29.733   5.389  25.123  1.00  0.00     0.210 HD
ENDBRANCH  12  13
ENDBRANCH  11  12
ENDBRANCH  10  11
ENDBRANCH   9  10
ENDBRANCH   8   9
ENDBRANCH   1   8
TORSDOF 11
ENDMDL
MODEL 7
REMARK VINA RESULT:    -3.880      3.062      6.876
REMARK INTER + INTRA:          -6.811
REMARK INTER:                  -5.597
REMARK INTRA:                  -1.214
REMARK UNBOUND:                -0.549
REMARK SMILES CCCCCCCCCCCCO
REMARK SMILES IDX 7 1 6 2 5 3 4 4 3 5 2 6 1 7 8 8 9 9 10 10 11 11 12 12 13 13
REMARK H PARENT 13 14
REMARK Flexibility Score: inf
ROOT
ATOM      1  C   UNL     1      27.165  -0.413  24.638  1.00  0.00     0.000 C 
ENDROOT
BRANCH   1   2
ATOM      2  C   UNL     1      28.353   0.434  25.120  1.00  0.00    -0.000 C 
BRANCH   2   3
ATOM      3  C   UNL     1      28.532   1.720  24.294  1.00  0.00    -0.000 C 
BRANCH   3   4
ATOM      4  C   UNL     1      29.790   1.692  23.408  1.00  0.00    -0.000 C 
BRANCH   4   5
ATOM      5  C   UNL     1      30.592   0.379  23.465  1.00  0.00    -0.000 C 
BRANCH   5   6
ATOM      6  C   UNL     1      32.077   0.600  23.791  1.00  0.00    -0.003 C 
ATOM      7  C   UNL     1      32.384   0.221  25.238  1.00  0.00     0.004 C 
ENDBRANCH   5   6
ENDBRANCH   4   5
ENDBRANCH   3   4
ENDBRANCH   2   3
ENDBRANCH   1   2
BRANCH   1   8
ATOM      8  C   UNL     1      26.341   0.295  23.549  1.00  0.00     0.000 C 
BRANCH   8   9
ATOM      9  C   UNL     1      26.223  -0.536  22.258  1.00  0.00     0.000 C 
BRANCH   9  10
ATOM     10  C   UNL     1      27.553  -1.106  21.727  1.00  0.00     0.002 C 
BRANCH  10  11
ATOM     11  C   UNL     1      28.258  -0.241  20.667  1.00  0.00     0.028 C 
BRANCH  11  12
ATOM     12  C   UNL     1      27.517  -0.216  19.326  1.00  0.00     0.156 C 
BRANCH  12  13
ATOM     13  O   UNL     1      27.072   1.083  19.045  1.00  0.00    -0.396 OA
ATOM     14  H   UNL     1      26.095   1.020  18.880  1.00  0.00     0.210 HD
ENDBRANCH  12  13
ENDBRANCH  11  12
ENDBRANCH  10  11
ENDBRANCH   9  10
ENDBRANCH   8   9
ENDBRANCH   1   8
TORSDOF 11
ENDMDL
MODEL 8
REMARK VINA RESULT:    -3.855      2.899      6.310
REMARK INTER + INTRA:          -6.770
REMARK INTER:                  -5.458
REMARK INTRA:                  -1.311
REMARK UNBOUND:                -0.549
REMARK SMILES CCCCCCCCCCCCO
REMARK SMILES IDX 7 1 6 2 5 3 4 4 3 5 2 6 1 7 8 8 9 9 10 10 11 11 12 12 13 13
REMARK H PARENT 13 14
REMARK Flexibility Score: inf
ROOT
ATOM      1  C   UNL     1      30.147   0.861  23.178  1.00  0.00     0.000 C 
ENDROOT
BRANCH   1   2
ATOM      2  C   UNL     1      30.273   1.170  24.678  1.00  0.00    -0.000 C 
BRANCH   2   3
ATOM      3  C   UNL     1      28.962   1.707  25.280  1.00  0.00    -0.000 C 
BRANCH   3   4
ATOM      4  C   UNL     1      27.790   0.719  25.138  1.00  0.00    -0.000 C 
BRANCH   4   5
ATOM      5  C   UNL     1      26.654   1.191  24.212  1.00  0.00    -0.000 C 
BRANCH   5   6
ATOM      6  C   UNL     1      25.740   0.044  23.756  1.00  0.00    -0.003 C 
ATOM      7  C   UNL     1      26.134  -1.270  24.423  1.00  0.00     0.004 C 
ENDBRANCH   5   6
ENDBRANCH   4   5
ENDBRANCH   3   4
ENDBRANCH   2   3
ENDBRANCH   1   2
BRANCH   1   8
ATOM      8  C   UNL     1      30.225  -0.646  22.879  1.00  0.00     0.000 C 
BRANCH   8   9
ATOM      9  C   UNL     1      29.025  -1.152  22.058  1.00  0.00     0.000 C 
BRANCH   9  10
ATOM     10  C   UNL     1      28.369  -0.097  21.144  1.00  0.00     0.002 C 
BRANCH  10  11
ATOM     11  C   UNL     1      27.108  -0.572  20.400  1.00  0.00     0.028 C 
BRANCH  11  12
ATOM     12  C   UNL     1      27.017  -0.026  18.971  1.00  0.00     0.156 C 
BRANCH  12  13
ATOM     13  O   UNL     1      27.123   1.371  18.980  1.00  0.00    -0.396 OA
ATOM     14  H   UNL     1      27.672   1.620  18.191  1.00  0.00     0.210 HD
ENDBRANCH  12  13
ENDBRANCH  11  12
ENDBRANCH  10  11
ENDBRANCH   9  10
ENDBRANCH   8   9
ENDBRANCH   1   8
TORSDOF 11
ENDMDL
MODEL 9
REMARK VINA RESULT:    -3.793      3.487      5.222
REMARK INTER + INTRA:          -6.670
REMARK INTER:                  -5.101
REMARK INTRA:                  -1.570
REMARK UNBOUND:                -0.549
REMARK SMILES CCCCCCCCCCCCO
REMARK SMILES IDX 7 1 6 2 5 3 4 4 3 5 2 6 1 7 8 8 9 9 10 10 11 11 12 12 13 13
REMARK H PARENT 13 14
REMARK Flexibility Score: inf
ROOT
ATOM      1  C   UNL     1      28.628  -1.708  22.385  1.00  0.00     0.000 C 
ENDROOT
BRANCH   1   2
ATOM      2  C   UNL     1      28.104  -0.722  21.330  1.00  0.00    -0.000 C 
BRANCH   2   3
ATOM      3  C   UNL     1      26.599  -0.442  21.483  1.00  0.00    -0.000 C 
BRANCH   3   4
ATOM      4  C   UNL     1      26.086  -0.690  22.913  1.00  0.00    -0.000 C 
BRANCH   4   5
ATOM      5  C   UNL     1      26.023   0.565  23.804  1.00  0.00    -0.000 C 
BRANCH   5   6
ATOM      6  C   UNL     1      26.291   0.260  25.285  1.00  0.00    -0.003 C 
ATOM      7  C   UNL     1      26.284  -1.244  25.546  1.00  0.00     0.004 C 
ENDBRANCH   5   6
ENDBRANCH   4   5
ENDBRANCH   3   4
ENDBRANCH   2   3
ENDBRANCH   1   2
BRANCH   1   8
ATOM      8  C   UNL     1      29.951  -1.244  23.019  1.00  0.00     0.000 C 
BRANCH   8   9
ATOM      9  C   UNL     1      29.822  -0.964  24.528  1.00  0.00     0.000 C 
BRANCH   9  10
ATOM     10  C   UNL     1      29.970   0.517  24.930  1.00  0.00     0.002 C 
BRANCH  10  11
ATOM     11  C   UNL     1      29.970   1.514  23.757  1.00  0.00     0.028 C 
BRANCH  11  12
ATOM     12  C   UNL     1      29.201   2.804  24.069  1.00  0.00     0.156 C 
BRANCH  12  13
ATOM     13  O   UNL     1      28.357   3.132  23.000  1.00  0.00    -0.396 OA
ATOM     14  H   UNL     1      27.510   3.464  23.397  1.00  0.00     0.210 HD
ENDBRANCH  12  13
ENDBRANCH  11  12
ENDBRANCH  10  11
ENDBRANCH   9  10
ENDBRANCH   8   9
ENDBRANCH   1   8
TORSDOF 11
ENDMDL
