MODEL 1
REMARK VINA RESULT:    -7.856      0.000      0.000
REMARK INTER + INTRA:         -15.251
REMARK INTER:                 -12.908
REMARK INTRA:                  -2.343
REMARK UNBOUND:                -2.343
REMARK SMILES C[C@H]1O[C@H](OC[C@@H]2O[C@@H](Oc3c(-c4ccc(O)c(O)c4)oc4cc(O)cc(O)c4c3=O)[C@H](O)[C@H](O)[C@H]2O)[C@H](O)[C@@H](O)[C@@H]1O
REMARK SMILES IDX 7 1 36 2 34 3 32 4 9 5 8 6 6 7 5 8 4 9 1 10 2 11 42 12 3 13
REMARK SMILES IDX 40 14 38 15 43 16 41 18 39 20 37 22 35 24 10 26 11 27 12 28
REMARK SMILES IDX 30 29 21 30 29 31 31 32 22 33 27 34 23 35 26 36 24 37 13 38
REMARK SMILES IDX 20 39 14 40 18 41 15 42 16 43 19 44 17 46 28 48 25 50 33 52
REMARK H PARENT 43 17 41 19 39 21 37 23 35 25 19 45 17 47 28 49 25 51 33 53
REMARK Flexibility Score: inf
ROOT
ATOM      1  C   UNL     1     133.633 139.780 122.867  1.00  0.00     0.180 C 
ATOM      2  C   UNL     1     134.737 140.817 122.532  1.00  0.00     0.177 C 
ATOM      3  C   UNL     1     136.149 140.254 122.835  1.00  0.00     0.180 C 
ATOM      4  C   UNL     1     136.159 138.705 122.787  1.00  0.00     0.214 C 
ATOM      5  C   UNL     1     135.081 138.126 123.735  1.00  0.00     0.339 C 
ATOM      6  O   UNL     1     133.987 139.003 123.998  1.00  0.00    -0.332 OA
ENDROOT
BRANCH   1   7
ATOM      7  C   UNL     1     132.274 140.447 123.139  1.00  0.00     0.198 C 
BRANCH   7   8
ATOM      8  O   UNL     1     132.455 141.839 123.302  1.00  0.00    -0.347 OA
BRANCH   8   9
ATOM      9  C   UNL     1     131.354 142.608 122.837  1.00  0.00     0.281 C 
ATOM     10  C   UNL     1     127.714 142.342 123.179  1.00  0.00     0.041 C 
ATOM     11  C   UNL     1     129.048 143.075 123.340  1.00  0.00     0.150 C 
ATOM     12  C   UNL     1     129.192 144.194 122.278  1.00  0.00     0.174 C 
ATOM     13  O   UNL     1     130.092 142.104 123.298  1.00  0.00    -0.344 OA
ATOM     14  C   UNL     1     130.520 144.970 122.464  1.00  0.00     0.179 C 
ATOM     15  C   UNL     1     131.600 144.102 123.134  1.00  0.00     0.202 C 
BRANCH  12  16
ATOM     16  O   UNL     1     128.098 145.081 122.304  1.00  0.00    -0.388 OA
ATOM     17  H   UNL     1     128.466 145.997 122.395  1.00  0.00     0.211 HD
ENDBRANCH  12  16
BRANCH  14  18
ATOM     18  O   UNL     1     130.982 145.405 121.211  1.00  0.00    -0.387 OA
ATOM     19  H   UNL     1     130.682 146.348 121.119  1.00  0.00     0.211 HD
ENDBRANCH  14  18
BRANCH  15  20
ATOM     20  O   UNL     1     131.588 144.310 124.522  1.00  0.00    -0.385 OA
ATOM     21  H   UNL     1     130.643 144.332 124.818  1.00  0.00     0.211 HD
ENDBRANCH  15  20
ENDBRANCH   8   9
ENDBRANCH   7   8
ENDBRANCH   1   7
BRANCH   2  22
ATOM     22  O   UNL     1     134.663 141.157 121.169  1.00  0.00    -0.387 OA
ATOM     23  H   UNL     1     135.387 141.806 120.983  1.00  0.00     0.211 HD
ENDBRANCH   2  22
BRANCH   3  24
ATOM     24  O   UNL     1     136.621 140.721 124.076  1.00  0.00    -0.387 OA
ATOM     25  H   UNL     1     136.498 140.000 124.746  1.00  0.00     0.211 HD
ENDBRANCH   3  24
BRANCH   5  26
ATOM     26  O   UNL     1     134.634 136.828 123.312  1.00  0.00    -0.454 OA
BRANCH  26  27
ATOM     27  C   UNL     1     134.625 135.704 124.146  1.00  0.00     0.214 A 
ATOM     28  C   UNL     1     133.448 135.278 124.802  1.00  0.00     0.180 A 
ATOM     29  C   UNL     1     135.831 135.038 124.420  1.00  0.00     0.239 A 
ATOM     30  O   UNL     1     133.551 134.387 125.787  1.00  0.00    -0.452 OA
ATOM     31  C   UNL     1     135.890 134.092 125.457  1.00  0.00     0.111 A 
ATOM     32  O   UNL     1     136.858 135.324 123.747  1.00  0.00    -0.285 OA
ATOM     33  C   UNL     1     134.690 133.809 126.148  1.00  0.00     0.146 A 
ATOM     34  C   UNL     1     137.084 133.446 125.854  1.00  0.00     0.134 A 
ATOM     35  C   UNL     1     134.695 132.931 127.234  1.00  0.00     0.094 A 
ATOM     36  C   UNL     1     137.074 132.572 126.951  1.00  0.00     0.093 A 
ATOM     37  C   UNL     1     135.887 132.323 127.646  1.00  0.00     0.123 A 
BRANCH  28  38
ATOM     38  C   UNL     1     132.084 135.789 124.473  1.00  0.00     0.025 A 
ATOM     39  C   UNL     1     131.411 135.259 123.351  1.00  0.00     0.062 A 
ATOM     40  C   UNL     1     131.489 136.864 125.158  1.00  0.00     0.016 A 
ATOM     41  C   UNL     1     130.221 135.827 122.880  1.00  0.00     0.158 A 
ATOM     42  C   UNL     1     130.273 137.404 124.725  1.00  0.00     0.051 A 
ATOM     43  C   UNL     1     129.640 136.910 123.577  1.00  0.00     0.157 A 
BRANCH  41  44
ATOM     44  O   UNL     1     129.670 135.304 121.715  1.00  0.00    -0.504 OA
ATOM     45  H   UNL     1     130.196 134.817 121.004  1.00  0.00     0.293 HD
ENDBRANCH  41  44
BRANCH  43  46
ATOM     46  O   UNL     1     128.459 137.528 123.157  1.00  0.00    -0.504 OA
ATOM     47  H   UNL     1     127.731 137.834 123.783  1.00  0.00     0.293 HD
ENDBRANCH  43  46
ENDBRANCH  28  38
BRANCH  34  48
ATOM     48  O   UNL     1     138.287 133.682 125.184  1.00  0.00    -0.507 OA
ATOM     49  H   UNL     1     138.725 132.975 124.610  1.00  0.00     0.293 HD
ENDBRANCH  34  48
BRANCH  37  50
ATOM     50  O   UNL     1     135.907 131.491 128.759  1.00  0.00    -0.508 OA
ATOM     51  H   UNL     1     136.591 130.741 128.855  1.00  0.00     0.293 HD
ENDBRANCH  37  50
ENDBRANCH  26  27
ENDBRANCH   5  26
BRANCH   4  52
ATOM     52  O   UNL     1     137.422 138.219 123.166  1.00  0.00    -0.384 OA
ATOM     53  H   UNL     1     137.894 138.966 123.619  1.00  0.00     0.211 HD
ENDBRANCH   4  52
TORSDOF 16
ENDMDL
MODEL 2
REMARK VINA RESULT:    -7.795      7.834     12.433
REMARK INTER + INTRA:         -15.150
REMARK INTER:                 -13.540
REMARK INTRA:                  -1.610
REMARK UNBOUND:                -2.343
REMARK SMILES C[C@H]1O[C@H](OC[C@@H]2O[C@@H](Oc3c(-c4ccc(O)c(O)c4)oc4cc(O)cc(O)c4c3=O)[C@H](O)[C@H](O)[C@H]2O)[C@H](O)[C@@H](O)[C@@H]1O
REMARK SMILES IDX 7 1 36 2 34 3 32 4 9 5 8 6 6 7 5 8 4 9 1 10 2 11 42 12 3 13
REMARK SMILES IDX 40 14 38 15 43 16 41 18 39 20 37 22 35 24 10 26 11 27 12 28
REMARK SMILES IDX 30 29 21 30 29 31 31 32 22 33 27 34 23 35 26 36 24 37 13 38
REMARK SMILES IDX 20 39 14 40 18 41 15 42 16 43 19 44 17 46 28 48 25 50 33 52
REMARK H PARENT 43 17 41 19 39 21 37 23 35 25 19 45 17 47 28 49 25 51 33 53
REMARK Flexibility Score: inf
ROOT
ATOM      1  C   UNL     1     140.540 145.986 124.400  1.00  0.00     0.180 C 
ATOM      2  C   UNL     1     140.843 147.320 123.668  1.00  0.00     0.177 C 
ATOM      3  C   UNL     1     139.856 148.435 124.099  1.00  0.00     0.180 C 
ATOM      4  C   UNL     1     139.273 148.156 125.507  1.00  0.00     0.214 C 
ATOM      5  C   UNL     1     138.628 146.750 125.559  1.00  0.00     0.339 C 
ATOM      6  O   UNL     1     139.148 145.821 124.610  1.00  0.00    -0.332 OA
ENDROOT
BRANCH   1   7
ATOM      7  C   UNL     1     141.064 144.766 123.623  1.00  0.00     0.198 C 
BRANCH   7   8
ATOM      8  O   UNL     1     140.864 144.966 122.239  1.00  0.00    -0.347 OA
BRANCH   8   9
ATOM      9  C   UNL     1     140.133 143.918 121.619  1.00  0.00     0.281 C 
ATOM     10  C   UNL     1     139.551 140.385 122.405  1.00  0.00     0.041 C 
ATOM     11  C   UNL     1     139.080 141.814 122.124  1.00  0.00     0.150 C 
ATOM     12  C   UNL     1     138.492 141.928 120.695  1.00  0.00     0.174 C 
ATOM     13  O   UNL     1     140.175 142.694 122.368  1.00  0.00    -0.344 OA
ATOM     14  C   UNL     1     137.972 143.361 120.421  1.00  0.00     0.179 C 
ATOM     15  C   UNL     1     138.713 144.410 121.269  1.00  0.00     0.202 C 
BRANCH  12  16
ATOM     16  O   UNL     1     137.470 140.985 120.475  1.00  0.00    -0.388 OA
ATOM     17  H   UNL     1     136.618 141.403 120.762  1.00  0.00     0.211 HD
ENDBRANCH  12  16
BRANCH  14  18
ATOM     18  O   UNL     1     138.137 143.661 119.058  1.00  0.00    -0.387 OA
ATOM     19  H   UNL     1     137.333 143.302 118.597  1.00  0.00     0.211 HD
ENDBRANCH  14  18
BRANCH  15  20
ATOM     20  O   UNL     1     138.000 144.659 122.451  1.00  0.00    -0.385 OA
ATOM     21  H   UNL     1     137.843 143.790 122.901  1.00  0.00     0.211 HD
ENDBRANCH  15  20
ENDBRANCH   8   9
ENDBRANCH   7   8
ENDBRANCH   1   7
BRANCH   2  22
ATOM     22  O   UNL     1     142.155 147.730 123.964  1.00  0.00    -0.387 OA
ATOM     23  H   UNL     1     142.696 147.616 123.143  1.00  0.00     0.211 HD
ENDBRANCH   2  22
BRANCH   3  24
ATOM     24  O   UNL     1     138.827 148.591 123.151  1.00  0.00    -0.387 OA
ATOM     25  H   UNL     1     138.367 149.450 123.333  1.00  0.00     0.211 HD
ENDBRANCH   3  24
BRANCH   5  26
ATOM     26  O   UNL     1     138.624 146.208 126.889  1.00  0.00    -0.454 OA
BRANCH  26  27
ATOM     27  C   UNL     1     137.669 146.539 127.857  1.00  0.00     0.214 A 
ATOM     28  C   UNL     1     138.040 146.859 129.183  1.00  0.00     0.180 A 
ATOM     29  C   UNL     1     136.304 146.455 127.539  1.00  0.00     0.239 A 
ATOM     30  O   UNL     1     137.095 146.892 130.122  1.00  0.00    -0.452 OA
ATOM     31  C   UNL     1     135.341 146.512 128.559  1.00  0.00     0.111 A 
ATOM     32  O   UNL     1     135.963 146.298 126.335  1.00  0.00    -0.285 OA
ATOM     33  C   UNL     1     135.803 146.715 129.878  1.00  0.00     0.146 A 
ATOM     34  C   UNL     1     133.955 146.345 128.331  1.00  0.00     0.134 A 
ATOM     35  C   UNL     1     134.902 146.711 130.947  1.00  0.00     0.094 A 
ATOM     36  C   UNL     1     133.064 146.336 129.414  1.00  0.00     0.093 A 
ATOM     37  C   UNL     1     133.536 146.508 130.718  1.00  0.00     0.123 A 
BRANCH  28  38
ATOM     38  C   UNL     1     139.444 147.142 129.606  1.00  0.00     0.025 A 
ATOM     39  C   UNL     1     140.181 146.122 130.246  1.00  0.00     0.062 A 
ATOM     40  C   UNL     1     140.025 148.419 129.508  1.00  0.00     0.016 A 
ATOM     41  C   UNL     1     141.423 146.382 130.837  1.00  0.00     0.158 A 
ATOM     42  C   UNL     1     141.290 148.675 130.049  1.00  0.00     0.051 A 
ATOM     43  C   UNL     1     141.990 147.672 130.733  1.00  0.00     0.157 A 
BRANCH  41  44
ATOM     44  O   UNL     1     142.043 145.345 131.528  1.00  0.00    -0.504 OA
ATOM     45  H   UNL     1     142.970 145.399 131.923  1.00  0.00     0.293 HD
ENDBRANCH  41  44
BRANCH  43  46
ATOM     46  O   UNL     1     143.222 148.000 131.304  1.00  0.00    -0.504 OA
ATOM     47  H   UNL     1     144.007 148.357 130.782  1.00  0.00     0.293 HD
ENDBRANCH  43  46
ENDBRANCH  28  38
BRANCH  34  48
ATOM     48  O   UNL     1     133.455 146.163 127.039  1.00  0.00    -0.507 OA
ATOM     49  H   UNL     1     133.963 146.473 126.222  1.00  0.00     0.293 HD
ENDBRANCH  34  48
BRANCH  37  50
ATOM     50  O   UNL     1     132.643 146.450 131.782  1.00  0.00    -0.508 OA
ATOM     51  H   UNL     1     132.268 147.294 132.215  1.00  0.00     0.293 HD
ENDBRANCH  37  50
ENDBRANCH  26  27
ENDBRANCH   5  26
BRANCH   4  52
ATOM     52  O   UNL     1     138.307 149.125 125.829  1.00  0.00    -0.384 OA
ATOM     53  H   UNL     1     137.893 148.845 126.687  1.00  0.00     0.211 HD
ENDBRANCH   4  52
TORSDOF 16
ENDMDL
MODEL 3
REMARK VINA RESULT:    -7.765      9.697     13.369
REMARK INTER + INTRA:         -15.101
REMARK INTER:                 -13.586
REMARK INTRA:                  -1.515
REMARK UNBOUND:                -2.343
REMARK SMILES C[C@H]1O[C@H](OC[C@@H]2O[C@@H](Oc3c(-c4ccc(O)c(O)c4)oc4cc(O)cc(O)c4c3=O)[C@H](O)[C@H](O)[C@H]2O)[C@H](O)[C@@H](O)[C@@H]1O
REMARK SMILES IDX 7 1 36 2 34 3 32 4 9 5 8 6 6 7 5 8 4 9 1 10 2 11 42 12 3 13
REMARK SMILES IDX 40 14 38 15 43 16 41 18 39 20 37 22 35 24 10 26 11 27 12 28
REMARK SMILES IDX 30 29 21 30 29 31 31 32 22 33 27 34 23 35 26 36 24 37 13 38
REMARK SMILES IDX 20 39 14 40 18 41 15 42 16 43 19 44 17 46 28 48 25 50 33 52
REMARK H PARENT 43 17 41 19 39 21 37 23 35 25 19 45 17 47 28 49 25 51 33 53
REMARK Flexibility Score: inf
ROOT
ATOM      1  C   UNL     1     140.567 146.643 126.103  1.00  0.00     0.180 C 
ATOM      2  C   UNL     1     140.937 146.854 124.611  1.00  0.00     0.177 C 
ATOM      3  C   UNL     1     139.753 147.462 123.818  1.00  0.00     0.180 C 
ATOM      4  C   UNL     1     138.794 148.245 124.750  1.00  0.00     0.214 C 
ATOM      5  C   UNL     1     138.319 147.348 125.917  1.00  0.00     0.339 C 
ATOM      6  O   UNL     1     139.204 146.278 126.245  1.00  0.00    -0.332 OA
ENDROOT
BRANCH   1   7
ATOM      7  C   UNL     1     141.433 145.560 126.768  1.00  0.00     0.198 C 
BRANCH   7   8
ATOM      8  O   UNL     1     141.261 144.333 126.088  1.00  0.00    -0.347 OA
BRANCH   8   9
ATOM      9  C   UNL     1     142.377 143.972 125.288  1.00  0.00     0.281 C 
ATOM     10  C   UNL     1     144.922 141.341 125.473  1.00  0.00     0.041 C 
ATOM     11  C   UNL     1     143.786 142.091 124.774  1.00  0.00     0.150 C 
ATOM     12  C   UNL     1     144.337 142.994 123.643  1.00  0.00     0.174 C 
ATOM     13  O   UNL     1     143.048 142.798 125.768  1.00  0.00    -0.344 OA
ATOM     14  C   UNL     1     143.187 143.720 122.901  1.00  0.00     0.179 C 
ATOM     15  C   UNL     1     141.956 143.912 123.804  1.00  0.00     0.202 C 
BRANCH  12  16
ATOM     16  O   UNL     1     145.125 142.265 122.731  1.00  0.00    -0.388 OA
ATOM     17  H   UNL     1     144.579 141.498 122.419  1.00  0.00     0.211 HD
ENDBRANCH  12  16
BRANCH  14  18
ATOM     18  O   UNL     1     143.641 144.975 122.458  1.00  0.00    -0.387 OA
ATOM     19  H   UNL     1     144.508 144.808 122.000  1.00  0.00     0.211 HD
ENDBRANCH  14  18
BRANCH  15  20
ATOM     20  O   UNL     1     141.056 142.852 123.617  1.00  0.00    -0.385 OA
ATOM     21  H   UNL     1     141.015 142.335 124.460  1.00  0.00     0.211 HD
ENDBRANCH  15  20
ENDBRANCH   8   9
ENDBRANCH   7   8
ENDBRANCH   1   7
BRANCH   2  22
ATOM     22  O   UNL     1     142.041 147.721 124.522  1.00  0.00    -0.387 OA
ATOM     23  H   UNL     1     141.711 148.642 124.680  1.00  0.00     0.211 HD
ENDBRANCH   2  22
BRANCH   3  24
ATOM     24  O   UNL     1     139.059 146.464 123.107  1.00  0.00    -0.387 OA
ATOM     25  H   UNL     1     139.726 145.843 122.715  1.00  0.00     0.211 HD
ENDBRANCH   3  24
BRANCH   5  26
ATOM     26  O   UNL     1     137.960 148.117 127.076  1.00  0.00    -0.454 OA
BRANCH  26  27
ATOM     27  C   UNL     1     137.226 147.602 128.150  1.00  0.00     0.214 A 
ATOM     28  C   UNL     1     137.862 147.115 129.315  1.00  0.00     0.180 A 
ATOM     29  C   UNL     1     135.832 147.469 128.035  1.00  0.00     0.239 A 
ATOM     30  O   UNL     1     137.150 146.390 130.177  1.00  0.00    -0.452 OA
ATOM     31  C   UNL     1     135.120 146.709 128.977  1.00  0.00     0.111 A 
ATOM     32  O   UNL     1     135.242 148.012 127.063  1.00  0.00    -0.285 OA
ATOM     33  C   UNL     1     135.851 146.153 130.050  1.00  0.00     0.146 A 
ATOM     34  C   UNL     1     133.732 146.453 128.880  1.00  0.00     0.134 A 
ATOM     35  C   UNL     1     135.213 145.329 130.982  1.00  0.00     0.094 A 
ATOM     36  C   UNL     1     133.108 145.618 129.819  1.00  0.00     0.093 A 
ATOM     37  C   UNL     1     133.847 145.050 130.860  1.00  0.00     0.123 A 
BRANCH  28  38
ATOM     38  C   UNL     1     139.303 147.346 129.631  1.00  0.00     0.025 A 
ATOM     39  C   UNL     1     140.048 146.297 130.212  1.00  0.00     0.062 A 
ATOM     40  C   UNL     1     139.921 148.602 129.492  1.00  0.00     0.016 A 
ATOM     41  C   UNL     1     141.341 146.509 130.707  1.00  0.00     0.158 A 
ATOM     42  C   UNL     1     141.231 148.809 129.936  1.00  0.00     0.051 A 
ATOM     43  C   UNL     1     141.945 147.779 130.563  1.00  0.00     0.157 A 
BRANCH  41  44
ATOM     44  O   UNL     1     141.973 145.448 131.346  1.00  0.00    -0.504 OA
ATOM     45  H   UNL     1     141.964 145.298 132.345  1.00  0.00     0.293 HD
ENDBRANCH  41  44
BRANCH  43  46
ATOM     46  O   UNL     1     143.227 148.060 131.040  1.00  0.00    -0.504 OA
ATOM     47  H   UNL     1     143.650 148.975 131.013  1.00  0.00     0.293 HD
ENDBRANCH  43  46
ENDBRANCH  28  38
BRANCH  34  48
ATOM     48  O   UNL     1     132.970 147.000 127.846  1.00  0.00    -0.507 OA
ATOM     49  H   UNL     1     131.974 146.841 127.775  1.00  0.00     0.293 HD
ENDBRANCH  34  48
BRANCH  37  50
ATOM     50  O   UNL     1     133.221 144.188 131.753  1.00  0.00    -0.508 OA
ATOM     51  H   UNL     1     133.505 144.129 132.730  1.00  0.00     0.293 HD
ENDBRANCH  37  50
ENDBRANCH  26  27
ENDBRANCH   5  26
BRANCH   4  52
ATOM     52  O   UNL     1     137.678 148.696 124.023  1.00  0.00    -0.384 OA
ATOM     53  H   UNL     1     137.571 148.083 123.250  1.00  0.00     0.211 HD
ENDBRANCH   4  52
TORSDOF 16
ENDMDL
MODEL 4
REMARK VINA RESULT:    -7.728      8.506     13.301
REMARK INTER + INTRA:         -15.040
REMARK INTER:                 -12.917
REMARK INTRA:                  -2.122
REMARK UNBOUND:                -2.343
REMARK SMILES C[C@H]1O[C@H](OC[C@@H]2O[C@@H](Oc3c(-c4ccc(O)c(O)c4)oc4cc(O)cc(O)c4c3=O)[C@H](O)[C@H](O)[C@H]2O)[C@H](O)[C@@H](O)[C@@H]1O
REMARK SMILES IDX 7 1 36 2 34 3 32 4 9 5 8 6 6 7 5 8 4 9 1 10 2 11 42 12 3 13
REMARK SMILES IDX 40 14 38 15 43 16 41 18 39 20 37 22 35 24 10 26 11 27 12 28
REMARK SMILES IDX 30 29 21 30 29 31 31 32 22 33 27 34 23 35 26 36 24 37 13 38
REMARK SMILES IDX 20 39 14 40 18 41 15 42 16 43 19 44 17 46 28 48 25 50 33 52
REMARK H PARENT 43 17 41 19 39 21 37 23 35 25 19 45 17 47 28 49 25 51 33 53
REMARK Flexibility Score: inf
ROOT
ATOM      1  C   UNL     1     140.539 146.570 125.793  1.00  0.00     0.180 C 
ATOM      2  C   UNL     1     140.844 146.784 124.287  1.00  0.00     0.177 C 
ATOM      3  C   UNL     1     139.642 147.436 123.557  1.00  0.00     0.180 C 
ATOM      4  C   UNL     1     138.755 148.240 124.541  1.00  0.00     0.214 C 
ATOM      5  C   UNL     1     138.308 147.348 125.723  1.00  0.00     0.339 C 
ATOM      6  O   UNL     1     139.174 146.248 125.999  1.00  0.00    -0.332 OA
ENDROOT
BRANCH   1   7
ATOM      7  C   UNL     1     141.402 145.454 126.407  1.00  0.00     0.198 C 
BRANCH   7   8
ATOM      8  O   UNL     1     142.179 144.847 125.395  1.00  0.00    -0.347 OA
BRANCH   8   9
ATOM      9  C   UNL     1     142.453 143.476 125.643  1.00  0.00     0.281 C 
ATOM     10  C   UNL     1     140.411 140.434 125.759  1.00  0.00     0.041 C 
ATOM     11  C   UNL     1     141.565 141.280 125.218  1.00  0.00     0.150 C 
ATOM     12  C   UNL     1     142.922 140.780 125.773  1.00  0.00     0.174 C 
ATOM     13  O   UNL     1     141.288 142.646 125.519  1.00  0.00    -0.344 OA
ATOM     14  C   UNL     1     144.098 141.603 125.192  1.00  0.00     0.179 C 
ATOM     15  C   UNL     1     143.660 143.024 124.794  1.00  0.00     0.202 C 
BRANCH  12  16
ATOM     16  O   UNL     1     143.113 139.407 125.521  1.00  0.00    -0.388 OA
ATOM     17  H   UNL     1     144.088 139.261 125.417  1.00  0.00     0.211 HD
ENDBRANCH  12  16
BRANCH  14  18
ATOM     18  O   UNL     1     145.125 141.683 126.148  1.00  0.00    -0.387 OA
ATOM     19  H   UNL     1     144.806 142.320 126.841  1.00  0.00     0.211 HD
ENDBRANCH  14  18
BRANCH  15  20
ATOM     20  O   UNL     1     143.312 143.053 123.435  1.00  0.00    -0.385 OA
ATOM     21  H   UNL     1     143.348 142.125 123.091  1.00  0.00     0.211 HD
ENDBRANCH  15  20
ENDBRANCH   8   9
ENDBRANCH   7   8
ENDBRANCH   1   7
BRANCH   2  22
ATOM     22  O   UNL     1     141.969 147.617 124.151  1.00  0.00    -0.387 OA
ATOM     23  H   UNL     1     142.735 147.044 123.897  1.00  0.00     0.211 HD
ENDBRANCH   2  22
BRANCH   3  24
ATOM     24  O   UNL     1     138.883 146.467 122.873  1.00  0.00    -0.387 OA
ATOM     25  H   UNL     1     137.929 146.596 123.112  1.00  0.00     0.211 HD
ENDBRANCH   3  24
BRANCH   5  26
ATOM     26  O   UNL     1     138.031 148.116 126.903  1.00  0.00    -0.454 OA
BRANCH  26  27
ATOM     27  C   UNL     1     137.329 147.616 128.006  1.00  0.00     0.214 A 
ATOM     28  C   UNL     1     137.998 147.159 129.164  1.00  0.00     0.180 A 
ATOM     29  C   UNL     1     135.934 147.468 127.928  1.00  0.00     0.239 A 
ATOM     30  O   UNL     1     137.315 146.444 130.058  1.00  0.00    -0.452 OA
ATOM     31  C   UNL     1     135.252 146.721 128.902  1.00  0.00     0.111 A 
ATOM     32  O   UNL     1     135.315 147.986 126.960  1.00  0.00    -0.285 OA
ATOM     33  C   UNL     1     136.015 146.193 129.968  1.00  0.00     0.146 A 
ATOM     34  C   UNL     1     133.865 146.450 128.846  1.00  0.00     0.134 A 
ATOM     35  C   UNL     1     135.409 145.382 130.932  1.00  0.00     0.094 A 
ATOM     36  C   UNL     1     133.273 145.628 129.816  1.00  0.00     0.093 A 
ATOM     37  C   UNL     1     134.043 145.088 130.850  1.00  0.00     0.123 A 
BRANCH  28  38
ATOM     38  C   UNL     1     139.444 147.409 129.440  1.00  0.00     0.025 A 
ATOM     39  C   UNL     1     140.269 146.318 129.789  1.00  0.00     0.062 A 
ATOM     40  C   UNL     1     139.996 148.702 129.488  1.00  0.00     0.016 A 
ATOM     41  C   UNL     1     141.578 146.512 130.245  1.00  0.00     0.158 A 
ATOM     42  C   UNL     1     141.321 148.900 129.892  1.00  0.00     0.051 A 
ATOM     43  C   UNL     1     142.116 147.818 130.293  1.00  0.00     0.157 A 
BRANCH  41  44
ATOM     44  O   UNL     1     142.294 145.392 130.657  1.00  0.00    -0.504 OA
ATOM     45  H   UNL     1     142.160 144.924 131.541  1.00  0.00     0.293 HD
ENDBRANCH  41  44
BRANCH  43  46
ATOM     46  O   UNL     1     143.411 148.082 130.743  1.00  0.00    -0.504 OA
ATOM     47  H   UNL     1     144.093 148.609 130.220  1.00  0.00     0.293 HD
ENDBRANCH  43  46
ENDBRANCH  28  38
BRANCH  34  48
ATOM     48  O   UNL     1     133.072 146.969 127.820  1.00  0.00    -0.507 OA
ATOM     49  H   UNL     1     132.630 146.373 127.133  1.00  0.00     0.293 HD
ENDBRANCH  34  48
BRANCH  37  50
ATOM     50  O   UNL     1     133.447 144.238 131.775  1.00  0.00    -0.508 OA
ATOM     51  H   UNL     1     133.933 143.421 132.143  1.00  0.00     0.293 HD
ENDBRANCH  37  50
ENDBRANCH  26  27
ENDBRANCH   5  26
BRANCH   4  52
ATOM     52  O   UNL     1     137.620 148.733 123.873  1.00  0.00    -0.384 OA
ATOM     53  H   UNL     1     137.045 149.161 124.560  1.00  0.00     0.211 HD
ENDBRANCH   4  52
TORSDOF 16
ENDMDL
MODEL 5
REMARK VINA RESULT:    -7.689      5.907      8.936
REMARK INTER + INTRA:         -14.976
REMARK INTER:                 -13.408
REMARK INTRA:                  -1.567
REMARK UNBOUND:                -2.343
REMARK SMILES C[C@H]1O[C@H](OC[C@@H]2O[C@@H](Oc3c(-c4ccc(O)c(O)c4)oc4cc(O)cc(O)c4c3=O)[C@H](O)[C@H](O)[C@H]2O)[C@H](O)[C@@H](O)[C@@H]1O
REMARK SMILES IDX 7 1 36 2 34 3 32 4 9 5 8 6 6 7 5 8 4 9 1 10 2 11 42 12 3 13
REMARK SMILES IDX 40 14 38 15 43 16 41 18 39 20 37 22 35 24 10 26 11 27 12 28
REMARK SMILES IDX 30 29 21 30 29 31 31 32 22 33 27 34 23 35 26 36 24 37 13 38
REMARK SMILES IDX 20 39 14 40 18 41 15 42 16 43 19 44 17 46 28 48 25 50 33 52
REMARK H PARENT 43 17 41 19 39 21 37 23 35 25 19 45 17 47 28 49 25 51 33 53
REMARK Flexibility Score: inf
ROOT
ATOM      1  C   UNL     1     141.704 144.073 124.848  1.00  0.00     0.180 C 
ATOM      2  C   UNL     1     142.987 144.510 124.093  1.00  0.00     0.177 C 
ATOM      3  C   UNL     1     143.344 143.510 122.965  1.00  0.00     0.180 C 
ATOM      4  C   UNL     1     142.091 142.737 122.481  1.00  0.00     0.214 C 
ATOM      5  C   UNL     1     141.384 142.048 123.673  1.00  0.00     0.339 C 
ATOM      6  O   UNL     1     141.620 142.661 124.939  1.00  0.00    -0.332 OA
ENDROOT
BRANCH   1   7
ATOM      7  C   UNL     1     141.640 144.658 126.270  1.00  0.00     0.198 C 
BRANCH   7   8
ATOM      8  O   UNL     1     141.536 146.065 126.198  1.00  0.00    -0.347 OA
BRANCH   8   9
ATOM      9  C   UNL     1     140.267 146.513 125.743  1.00  0.00     0.281 C 
ATOM     10  C   UNL     1     137.071 147.255 127.378  1.00  0.00     0.041 C 
ATOM     11  C   UNL     1     138.283 147.629 126.521  1.00  0.00     0.150 C 
ATOM     12  C   UNL     1     137.899 147.686 125.021  1.00  0.00     0.174 C 
ATOM     13  O   UNL     1     139.330 146.707 126.813  1.00  0.00    -0.344 OA
ATOM     14  C   UNL     1     139.109 148.110 124.152  1.00  0.00     0.179 C 
ATOM     15  C   UNL     1     140.447 147.732 124.814  1.00  0.00     0.202 C 
BRANCH  12  16
ATOM     16  O   UNL     1     136.808 148.548 124.795  1.00  0.00    -0.388 OA
ATOM     17  H   UNL     1     136.653 148.573 123.816  1.00  0.00     0.211 HD
ENDBRANCH  12  16
BRANCH  14  18
ATOM     18  O   UNL     1     139.019 147.487 122.896  1.00  0.00    -0.387 OA
ATOM     19  H   UNL     1     138.673 148.178 122.271  1.00  0.00     0.211 HD
ENDBRANCH  14  18
BRANCH  15  20
ATOM     20  O   UNL     1     140.935 148.818 125.558  1.00  0.00    -0.385 OA
ATOM     21  H   UNL     1     141.920 148.834 125.462  1.00  0.00     0.211 HD
ENDBRANCH  15  20
ENDBRANCH   8   9
ENDBRANCH   7   8
ENDBRANCH   1   7
BRANCH   2  22
ATOM     22  O   UNL     1     142.788 145.784 123.531  1.00  0.00    -0.387 OA
ATOM     23  H   UNL     1     142.960 145.710 122.558  1.00  0.00     0.211 HD
ENDBRANCH   2  22
BRANCH   3  24
ATOM     24  O   UNL     1     144.353 142.621 123.381  1.00  0.00    -0.387 OA
ATOM     25  H   UNL     1     144.072 142.216 124.242  1.00  0.00     0.211 HD
ENDBRANCH   3  24
BRANCH   5  26
ATOM     26  O   UNL     1     139.983 141.852 123.427  1.00  0.00    -0.454 OA
BRANCH  26  27
ATOM     27  C   UNL     1     139.417 140.609 123.122  1.00  0.00     0.214 A 
ATOM     28  C   UNL     1     138.712 140.393 121.916  1.00  0.00     0.180 A 
ATOM     29  C   UNL     1     139.458 139.578 124.075  1.00  0.00     0.239 A 
ATOM     30  O   UNL     1     137.965 139.296 121.800  1.00  0.00    -0.452 OA
ATOM     31  C   UNL     1     138.667 138.431 123.903  1.00  0.00     0.111 A 
ATOM     32  O   UNL     1     140.188 139.713 125.094  1.00  0.00    -0.285 OA
ATOM     33  C   UNL     1     137.895 138.345 122.723  1.00  0.00     0.146 A 
ATOM     34  C   UNL     1     138.584 137.392 124.859  1.00  0.00     0.134 A 
ATOM     35  C   UNL     1     137.033 137.263 122.524  1.00  0.00     0.094 A 
ATOM     36  C   UNL     1     137.709 136.317 124.649  1.00  0.00     0.093 A 
ATOM     37  C   UNL     1     136.928 136.257 123.491  1.00  0.00     0.123 A 
BRANCH  28  38
ATOM     38  C   UNL     1     138.735 141.339 120.761  1.00  0.00     0.025 A 
ATOM     39  C   UNL     1     138.427 142.698 120.988  1.00  0.00     0.062 A 
ATOM     40  C   UNL     1     138.927 140.914 119.434  1.00  0.00     0.016 A 
ATOM     41  C   UNL     1     138.242 143.590 119.926  1.00  0.00     0.158 A 
ATOM     42  C   UNL     1     138.796 141.812 118.368  1.00  0.00     0.051 A 
ATOM     43  C   UNL     1     138.435 143.146 118.598  1.00  0.00     0.157 A 
BRANCH  41  44
ATOM     44  O   UNL     1     137.852 144.890 120.231  1.00  0.00    -0.504 OA
ATOM     45  H   UNL     1     136.894 145.212 120.232  1.00  0.00     0.293 HD
ENDBRANCH  41  44
BRANCH  43  46
ATOM     46  O   UNL     1     138.260 143.981 117.493  1.00  0.00    -0.504 OA
ATOM     47  H   UNL     1     138.557 144.944 117.462  1.00  0.00     0.293 HD
ENDBRANCH  43  46
ENDBRANCH  28  38
BRANCH  34  48
ATOM     48  O   UNL     1     139.346 137.429 126.030  1.00  0.00    -0.507 OA
ATOM     49  H   UNL     1     139.603 136.586 126.525  1.00  0.00     0.293 HD
ENDBRANCH  34  48
BRANCH  37  50
ATOM     50  O   UNL     1     136.033 135.207 123.323  1.00  0.00    -0.508 OA
ATOM     51  H   UNL     1     135.325 134.988 124.023  1.00  0.00     0.293 HD
ENDBRANCH  37  50
ENDBRANCH  26  27
ENDBRANCH   5  26
BRANCH   4  52
ATOM     52  O   UNL     1     142.460 141.767 121.533  1.00  0.00    -0.384 OA
ATOM     53  H   UNL     1     141.659 141.203 121.371  1.00  0.00     0.211 HD
ENDBRANCH   4  52
TORSDOF 16
ENDMDL
MODEL 6
REMARK VINA RESULT:    -7.685      5.037     10.304
REMARK INTER + INTRA:         -14.970
REMARK INTER:                 -12.107
REMARK INTRA:                  -2.863
REMARK UNBOUND:                -2.343
REMARK SMILES C[C@H]1O[C@H](OC[C@@H]2O[C@@H](Oc3c(-c4ccc(O)c(O)c4)oc4cc(O)cc(O)c4c3=O)[C@H](O)[C@H](O)[C@H]2O)[C@H](O)[C@@H](O)[C@@H]1O
REMARK SMILES IDX 7 1 36 2 34 3 32 4 9 5 8 6 6 7 5 8 4 9 1 10 2 11 42 12 3 13
REMARK SMILES IDX 40 14 38 15 43 16 41 18 39 20 37 22 35 24 10 26 11 27 12 28
REMARK SMILES IDX 30 29 21 30 29 31 31 32 22 33 27 34 23 35 26 36 24 37 13 38
REMARK SMILES IDX 20 39 14 40 18 41 15 42 16 43 19 44 17 46 28 48 25 50 33 52
REMARK H PARENT 43 17 41 19 39 21 37 23 35 25 19 45 17 47 28 49 25 51 33 53
REMARK Flexibility Score: inf
ROOT
ATOM      1  C   UNL     1     139.857 138.536 126.846  1.00  0.00     0.180 C 
ATOM      2  C   UNL     1     140.715 138.494 128.137  1.00  0.00     0.177 C 
ATOM      3  C   UNL     1     141.839 139.561 128.101  1.00  0.00     0.180 C 
ATOM      4  C   UNL     1     141.468 140.737 127.163  1.00  0.00     0.214 C 
ATOM      5  C   UNL     1     141.111 140.214 125.751  1.00  0.00     0.339 C 
ATOM      6  O   UNL     1     140.648 138.865 125.716  1.00  0.00    -0.332 OA
ENDROOT
BRANCH   1   7
ATOM      7  C   UNL     1     139.151 137.196 126.574  1.00  0.00     0.198 C 
BRANCH   7   8
ATOM      8  O   UNL     1     138.084 137.399 125.671  1.00  0.00    -0.347 OA
BRANCH   8   9
ATOM      9  C   UNL     1     137.044 136.441 125.804  1.00  0.00     0.281 C 
ATOM     10  C   UNL     1     133.735 136.018 124.284  1.00  0.00     0.041 C 
ATOM     11  C   UNL     1     135.154 135.548 124.614  1.00  0.00     0.150 C 
ATOM     12  C   UNL     1     135.132 134.480 125.736  1.00  0.00     0.174 C 
ATOM     13  O   UNL     1     135.938 136.697 124.927  1.00  0.00    -0.344 OA
ATOM     14  C   UNL     1     136.560 133.966 126.042  1.00  0.00     0.179 C 
ATOM     15  C   UNL     1     137.632 135.018 125.703  1.00  0.00     0.202 C 
BRANCH  12  16
ATOM     16  O   UNL     1     134.281 133.404 125.416  1.00  0.00    -0.388 OA
ATOM     17  H   UNL     1     134.468 133.153 124.476  1.00  0.00     0.211 HD
ENDBRANCH  12  16
BRANCH  14  18
ATOM     18  O   UNL     1     136.651 133.631 127.405  1.00  0.00    -0.387 OA
ATOM     19  H   UNL     1     137.514 133.150 127.513  1.00  0.00     0.211 HD
ENDBRANCH  14  18
BRANCH  15  20
ATOM     20  O   UNL     1     138.116 134.804 124.403  1.00  0.00    -0.385 OA
ATOM     21  H   UNL     1     138.918 134.227 124.468  1.00  0.00     0.211 HD
ENDBRANCH  15  20
ENDBRANCH   8   9
ENDBRANCH   7   8
ENDBRANCH   1   7
BRANCH   2  22
ATOM     22  O   UNL     1     139.893 138.732 129.253  1.00  0.00    -0.387 OA
ATOM     23  H   UNL     1     139.530 137.859 129.548  1.00  0.00     0.211 HD
ENDBRANCH   2  22
BRANCH   3  24
ATOM     24  O   UNL     1     143.067 138.985 127.724  1.00  0.00    -0.387 OA
ATOM     25  H   UNL     1     142.890 138.315 127.015  1.00  0.00     0.211 HD
ENDBRANCH   3  24
BRANCH   5  26
ATOM     26  O   UNL     1     140.221 141.101 125.057  1.00  0.00    -0.454 OA
BRANCH  26  27
ATOM     27  C   UNL     1     140.522 141.689 123.822  1.00  0.00     0.214 A 
ATOM     28  C   UNL     1     140.053 141.139 122.608  1.00  0.00     0.180 A 
ATOM     29  C   UNL     1     141.391 142.791 123.774  1.00  0.00     0.239 A 
ATOM     30  O   UNL     1     140.589 141.564 121.464  1.00  0.00    -0.452 OA
ATOM     31  C   UNL     1     141.918 143.216 122.544  1.00  0.00     0.111 A 
ATOM     32  O   UNL     1     141.711 143.367 124.849  1.00  0.00    -0.285 OA
ATOM     33  C   UNL     1     141.491 142.534 121.383  1.00  0.00     0.146 A 
ATOM     34  C   UNL     1     142.867 144.258 122.422  1.00  0.00     0.134 A 
ATOM     35  C   UNL     1     142.030 142.861 120.137  1.00  0.00     0.094 A 
ATOM     36  C   UNL     1     143.405 144.570 121.166  1.00  0.00     0.093 A 
ATOM     37  C   UNL     1     142.997 143.868 120.028  1.00  0.00     0.123 A 
BRANCH  28  38
ATOM     38  C   UNL     1     139.000 140.082 122.526  1.00  0.00     0.025 A 
ATOM     39  C   UNL     1     139.398 138.730 122.454  1.00  0.00     0.062 A 
ATOM     40  C   UNL     1     137.632 140.381 122.394  1.00  0.00     0.016 A 
ATOM     41  C   UNL     1     138.475 137.713 122.183  1.00  0.00     0.158 A 
ATOM     42  C   UNL     1     136.695 139.365 122.175  1.00  0.00     0.051 A 
ATOM     43  C   UNL     1     137.104 138.031 122.047  1.00  0.00     0.157 A 
BRANCH  41  44
ATOM     44  O   UNL     1     138.961 136.418 122.037  1.00  0.00    -0.504 OA
ATOM     45  H   UNL     1     139.174 135.986 121.149  1.00  0.00     0.293 HD
ENDBRANCH  41  44
BRANCH  43  46
ATOM     46  O   UNL     1     136.133 137.066 121.770  1.00  0.00    -0.504 OA
ATOM     47  H   UNL     1     135.747 136.903 120.853  1.00  0.00     0.293 HD
ENDBRANCH  43  46
ENDBRANCH  28  38
BRANCH  34  48
ATOM     48  O   UNL     1     143.301 144.971 123.543  1.00  0.00    -0.507 OA
ATOM     49  H   UNL     1     142.654 145.456 124.149  1.00  0.00     0.293 HD
ENDBRANCH  34  48
BRANCH  37  50
ATOM     50  O   UNL     1     143.576 144.161 118.798  1.00  0.00    -0.508 OA
ATOM     51  H   UNL     1     143.439 143.562 117.985  1.00  0.00     0.293 HD
ENDBRANCH  37  50
ENDBRANCH  26  27
ENDBRANCH   5  26
BRANCH   4  52
ATOM     52  O   UNL     1     142.544 141.636 127.069  1.00  0.00    -0.384 OA
ATOM     53  H   UNL     1     142.235 142.398 126.512  1.00  0.00     0.211 HD
ENDBRANCH   4  52
TORSDOF 16
ENDMDL
MODEL 7
REMARK VINA RESULT:    -7.675      9.248     11.555
REMARK INTER + INTRA:         -14.953
REMARK INTER:                 -12.252
REMARK INTRA:                  -2.701
REMARK UNBOUND:                -2.343
REMARK SMILES C[C@H]1O[C@H](OC[C@@H]2O[C@@H](Oc3c(-c4ccc(O)c(O)c4)oc4cc(O)cc(O)c4c3=O)[C@H](O)[C@H](O)[C@H]2O)[C@H](O)[C@@H](O)[C@@H]1O
REMARK SMILES IDX 7 1 36 2 34 3 32 4 9 5 8 6 6 7 5 8 4 9 1 10 2 11 42 12 3 13
REMARK SMILES IDX 40 14 38 15 43 16 41 18 39 20 37 22 35 24 10 26 11 27 12 28
REMARK SMILES IDX 30 29 21 30 29 31 31 32 22 33 27 34 23 35 26 36 24 37 13 38
REMARK SMILES IDX 20 39 14 40 18 41 15 42 16 43 19 44 17 46 28 48 25 50 33 52
REMARK H PARENT 43 17 41 19 39 21 37 23 35 25 19 45 17 47 28 49 25 51 33 53
REMARK Flexibility Score: inf
ROOT
ATOM      1  C   UNL     1     133.415 146.080 129.420  1.00  0.00     0.180 C 
ATOM      2  C   UNL     1     133.540 145.360 130.789  1.00  0.00     0.177 C 
ATOM      3  C   UNL     1     135.013 145.311 131.266  1.00  0.00     0.180 C 
ATOM      4  C   UNL     1     135.847 146.457 130.638  1.00  0.00     0.214 C 
ATOM      5  C   UNL     1     135.730 146.431 129.095  1.00  0.00     0.339 C 
ATOM      6  O   UNL     1     134.541 145.818 128.599  1.00  0.00    -0.332 OA
ENDROOT
BRANCH   1   7
ATOM      7  C   UNL     1     132.147 145.660 128.657  1.00  0.00     0.198 C 
BRANCH   7   8
ATOM      8  O   UNL     1     131.328 144.873 129.498  1.00  0.00    -0.347 OA
BRANCH   8   9
ATOM      9  C   UNL     1     129.962 145.261 129.475  1.00  0.00     0.281 C 
ATOM     10  C   UNL     1     126.809 143.594 130.322  1.00  0.00     0.041 C 
ATOM     11  C   UNL     1     127.841 144.714 130.472  1.00  0.00     0.150 C 
ATOM     12  C   UNL     1     127.346 146.012 129.788  1.00  0.00     0.174 C 
ATOM     13  O   UNL     1     129.086 144.235 129.967  1.00  0.00    -0.344 OA
ATOM     14  C   UNL     1     128.366 147.164 129.976  1.00  0.00     0.179 C 
ATOM     15  C   UNL     1     129.798 146.632 130.163  1.00  0.00     0.202 C 
BRANCH  12  16
ATOM     16  O   UNL     1     126.077 146.400 130.261  1.00  0.00    -0.388 OA
ATOM     17  H   UNL     1     125.597 146.819 129.502  1.00  0.00     0.211 HD
ENDBRANCH  12  16
BRANCH  14  18
ATOM     18  O   UNL     1     128.325 148.007 128.852  1.00  0.00    -0.387 OA
ATOM     19  H   UNL     1     127.366 148.079 128.598  1.00  0.00     0.211 HD
ENDBRANCH  14  18
BRANCH  15  20
ATOM     20  O   UNL     1     130.085 146.506 131.531  1.00  0.00    -0.385 OA
ATOM     21  H   UNL     1     129.759 145.620 131.830  1.00  0.00     0.211 HD
ENDBRANCH  15  20
ENDBRANCH   8   9
ENDBRANCH   7   8
ENDBRANCH   1   7
BRANCH   2  22
ATOM     22  O   UNL     1     132.770 146.043 131.748  1.00  0.00    -0.387 OA
ATOM     23  H   UNL     1     132.036 145.439 132.026  1.00  0.00     0.211 HD
ENDBRANCH   2  22
BRANCH   3  24
ATOM     24  O   UNL     1     135.591 144.058 130.986  1.00  0.00    -0.387 OA
ATOM     25  H   UNL     1     135.258 143.408 131.657  1.00  0.00     0.211 HD
ENDBRANCH   3  24
BRANCH   5  26
ATOM     26  O   UNL     1     135.941 147.729 128.518  1.00  0.00    -0.454 OA
BRANCH  26  27
ATOM     27  C   UNL     1     136.786 147.961 127.426  1.00  0.00     0.214 A 
ATOM     28  C   UNL     1     136.301 147.946 126.099  1.00  0.00     0.180 A 
ATOM     29  C   UNL     1     138.166 148.114 127.640  1.00  0.00     0.239 A 
ATOM     30  O   UNL     1     137.179 147.895 125.097  1.00  0.00    -0.452 OA
ATOM     31  C   UNL     1     139.054 148.071 126.553  1.00  0.00     0.111 A 
ATOM     32  O   UNL     1     138.592 148.258 128.818  1.00  0.00    -0.285 OA
ATOM     33  C   UNL     1     138.495 147.932 125.263  1.00  0.00     0.146 A 
ATOM     34  C   UNL     1     140.460 148.127 126.694  1.00  0.00     0.134 A 
ATOM     35  C   UNL     1     139.327 147.812 124.146  1.00  0.00     0.094 A 
ATOM     36  C   UNL     1     141.282 147.998 125.565  1.00  0.00     0.093 A 
ATOM     37  C   UNL     1     140.718 147.831 124.297  1.00  0.00     0.123 A 
BRANCH  28  38
ATOM     38  C   UNL     1     134.850 147.959 125.745  1.00  0.00     0.025 A 
ATOM     39  C   UNL     1     134.273 146.794 125.198  1.00  0.00     0.062 A 
ATOM     40  C   UNL     1     134.061 149.121 125.817  1.00  0.00     0.016 A 
ATOM     41  C   UNL     1     132.976 146.803 124.669  1.00  0.00     0.158 A 
ATOM     42  C   UNL     1     132.746 149.125 125.340  1.00  0.00     0.051 A 
ATOM     43  C   UNL     1     132.198 147.980 124.745  1.00  0.00     0.157 A 
BRANCH  41  44
ATOM     44  O   UNL     1     132.514 145.638 124.065  1.00  0.00    -0.504 OA
ATOM     45  H   UNL     1     132.348 144.770 124.554  1.00  0.00     0.293 HD
ENDBRANCH  41  44
BRANCH  43  46
ATOM     46  O   UNL     1     130.902 148.059 124.232  1.00  0.00    -0.504 OA
ATOM     47  H   UNL     1     130.396 147.272 123.856  1.00  0.00     0.293 HD
ENDBRANCH  43  46
ENDBRANCH  28  38
BRANCH  34  48
ATOM     48  O   UNL     1     141.052 148.284 127.950  1.00  0.00    -0.507 OA
ATOM     49  H   UNL     1     140.765 147.733 128.747  1.00  0.00     0.293 HD
ENDBRANCH  34  48
BRANCH  37  50
ATOM     50  O   UNL     1     141.550 147.658 123.196  1.00  0.00    -0.508 OA
ATOM     51  H   UNL     1     141.801 148.436 122.587  1.00  0.00     0.293 HD
ENDBRANCH  37  50
ENDBRANCH  26  27
ENDBRANCH   5  26
BRANCH   4  52
ATOM     52  O   UNL     1     137.198 146.328 131.006  1.00  0.00    -0.384 OA
ATOM     53  H   UNL     1     137.619 145.720 130.344  1.00  0.00     0.211 HD
ENDBRANCH   4  52
TORSDOF 16
ENDMDL
MODEL 8
REMARK VINA RESULT:    -7.644      4.438     10.421
REMARK INTER + INTRA:         -14.902
REMARK INTER:                 -12.879
REMARK INTRA:                  -2.024
REMARK UNBOUND:                -2.343
REMARK SMILES C[C@H]1O[C@H](OC[C@@H]2O[C@@H](Oc3c(-c4ccc(O)c(O)c4)oc4cc(O)cc(O)c4c3=O)[C@H](O)[C@H](O)[C@H]2O)[C@H](O)[C@@H](O)[C@@H]1O
REMARK SMILES IDX 7 1 36 2 34 3 32 4 9 5 8 6 6 7 5 8 4 9 1 10 2 11 42 12 3 13
REMARK SMILES IDX 40 14 38 15 43 16 41 18 39 20 37 22 35 24 10 26 11 27 12 28
REMARK SMILES IDX 30 29 21 30 29 31 31 32 22 33 27 34 23 35 26 36 24 37 13 38
REMARK SMILES IDX 20 39 14 40 18 41 15 42 16 43 19 44 17 46 28 48 25 50 33 52
REMARK H PARENT 43 17 41 19 39 21 37 23 35 25 19 45 17 47 28 49 25 51 33 53
REMARK Flexibility Score: inf
ROOT
ATOM      1  C   UNL     1     137.397 138.654 123.783  1.00  0.00     0.180 C 
ATOM      2  C   UNL     1     136.207 138.196 122.900  1.00  0.00     0.177 C 
ATOM      3  C   UNL     1     135.728 139.336 121.966  1.00  0.00     0.180 C 
ATOM      4  C   UNL     1     136.862 140.358 121.697  1.00  0.00     0.214 C 
ATOM      5  C   UNL     1     137.437 140.894 123.030  1.00  0.00     0.339 C 
ATOM      6  O   UNL     1     137.270 140.020 124.144  1.00  0.00    -0.332 OA
ENDROOT
BRANCH   1   7
ATOM      7  C   UNL     1     137.521 137.819 125.069  1.00  0.00     0.198 C 
BRANCH   7   8
ATOM      8  O   UNL     1     137.599 136.448 124.737  1.00  0.00    -0.347 OA
BRANCH   8   9
ATOM      9  C   UNL     1     136.694 135.638 125.473  1.00  0.00     0.281 C 
ATOM     10  C   UNL     1     133.597 136.285 127.324  1.00  0.00     0.041 C 
ATOM     11  C   UNL     1     134.410 135.590 126.230  1.00  0.00     0.150 C 
ATOM     12  C   UNL     1     134.721 134.124 126.624  1.00  0.00     0.174 C 
ATOM     13  O   UNL     1     135.572 136.378 125.978  1.00  0.00    -0.344 OA
ATOM     14  C   UNL     1     135.505 133.401 125.500  1.00  0.00     0.179 C 
ATOM     15  C   UNL     1     136.323 134.388 124.647  1.00  0.00     0.202 C 
BRANCH  12  16
ATOM     16  O   UNL     1     133.550 133.410 126.941  1.00  0.00    -0.388 OA
ATOM     17  H   UNL     1     133.664 133.052 127.859  1.00  0.00     0.211 HD
ENDBRANCH  12  16
BRANCH  14  18
ATOM     18  O   UNL     1     136.370 132.453 126.074  1.00  0.00    -0.387 OA
ATOM     19  H   UNL     1     136.293 131.636 125.512  1.00  0.00     0.211 HD
ENDBRANCH  14  18
BRANCH  15  20
ATOM     20  O   UNL     1     135.581 134.776 123.521  1.00  0.00    -0.385 OA
ATOM     21  H   UNL     1     135.453 135.757 123.565  1.00  0.00     0.211 HD
ENDBRANCH  15  20
ENDBRANCH   8   9
ENDBRANCH   7   8
ENDBRANCH   1   7
BRANCH   2  22
ATOM     22  O   UNL     1     136.603 137.098 122.115  1.00  0.00    -0.387 OA
ATOM     23  H   UNL     1     135.992 136.346 122.325  1.00  0.00     0.211 HD
ENDBRANCH   2  22
BRANCH   3  24
ATOM     24  O   UNL     1     134.591 139.975 122.496  1.00  0.00    -0.387 OA
ATOM     25  H   UNL     1     134.702 140.954 122.376  1.00  0.00     0.211 HD
ENDBRANCH   3  24
BRANCH   5  26
ATOM     26  O   UNL     1     138.798 141.330 122.892  1.00  0.00    -0.454 OA
BRANCH  26  27
ATOM     27  C   UNL     1     139.205 142.659 123.053  1.00  0.00     0.214 A 
ATOM     28  C   UNL     1     139.558 143.464 121.946  1.00  0.00     0.180 A 
ATOM     29  C   UNL     1     139.366 143.182 124.347  1.00  0.00     0.239 A 
ATOM     30  O   UNL     1     140.196 144.613 122.167  1.00  0.00    -0.452 OA
ATOM     31  C   UNL     1     140.029 144.405 124.532  1.00  0.00     0.111 A 
ATOM     32  O   UNL     1     138.935 142.524 125.332  1.00  0.00    -0.285 OA
ATOM     33  C   UNL     1     140.460 145.093 123.376  1.00  0.00     0.146 A 
ATOM     34  C   UNL     1     140.311 144.953 125.806  1.00  0.00     0.134 A 
ATOM     35  C   UNL     1     141.188 146.280 123.494  1.00  0.00     0.094 A 
ATOM     36  C   UNL     1     141.048 146.141 125.909  1.00  0.00     0.093 A 
ATOM     37  C   UNL     1     141.495 146.797 124.758  1.00  0.00     0.123 A 
BRANCH  28  38
ATOM     38  C   UNL     1     139.278 143.092 120.527  1.00  0.00     0.025 A 
ATOM     39  C   UNL     1     138.486 143.955 119.740  1.00  0.00     0.062 A 
ATOM     40  C   UNL     1     139.666 141.858 119.974  1.00  0.00     0.016 A 
ATOM     41  C   UNL     1     138.030 143.573 118.473  1.00  0.00     0.158 A 
ATOM     42  C   UNL     1     139.259 141.490 118.687  1.00  0.00     0.051 A 
ATOM     43  C   UNL     1     138.425 142.327 117.934  1.00  0.00     0.157 A 
BRANCH  41  44
ATOM     44  O   UNL     1     137.178 144.443 117.800  1.00  0.00    -0.504 OA
ATOM     45  H   UNL     1     137.308 144.742 116.844  1.00  0.00     0.293 HD
ENDBRANCH  41  44
BRANCH  43  46
ATOM     46  O   UNL     1     138.001 141.882 116.680  1.00  0.00    -0.504 OA
ATOM     47  H   UNL     1     137.229 141.249 116.539  1.00  0.00     0.293 HD
ENDBRANCH  43  46
ENDBRANCH  28  38
BRANCH  34  48
ATOM     48  O   UNL     1     139.885 144.315 126.973  1.00  0.00    -0.507 OA
ATOM     49  H   UNL     1     139.297 143.492 126.948  1.00  0.00     0.293 HD
ENDBRANCH  34  48
BRANCH  37  50
ATOM     50  O   UNL     1     142.264 147.948 124.882  1.00  0.00    -0.508 OA
ATOM     51  H   UNL     1     143.200 148.013 124.483  1.00  0.00     0.293 HD
ENDBRANCH  37  50
ENDBRANCH  26  27
ENDBRANCH   5  26
BRANCH   4  52
ATOM     52  O   UNL     1     136.372 141.432 120.934  1.00  0.00    -0.384 OA
ATOM     53  H   UNL     1     135.745 141.048 120.267  1.00  0.00     0.211 HD
ENDBRANCH   4  52
TORSDOF 16
ENDMDL
MODEL 9
REMARK VINA RESULT:    -7.611      5.401     10.795
REMARK INTER + INTRA:         -14.847
REMARK INTER:                 -11.641
REMARK INTRA:                  -3.206
REMARK UNBOUND:                -2.343
REMARK SMILES C[C@H]1O[C@H](OC[C@@H]2O[C@@H](Oc3c(-c4ccc(O)c(O)c4)oc4cc(O)cc(O)c4c3=O)[C@H](O)[C@H](O)[C@H]2O)[C@H](O)[C@@H](O)[C@@H]1O
REMARK SMILES IDX 7 1 36 2 34 3 32 4 9 5 8 6 6 7 5 8 4 9 1 10 2 11 42 12 3 13
REMARK SMILES IDX 40 14 38 15 43 16 41 18 39 20 37 22 35 24 10 26 11 27 12 28
REMARK SMILES IDX 30 29 21 30 29 31 31 32 22 33 27 34 23 35 26 36 24 37 13 38
REMARK SMILES IDX 20 39 14 40 18 41 15 42 16 43 19 44 17 46 28 48 25 50 33 52
REMARK H PARENT 43 17 41 19 39 21 37 23 35 25 19 45 17 47 28 49 25 51 33 53
REMARK Flexibility Score: inf
ROOT
ATOM      1  C   UNL     1     141.424 142.166 123.875  1.00  0.00     0.180 C 
ATOM      2  C   UNL     1     142.957 142.068 124.087  1.00  0.00     0.177 C 
ATOM      3  C   UNL     1     143.730 142.670 122.886  1.00  0.00     0.180 C 
ATOM      4  C   UNL     1     142.871 143.715 122.130  1.00  0.00     0.214 C 
ATOM      5  C   UNL     1     141.516 143.100 121.706  1.00  0.00     0.339 C 
ATOM      6  O   UNL     1     141.084 142.003 122.509  1.00  0.00    -0.332 OA
ENDROOT
BRANCH   1   7
ATOM      7  C   UNL     1     140.656 141.117 124.698  1.00  0.00     0.198 C 
BRANCH   7   8
ATOM      8  O   UNL     1     139.341 140.992 124.195  1.00  0.00    -0.347 OA
BRANCH   8   9
ATOM      9  C   UNL     1     138.929 139.644 124.025  1.00  0.00     0.281 C 
ATOM     10  C   UNL     1     135.700 137.914 124.143  1.00  0.00     0.041 C 
ATOM     11  C   UNL     1     136.997 138.332 123.447  1.00  0.00     0.150 C 
ATOM     12  C   UNL     1     137.995 137.149 123.388  1.00  0.00     0.174 C 
ATOM     13  O   UNL     1     137.507 139.482 124.119  1.00  0.00    -0.344 OA
ATOM     14  C   UNL     1     139.292 137.552 122.643  1.00  0.00     0.179 C 
ATOM     15  C   UNL     1     139.561 139.064 122.742  1.00  0.00     0.202 C 
BRANCH  12  16
ATOM     16  O   UNL     1     137.420 136.011 122.789  1.00  0.00    -0.388 OA
ATOM     17  H   UNL     1     137.541 135.255 123.418  1.00  0.00     0.211 HD
ENDBRANCH  12  16
BRANCH  14  18
ATOM     18  O   UNL     1     140.379 136.848 123.190  1.00  0.00    -0.387 OA
ATOM     19  H   UNL     1     140.427 135.988 122.694  1.00  0.00     0.211 HD
ENDBRANCH  14  18
BRANCH  15  20
ATOM     20  O   UNL     1     139.026 139.719 121.622  1.00  0.00    -0.385 OA
ATOM     21  H   UNL     1     138.234 139.205 121.319  1.00  0.00     0.211 HD
ENDBRANCH  15  20
ENDBRANCH   8   9
ENDBRANCH   7   8
ENDBRANCH   1   7
BRANCH   2  22
ATOM     22  O   UNL     1     143.314 142.764 125.256  1.00  0.00    -0.387 OA
ATOM     23  H   UNL     1     142.480 142.959 125.754  1.00  0.00     0.211 HD
ENDBRANCH   2  22
BRANCH   3  24
ATOM     24  O   UNL     1     144.171 141.657 122.013  1.00  0.00    -0.387 OA
ATOM     25  H   UNL     1     145.163 141.645 122.030  1.00  0.00     0.211 HD
ENDBRANCH   3  24
BRANCH   5  26
ATOM     26  O   UNL     1     140.492 144.097 121.569  1.00  0.00    -0.454 OA
BRANCH  26  27
ATOM     27  C   UNL     1     139.204 143.962 122.101  1.00  0.00     0.214 A 
ATOM     28  C   UNL     1     138.814 144.645 123.275  1.00  0.00     0.180 A 
ATOM     29  C   UNL     1     138.307 143.052 121.518  1.00  0.00     0.239 A 
ATOM     30  O   UNL     1     137.691 144.272 123.888  1.00  0.00    -0.452 OA
ATOM     31  C   UNL     1     137.126 142.702 122.191  1.00  0.00     0.111 A 
ATOM     32  O   UNL     1     138.593 142.536 120.404  1.00  0.00    -0.285 OA
ATOM     33  C   UNL     1     136.866 143.343 123.424  1.00  0.00     0.146 A 
ATOM     34  C   UNL     1     136.218 141.728 121.715  1.00  0.00     0.134 A 
ATOM     35  C   UNL     1     135.744 142.988 124.177  1.00  0.00     0.094 A 
ATOM     36  C   UNL     1     135.100 141.377 122.486  1.00  0.00     0.093 A 
ATOM     37  C   UNL     1     134.869 141.997 123.718  1.00  0.00     0.123 A 
BRANCH  28  38
ATOM     38  C   UNL     1     139.603 145.753 123.892  1.00  0.00     0.025 A 
ATOM     39  C   UNL     1     140.371 145.482 125.045  1.00  0.00     0.062 A 
ATOM     40  C   UNL     1     139.517 147.085 123.449  1.00  0.00     0.016 A 
ATOM     41  C   UNL     1     140.973 146.512 125.778  1.00  0.00     0.158 A 
ATOM     42  C   UNL     1     140.160 148.115 124.145  1.00  0.00     0.051 A 
ATOM     43  C   UNL     1     140.873 147.846 125.321  1.00  0.00     0.157 A 
BRANCH  41  44
ATOM     44  O   UNL     1     141.635 146.170 126.952  1.00  0.00    -0.504 OA
ATOM     45  H   UNL     1     141.591 145.260 127.387  1.00  0.00     0.293 HD
ENDBRANCH  41  44
BRANCH  43  46
ATOM     46  O   UNL     1     141.443 148.920 126.007  1.00  0.00    -0.504 OA
ATOM     47  H   UNL     1     141.397 149.877 125.693  1.00  0.00     0.293 HD
ENDBRANCH  43  46
ENDBRANCH  28  38
BRANCH  34  48
ATOM     48  O   UNL     1     136.427 141.086 120.492  1.00  0.00    -0.507 OA
ATOM     49  H   UNL     1     137.235 141.285 119.917  1.00  0.00     0.293 HD
ENDBRANCH  34  48
BRANCH  37  50
ATOM     50  O   UNL     1     133.781 141.603 124.489  1.00  0.00    -0.508 OA
ATOM     51  H   UNL     1     133.310 142.249 125.121  1.00  0.00     0.293 HD
ENDBRANCH  37  50
ENDBRANCH  26  27
ENDBRANCH   5  26
BRANCH   4  52
ATOM     52  O   UNL     1     143.556 144.168 120.989  1.00  0.00    -0.384 OA
ATOM     53  H   UNL     1     143.844 143.361 120.488  1.00  0.00     0.211 HD
ENDBRANCH   4  52
TORSDOF 16
ENDMDL
