MODEL 1
REMARK VINA RESULT:    -4.147      0.000      0.000
REMARK INTER + INTRA:          -9.237
REMARK INTER:                  -7.298
REMARK INTRA:                  -1.939
REMARK UNBOUND:                -1.939
REMARK SMILES CCCCCCCCCCCCCCC(=O)[O-]
REMARK SMILES IDX 9 1 10 2 11 3 12 4 13 5 14 6 15 7 16 8 17 9 8 10 7 11 6 12
REMARK SMILES IDX 5 13 4 14 3 15 2 16 1 17
REMARK H PARENT
REMARK Flexibility Score: inf
ROOT
ATOM      1  C   UNL     1     164.398 161.770 181.836  1.00  0.00     0.000 C 
ENDROOT
BRANCH   1   2
ATOM      2  C   UNL     1     164.016 160.562 182.705  1.00  0.00     0.000 C 
BRANCH   2   3
ATOM      3  C   UNL     1     165.266 159.875 183.271  1.00  0.00     0.000 C 
BRANCH   3   4
ATOM      4  C   UNL     1     166.522 160.283 182.488  1.00  0.00     0.000 C 
BRANCH   4   5
ATOM      5  C   UNL     1     167.661 160.786 183.393  1.00  0.00     0.006 C 
BRANCH   5   6
ATOM      6  C   UNL     1     167.185 161.637 184.583  1.00  0.00     0.053 C 
BRANCH   6   7
ATOM      7  C   UNL     1     167.369 163.105 184.356  1.00  0.00     0.041 C 
ATOM      8  O   UNL     1     166.426 163.908 184.588  1.00  0.00    -0.550 OA
ATOM      9  O   UNL     1     168.593 163.594 183.917  1.00  0.00    -0.550 OA
ENDBRANCH   6   7
ENDBRANCH   5   6
ENDBRANCH   4   5
ENDBRANCH   3   4
ENDBRANCH   2   3
ENDBRANCH   1   2
BRANCH   1  10
ATOM     10  C   UNL     1     163.536 163.006 182.132  1.00  0.00     0.000 C 
BRANCH  10  11
ATOM     11  C   UNL     1     162.736 162.869 183.440  1.00  0.00    -0.000 C 
BRANCH  11  12
ATOM     12  C   UNL     1     161.221 162.782 183.199  1.00  0.00    -0.000 C 
BRANCH  12  13
ATOM     13  C   UNL     1     160.614 161.470 183.716  1.00  0.00    -0.000 C 
BRANCH  13  14
ATOM     14  C   UNL     1     159.964 160.677 182.572  1.00  0.00    -0.000 C 
BRANCH  14  15
ATOM     15  C   UNL     1     160.236 161.290 181.186  1.00  0.00    -0.000 C 
BRANCH  15  16
ATOM     16  C   UNL     1     161.185 160.471 180.293  1.00  0.00    -0.003 C 
ATOM     17  C   UNL     1     161.842 161.306 179.194  1.00  0.00     0.004 C 
ENDBRANCH  15  16
ENDBRANCH  14  15
ENDBRANCH  13  14
ENDBRANCH  12  13
ENDBRANCH  11  12
ENDBRANCH  10  11
ENDBRANCH   1  10
TORSDOF 13
ENDMDL
MODEL 2
REMARK VINA RESULT:    -4.001      2.681      6.226
REMARK INTER + INTRA:          -8.980
REMARK INTER:                  -7.202
REMARK INTRA:                  -1.778
REMARK UNBOUND:                -1.939
REMARK SMILES CCCCCCCCCCCCCCC(=O)[O-]
REMARK SMILES IDX 9 1 10 2 11 3 12 4 13 5 14 6 15 7 16 8 17 9 8 10 7 11 6 12
REMARK SMILES IDX 5 13 4 14 3 15 2 16 1 17
REMARK H PARENT
REMARK Flexibility Score: inf
ROOT
ATOM      1  C   UNL     1     162.189 163.385 182.969  1.00  0.00     0.000 C 
ENDROOT
BRANCH   1   2
ATOM      2  C   UNL     1     161.079 162.546 183.618  1.00  0.00     0.000 C 
BRANCH   2   3
ATOM      3  C   UNL     1     160.024 162.133 182.583  1.00  0.00     0.000 C 
BRANCH   3   4
ATOM      4  C   UNL     1     160.029 160.614 182.366  1.00  0.00     0.000 C 
BRANCH   4   5
ATOM      5  C   UNL     1     160.438 160.208 180.938  1.00  0.00     0.006 C 
BRANCH   5   6
ATOM      6  C   UNL     1     160.726 161.400 180.008  1.00  0.00     0.053 C 
BRANCH   6   7
ATOM      7  C   UNL     1     162.066 161.307 179.345  1.00  0.00     0.041 C 
ATOM      8  O   UNL     1     162.579 162.322 178.804  1.00  0.00    -0.550 OA
ATOM      9  O   UNL     1     162.763 160.105 179.351  1.00  0.00    -0.550 OA
ENDBRANCH   6   7
ENDBRANCH   5   6
ENDBRANCH   4   5
ENDBRANCH   3   4
ENDBRANCH   2   3
ENDBRANCH   1   2
BRANCH   1  10
ATOM     10  C   UNL     1     163.596 162.891 183.339  1.00  0.00     0.000 C 
BRANCH  10  11
ATOM     11  C   UNL     1     164.199 161.965 182.268  1.00  0.00    -0.000 C 
BRANCH  11  12
ATOM     12  C   UNL     1     163.973 160.478 182.578  1.00  0.00    -0.000 C 
BRANCH  12  13
ATOM     13  C   UNL     1     165.093 159.875 183.438  1.00  0.00    -0.000 C 
BRANCH  13  14
ATOM     14  C   UNL     1     166.473 160.186 182.839  1.00  0.00    -0.000 C 
BRANCH  14  15
ATOM     15  C   UNL     1     167.519 160.562 183.905  1.00  0.00    -0.000 C 
BRANCH  15  16
ATOM     16  C   UNL     1     167.215 161.856 184.679  1.00  0.00    -0.003 C 
ATOM     17  C   UNL     1     167.868 163.092 184.060  1.00  0.00     0.004 C 
ENDBRANCH  15  16
ENDBRANCH  14  15
ENDBRANCH  13  14
ENDBRANCH  12  13
ENDBRANCH  11  12
ENDBRANCH  10  11
ENDBRANCH   1  10
TORSDOF 13
ENDMDL
MODEL 3
REMARK VINA RESULT:    -3.984      3.190      5.961
REMARK INTER + INTRA:          -8.950
REMARK INTER:                  -6.648
REMARK INTRA:                  -2.302
REMARK UNBOUND:                -1.939
REMARK SMILES CCCCCCCCCCCCCCC(=O)[O-]
REMARK SMILES IDX 9 1 10 2 11 3 12 4 13 5 14 6 15 7 16 8 17 9 8 10 7 11 6 12
REMARK SMILES IDX 5 13 4 14 3 15 2 16 1 17
REMARK H PARENT
REMARK Flexibility Score: inf
ROOT
ATOM      1  C   UNL     1     160.627 160.644 182.594  1.00  0.00     0.000 C 
ENDROOT
BRANCH   1   2
ATOM      2  C   UNL     1     160.418 161.970 183.341  1.00  0.00     0.000 C 
BRANCH   2   3
ATOM      3  C   UNL     1     161.750 162.704 183.542  1.00  0.00     0.000 C 
BRANCH   3   4
ATOM      4  C   UNL     1     161.900 163.858 182.541  1.00  0.00     0.000 C 
BRANCH   4   5
ATOM      5  C   UNL     1     160.550 164.410 182.049  1.00  0.00     0.006 C 
BRANCH   5   6
ATOM      6  C   UNL     1     160.665 165.369 180.851  1.00  0.00     0.053 C 
BRANCH   6   7
ATOM      7  C   UNL     1     160.504 166.806 181.241  1.00  0.00     0.041 C 
ATOM      8  O   UNL     1     160.677 167.719 180.391  1.00  0.00    -0.550 OA
ATOM      9  O   UNL     1     160.130 167.137 182.537  1.00  0.00    -0.550 OA
ENDBRANCH   6   7
ENDBRANCH   5   6
ENDBRANCH   4   5
ENDBRANCH   3   4
ENDBRANCH   2   3
ENDBRANCH   1   2
BRANCH   1  10
ATOM     10  C   UNL     1     159.878 160.596 181.254  1.00  0.00     0.000 C 
BRANCH  10  11
ATOM     11  C   UNL     1     160.831 160.489 180.049  1.00  0.00    -0.000 C 
BRANCH  11  12
ATOM     12  C   UNL     1     161.213 161.862 179.475  1.00  0.00    -0.000 C 
BRANCH  12  13
ATOM     13  C   UNL     1     162.731 162.093 179.453  1.00  0.00    -0.000 C 
BRANCH  13  14
ATOM     14  C   UNL     1     163.477 160.902 180.073  1.00  0.00    -0.000 C 
BRANCH  14  15
ATOM     15  C   UNL     1     164.366 161.304 181.263  1.00  0.00    -0.000 C 
BRANCH  15  16
ATOM     16  C   UNL     1     164.313 160.342 182.463  1.00  0.00    -0.003 C 
ATOM     17  C   UNL     1     165.629 160.279 183.238  1.00  0.00     0.004 C 
ENDBRANCH  15  16
ENDBRANCH  14  15
ENDBRANCH  13  14
ENDBRANCH  12  13
ENDBRANCH  11  12
ENDBRANCH  10  11
ENDBRANCH   1  10
TORSDOF 13
ENDMDL
MODEL 4
REMARK VINA RESULT:    -3.905      1.862      2.308
REMARK INTER + INTRA:          -8.812
REMARK INTER:                  -7.156
REMARK INTRA:                  -1.656
REMARK UNBOUND:                -1.939
REMARK SMILES CCCCCCCCCCCCCCC(=O)[O-]
REMARK SMILES IDX 9 1 10 2 11 3 12 4 13 5 14 6 15 7 16 8 17 9 8 10 7 11 6 12
REMARK SMILES IDX 5 13 4 14 3 15 2 16 1 17
REMARK H PARENT
REMARK Flexibility Score: inf
ROOT
ATOM      1  C   UNL     1     163.786 162.414 182.467  1.00  0.00     0.000 C 
ENDROOT
BRANCH   1   2
ATOM      2  C   UNL     1     163.983 160.920 182.764  1.00  0.00     0.000 C 
BRANCH   2   3
ATOM      3  C   UNL     1     165.448 160.616 183.104  1.00  0.00     0.000 C 
BRANCH   3   4
ATOM      4  C   UNL     1     166.208 161.900 183.465  1.00  0.00     0.000 C 
BRANCH   4   5
ATOM      5  C   UNL     1     167.709 161.663 183.714  1.00  0.00     0.006 C 
BRANCH   5   6
ATOM      6  C   UNL     1     168.186 160.245 183.356  1.00  0.00     0.053 C 
BRANCH   6   7
ATOM      7  C   UNL     1     169.066 160.218 182.144  1.00  0.00     0.041 C 
ATOM      8  O   UNL     1     170.294 160.478 182.244  1.00  0.00    -0.550 OA
ATOM      9  O   UNL     1     168.535 159.875 180.907  1.00  0.00    -0.550 OA
ENDBRANCH   6   7
ENDBRANCH   5   6
ENDBRANCH   4   5
ENDBRANCH   3   4
ENDBRANCH   2   3
ENDBRANCH   1   2
BRANCH   1  10
ATOM     10  C   UNL     1     162.621 163.026 183.260  1.00  0.00     0.000 C 
BRANCH  10  11
ATOM     11  C   UNL     1     161.544 163.641 182.348  1.00  0.00    -0.000 C 
BRANCH  11  12
ATOM     12  C   UNL     1     160.215 162.872 182.403  1.00  0.00    -0.000 C 
BRANCH  12  13
ATOM     13  C   UNL     1     160.336 161.532 183.143  1.00  0.00    -0.000 C 
BRANCH  13  14
ATOM     14  C   UNL     1     159.963 160.360 182.222  1.00  0.00    -0.000 C 
BRANCH  14  15
ATOM     15  C   UNL     1     160.096 160.706 180.727  1.00  0.00    -0.000 C 
BRANCH  15  16
ATOM     16  C   UNL     1     161.448 160.332 180.096  1.00  0.00    -0.003 C 
ATOM     17  C   UNL     1     162.065 161.470 179.283  1.00  0.00     0.004 C 
ENDBRANCH  15  16
ENDBRANCH  14  15
ENDBRANCH  13  14
ENDBRANCH  12  13
ENDBRANCH  11  12
ENDBRANCH  10  11
ENDBRANCH   1  10
TORSDOF 13
ENDMDL
MODEL 5
REMARK VINA RESULT:    -3.894      1.229      2.331
REMARK INTER + INTRA:          -8.793
REMARK INTER:                  -6.955
REMARK INTRA:                  -1.837
REMARK UNBOUND:                -1.939
REMARK SMILES CCCCCCCCCCCCCCC(=O)[O-]
REMARK SMILES IDX 9 1 10 2 11 3 12 4 13 5 14 6 15 7 16 8 17 9 8 10 7 11 6 12
REMARK SMILES IDX 5 13 4 14 3 15 2 16 1 17
REMARK H PARENT
REMARK Flexibility Score: inf
ROOT
ATOM      1  C   UNL     1     162.612 163.819 182.512  1.00  0.00     0.000 C 
ENDROOT
BRANCH   1   2
ATOM      2  C   UNL     1     163.593 162.875 183.223  1.00  0.00     0.000 C 
BRANCH   2   3
ATOM      3  C   UNL     1     164.311 161.968 182.215  1.00  0.00     0.000 C 
BRANCH   3   4
ATOM      4  C   UNL     1     164.299 160.506 182.682  1.00  0.00     0.000 C 
BRANCH   4   5
ATOM      5  C   UNL     1     165.702 159.875 182.731  1.00  0.00     0.006 C 
BRANCH   5   6
ATOM      6  C   UNL     1     166.541 160.308 183.946  1.00  0.00     0.053 C 
BRANCH   6   7
ATOM      7  C   UNL     1     167.704 161.173 183.569  1.00  0.00     0.041 C 
ATOM      8  O   UNL     1     167.773 162.361 183.981  1.00  0.00    -0.550 OA
ATOM      9  O   UNL     1     168.729 160.657 182.786  1.00  0.00    -0.550 OA
ENDBRANCH   6   7
ENDBRANCH   5   6
ENDBRANCH   4   5
ENDBRANCH   3   4
ENDBRANCH   2   3
ENDBRANCH   1   2
BRANCH   1  10
ATOM     10  C   UNL     1     161.145 163.421 182.731  1.00  0.00     0.000 C 
BRANCH  10  11
ATOM     11  C   UNL     1     160.998 162.170 183.615  1.00  0.00    -0.000 C 
BRANCH  11  12
ATOM     12  C   UNL     1     160.250 161.030 182.905  1.00  0.00    -0.000 C 
BRANCH  12  13
ATOM     13  C   UNL     1     160.182 161.225 181.383  1.00  0.00    -0.000 C 
BRANCH  13  14
ATOM     14  C   UNL     1     161.228 160.356 180.670  1.00  0.00    -0.000 C 
BRANCH  14  15
ATOM     15  C   UNL     1     161.869 161.059 179.460  1.00  0.00    -0.000 C 
BRANCH  15  16
ATOM     16  C   UNL     1     161.089 162.277 178.934  1.00  0.00    -0.003 C 
ATOM     17  C   UNL     1     160.933 162.278 177.414  1.00  0.00     0.004 C 
ENDBRANCH  15  16
ENDBRANCH  14  15
ENDBRANCH  13  14
ENDBRANCH  12  13
ENDBRANCH  11  12
ENDBRANCH  10  11
ENDBRANCH   1  10
TORSDOF 13
ENDMDL
MODEL 6
REMARK VINA RESULT:    -3.889      1.092      2.675
REMARK INTER + INTRA:          -8.784
REMARK INTER:                  -6.940
REMARK INTRA:                  -1.844
REMARK UNBOUND:                -1.939
REMARK SMILES CCCCCCCCCCCCCCC(=O)[O-]
REMARK SMILES IDX 9 1 10 2 11 3 12 4 13 5 14 6 15 7 16 8 17 9 8 10 7 11 6 12
REMARK SMILES IDX 5 13 4 14 3 15 2 16 1 17
REMARK H PARENT
REMARK Flexibility Score: inf
ROOT
ATOM      1  C   UNL     1     164.053 161.514 180.311  1.00  0.00     0.000 C 
ENDROOT
BRANCH   1   2
ATOM      2  C   UNL     1     164.066 160.529 181.489  1.00  0.00     0.000 C 
BRANCH   2   3
ATOM      3  C   UNL     1     165.501 160.250 181.956  1.00  0.00     0.000 C 
BRANCH   3   4
ATOM      4  C   UNL     1     165.550 160.010 183.471  1.00  0.00     0.000 C 
BRANCH   4   5
ATOM      5  C   UNL     1     166.902 160.393 184.100  1.00  0.00     0.006 C 
BRANCH   5   6
ATOM      6  C   UNL     1     167.102 161.908 184.277  1.00  0.00     0.053 C 
BRANCH   6   7
ATOM      7  C   UNL     1     168.227 162.445 183.446  1.00  0.00     0.041 C 
ATOM      8  O   UNL     1     168.645 161.800 182.449  1.00  0.00    -0.550 OA
ATOM      9  O   UNL     1     168.793 163.676 183.754  1.00  0.00    -0.550 OA
ENDBRANCH   6   7
ENDBRANCH   5   6
ENDBRANCH   4   5
ENDBRANCH   3   4
ENDBRANCH   2   3
ENDBRANCH   1   2
BRANCH   1  10
ATOM     10  C   UNL     1     162.655 161.678 179.694  1.00  0.00     0.000 C 
BRANCH  10  11
ATOM     11  C   UNL     1     161.769 160.436 179.899  1.00  0.00    -0.000 C 
BRANCH  11  12
ATOM     12  C   UNL     1     160.309 160.798 180.209  1.00  0.00    -0.000 C 
BRANCH  12  13
ATOM     13  C   UNL     1     160.180 161.807 181.360  1.00  0.00    -0.000 C 
BRANCH  13  14
ATOM     14  C   UNL     1     160.367 161.116 182.719  1.00  0.00    -0.000 C 
BRANCH  14  15
ATOM     15  C   UNL     1     161.215 161.945 183.702  1.00  0.00    -0.000 C 
BRANCH  15  16
ATOM     16  C   UNL     1     161.924 163.159 183.077  1.00  0.00    -0.003 C 
ATOM     17  C   UNL     1     163.370 163.315 183.546  1.00  0.00     0.004 C 
ENDBRANCH  15  16
ENDBRANCH  14  15
ENDBRANCH  13  14
ENDBRANCH  12  13
ENDBRANCH  11  12
ENDBRANCH  10  11
ENDBRANCH   1  10
TORSDOF 13
ENDMDL
MODEL 7
REMARK VINA RESULT:    -3.853      1.737      2.671
REMARK INTER + INTRA:          -8.721
REMARK INTER:                  -7.095
REMARK INTRA:                  -1.625
REMARK UNBOUND:                -1.939
REMARK SMILES CCCCCCCCCCCCCCC(=O)[O-]
REMARK SMILES IDX 9 1 10 2 11 3 12 4 13 5 14 6 15 7 16 8 17 9 8 10 7 11 6 12
REMARK SMILES IDX 5 13 4 14 3 15 2 16 1 17
REMARK H PARENT
REMARK Flexibility Score: inf
ROOT
ATOM      1  C   UNL     1     162.885 162.029 182.906  1.00  0.00     0.000 C 
ENDROOT
BRANCH   1   2
ATOM      2  C   UNL     1     163.479 160.653 183.242  1.00  0.00     0.000 C 
BRANCH   2   3
ATOM      3  C   UNL     1     164.970 160.595 182.884  1.00  0.00     0.000 C 
BRANCH   3   4
ATOM      4  C   UNL     1     165.669 161.920 183.219  1.00  0.00     0.000 C 
BRANCH   4   5
ATOM      5  C   UNL     1     167.034 161.727 183.905  1.00  0.00     0.006 C 
BRANCH   5   6
ATOM      6  C   UNL     1     167.711 160.384 183.581  1.00  0.00     0.053 C 
BRANCH   6   7
ATOM      7  C   UNL     1     168.592 160.456 182.371  1.00  0.00     0.041 C 
ATOM      8  O   UNL     1     168.256 159.877 181.305  1.00  0.00    -0.550 OA
ATOM      9  O   UNL     1     169.771 161.189 182.412  1.00  0.00    -0.550 OA
ENDBRANCH   6   7
ENDBRANCH   5   6
ENDBRANCH   4   5
ENDBRANCH   3   4
ENDBRANCH   2   3
ENDBRANCH   1   2
BRANCH   1  10
ATOM     10  C   UNL     1     161.494 162.238 183.522  1.00  0.00     0.000 C 
BRANCH  10  11
ATOM     11  C   UNL     1     160.360 162.048 182.499  1.00  0.00    -0.000 C 
BRANCH  11  12
ATOM     12  C   UNL     1     160.110 160.570 182.163  1.00  0.00    -0.000 C 
BRANCH  12  13
ATOM     13  C   UNL     1     160.152 160.290 180.653  1.00  0.00    -0.000 C 
BRANCH  13  14
ATOM     14  C   UNL     1     160.383 161.585 179.861  1.00  0.00    -0.000 C 
BRANCH  14  15
ATOM     15  C   UNL     1     161.645 161.532 178.980  1.00  0.00    -0.000 C 
BRANCH  15  16
ATOM     16  C   UNL     1     162.764 160.617 179.508  1.00  0.00    -0.003 C 
ATOM     17  C   UNL     1     164.150 161.254 179.419  1.00  0.00     0.004 C 
ENDBRANCH  15  16
ENDBRANCH  14  15
ENDBRANCH  13  14
ENDBRANCH  12  13
ENDBRANCH  11  12
ENDBRANCH  10  11
ENDBRANCH   1  10
TORSDOF 13
ENDMDL
MODEL 8
REMARK VINA RESULT:    -3.823      3.184      6.348
REMARK INTER + INTRA:          -8.667
REMARK INTER:                  -6.743
REMARK INTRA:                  -1.923
REMARK UNBOUND:                -1.939
REMARK SMILES CCCCCCCCCCCCCCC(=O)[O-]
REMARK SMILES IDX 9 1 10 2 11 3 12 4 13 5 14 6 15 7 16 8 17 9 8 10 7 11 6 12
REMARK SMILES IDX 5 13 4 14 3 15 2 16 1 17
REMARK H PARENT
REMARK Flexibility Score: inf
ROOT
ATOM      1  C   UNL     1     161.895 163.315 183.202  1.00  0.00     0.000 C 
ENDROOT
BRANCH   1   2
ATOM      2  C   UNL     1     160.949 162.231 183.742  1.00  0.00     0.000 C 
BRANCH   2   3
ATOM      3  C   UNL     1     159.966 161.770 182.658  1.00  0.00     0.000 C 
BRANCH   3   4
ATOM      4  C   UNL     1     160.477 160.507 181.951  1.00  0.00     0.000 C 
BRANCH   4   5
ATOM      5  C   UNL     1     160.386 160.594 180.417  1.00  0.00     0.006 C 
BRANCH   5   6
ATOM      6  C   UNL     1     160.732 161.982 179.848  1.00  0.00     0.053 C 
BRANCH   6   7
ATOM      7  C   UNL     1     160.936 161.965 178.365  1.00  0.00     0.041 C 
ATOM      8  O   UNL     1     159.960 162.129 177.586  1.00  0.00    -0.550 OA
ATOM      9  O   UNL     1     162.212 161.798 177.840  1.00  0.00    -0.550 OA
ENDBRANCH   6   7
ENDBRANCH   5   6
ENDBRANCH   4   5
ENDBRANCH   3   4
ENDBRANCH   2   3
ENDBRANCH   1   2
BRANCH   1  10
ATOM     10  C   UNL     1     163.373 162.908 183.292  1.00  0.00     0.000 C 
BRANCH  10  11
ATOM     11  C   UNL     1     163.984 162.594 181.914  1.00  0.00    -0.000 C 
BRANCH  11  12
ATOM     12  C   UNL     1     164.174 161.086 181.683  1.00  0.00    -0.000 C 
BRANCH  12  13
ATOM     13  C   UNL     1     164.035 160.267 182.974  1.00  0.00    -0.000 C 
BRANCH  13  14
ATOM     14  C   UNL     1     165.414 159.878 183.529  1.00  0.00    -0.000 C 
BRANCH  14  15
ATOM     15  C   UNL     1     166.548 160.067 182.505  1.00  0.00    -0.000 C 
BRANCH  15  16
ATOM     16  C   UNL     1     167.799 160.776 183.052  1.00  0.00    -0.003 C 
ATOM     17  C   UNL     1     167.470 162.017 183.881  1.00  0.00     0.004 C 
ENDBRANCH  15  16
ENDBRANCH  14  15
ENDBRANCH  13  14
ENDBRANCH  12  13
ENDBRANCH  11  12
ENDBRANCH  10  11
ENDBRANCH   1  10
TORSDOF 13
ENDMDL
MODEL 9
REMARK VINA RESULT:    -3.734      3.829      6.031
REMARK INTER + INTRA:          -8.511
REMARK INTER:                  -6.283
REMARK INTRA:                  -2.227
REMARK UNBOUND:                -1.939
REMARK SMILES CCCCCCCCCCCCCCC(=O)[O-]
REMARK SMILES IDX 9 1 10 2 11 3 12 4 13 5 14 6 15 7 16 8 17 9 8 10 7 11 6 12
REMARK SMILES IDX 5 13 4 14 3 15 2 16 1 17
REMARK H PARENT
REMARK Flexibility Score: inf
ROOT
ATOM      1  C   UNL     1     162.856 162.645 179.632  1.00  0.00     0.000 C 
ENDROOT
BRANCH   1   2
ATOM      2  C   UNL     1     161.919 163.649 178.943  1.00  0.00     0.000 C 
BRANCH   2   3
ATOM      3  C   UNL     1     161.597 164.827 179.871  1.00  0.00     0.000 C 
BRANCH   3   4
ATOM      4  C   UNL     1     160.465 164.468 180.845  1.00  0.00     0.000 C 
BRANCH   4   5
ATOM      5  C   UNL     1     160.482 165.317 182.129  1.00  0.00     0.006 C 
BRANCH   5   6
ATOM      6  C   UNL     1     161.256 166.640 181.994  1.00  0.00     0.053 C 
BRANCH   6   7
ATOM      7  C   UNL     1     160.437 167.833 182.380  1.00  0.00     0.041 C 
ATOM      8  O   UNL     1     160.275 168.127 183.594  1.00  0.00    -0.550 OA
ATOM      9  O   UNL     1     159.875 168.639 181.398  1.00  0.00    -0.550 OA
ENDBRANCH   6   7
ENDBRANCH   5   6
ENDBRANCH   4   5
ENDBRANCH   3   4
ENDBRANCH   2   3
ENDBRANCH   1   2
BRANCH   1  10
ATOM     10  C   UNL     1     162.265 161.228 179.688  1.00  0.00     0.000 C 
BRANCH  10  11
ATOM     11  C   UNL     1     160.742 161.214 179.472  1.00  0.00    -0.000 C 
BRANCH  11  12
ATOM     12  C   UNL     1     159.985 160.568 180.644  1.00  0.00    -0.000 C 
BRANCH  12  13
ATOM     13  C   UNL     1     160.832 160.487 181.922  1.00  0.00    -0.000 C 
BRANCH  13  14
ATOM     14  C   UNL     1     160.229 161.354 183.037  1.00  0.00    -0.000 C 
BRANCH  14  15
ATOM     15  C   UNL     1     161.265 162.273 183.710  1.00  0.00    -0.000 C 
BRANCH  15  16
ATOM     16  C   UNL     1     162.716 162.056 183.247  1.00  0.00    -0.003 C 
ATOM     17  C   UNL     1     163.541 163.343 183.241  1.00  0.00     0.004 C 
ENDBRANCH  15  16
ENDBRANCH  14  15
ENDBRANCH  13  14
ENDBRANCH  12  13
ENDBRANCH  11  12
ENDBRANCH  10  11
ENDBRANCH   1  10
TORSDOF 13
ENDMDL
