MODEL 1
REMARK VINA RESULT:    -6.244      0.000      0.000
REMARK INTER + INTRA:          -7.090
REMARK INTER:                  -6.791
REMARK INTRA:                  -0.299
REMARK UNBOUND:                -0.299
REMARK SMILES C=C(C)[C@@H]1CC[C@@]2(C)CC[C@@]3(C)[C@@H](CC[C@H]4[C@@]5(C)CC[C@@H](O)C(C)(C)[C@H]5CC[C@@]43C)[C@@H]12
REMARK SMILES IDX 4 1 5 2 6 3 7 4 31 5 13 6 14 7 15 8 16 9 17 10 19 11 20 12
REMARK SMILES IDX 21 13 23 14 26 15 27 16 28 17 29 18 11 19 10 20 9 21 12 22
REMARK SMILES IDX 30 23 24 24 25 25 18 26 8 27 2 28 3 29 1 30 22 31
REMARK H PARENT 22 32
REMARK Flexibility Score: inf
ROOT
ATOM      1  C   UNL     1      70.000   6.968 365.002  1.00  0.00     0.018 C 
ATOM      2  C   UNL     1      70.705   6.911 366.365  1.00  0.00     0.009 C 
ATOM      3  C   UNL     1      69.962   7.875 367.283  1.00  0.00     0.008 C 
ATOM      4  C   UNL     1      69.366   8.965 366.375  1.00  0.00    -0.029 C 
ATOM      5  C   UNL     1      69.068   8.210 365.048  1.00  0.00     0.006 C 
ATOM      6  C   UNL     1      69.020   9.122 363.778  1.00  0.00    -0.000 C 
ATOM      7  C   UNL     1      68.801   8.320 362.484  1.00  0.00     0.005 C 
ATOM      8  C   UNL     1      68.438   9.249 361.322  1.00  0.00     0.005 C 
ATOM      9  C   UNL     1      69.560  10.297 361.072  1.00  0.00     0.002 C 
ATOM     10  C   UNL     1      69.478  11.002 359.635  1.00  0.00    -0.026 C 
ATOM     11  C   UNL     1      68.001  11.407 359.303  1.00  0.00     0.010 C 
ATOM     12  C   UNL     1      67.835  12.287 358.059  1.00  0.00     0.033 C 
ATOM     13  C   UNL     1      68.708  13.541 358.117  1.00  0.00     0.120 C 
ATOM     14  C   UNL     1      70.224  13.203 358.264  1.00  0.00    -0.006 C 
ATOM     15  C   UNL     1      70.488  12.242 359.512  1.00  0.00     0.003 C 
ATOM     16  C   UNL     1      70.679  13.039 360.832  1.00  0.00     0.005 C 
ATOM     17  C   UNL     1      70.956  12.147 362.042  1.00  0.00     0.008 C 
ATOM     18  C   UNL     1      69.784  11.186 362.367  1.00  0.00    -0.024 C 
ATOM     19  C   UNL     1      70.138  10.223 363.636  1.00  0.00    -0.024 C 
ATOM     20  C   UNL     1      70.152  11.012 364.986  1.00  0.00     0.008 C 
ATOM     21  C   UNL     1      70.398  10.123 366.219  1.00  0.00     0.007 C 
ATOM     22  C   UNL     1      71.557   9.577 363.470  1.00  0.00     0.012 C 
ATOM     23  C   UNL     1      68.534  12.076 362.700  1.00  0.00     0.012 C 
ATOM     24  C   UNL     1      70.750  12.559 356.948  1.00  0.00     0.014 C 
ATOM     25  C   UNL     1      71.014  14.541 358.375  1.00  0.00     0.014 C 
ATOM     26  C   UNL     1      69.909   9.911 358.578  1.00  0.00     0.012 C 
ATOM     27  C   UNL     1      68.063   9.516 367.004  1.00  0.00     0.011 C 
ENDROOT
BRANCH   1  28
ATOM     28  C   UNL     1      69.250   5.670 364.690  1.00  0.00    -0.077 C 
ATOM     29  C   UNL     1      69.972   4.346 364.750  1.00  0.00     0.039 C 
ATOM     30  C   UNL     1      67.943   5.673 364.375  1.00  0.00     0.008 C 
ENDBRANCH   1  28
BRANCH  13  31
ATOM     31  O   UNL     1      68.262  14.343 359.185  1.00  0.00    -0.393 OA
ATOM     32  H   UNL     1      67.379  13.997 359.474  1.00  0.00     0.210 HD
ENDBRANCH  13  31
TORSDOF 2
ENDMDL
MODEL 2
REMARK VINA RESULT:    -6.105      4.692      7.656
REMARK INTER + INTRA:          -6.939
REMARK INTER:                  -6.402
REMARK INTRA:                  -0.538
REMARK UNBOUND:                -0.299
REMARK SMILES C=C(C)[C@@H]1CC[C@@]2(C)CC[C@@]3(C)[C@@H](CC[C@H]4[C@@]5(C)CC[C@@H](O)C(C)(C)[C@H]5CC[C@@]43C)[C@@H]12
REMARK SMILES IDX 4 1 5 2 6 3 7 4 31 5 13 6 14 7 15 8 16 9 17 10 19 11 20 12
REMARK SMILES IDX 21 13 23 14 26 15 27 16 28 17 29 18 11 19 10 20 9 21 12 22
REMARK SMILES IDX 30 23 24 24 25 25 18 26 8 27 2 28 3 29 1 30 22 31
REMARK H PARENT 22 32
REMARK Flexibility Score: inf
ROOT
ATOM      1  C   UNL     1      69.428  12.728 359.645  1.00  0.00     0.018 C 
ATOM      2  C   UNL     1      68.562  11.552 360.119  1.00  0.00     0.009 C 
ATOM      3  C   UNL     1      68.650  11.528 361.641  1.00  0.00     0.008 C 
ATOM      4  C   UNL     1      70.019  12.129 362.005  1.00  0.00    -0.029 C 
ATOM      5  C   UNL     1      70.275  13.165 360.873  1.00  0.00     0.006 C 
ATOM      6  C   UNL     1      71.782  13.500 360.627  1.00  0.00    -0.000 C 
ATOM      7  C   UNL     1      71.986  14.467 359.448  1.00  0.00     0.005 C 
ATOM      8  C   UNL     1      73.413  15.021 359.439  1.00  0.00     0.005 C 
ATOM      9  C   UNL     1      74.458  13.874 359.326  1.00  0.00     0.002 C 
ATOM     10  C   UNL     1      75.913  14.367 358.868  1.00  0.00    -0.026 C 
ATOM     11  C   UNL     1      76.323  15.667 359.642  1.00  0.00     0.010 C 
ATOM     12  C   UNL     1      77.781  16.100 359.453  1.00  0.00     0.033 C 
ATOM     13  C   UNL     1      78.766  14.978 359.782  1.00  0.00     0.120 C 
ATOM     14  C   UNL     1      78.529  13.706 358.910  1.00  0.00    -0.006 C 
ATOM     15  C   UNL     1      77.014  13.209 359.006  1.00  0.00     0.003 C 
ATOM     16  C   UNL     1      76.787  12.256 360.211  1.00  0.00     0.005 C 
ATOM     17  C   UNL     1      75.351  11.745 360.316  1.00  0.00     0.008 C 
ATOM     18  C   UNL     1      74.320  12.879 360.553  1.00  0.00    -0.024 C 
ATOM     19  C   UNL     1      72.798  12.295 360.615  1.00  0.00    -0.024 C 
ATOM     20  C   UNL     1      72.532  11.484 361.925  1.00  0.00     0.008 C 
ATOM     21  C   UNL     1      71.081  10.988 362.062  1.00  0.00     0.007 C 
ATOM     22  C   UNL     1      72.520  11.326 359.413  1.00  0.00     0.012 C 
ATOM     23  C   UNL     1      74.690  13.563 361.918  1.00  0.00     0.012 C 
ATOM     24  C   UNL     1      78.924  13.998 357.433  1.00  0.00     0.014 C 
ATOM     25  C   UNL     1      79.537  12.609 359.363  1.00  0.00     0.014 C 
ATOM     26  C   UNL     1      75.795  14.754 357.342  1.00  0.00     0.012 C 
ATOM     27  C   UNL     1      69.936  12.825 363.385  1.00  0.00     0.011 C 
ENDROOT
BRANCH   1  28
ATOM     28  C   UNL     1      68.582  13.866 359.069  1.00  0.00    -0.077 C 
ATOM     29  C   UNL     1      68.256  15.072 359.916  1.00  0.00     0.039 C 
ATOM     30  C   UNL     1      68.126  13.831 357.804  1.00  0.00     0.008 C 
ENDBRANCH   1  28
BRANCH  13  31
ATOM     31  O   UNL     1      78.657  14.680 361.153  1.00  0.00    -0.393 OA
ATOM     32  H   UNL     1      79.469  15.030 361.603  1.00  0.00     0.210 HD
ENDBRANCH  13  31
TORSDOF 2
ENDMDL
MODEL 3
REMARK VINA RESULT:    -5.772      1.948      8.025
REMARK INTER + INTRA:          -6.577
REMARK INTER:                  -6.077
REMARK INTRA:                  -0.499
REMARK UNBOUND:                -0.299
REMARK SMILES C=C(C)[C@@H]1CC[C@@]2(C)CC[C@@]3(C)[C@@H](CC[C@H]4[C@@]5(C)CC[C@@H](O)C(C)(C)[C@H]5CC[C@@]43C)[C@@H]12
REMARK SMILES IDX 4 1 5 2 6 3 7 4 31 5 13 6 14 7 15 8 16 9 17 10 19 11 20 12
REMARK SMILES IDX 21 13 23 14 26 15 27 16 28 17 29 18 11 19 10 20 9 21 12 22
REMARK SMILES IDX 30 23 24 24 25 25 18 26 8 27 2 28 3 29 1 30 22 31
REMARK H PARENT 22 32
REMARK Flexibility Score: inf
ROOT
ATOM      1  C   UNL     1      70.784  13.650 358.507  1.00  0.00     0.018 C 
ATOM      2  C   UNL     1      70.770  13.468 356.983  1.00  0.00     0.009 C 
ATOM      3  C   UNL     1      69.307  13.346 356.570  1.00  0.00     0.008 C 
ATOM      4  C   UNL     1      68.566  12.745 357.777  1.00  0.00    -0.029 C 
ATOM      5  C   UNL     1      69.354  13.295 359.000  1.00  0.00     0.006 C 
ATOM      6  C   UNL     1      69.232  12.428 360.295  1.00  0.00    -0.000 C 
ATOM      7  C   UNL     1      70.091  12.971 361.451  1.00  0.00     0.005 C 
ATOM      8  C   UNL     1      69.706  12.305 362.774  1.00  0.00     0.005 C 
ATOM      9  C   UNL     1      69.891  10.763 362.701  1.00  0.00     0.002 C 
ATOM     10  C   UNL     1      69.943  10.048 364.135  1.00  0.00    -0.026 C 
ATOM     11  C   UNL     1      68.822  10.613 365.073  1.00  0.00     0.010 C 
ATOM     12  C   UNL     1      68.632   9.848 366.387  1.00  0.00     0.033 C 
ATOM     13  C   UNL     1      68.402   8.354 366.159  1.00  0.00     0.120 C 
ATOM     14  C   UNL     1      69.577   7.684 365.382  1.00  0.00    -0.006 C 
ATOM     15  C   UNL     1      69.883   8.449 364.015  1.00  0.00     0.003 C 
ATOM     16  C   UNL     1      68.999   7.932 362.846  1.00  0.00     0.005 C 
ATOM     17  C   UNL     1      69.285   8.631 361.518  1.00  0.00     0.008 C 
ATOM     18  C   UNL     1      68.981  10.151 361.555  1.00  0.00    -0.024 C 
ATOM     19  C   UNL     1      69.340  10.865 360.132  1.00  0.00    -0.024 C 
ATOM     20  C   UNL     1      68.332  10.470 359.005  1.00  0.00     0.008 C 
ATOM     21  C   UNL     1      68.585  11.189 357.667  1.00  0.00     0.007 C 
ATOM     22  C   UNL     1      70.767  10.440 359.637  1.00  0.00     0.012 C 
ATOM     23  C   UNL     1      67.450  10.310 361.864  1.00  0.00     0.012 C 
ATOM     24  C   UNL     1      70.844   7.635 366.285  1.00  0.00     0.014 C 
ATOM     25  C   UNL     1      69.218   6.186 365.150  1.00  0.00     0.014 C 
ATOM     26  C   UNL     1      71.329  10.440 364.780  1.00  0.00     0.012 C 
ATOM     27  C   UNL     1      67.100  13.242 357.793  1.00  0.00     0.011 C 
ENDROOT
BRANCH   1  28
ATOM     28  C   UNL     1      71.222  15.060 358.912  1.00  0.00    -0.077 C 
ATOM     29  C   UNL     1      72.588  15.285 359.512  1.00  0.00     0.039 C 
ATOM     30  C   UNL     1      70.419  16.123 358.732  1.00  0.00     0.008 C 
ENDBRANCH   1  28
BRANCH  13  31
ATOM     31  O   UNL     1      67.183   8.192 365.472  1.00  0.00    -0.393 OA
ATOM     32  H   UNL     1      67.010   9.027 364.964  1.00  0.00     0.210 HD
ENDBRANCH  13  31
TORSDOF 2
ENDMDL
MODEL 4
REMARK VINA RESULT:    -5.676      1.611      2.769
REMARK INTER + INTRA:          -6.473
REMARK INTER:                  -5.977
REMARK INTRA:                  -0.496
REMARK UNBOUND:                -0.299
REMARK SMILES C=C(C)[C@@H]1CC[C@@]2(C)CC[C@@]3(C)[C@@H](CC[C@H]4[C@@]5(C)CC[C@@H](O)C(C)(C)[C@H]5CC[C@@]43C)[C@@H]12
REMARK SMILES IDX 4 1 5 2 6 3 7 4 31 5 13 6 14 7 15 8 16 9 17 10 19 11 20 12
REMARK SMILES IDX 21 13 23 14 26 15 27 16 28 17 29 18 11 19 10 20 9 21 12 22
REMARK SMILES IDX 30 23 24 24 25 25 18 26 8 27 2 28 3 29 1 30 22 31
REMARK H PARENT 22 32
REMARK Flexibility Score: inf
ROOT
ATOM      1  C   UNL     1      68.575   8.884 365.221  1.00  0.00     0.018 C 
ATOM      2  C   UNL     1      69.340   7.744 365.910  1.00  0.00     0.009 C 
ATOM      3  C   UNL     1      70.601   8.359 366.505  1.00  0.00     0.008 C 
ATOM      4  C   UNL     1      70.951   9.569 365.621  1.00  0.00    -0.029 C 
ATOM      5  C   UNL     1      69.564  10.079 365.136  1.00  0.00     0.006 C 
ATOM      6  C   UNL     1      69.601  10.890 363.800  1.00  0.00    -0.000 C 
ATOM      7  C   UNL     1      68.199  11.305 363.322  1.00  0.00     0.005 C 
ATOM      8  C   UNL     1      68.290  12.354 362.211  1.00  0.00     0.005 C 
ATOM      9  C   UNL     1      69.088  11.811 360.992  1.00  0.00     0.002 C 
ATOM     10  C   UNL     1      68.858  12.647 359.644  1.00  0.00    -0.026 C 
ATOM     11  C   UNL     1      68.908  14.186 359.934  1.00  0.00     0.010 C 
ATOM     12  C   UNL     1      68.925  15.079 358.688  1.00  0.00     0.033 C 
ATOM     13  C   UNL     1      70.050  14.705 357.723  1.00  0.00     0.120 C 
ATOM     14  C   UNL     1      69.954  13.222 357.246  1.00  0.00    -0.006 C 
ATOM     15  C   UNL     1      69.879  12.216 358.484  1.00  0.00     0.003 C 
ATOM     16  C   UNL     1      71.290  11.815 358.997  1.00  0.00     0.005 C 
ATOM     17  C   UNL     1      71.251  10.834 360.168  1.00  0.00     0.008 C 
ATOM     18  C   UNL     1      70.563  11.421 361.427  1.00  0.00    -0.024 C 
ATOM     19  C   UNL     1      70.504  10.328 362.637  1.00  0.00    -0.024 C 
ATOM     20  C   UNL     1      71.913  10.067 363.262  1.00  0.00     0.008 C 
ATOM     21  C   UNL     1      71.888   9.105 364.465  1.00  0.00     0.007 C 
ATOM     22  C   UNL     1      69.971   8.946 362.119  1.00  0.00     0.012 C 
ATOM     23  C   UNL     1      71.402  12.671 361.873  1.00  0.00     0.012 C 
ATOM     24  C   UNL     1      68.720  13.048 356.315  1.00  0.00     0.014 C 
ATOM     25  C   UNL     1      71.173  12.927 356.322  1.00  0.00     0.014 C 
ATOM     26  C   UNL     1      67.393  12.314 359.157  1.00  0.00     0.012 C 
ATOM     27  C   UNL     1      71.673  10.646 366.468  1.00  0.00     0.011 C 
ENDROOT
BRANCH   1  28
ATOM     28  C   UNL     1      67.280   9.232 365.959  1.00  0.00    -0.077 C 
ATOM     29  C   UNL     1      67.334   9.794 367.360  1.00  0.00     0.039 C 
ATOM     30  C   UNL     1      66.077   9.065 365.383  1.00  0.00     0.008 C 
ENDBRANCH   1  28
BRANCH  13  31
ATOM     31  O   UNL     1      71.282  14.953 358.359  1.00  0.00    -0.393 OA
ATOM     32  H   UNL     1      71.158  15.731 358.962  1.00  0.00     0.210 HD
ENDBRANCH  13  31
TORSDOF 2
ENDMDL
MODEL 5
REMARK VINA RESULT:    -5.486      2.748      3.701
REMARK INTER + INTRA:          -6.266
REMARK INTER:                  -5.780
REMARK INTRA:                  -0.486
REMARK UNBOUND:                -0.299
REMARK SMILES C=C(C)[C@@H]1CC[C@@]2(C)CC[C@@]3(C)[C@@H](CC[C@H]4[C@@]5(C)CC[C@@H](O)C(C)(C)[C@H]5CC[C@@]43C)[C@@H]12
REMARK SMILES IDX 4 1 5 2 6 3 7 4 31 5 13 6 14 7 15 8 16 9 17 10 19 11 20 12
REMARK SMILES IDX 21 13 23 14 26 15 27 16 28 17 29 18 11 19 10 20 9 21 12 22
REMARK SMILES IDX 30 23 24 24 25 25 18 26 8 27 2 28 3 29 1 30 22 31
REMARK H PARENT 22 32
REMARK Flexibility Score: inf
ROOT
ATOM      1  C   UNL     1      69.570   8.288 364.631  1.00  0.00     0.018 C 
ATOM      2  C   UNL     1      69.614   7.660 366.032  1.00  0.00     0.009 C 
ATOM      3  C   UNL     1      69.157   8.738 367.009  1.00  0.00     0.008 C 
ATOM      4  C   UNL     1      69.536  10.087 366.374  1.00  0.00    -0.029 C 
ATOM      5  C   UNL     1      69.411   9.818 364.847  1.00  0.00     0.006 C 
ATOM      6  C   UNL     1      70.272  10.766 363.948  1.00  0.00    -0.000 C 
ATOM      7  C   UNL     1      70.176  10.410 362.454  1.00  0.00     0.005 C 
ATOM      8  C   UNL     1      70.755  11.532 361.589  1.00  0.00     0.005 C 
ATOM      9  C   UNL     1      72.246  11.798 361.941  1.00  0.00     0.002 C 
ATOM     10  C   UNL     1      73.040  12.618 360.815  1.00  0.00    -0.026 C 
ATOM     11  C   UNL     1      72.177  13.819 360.297  1.00  0.00     0.010 C 
ATOM     12  C   UNL     1      72.920  14.803 359.385  1.00  0.00     0.033 C 
ATOM     13  C   UNL     1      74.201  15.333 360.028  1.00  0.00     0.120 C 
ATOM     14  C   UNL     1      75.194  14.190 360.405  1.00  0.00    -0.006 C 
ATOM     15  C   UNL     1      74.489  13.086 361.318  1.00  0.00     0.003 C 
ATOM     16  C   UNL     1      74.551  13.449 362.827  1.00  0.00     0.005 C 
ATOM     17  C   UNL     1      73.905  12.398 363.729  1.00  0.00     0.008 C 
ATOM     18  C   UNL     1      72.388  12.222 363.462  1.00  0.00    -0.024 C 
ATOM     19  C   UNL     1      71.747  11.063 364.415  1.00  0.00    -0.024 C 
ATOM     20  C   UNL     1      71.653  11.514 365.909  1.00  0.00     0.008 C 
ATOM     21  C   UNL     1      70.975  10.480 366.827  1.00  0.00     0.007 C 
ATOM     22  C   UNL     1      72.626   9.764 364.385  1.00  0.00     0.012 C 
ATOM     23  C   UNL     1      71.701  13.603 363.761  1.00  0.00     0.012 C 
ATOM     24  C   UNL     1      75.776  13.551 359.111  1.00  0.00     0.014 C 
ATOM     25  C   UNL     1      76.431  14.829 361.104  1.00  0.00     0.014 C 
ATOM     26  C   UNL     1      73.237  11.630 359.599  1.00  0.00     0.012 C 
ATOM     27  C   UNL     1      68.536  11.179 366.828  1.00  0.00     0.011 C 
ENDROOT
BRANCH   1  28
ATOM     28  C   UNL     1      68.457   7.688 363.769  1.00  0.00    -0.077 C 
ATOM     29  C   UNL     1      67.257   8.523 363.393  1.00  0.00     0.039 C 
ATOM     30  C   UNL     1      68.523   6.423 363.317  1.00  0.00     0.008 C 
ENDBRANCH   1  28
BRANCH  13  31
ATOM     31  O   UNL     1      73.849  16.092 361.161  1.00  0.00    -0.393 OA
ATOM     32  H   UNL     1      73.046  15.674 361.566  1.00  0.00     0.210 HD
ENDBRANCH  13  31
TORSDOF 2
ENDMDL
MODEL 6
REMARK VINA RESULT:    -5.476      3.873      6.059
REMARK INTER + INTRA:          -6.255
REMARK INTER:                  -5.717
REMARK INTRA:                  -0.538
REMARK UNBOUND:                -0.299
REMARK SMILES C=C(C)[C@@H]1CC[C@@]2(C)CC[C@@]3(C)[C@@H](CC[C@H]4[C@@]5(C)CC[C@@H](O)C(C)(C)[C@H]5CC[C@@]43C)[C@@H]12
REMARK SMILES IDX 4 1 5 2 6 3 7 4 31 5 13 6 14 7 15 8 16 9 17 10 19 11 20 12
REMARK SMILES IDX 21 13 23 14 26 15 27 16 28 17 29 18 11 19 10 20 9 21 12 22
REMARK SMILES IDX 30 23 24 24 25 25 18 26 8 27 2 28 3 29 1 30 22 31
REMARK H PARENT 22 32
REMARK Flexibility Score: inf
ROOT
ATOM      1  C   UNL     1      70.287  11.468 364.479  1.00  0.00     0.018 C 
ATOM      2  C   UNL     1      68.753  11.449 364.424  1.00  0.00     0.009 C 
ATOM      3  C   UNL     1      68.364  10.396 363.392  1.00  0.00     0.008 C 
ATOM      4  C   UNL     1      69.522  10.334 362.380  1.00  0.00    -0.029 C 
ATOM      5  C   UNL     1      70.775  10.667 363.239  1.00  0.00     0.006 C 
ATOM      6  C   UNL     1      71.979  11.252 362.432  1.00  0.00    -0.000 C 
ATOM      7  C   UNL     1      73.164  11.637 363.336  1.00  0.00     0.005 C 
ATOM      8  C   UNL     1      74.422  11.895 362.503  1.00  0.00     0.005 C 
ATOM      9  C   UNL     1      74.190  13.038 361.476  1.00  0.00     0.002 C 
ATOM     10  C   UNL     1      75.544  13.665 360.888  1.00  0.00    -0.026 C 
ATOM     11  C   UNL     1      76.560  12.531 360.516  1.00  0.00     0.010 C 
ATOM     12  C   UNL     1      77.795  12.999 359.738  1.00  0.00     0.033 C 
ATOM     13  C   UNL     1      77.424  13.786 358.481  1.00  0.00     0.120 C 
ATOM     14  C   UNL     1      76.557  15.043 358.802  1.00  0.00    -0.006 C 
ATOM     15  C   UNL     1      75.267  14.657 359.659  1.00  0.00     0.003 C 
ATOM     16  C   UNL     1      74.073  14.235 358.759  1.00  0.00     0.005 C 
ATOM     17  C   UNL     1      72.814  13.881 359.550  1.00  0.00     0.008 C 
ATOM     18  C   UNL     1      73.010  12.660 360.486  1.00  0.00    -0.024 C 
ATOM     19  C   UNL     1      71.658  12.344 361.342  1.00  0.00    -0.024 C 
ATOM     20  C   UNL     1      70.521  11.751 360.448  1.00  0.00     0.008 C 
ATOM     21  C   UNL     1      69.257  11.358 361.234  1.00  0.00     0.007 C 
ATOM     22  C   UNL     1      71.090  13.652 361.996  1.00  0.00     0.012 C 
ATOM     23  C   UNL     1      73.369  11.432 359.575  1.00  0.00     0.012 C 
ATOM     24  C   UNL     1      77.421  16.102 359.547  1.00  0.00     0.014 C 
ATOM     25  C   UNL     1      76.185  15.736 357.457  1.00  0.00     0.014 C 
ATOM     26  C   UNL     1      76.193  14.503 362.059  1.00  0.00     0.012 C 
ATOM     27  C   UNL     1      69.621   8.909 361.784  1.00  0.00     0.011 C 
ENDROOT
BRANCH   1  28
ATOM     28  C   UNL     1      70.820  10.906 365.799  1.00  0.00    -0.077 C 
ATOM     29  C   UNL     1      71.301   9.477 365.875  1.00  0.00     0.039 C 
ATOM     30  C   UNL     1      70.889  11.664 366.908  1.00  0.00     0.008 C 
ENDBRANCH   1  28
BRANCH  13  31
ATOM     31  O   UNL     1      76.752  12.920 357.597  1.00  0.00    -0.393 OA
ATOM     32  H   UNL     1      77.246  12.059 357.585  1.00  0.00     0.210 HD
ENDBRANCH  13  31
TORSDOF 2
ENDMDL
MODEL 7
REMARK VINA RESULT:    -5.346      2.245      7.754
REMARK INTER + INTRA:          -6.114
REMARK INTER:                  -5.597
REMARK INTRA:                  -0.517
REMARK UNBOUND:                -0.299
REMARK SMILES C=C(C)[C@@H]1CC[C@@]2(C)CC[C@@]3(C)[C@@H](CC[C@H]4[C@@]5(C)CC[C@@H](O)C(C)(C)[C@H]5CC[C@@]43C)[C@@H]12
REMARK SMILES IDX 4 1 5 2 6 3 7 4 31 5 13 6 14 7 15 8 16 9 17 10 19 11 20 12
REMARK SMILES IDX 21 13 23 14 26 15 27 16 28 17 29 18 11 19 10 20 9 21 12 22
REMARK SMILES IDX 30 23 24 24 25 25 18 26 8 27 2 28 3 29 1 30 22 31
REMARK H PARENT 22 32
REMARK Flexibility Score: inf
ROOT
ATOM      1  C   UNL     1      70.345  14.183 358.715  1.00  0.00     0.018 C 
ATOM      2  C   UNL     1      70.740  15.666 358.641  1.00  0.00     0.009 C 
ATOM      3  C   UNL     1      72.197  15.754 359.080  1.00  0.00     0.008 C 
ATOM      4  C   UNL     1      72.430  14.579 360.046  1.00  0.00    -0.029 C 
ATOM      5  C   UNL     1      71.473  13.474 359.514  1.00  0.00     0.006 C 
ATOM      6  C   UNL     1      71.043  12.417 360.583  1.00  0.00    -0.000 C 
ATOM      7  C   UNL     1      70.038  11.393 360.028  1.00  0.00     0.005 C 
ATOM      8  C   UNL     1      69.890  10.203 360.981  1.00  0.00     0.005 C 
ATOM      9  C   UNL     1      69.405  10.666 362.384  1.00  0.00     0.002 C 
ATOM     10  C   UNL     1      68.807   9.482 363.284  1.00  0.00    -0.026 C 
ATOM     11  C   UNL     1      69.720   8.211 363.201  1.00  0.00     0.010 C 
ATOM     12  C   UNL     1      69.372   7.097 364.194  1.00  0.00     0.033 C 
ATOM     13  C   UNL     1      69.329   7.600 365.636  1.00  0.00     0.120 C 
ATOM     14  C   UNL     1      68.297   8.755 365.832  1.00  0.00    -0.006 C 
ATOM     15  C   UNL     1      68.552   9.945 364.799  1.00  0.00     0.003 C 
ATOM     16  C   UNL     1      69.591  10.969 365.333  1.00  0.00     0.005 C 
ATOM     17  C   UNL     1      69.839  12.134 364.375  1.00  0.00     0.008 C 
ATOM     18  C   UNL     1      70.441  11.684 363.019  1.00  0.00    -0.024 C 
ATOM     19  C   UNL     1      70.650  12.951 362.012  1.00  0.00    -0.024 C 
ATOM     20  C   UNL     1      71.821  13.880 362.471  1.00  0.00     0.008 C 
ATOM     21  C   UNL     1      72.107  15.041 361.500  1.00  0.00     0.007 C 
ATOM     22  C   UNL     1      69.359  13.839 361.953  1.00  0.00     0.012 C 
ATOM     23  C   UNL     1      71.825  11.009 363.327  1.00  0.00     0.012 C 
ATOM     24  C   UNL     1      66.851   8.197 365.689  1.00  0.00     0.014 C 
ATOM     25  C   UNL     1      68.375   9.234 367.312  1.00  0.00     0.014 C 
ATOM     26  C   UNL     1      67.415   9.095 362.648  1.00  0.00     0.012 C 
ATOM     27  C   UNL     1      73.906  14.120 359.968  1.00  0.00     0.011 C 
ENDROOT
BRANCH   1  28
ATOM     28  C   UNL     1      70.127  13.579 357.326  1.00  0.00    -0.077 C 
ATOM     29  C   UNL     1      68.737  13.500 356.744  1.00  0.00     0.039 C 
ATOM     30  C   UNL     1      71.156  13.123 356.589  1.00  0.00     0.008 C 
ENDBRANCH   1  28
BRANCH  13  31
ATOM     31  O   UNL     1      70.624   8.013 366.002  1.00  0.00    -0.393 OA
ATOM     32  H   UNL     1      70.673   8.997 365.881  1.00  0.00     0.210 HD
ENDBRANCH  13  31
TORSDOF 2
ENDMDL
MODEL 8
REMARK VINA RESULT:    -5.284      1.895      3.105
REMARK INTER + INTRA:          -6.046
REMARK INTER:                  -5.509
REMARK INTRA:                  -0.537
REMARK UNBOUND:                -0.299
REMARK SMILES C=C(C)[C@@H]1CC[C@@]2(C)CC[C@@]3(C)[C@@H](CC[C@H]4[C@@]5(C)CC[C@@H](O)C(C)(C)[C@H]5CC[C@@]43C)[C@@H]12
REMARK SMILES IDX 4 1 5 2 6 3 7 4 31 5 13 6 14 7 15 8 16 9 17 10 19 11 20 12
REMARK SMILES IDX 21 13 23 14 26 15 27 16 28 17 29 18 11 19 10 20 9 21 12 22
REMARK SMILES IDX 30 23 24 24 25 25 18 26 8 27 2 28 3 29 1 30 22 31
REMARK H PARENT 22 32
REMARK Flexibility Score: inf
ROOT
ATOM      1  C   UNL     1      69.868  10.242 365.707  1.00  0.00     0.018 C 
ATOM      2  C   UNL     1      69.151  10.769 366.959  1.00  0.00     0.009 C 
ATOM      3  C   UNL     1      67.759  10.147 366.962  1.00  0.00     0.008 C 
ATOM      4  C   UNL     1      67.397   9.890 365.488  1.00  0.00    -0.029 C 
ATOM      5  C   UNL     1      68.770   9.588 364.823  1.00  0.00     0.006 C 
ATOM      6  C   UNL     1      68.823   9.866 363.285  1.00  0.00    -0.000 C 
ATOM      7  C   UNL     1      70.221   9.627 362.690  1.00  0.00     0.005 C 
ATOM      8  C   UNL     1      70.163   9.592 361.161  1.00  0.00     0.005 C 
ATOM      9  C   UNL     1      69.603  10.926 360.590  1.00  0.00     0.002 C 
ATOM     10  C   UNL     1      69.917  11.147 359.034  1.00  0.00    -0.026 C 
ATOM     11  C   UNL     1      69.655   9.830 358.226  1.00  0.00     0.010 C 
ATOM     12  C   UNL     1      69.705   9.985 356.702  1.00  0.00     0.033 C 
ATOM     13  C   UNL     1      68.770  11.086 356.201  1.00  0.00     0.120 C 
ATOM     14  C   UNL     1      69.096  12.475 356.834  1.00  0.00    -0.006 C 
ATOM     15  C   UNL     1      69.117  12.398 358.428  1.00  0.00     0.003 C 
ATOM     16  C   UNL     1      67.705  12.606 359.041  1.00  0.00     0.005 C 
ATOM     17  C   UNL     1      67.695  12.561 360.568  1.00  0.00     0.008 C 
ATOM     18  C   UNL     1      68.137  11.187 361.136  1.00  0.00    -0.024 C 
ATOM     19  C   UNL     1      68.154  11.196 362.768  1.00  0.00    -0.024 C 
ATOM     20  C   UNL     1      66.713  11.227 363.372  1.00  0.00     0.008 C 
ATOM     21  C   UNL     1      66.683  11.149 364.909  1.00  0.00     0.007 C 
ATOM     22  C   UNL     1      68.905  12.461 363.313  1.00  0.00     0.012 C 
ATOM     23  C   UNL     1      67.109  10.119 360.616  1.00  0.00     0.012 C 
ATOM     24  C   UNL     1      70.457  12.996 356.286  1.00  0.00     0.014 C 
ATOM     25  C   UNL     1      68.055  13.507 356.308  1.00  0.00     0.014 C 
ATOM     26  C   UNL     1      71.462  11.455 358.930  1.00  0.00     0.012 C 
ATOM     27  C   UNL     1      66.451   8.669 365.386  1.00  0.00     0.011 C 
ENDROOT
BRANCH   1  28
ATOM     28  C   UNL     1      71.003   9.279 366.060  1.00  0.00    -0.077 C 
ATOM     29  C   UNL     1      70.718   7.809 366.247  1.00  0.00     0.039 C 
ATOM     30  C   UNL     1      72.271   9.707 366.197  1.00  0.00     0.008 C 
ENDBRANCH   1  28
BRANCH  13  31
ATOM     31  O   UNL     1      67.444  10.703 356.478  1.00  0.00    -0.393 OA
ATOM     32  H   UNL     1      66.859  11.482 356.286  1.00  0.00     0.210 HD
ENDBRANCH  13  31
TORSDOF 2
ENDMDL
MODEL 9
REMARK VINA RESULT:    -4.632      2.222      7.944
REMARK INTER + INTRA:          -5.337
REMARK INTER:                  -4.799
REMARK INTRA:                  -0.538
REMARK UNBOUND:                -0.299
REMARK SMILES C=C(C)[C@@H]1CC[C@@]2(C)CC[C@@]3(C)[C@@H](CC[C@H]4[C@@]5(C)CC[C@@H](O)C(C)(C)[C@H]5CC[C@@]43C)[C@@H]12
REMARK SMILES IDX 4 1 5 2 6 3 7 4 31 5 13 6 14 7 15 8 16 9 17 10 19 11 20 12
REMARK SMILES IDX 21 13 23 14 26 15 27 16 28 17 29 18 11 19 10 20 9 21 12 22
REMARK SMILES IDX 30 23 24 24 25 25 18 26 8 27 2 28 3 29 1 30 22 31
REMARK H PARENT 22 32
REMARK Flexibility Score: inf
ROOT
ATOM      1  C   UNL     1      69.215  14.246 358.892  1.00  0.00     0.018 C 
ATOM      2  C   UNL     1      70.336  14.800 358.001  1.00  0.00     0.009 C 
ATOM      3  C   UNL     1      70.699  13.695 357.016  1.00  0.00     0.008 C 
ATOM      4  C   UNL     1      70.384  12.365 357.722  1.00  0.00    -0.029 C 
ATOM      5  C   UNL     1      69.174  12.714 358.634  1.00  0.00     0.006 C 
ATOM      6  C   UNL     1      69.004  11.778 359.875  1.00  0.00    -0.000 C 
ATOM      7  C   UNL     1      67.842  12.212 360.786  1.00  0.00     0.005 C 
ATOM      8  C   UNL     1      67.501  11.112 361.794  1.00  0.00     0.005 C 
ATOM      9  C   UNL     1      68.728  10.768 362.686  1.00  0.00     0.002 C 
ATOM     10  C   UNL     1      68.352   9.974 364.026  1.00  0.00    -0.026 C 
ATOM     11  C   UNL     1      67.318   8.836 363.721  1.00  0.00     0.010 C 
ATOM     12  C   UNL     1      67.059   7.869 364.882  1.00  0.00     0.033 C 
ATOM     13  C   UNL     1      68.349   7.255 365.424  1.00  0.00     0.120 C 
ATOM     14  C   UNL     1      69.359   8.337 365.920  1.00  0.00    -0.006 C 
ATOM     15  C   UNL     1      69.652   9.423 364.787  1.00  0.00     0.003 C 
ATOM     16  C   UNL     1      70.802   8.982 363.840  1.00  0.00     0.005 C 
ATOM     17  C   UNL     1      71.122  10.012 362.757  1.00  0.00     0.008 C 
ATOM     18  C   UNL     1      69.936  10.263 361.791  1.00  0.00    -0.024 C 
ATOM     19  C   UNL     1      70.305  11.399 360.679  1.00  0.00    -0.024 C 
ATOM     20  C   UNL     1      71.335  10.877 359.625  1.00  0.00     0.008 C 
ATOM     21  C   UNL     1      71.645  11.891 358.508  1.00  0.00     0.007 C 
ATOM     22  C   UNL     1      70.944  12.661 361.357  1.00  0.00     0.012 C 
ATOM     23  C   UNL     1      69.620   8.898 361.081  1.00  0.00     0.012 C 
ATOM     24  C   UNL     1      68.812   9.016 367.209  1.00  0.00     0.014 C 
ATOM     25  C   UNL     1      70.656   7.615 366.392  1.00  0.00     0.014 C 
ATOM     26  C   UNL     1      67.632  11.012 364.974  1.00  0.00     0.012 C 
ATOM     27  C   UNL     1      69.998  11.293 356.674  1.00  0.00     0.011 C 
ENDROOT
BRANCH   1  28
ATOM     28  C   UNL     1      67.875  14.933 358.621  1.00  0.00    -0.077 C 
ATOM     29  C   UNL     1      66.847  14.266 357.739  1.00  0.00     0.039 C 
ATOM     30  C   UNL     1      67.574  16.125 359.166  1.00  0.00     0.008 C 
ENDBRANCH   1  28
BRANCH  13  31
ATOM     31  O   UNL     1      68.919   6.456 364.415  1.00  0.00    -0.393 OA
ATOM     32  H   UNL     1      69.799   6.137 364.744  1.00  0.00     0.210 HD
ENDBRANCH  13  31
TORSDOF 2
ENDMDL
