MODEL 1
REMARK VINA RESULT:    -4.460      0.000      0.000
REMARK INTER + INTRA:          -6.586
REMARK INTER:                  -6.024
REMARK INTRA:                  -0.561
REMARK UNBOUND:                -0.561
REMARK SMILES CC(=O)CCC=C(C)CCC=C(C)C
REMARK SMILES IDX 7 1 6 2 8 3 9 4 10 5 11 6 13 7 12 8 14 9 5 10 4 11 2 12 3 13
REMARK SMILES IDX 1 14
REMARK H PARENT
REMARK Flexibility Score: inf
ROOT
ATOM      1  C   UNL     1     155.980 160.978 199.135  1.00  0.00    -0.077 C 
ATOM      2  C   UNL     1     157.009 161.705 199.628  1.00  0.00    -0.028 C 
ATOM      3  C   UNL     1     155.495 161.141 197.714  1.00  0.00     0.039 C 
ENDROOT
BRANCH   1   4
ATOM      4  C   UNL     1     155.306 159.963 200.032  1.00  0.00     0.034 C 
BRANCH   4   5
ATOM      5  C   UNL     1     153.801 159.893 199.745  1.00  0.00     0.032 C 
BRANCH   5   6
ATOM      6  C   UNL     1     153.004 160.135 201.002  1.00  0.00    -0.028 C 
ATOM      7  C   UNL     1     151.003 160.555 202.366  1.00  0.00     0.039 C 
ATOM      8  C   UNL     1     151.673 160.367 201.028  1.00  0.00    -0.080 C 
ATOM      9  C   UNL     1     150.851 160.462 199.764  1.00  0.00     0.039 C 
ENDBRANCH   5   6
ENDBRANCH   4   5
ENDBRANCH   1   4
BRANCH   2  10
ATOM     10  C   UNL     1     157.745 162.776 198.861  1.00  0.00     0.035 C 
BRANCH  10  11
ATOM     11  C   UNL     1     157.903 164.066 199.678  1.00  0.00     0.079 C 
BRANCH  11  12
ATOM     12  C   UNL     1     157.435 165.276 198.908  1.00  0.00     0.130 C 
ATOM     13  O   UNL     1     158.047 166.328 199.005  1.00  0.00    -0.300 OA
ATOM     14  C   UNL     1     156.219 165.219 198.031  1.00  0.00     0.087 C 
ENDBRANCH  11  12
ENDBRANCH  10  11
ENDBRANCH   2  10
TORSDOF 6
ENDMDL
MODEL 2
REMARK VINA RESULT:    -4.209      2.537      6.359
REMARK INTER + INTRA:          -6.246
REMARK INTER:                  -5.526
REMARK INTRA:                  -0.720
REMARK UNBOUND:                -0.561
REMARK SMILES CC(=O)CCC=C(C)CCC=C(C)C
REMARK SMILES IDX 7 1 6 2 8 3 9 4 10 5 11 6 13 7 12 8 14 9 5 10 4 11 2 12 3 13
REMARK SMILES IDX 1 14
REMARK H PARENT
REMARK Flexibility Score: inf
ROOT
ATOM      1  C   UNL     1     156.481 161.340 198.708  1.00  0.00    -0.077 C 
ATOM      2  C   UNL     1     155.873 160.663 199.708  1.00  0.00    -0.028 C 
ATOM      3  C   UNL     1     155.818 161.549 197.367  1.00  0.00     0.039 C 
ENDROOT
BRANCH   1   4
ATOM      4  C   UNL     1     157.860 161.914 198.945  1.00  0.00     0.034 C 
BRANCH   4   5
ATOM      5  C   UNL     1     157.782 163.199 199.779  1.00  0.00     0.032 C 
BRANCH   5   6
ATOM      6  C   UNL     1     158.425 164.350 199.048  1.00  0.00    -0.028 C 
ATOM      7  C   UNL     1     158.519 166.405 197.703  1.00  0.00     0.039 C 
ATOM      8  C   UNL     1     157.743 165.288 198.353  1.00  0.00    -0.080 C 
ATOM      9  C   UNL     1     156.241 165.235 198.197  1.00  0.00     0.039 C 
ENDBRANCH   5   6
ENDBRANCH   4   5
ENDBRANCH   1   4
BRANCH   2  10
ATOM     10  C   UNL     1     154.519 160.005 199.598  1.00  0.00     0.035 C 
BRANCH  10  11
ATOM     11  C   UNL     1     153.864 159.797 200.971  1.00  0.00     0.079 C 
BRANCH  11  12
ATOM     12  C   UNL     1     152.420 160.235 200.973  1.00  0.00     0.130 C 
ATOM     13  O   UNL     1     151.911 160.630 202.010  1.00  0.00    -0.300 OA
ATOM     14  C   UNL     1     151.588 160.182 199.726  1.00  0.00     0.087 C 
ENDBRANCH  11  12
ENDBRANCH  10  11
ENDBRANCH   2  10
TORSDOF 6
ENDMDL
MODEL 3
REMARK VINA RESULT:    -4.176      1.523      2.825
REMARK INTER + INTRA:          -6.202
REMARK INTER:                  -5.522
REMARK INTRA:                  -0.680
REMARK UNBOUND:                -0.561
REMARK SMILES CC(=O)CCC=C(C)CCC=C(C)C
REMARK SMILES IDX 7 1 6 2 8 3 9 4 10 5 11 6 13 7 12 8 14 9 5 10 4 11 2 12 3 13
REMARK SMILES IDX 1 14
REMARK H PARENT
REMARK Flexibility Score: inf
ROOT
ATOM      1  C   UNL     1     157.608 162.675 198.950  1.00  0.00    -0.077 C 
ATOM      2  C   UNL     1     156.810 163.562 198.313  1.00  0.00    -0.028 C 
ATOM      3  C   UNL     1     158.594 163.105 200.010  1.00  0.00     0.039 C 
ENDROOT
BRANCH   1   4
ATOM      4  C   UNL     1     157.500 161.208 198.596  1.00  0.00     0.034 C 
BRANCH   4   5
ATOM      5  C   UNL     1     156.034 160.797 198.412  1.00  0.00     0.032 C 
BRANCH   5   6
ATOM      6  C   UNL     1     155.407 160.442 199.736  1.00  0.00    -0.028 C 
ATOM      7  C   UNL     1     153.659 159.648 201.271  1.00  0.00     0.039 C 
ATOM      8  C   UNL     1     154.138 160.000 199.886  1.00  0.00    -0.080 C 
ATOM      9  C   UNL     1     153.192 159.870 198.715  1.00  0.00     0.039 C 
ENDBRANCH   5   6
ENDBRANCH   4   5
ENDBRANCH   1   4
BRANCH   2  10
ATOM     10  C   UNL     1     156.840 165.055 198.536  1.00  0.00     0.035 C 
BRANCH  10  11
ATOM     11  C   UNL     1     157.817 165.762 197.586  1.00  0.00     0.079 C 
BRANCH  11  12
ATOM     12  C   UNL     1     158.536 166.898 198.269  1.00  0.00     0.130 C 
ATOM     13  O   UNL     1     158.861 167.882 197.624  1.00  0.00    -0.300 OA
ATOM     14  C   UNL     1     158.876 166.840 199.730  1.00  0.00     0.087 C 
ENDBRANCH  11  12
ENDBRANCH  10  11
ENDBRANCH   2  10
TORSDOF 6
ENDMDL
MODEL 4
REMARK VINA RESULT:    -4.130      3.770      5.921
REMARK INTER + INTRA:          -6.139
REMARK INTER:                  -4.643
REMARK INTRA:                  -1.496
REMARK UNBOUND:                -0.561
REMARK SMILES CC(=O)CCC=C(C)CCC=C(C)C
REMARK SMILES IDX 7 1 6 2 8 3 9 4 10 5 11 6 13 7 12 8 14 9 5 10 4 11 2 12 3 13
REMARK SMILES IDX 1 14
REMARK H PARENT
REMARK Flexibility Score: inf
ROOT
ATOM      1  C   UNL     1     157.410 162.904 198.906  1.00  0.00    -0.077 C 
ATOM      2  C   UNL     1     156.702 163.859 198.262  1.00  0.00    -0.028 C 
ATOM      3  C   UNL     1     158.384 163.240 200.011  1.00  0.00     0.039 C 
ENDROOT
BRANCH   1   4
ATOM      4  C   UNL     1     157.210 161.456 198.515  1.00  0.00     0.034 C 
BRANCH   4   5
ATOM      5  C   UNL     1     157.624 161.220 197.057  1.00  0.00     0.032 C 
BRANCH   5   6
ATOM      6  C   UNL     1     159.103 161.452 196.877  1.00  0.00    -0.028 C 
ATOM      7  C   UNL     1     161.134 162.527 196.006  1.00  0.00     0.039 C 
ATOM      8  C   UNL     1     159.634 162.385 196.056  1.00  0.00    -0.080 C 
ATOM      9  C   UNL     1     158.773 163.268 195.183  1.00  0.00     0.039 C 
ENDBRANCH   5   6
ENDBRANCH   4   5
ENDBRANCH   1   4
BRANCH   2  10
ATOM     10  C   UNL     1     156.829 165.341 198.520  1.00  0.00     0.035 C 
BRANCH  10  11
ATOM     11  C   UNL     1     157.417 166.089 197.315  1.00  0.00     0.079 C 
BRANCH  11  12
ATOM     12  C   UNL     1     158.793 166.629 197.610  1.00  0.00     0.130 C 
ATOM     13  O   UNL     1     158.965 167.836 197.683  1.00  0.00    -0.300 OA
ATOM     14  C   UNL     1     159.966 165.714 197.803  1.00  0.00     0.087 C 
ENDBRANCH  11  12
ENDBRANCH  10  11
ENDBRANCH   2  10
TORSDOF 6
ENDMDL
MODEL 5
REMARK VINA RESULT:    -4.117      1.006      1.164
REMARK INTER + INTRA:          -6.122
REMARK INTER:                  -5.663
REMARK INTRA:                  -0.460
REMARK UNBOUND:                -0.561
REMARK SMILES CC(=O)CCC=C(C)CCC=C(C)C
REMARK SMILES IDX 7 1 6 2 8 3 9 4 10 5 11 6 13 7 12 8 14 9 5 10 4 11 2 12 3 13
REMARK SMILES IDX 1 14
REMARK H PARENT
REMARK Flexibility Score: inf
ROOT
ATOM      1  C   UNL     1     155.677 160.659 199.070  1.00  0.00    -0.077 C 
ATOM      2  C   UNL     1     156.725 161.447 199.403  1.00  0.00    -0.028 C 
ATOM      3  C   UNL     1     155.124 160.616 197.666  1.00  0.00     0.039 C 
ENDROOT
BRANCH   1   4
ATOM      4  C   UNL     1     155.051 159.787 200.137  1.00  0.00     0.034 C 
BRANCH   4   5
ATOM      5  C   UNL     1     153.535 159.676 199.932  1.00  0.00     0.032 C 
BRANCH   5   6
ATOM      6  C   UNL     1     152.794 160.108 201.172  1.00  0.00    -0.028 C 
ATOM      7  C   UNL     1     150.870 160.823 202.523  1.00  0.00     0.039 C 
ATOM      8  C   UNL     1     151.485 160.447 201.200  1.00  0.00    -0.080 C 
ATOM      9  C   UNL     1     150.639 160.476 199.949  1.00  0.00     0.039 C 
ENDBRANCH   5   6
ENDBRANCH   4   5
ENDBRANCH   1   4
BRANCH   2  10
ATOM     10  C   UNL     1     157.420 162.394 198.454  1.00  0.00     0.035 C 
BRANCH  10  11
ATOM     11  C   UNL     1     157.078 163.861 198.748  1.00  0.00     0.079 C 
BRANCH  11  12
ATOM     12  C   UNL     1     158.257 164.604 199.324  1.00  0.00     0.130 C 
ATOM     13  O   UNL     1     159.034 164.022 200.066  1.00  0.00    -0.300 OA
ATOM     14  C   UNL     1     158.492 166.053 199.016  1.00  0.00     0.087 C 
ENDBRANCH  11  12
ENDBRANCH  10  11
ENDBRANCH   2  10
TORSDOF 6
ENDMDL
MODEL 6
REMARK VINA RESULT:    -4.082      2.640      6.790
REMARK INTER + INTRA:          -6.075
REMARK INTER:                  -5.512
REMARK INTRA:                  -0.564
REMARK UNBOUND:                -0.561
REMARK SMILES CC(=O)CCC=C(C)CCC=C(C)C
REMARK SMILES IDX 7 1 6 2 8 3 9 4 10 5 11 6 13 7 12 8 14 9 5 10 4 11 2 12 3 13
REMARK SMILES IDX 1 14
REMARK H PARENT
REMARK Flexibility Score: inf
ROOT
ATOM      1  C   UNL     1     157.978 161.909 199.139  1.00  0.00    -0.077 C 
ATOM      2  C   UNL     1     156.629 161.851 199.224  1.00  0.00    -0.028 C 
ATOM      3  C   UNL     1     158.797 160.743 198.638  1.00  0.00     0.039 C 
ENDROOT
BRANCH   1   4
ATOM      4  C   UNL     1     158.683 163.184 199.547  1.00  0.00     0.034 C 
BRANCH   4   5
ATOM      5  C   UNL     1     157.684 164.337 199.700  1.00  0.00     0.032 C 
BRANCH   5   6
ATOM      6  C   UNL     1     157.937 165.405 198.666  1.00  0.00    -0.028 C 
ATOM      7  C   UNL     1     158.799 167.525 197.769  1.00  0.00     0.039 C 
ATOM      8  C   UNL     1     158.586 166.565 198.912  1.00  0.00    -0.080 C 
ATOM      9  C   UNL     1     159.080 166.930 200.292  1.00  0.00     0.039 C 
ENDBRANCH   5   6
ENDBRANCH   4   5
ENDBRANCH   1   4
BRANCH   2  10
ATOM     10  C   UNL     1     155.801 160.634 198.890  1.00  0.00     0.035 C 
BRANCH  10  11
ATOM     11  C   UNL     1     155.252 159.946 200.147  1.00  0.00     0.079 C 
BRANCH  11  12
ATOM     12  C   UNL     1     153.746 160.008 200.205  1.00  0.00     0.130 C 
ATOM     13  O   UNL     1     153.191 160.200 201.276  1.00  0.00    -0.300 OA
ATOM     14  C   UNL     1     152.910 159.824 198.973  1.00  0.00     0.087 C 
ENDBRANCH  11  12
ENDBRANCH  10  11
ENDBRANCH   2  10
TORSDOF 6
ENDMDL
MODEL 7
REMARK VINA RESULT:    -4.079      3.378      7.085
REMARK INTER + INTRA:          -6.070
REMARK INTER:                  -4.808
REMARK INTRA:                  -1.262
REMARK UNBOUND:                -0.561
REMARK SMILES CC(=O)CCC=C(C)CCC=C(C)C
REMARK SMILES IDX 7 1 6 2 8 3 9 4 10 5 11 6 13 7 12 8 14 9 5 10 4 11 2 12 3 13
REMARK SMILES IDX 1 14
REMARK H PARENT
REMARK Flexibility Score: inf
ROOT
ATOM      1  C   UNL     1     157.670 164.832 199.090  1.00  0.00    -0.077 C 
ATOM      2  C   UNL     1     158.105 163.742 199.764  1.00  0.00    -0.028 C 
ATOM      3  C   UNL     1     156.390 164.816 198.288  1.00  0.00     0.039 C 
ENDROOT
BRANCH   1   4
ATOM      4  C   UNL     1     158.485 166.105 199.154  1.00  0.00     0.034 C 
BRANCH   4   5
ATOM      5  C   UNL     1     159.188 166.371 197.817  1.00  0.00     0.032 C 
BRANCH   5   6
ATOM      6  C   UNL     1     160.411 165.500 197.673  1.00  0.00    -0.028 C 
ATOM      7  C   UNL     1     161.786 163.659 196.802  1.00  0.00     0.039 C 
ATOM      8  C   UNL     1     160.483 164.413 196.872  1.00  0.00    -0.080 C 
ATOM      9  C   UNL     1     159.297 163.930 196.071  1.00  0.00     0.039 C 
ENDBRANCH   5   6
ENDBRANCH   4   5
ENDBRANCH   1   4
BRANCH   2  10
ATOM     10  C   UNL     1     157.416 162.399 199.756  1.00  0.00     0.035 C 
BRANCH  10  11
ATOM     11  C   UNL     1     158.004 161.454 198.699  1.00  0.00     0.079 C 
BRANCH  11  12
ATOM     12  C   UNL     1     156.997 161.122 197.626  1.00  0.00     0.130 C 
ATOM     13  O   UNL     1     157.371 160.974 196.473  1.00  0.00    -0.300 OA
ATOM     14  C   UNL     1     155.537 160.982 197.942  1.00  0.00     0.087 C 
ENDBRANCH  11  12
ENDBRANCH  10  11
ENDBRANCH   2  10
TORSDOF 6
ENDMDL
MODEL 8
REMARK VINA RESULT:    -4.064      5.140      6.428
REMARK INTER + INTRA:          -6.050
REMARK INTER:                  -4.781
REMARK INTRA:                  -1.269
REMARK UNBOUND:                -0.561
REMARK SMILES CC(=O)CCC=C(C)CCC=C(C)C
REMARK SMILES IDX 7 1 6 2 8 3 9 4 10 5 11 6 13 7 12 8 14 9 5 10 4 11 2 12 3 13
REMARK SMILES IDX 1 14
REMARK H PARENT
REMARK Flexibility Score: inf
ROOT
ATOM      1  C   UNL     1     151.500 157.854 199.310  1.00  0.00    -0.077 C 
ATOM      2  C   UNL     1     151.421 157.052 200.397  1.00  0.00    -0.028 C 
ATOM      3  C   UNL     1     152.784 158.020 198.531  1.00  0.00     0.039 C 
ENDROOT
BRANCH   1   4
ATOM      4  C   UNL     1     150.262 158.596 198.857  1.00  0.00     0.034 C 
BRANCH   4   5
ATOM      5  C   UNL     1     150.317 160.066 199.288  1.00  0.00     0.032 C 
BRANCH   5   6
ATOM      6  C   UNL     1     149.781 160.234 200.687  1.00  0.00    -0.028 C 
ATOM      7  C   UNL     1     149.871 160.640 203.110  1.00  0.00     0.039 C 
ATOM      8  C   UNL     1     150.551 160.455 201.777  1.00  0.00    -0.080 C 
ATOM      9  C   UNL     1     152.058 160.500 201.697  1.00  0.00     0.039 C 
ENDBRANCH   5   6
ENDBRANCH   4   5
ENDBRANCH   1   4
BRANCH   2  10
ATOM     10  C   UNL     1     152.583 156.287 200.982  1.00  0.00     0.035 C 
BRANCH  10  11
ATOM     11  C   UNL     1     153.110 156.933 202.271  1.00  0.00     0.079 C 
BRANCH  11  12
ATOM     12  C   UNL     1     154.593 157.197 202.197  1.00  0.00     0.130 C 
ATOM     13  O   UNL     1     155.376 156.379 202.654  1.00  0.00    -0.300 OA
ATOM     14  C   UNL     1     155.131 158.456 201.583  1.00  0.00     0.087 C 
ENDBRANCH  11  12
ENDBRANCH  10  11
ENDBRANCH   2  10
TORSDOF 6
ENDMDL
MODEL 9
REMARK VINA RESULT:    -3.979      4.820      6.330
REMARK INTER + INTRA:          -5.936
REMARK INTER:                  -4.837
REMARK INTRA:                  -1.099
REMARK UNBOUND:                -0.561
REMARK SMILES CC(=O)CCC=C(C)CCC=C(C)C
REMARK SMILES IDX 7 1 6 2 8 3 9 4 10 5 11 6 13 7 12 8 14 9 5 10 4 11 2 12 3 13
REMARK SMILES IDX 1 14
REMARK H PARENT
REMARK Flexibility Score: inf
ROOT
ATOM      1  C   UNL     1     153.585 159.619 200.921  1.00  0.00    -0.077 C 
ATOM      2  C   UNL     1     152.531 160.136 201.591  1.00  0.00    -0.028 C 
ATOM      3  C   UNL     1     153.724 159.756 199.423  1.00  0.00     0.039 C 
ENDROOT
BRANCH   1   4
ATOM      4  C   UNL     1     154.662 158.893 201.698  1.00  0.00     0.034 C 
BRANCH   4   5
ATOM      5  C   UNL     1     154.410 157.380 201.698  1.00  0.00     0.032 C 
BRANCH   5   6
ATOM      6  C   UNL     1     153.452 156.997 202.797  1.00  0.00    -0.028 C 
ATOM      7  C   UNL     1     151.352 156.193 203.789  1.00  0.00     0.039 C 
ATOM      8  C   UNL     1     152.183 156.579 202.592  1.00  0.00    -0.080 C 
ATOM      9  C   UNL     1     151.578 156.507 201.210  1.00  0.00     0.039 C 
ENDBRANCH   5   6
ENDBRANCH   4   5
ENDBRANCH   1   4
BRANCH   2  10
ATOM     10  C   UNL     1     151.368 160.847 200.942  1.00  0.00     0.035 C 
BRANCH  10  11
ATOM     11  C   UNL     1     150.047 160.089 201.133  1.00  0.00     0.079 C 
BRANCH  11  12
ATOM     12  C   UNL     1     149.176 160.167 199.905  1.00  0.00     0.130 C 
ATOM     13  O   UNL     1     147.995 159.867 199.982  1.00  0.00    -0.300 OA
ATOM     14  C   UNL     1     149.734 160.593 198.579  1.00  0.00     0.087 C 
ENDBRANCH  11  12
ENDBRANCH  10  11
ENDBRANCH   2  10
TORSDOF 6
ENDMDL
