MODEL 1
REMARK VINA RESULT:    -3.036      0.000      0.000
REMARK INTER + INTRA:          -3.125
REMARK INTER:                  -3.125
REMARK INTRA:                   0.000
REMARK UNBOUND:                 0.000
REMARK SMILES CC1(C)[C@H]2CC[C@](C)(C2)[C@@H]1O
REMARK SMILES IDX 1 1 2 2 4 3 5 4 6 5 7 6 9 7 10 8 8 9 3 10 11 11
REMARK H PARENT 11 12
REMARK Flexibility Score: inf
ROOT
ATOM      1  C   UNL     1     129.516 145.927 140.630  1.00  0.00     0.014 C 
ATOM      2  C   UNL     1     129.751 145.662 139.122  1.00  0.00    -0.006 C 
ATOM      3  C   UNL     1     130.849 146.587 138.490  1.00  0.00    -0.002 C 
ATOM      4  C   UNL     1     132.133 146.603 139.347  1.00  0.00     0.005 C 
ATOM      5  C   UNL     1     132.686 145.181 139.161  1.00  0.00     0.010 C 
ATOM      6  C   UNL     1     131.698 144.559 138.146  1.00  0.00    -0.006 C 
ATOM      7  C   UNL     1     131.335 145.766 137.308  1.00  0.00     0.013 C 
ATOM      8  C   UNL     1     130.364 144.239 138.887  1.00  0.00     0.126 C 
ATOM      9  C   UNL     1     132.306 143.391 137.356  1.00  0.00     0.014 C 
ATOM     10  C   UNL     1     128.395 145.888 138.404  1.00  0.00     0.014 C 
ENDROOT
BRANCH   8  11
ATOM     11  O   UNL     1     129.515 143.373 138.166  1.00  0.00    -0.392 OA
ATOM     12  H   UNL     1     129.893 142.457 138.188  1.00  0.00     0.211 HD
ENDBRANCH   8  11
TORSDOF 1
ENDMDL
MODEL 2
REMARK VINA RESULT:    -2.990      1.322      3.311
REMARK INTER + INTRA:          -3.078
REMARK INTER:                  -3.078
REMARK INTRA:                   0.000
REMARK UNBOUND:                 0.000
REMARK SMILES CC1(C)[C@H]2CC[C@](C)(C2)[C@@H]1O
REMARK SMILES IDX 1 1 2 2 4 3 5 4 6 5 7 6 9 7 10 8 8 9 3 10 11 11
REMARK H PARENT 11 12
REMARK Flexibility Score: inf
ROOT
ATOM      1  C   UNL     1     132.780 146.086 139.552  1.00  0.00     0.014 C 
ATOM      2  C   UNL     1     131.665 145.310 138.806  1.00  0.00    -0.006 C 
ATOM      3  C   UNL     1     130.630 144.628 139.766  1.00  0.00    -0.002 C 
ATOM      4  C   UNL     1     130.118 145.616 140.837  1.00  0.00     0.005 C 
ATOM      5  C   UNL     1     129.276 146.604 140.015  1.00  0.00     0.010 C 
ATOM      6  C   UNL     1     129.334 146.003 138.591  1.00  0.00    -0.006 C 
ATOM      7  C   UNL     1     129.390 144.521 138.897  1.00  0.00     0.013 C 
ATOM      8  C   UNL     1     130.746 146.285 137.993  1.00  0.00     0.126 C 
ATOM      9  C   UNL     1     128.151 146.430 137.709  1.00  0.00     0.014 C 
ATOM     10  C   UNL     1     132.365 144.233 137.936  1.00  0.00     0.014 C 
ENDROOT
BRANCH   8  11
ATOM     11  O   UNL     1     130.815 146.089 136.597  1.00  0.00    -0.392 OA
ATOM     12  H   UNL     1     131.742 146.257 136.292  1.00  0.00     0.211 HD
ENDBRANCH   8  11
TORSDOF 1
ENDMDL
MODEL 3
REMARK VINA RESULT:    -2.647      2.337      3.523
REMARK INTER + INTRA:          -2.724
REMARK INTER:                  -2.724
REMARK INTRA:                   0.000
REMARK UNBOUND:                 0.000
REMARK SMILES CC1(C)[C@H]2CC[C@](C)(C2)[C@@H]1O
REMARK SMILES IDX 1 1 2 2 4 3 5 4 6 5 7 6 9 7 10 8 8 9 3 10 11 11
REMARK H PARENT 11 12
REMARK Flexibility Score: inf
ROOT
ATOM      1  C   UNL     1     130.903 146.164 137.897  1.00  0.00     0.014 C 
ATOM      2  C   UNL     1     131.442 146.160 139.349  1.00  0.00    -0.006 C 
ATOM      3  C   UNL     1     131.623 144.720 139.943  1.00  0.00    -0.002 C 
ATOM      4  C   UNL     1     132.392 143.801 138.969  1.00  0.00     0.005 C 
ATOM      5  C   UNL     1     133.809 144.395 138.985  1.00  0.00     0.010 C 
ATOM      6  C   UNL     1     133.697 145.523 140.038  1.00  0.00    -0.006 C 
ATOM      7  C   UNL     1     132.691 144.928 141.003  1.00  0.00     0.013 C 
ATOM      8  C   UNL     1     132.908 146.711 139.408  1.00  0.00     0.126 C 
ATOM      9  C   UNL     1     135.047 145.892 140.670  1.00  0.00     0.014 C 
ATOM     10  C   UNL     1     130.434 146.963 140.212  1.00  0.00     0.014 C 
ENDROOT
BRANCH   8  11
ATOM     11  O   UNL     1     133.028 147.913 140.136  1.00  0.00    -0.392 OA
ATOM     12  H   UNL     1     132.424 148.592 139.741  1.00  0.00     0.211 HD
ENDBRANCH   8  11
TORSDOF 1
ENDMDL
MODEL 4
REMARK VINA RESULT:    -2.642     11.788     13.422
REMARK INTER + INTRA:          -2.719
REMARK INTER:                  -2.719
REMARK INTRA:                   0.000
REMARK UNBOUND:                 0.000
REMARK SMILES CC1(C)[C@H]2CC[C@](C)(C2)[C@@H]1O
REMARK SMILES IDX 1 1 2 2 4 3 5 4 6 5 7 6 9 7 10 8 8 9 3 10 11 11
REMARK H PARENT 11 12
REMARK Flexibility Score: inf
ROOT
ATOM      1  C   UNL     1     143.626 146.953 138.087  1.00  0.00     0.014 C 
ATOM      2  C   UNL     1     143.862 146.356 139.497  1.00  0.00    -0.006 C 
ATOM      3  C   UNL     1     142.578 145.711 140.125  1.00  0.00    -0.002 C 
ATOM      4  C   UNL     1     141.884 144.755 139.131  1.00  0.00     0.005 C 
ATOM      5  C   UNL     1     142.879 143.588 139.027  1.00  0.00     0.010 C 
ATOM      6  C   UNL     1     143.974 143.979 140.047  1.00  0.00    -0.006 C 
ATOM      7  C   UNL     1     143.156 144.699 141.099  1.00  0.00     0.013 C 
ATOM      8  C   UNL     1     144.833 145.127 139.434  1.00  0.00     0.126 C 
ATOM      9  C   UNL     1     144.768 142.773 140.570  1.00  0.00     0.014 C 
ATOM     10  C   UNL     1     144.368 147.511 140.401  1.00  0.00     0.014 C 
ENDROOT
BRANCH   8  11
ATOM     11  O   UNL     1     146.053 145.339 140.112  1.00  0.00    -0.392 OA
ATOM     12  H   UNL     1     145.993 144.941 141.017  1.00  0.00     0.211 HD
ENDBRANCH   8  11
TORSDOF 1
ENDMDL
MODEL 5
REMARK VINA RESULT:    -2.634      1.713      3.369
REMARK INTER + INTRA:          -2.711
REMARK INTER:                  -2.711
REMARK INTRA:                   0.000
REMARK UNBOUND:                 0.000
REMARK SMILES CC1(C)[C@H]2CC[C@](C)(C2)[C@@H]1O
REMARK SMILES IDX 1 1 2 2 4 3 5 4 6 5 7 6 9 7 10 8 8 9 3 10 11 11
REMARK H PARENT 11 12
REMARK Flexibility Score: inf
ROOT
ATOM      1  C   UNL     1     132.982 145.090 140.609  1.00  0.00     0.014 C 
ATOM      2  C   UNL     1     132.132 146.068 139.760  1.00  0.00    -0.006 C 
ATOM      3  C   UNL     1     131.894 145.573 138.292  1.00  0.00    -0.002 C 
ATOM      4  C   UNL     1     131.408 144.107 138.262  1.00  0.00     0.005 C 
ATOM      5  C   UNL     1     129.996 144.202 138.860  1.00  0.00     0.010 C 
ATOM      6  C   UNL     1     129.814 145.724 139.071  1.00  0.00    -0.006 C 
ATOM      7  C   UNL     1     130.606 146.282 137.906  1.00  0.00     0.013 C 
ATOM      8  C   UNL     1     130.664 146.157 140.304  1.00  0.00     0.126 C 
ATOM      9  C   UNL     1     128.341 146.154 139.106  1.00  0.00     0.014 C 
ATOM     10  C   UNL     1     132.881 147.426 139.744  1.00  0.00     0.014 C 
ENDROOT
BRANCH   8  11
ATOM     11  O   UNL     1     130.326 147.435 140.799  1.00  0.00    -0.392 OA
ATOM     12  H   UNL     1     129.418 147.399 141.194  1.00  0.00     0.211 HD
ENDBRANCH   8  11
TORSDOF 1
ENDMDL
MODEL 6
REMARK VINA RESULT:    -2.608      1.526      2.693
REMARK INTER + INTRA:          -2.684
REMARK INTER:                  -2.684
REMARK INTRA:                   0.000
REMARK UNBOUND:                 0.000
REMARK SMILES CC1(C)[C@H]2CC[C@](C)(C2)[C@@H]1O
REMARK SMILES IDX 1 1 2 2 4 3 5 4 6 5 7 6 9 7 10 8 8 9 3 10 11 11
REMARK H PARENT 11 12
REMARK Flexibility Score: inf
ROOT
ATOM      1  C   UNL     1     129.117 143.314 141.162  1.00  0.00     0.014 C 
ATOM      2  C   UNL     1     128.886 143.822 139.717  1.00  0.00    -0.006 C 
ATOM      3  C   UNL     1     128.112 145.184 139.652  1.00  0.00    -0.002 C 
ATOM      4  C   UNL     1     128.725 146.228 140.610  1.00  0.00     0.005 C 
ATOM      5  C   UNL     1     130.082 146.535 139.957  1.00  0.00     0.010 C 
ATOM      6  C   UNL     1     130.035 145.698 138.657  1.00  0.00    -0.006 C 
ATOM      7  C   UNL     1     128.560 145.758 138.319  1.00  0.00     0.013 C 
ATOM      8  C   UNL     1     130.242 144.198 139.027  1.00  0.00     0.126 C 
ATOM      9  C   UNL     1     130.964 146.238 137.560  1.00  0.00     0.014 C 
ATOM     10  C   UNL     1     128.084 142.723 138.971  1.00  0.00     0.014 C 
ENDROOT
BRANCH   8  11
ATOM     11  O   UNL     1     130.553 143.383 137.918  1.00  0.00    -0.392 OA
ATOM     12  H   UNL     1     129.713 143.133 137.455  1.00  0.00     0.211 HD
ENDBRANCH   8  11
TORSDOF 1
ENDMDL
MODEL 7
REMARK VINA RESULT:    -2.589      1.407      3.499
REMARK INTER + INTRA:          -2.665
REMARK INTER:                  -2.665
REMARK INTRA:                   0.000
REMARK UNBOUND:                 0.000
REMARK SMILES CC1(C)[C@H]2CC[C@](C)(C2)[C@@H]1O
REMARK SMILES IDX 1 1 2 2 4 3 5 4 6 5 7 6 9 7 10 8 8 9 3 10 11 11
REMARK H PARENT 11 12
REMARK Flexibility Score: inf
ROOT
ATOM      1  C   UNL     1     132.165 143.902 137.728  1.00  0.00     0.014 C 
ATOM      2  C   UNL     1     132.160 144.871 138.936  1.00  0.00    -0.006 C 
ATOM      3  C   UNL     1     131.783 146.344 138.552  1.00  0.00    -0.002 C 
ATOM      4  C   UNL     1     130.506 146.391 137.685  1.00  0.00     0.005 C 
ATOM      5  C   UNL     1     129.407 145.966 138.672  1.00  0.00     0.010 C 
ATOM      6  C   UNL     1     130.180 145.820 140.004  1.00  0.00    -0.006 C 
ATOM      7  C   UNL     1     131.234 146.898 139.856  1.00  0.00     0.013 C 
ATOM      8  C   UNL     1     131.019 144.507 139.947  1.00  0.00     0.126 C 
ATOM      9  C   UNL     1     129.281 145.971 141.241  1.00  0.00     0.014 C 
ATOM     10  C   UNL     1     133.583 144.836 139.554  1.00  0.00     0.014 C 
ENDROOT
BRANCH   8  11
ATOM     11  O   UNL     1     131.498 144.091 141.207  1.00  0.00    -0.392 OA
ATOM     12  H   UNL     1     131.185 144.728 141.899  1.00  0.00     0.211 HD
ENDBRANCH   8  11
TORSDOF 1
ENDMDL
MODEL 8
REMARK VINA RESULT:    -2.572      1.449      2.137
REMARK INTER + INTRA:          -2.647
REMARK INTER:                  -2.647
REMARK INTRA:                   0.000
REMARK UNBOUND:                 0.000
REMARK SMILES CC1(C)[C@H]2CC[C@](C)(C2)[C@@H]1O
REMARK SMILES IDX 1 1 2 2 4 3 5 4 6 5 7 6 9 7 10 8 8 9 3 10 11 11
REMARK H PARENT 11 12
REMARK Flexibility Score: inf
ROOT
ATOM      1  C   UNL     1     131.215 146.195 140.168  1.00  0.00     0.014 C 
ATOM      2  C   UNL     1     131.132 145.388 138.848  1.00  0.00    -0.006 C 
ATOM      3  C   UNL     1     132.476 144.677 138.467  1.00  0.00    -0.002 C 
ATOM      4  C   UNL     1     133.058 143.893 139.663  1.00  0.00     0.005 C 
ATOM      5  C   UNL     1     132.058 142.739 139.836  1.00  0.00     0.010 C 
ATOM      6  C   UNL     1     131.079 142.954 138.656  1.00  0.00    -0.006 C 
ATOM      7  C   UNL     1     132.007 143.520 137.601  1.00  0.00     0.013 C 
ATOM      8  C   UNL     1     130.159 144.167 138.993  1.00  0.00     0.126 C 
ATOM      9  C   UNL     1     130.347 141.670 138.241  1.00  0.00     0.014 C 
ATOM     10  C   UNL     1     130.728 146.385 137.730  1.00  0.00     0.014 C 
ENDROOT
BRANCH   8  11
ATOM     11  O   UNL     1     129.021 144.255 138.164  1.00  0.00    -0.392 OA
ATOM     12  H   UNL     1     129.073 143.552 137.467  1.00  0.00     0.211 HD
ENDBRANCH   8  11
TORSDOF 1
ENDMDL
MODEL 9
REMARK VINA RESULT:    -2.562      9.742     11.524
REMARK INTER + INTRA:          -2.637
REMARK INTER:                  -2.637
REMARK INTRA:                   0.000
REMARK UNBOUND:                 0.000
REMARK SMILES CC1(C)[C@H]2CC[C@](C)(C2)[C@@H]1O
REMARK SMILES IDX 1 1 2 2 4 3 5 4 6 5 7 6 9 7 10 8 8 9 3 10 11 11
REMARK H PARENT 11 12
REMARK Flexibility Score: inf
ROOT
ATOM      1  C   UNL     1     143.747 146.493 140.160  1.00  0.00     0.014 C 
ATOM      2  C   UNL     1     142.960 146.313 138.838  1.00  0.00    -0.006 C 
ATOM      3  C   UNL     1     142.720 144.811 138.455  1.00  0.00    -0.002 C 
ATOM      4  C   UNL     1     142.162 144.007 139.650  1.00  0.00     0.005 C 
ATOM      5  C   UNL     1     140.748 144.582 139.820  1.00  0.00     0.010 C 
ATOM      6  C   UNL     1     140.639 145.579 138.641  1.00  0.00    -0.006 C 
ATOM      7  C   UNL     1     141.475 144.884 137.587  1.00  0.00     0.013 C 
ATOM      8  C   UNL     1     141.490 146.840 138.981  1.00  0.00     0.126 C 
ATOM      9  C   UNL     1     139.188 145.860 138.223  1.00  0.00     0.014 C 
ATOM     10  C   UNL     1     143.775 147.017 137.723  1.00  0.00     0.014 C 
ENDROOT
BRANCH   8  11
ATOM     11  O   UNL     1     141.209 147.947 138.152  1.00  0.00    -0.392 OA
ATOM     12  H   UNL     1     140.468 148.470 138.552  1.00  0.00     0.211 HD
ENDBRANCH   8  11
TORSDOF 1
ENDMDL
