MODEL 1
REMARK VINA RESULT:    -5.411      0.000      0.000
REMARK INTER + INTRA:          -5.823
REMARK INTER:                  -5.727
REMARK INTRA:                  -0.096
REMARK UNBOUND:                -0.096
REMARK SMILES C=C(C)[C@@H]1CC=C(C)C(=O)C1
REMARK SMILES IDX 8 1 7 2 6 3 5 4 4 5 11 6 9 7 10 8 2 9 1 10 3 11
REMARK H PARENT
REMARK Flexibility Score: inf
ROOT
ATOM      1  C   UNL     1      13.691 -37.249 -28.485  1.00  0.00     0.048 C 
ATOM      2  C   UNL     1      13.282 -36.193 -29.475  1.00  0.00    -0.012 C 
ATOM      3  C   UNL     1      13.359 -36.444 -30.793  1.00  0.00    -0.019 C 
ATOM      4  C   UNL     1      12.945 -35.429 -31.825  1.00  0.00     0.036 C 
ATOM      5  C   UNL     1      13.220 -33.996 -31.335  1.00  0.00     0.025 C 
ATOM      6  C   UNL     1      12.538 -33.756 -29.975  1.00  0.00     0.089 C 
ATOM      7  C   UNL     1      12.912 -34.836 -28.998  1.00  0.00     0.158 C 
ATOM      8  O   UNL     1      12.873 -34.587 -27.763  1.00  0.00    -0.295 OA
ENDROOT
BRANCH   5   9
ATOM      9  C   UNL     1      12.787 -32.961 -32.364  1.00  0.00    -0.077 C 
ATOM     10  C   UNL     1      11.489 -32.822 -32.674  1.00  0.00     0.008 C 
ATOM     11  C   UNL     1      13.792 -32.074 -33.057  1.00  0.00     0.039 C 
ENDBRANCH   5   9
TORSDOF 1
ENDMDL
MODEL 2
REMARK VINA RESULT:    -5.355      2.307      4.718
REMARK INTER + INTRA:          -5.764
REMARK INTER:                  -5.666
REMARK INTRA:                  -0.098
REMARK UNBOUND:                -0.096
REMARK SMILES C=C(C)[C@@H]1CC=C(C)C(=O)C1
REMARK SMILES IDX 8 1 7 2 6 3 5 4 4 5 11 6 9 7 10 8 2 9 1 10 3 11
REMARK H PARENT
REMARK Flexibility Score: inf
ROOT
ATOM      1  C   UNL     1      11.246 -33.160 -32.589  1.00  0.00     0.048 C 
ATOM      2  C   UNL     1      11.482 -33.392 -31.122  1.00  0.00    -0.012 C 
ATOM      3  C   UNL     1      10.728 -32.749 -30.212  1.00  0.00    -0.019 C 
ATOM      4  C   UNL     1      10.911 -32.959 -28.732  1.00  0.00     0.036 C 
ATOM      5  C   UNL     1      12.384 -33.249 -28.391  1.00  0.00     0.025 C 
ATOM      6  C   UNL     1      12.900 -34.442 -29.217  1.00  0.00     0.089 C 
ATOM      7  C   UNL     1      12.625 -34.231 -30.680  1.00  0.00     0.158 C 
ATOM      8  O   UNL     1      13.355 -34.806 -31.531  1.00  0.00    -0.295 OA
ENDROOT
BRANCH   5   9
ATOM      9  C   UNL     1      12.575 -33.481 -26.899  1.00  0.00    -0.077 C 
ATOM     10  C   UNL     1      11.575 -33.992 -26.163  1.00  0.00     0.008 C 
ATOM     11  C   UNL     1      13.877 -33.147 -26.212  1.00  0.00     0.039 C 
ENDBRANCH   5   9
TORSDOF 1
ENDMDL
MODEL 3
REMARK VINA RESULT:    -5.306      2.386      4.435
REMARK INTER + INTRA:          -5.713
REMARK INTER:                  -5.622
REMARK INTRA:                  -0.091
REMARK UNBOUND:                -0.096
REMARK SMILES C=C(C)[C@@H]1CC=C(C)C(=O)C1
REMARK SMILES IDX 8 1 7 2 6 3 5 4 4 5 11 6 9 7 10 8 2 9 1 10 3 11
REMARK H PARENT
REMARK Flexibility Score: inf
ROOT
ATOM      1  C   UNL     1      11.707 -35.735 -32.180  1.00  0.00     0.048 C 
ATOM      2  C   UNL     1      11.845 -35.334 -30.737  1.00  0.00    -0.012 C 
ATOM      3  C   UNL     1      11.056 -34.369 -30.232  1.00  0.00    -0.019 C 
ATOM      4  C   UNL     1      11.140 -33.942 -28.791  1.00  0.00     0.036 C 
ATOM      5  C   UNL     1      12.580 -34.065 -28.259  1.00  0.00     0.025 C 
ATOM      6  C   UNL     1      13.109 -35.495 -28.475  1.00  0.00     0.089 C 
ATOM      7  C   UNL     1      12.932 -35.914 -29.908  1.00  0.00     0.158 C 
ATOM      8  O   UNL     1      13.695 -36.793 -30.390  1.00  0.00    -0.295 OA
ENDROOT
BRANCH   5   9
ATOM      9  C   UNL     1      12.671 -33.654 -26.796  1.00  0.00    -0.077 C 
ATOM     10  C   UNL     1      13.799 -33.099 -26.322  1.00  0.00     0.008 C 
ATOM     11  C   UNL     1      11.514 -33.855 -25.849  1.00  0.00     0.039 C 
ENDBRANCH   5   9
TORSDOF 1
ENDMDL
MODEL 4
REMARK VINA RESULT:    -5.126      2.244      4.184
REMARK INTER + INTRA:          -5.522
REMARK INTER:                  -5.434
REMARK INTRA:                  -0.088
REMARK UNBOUND:                -0.096
REMARK SMILES C=C(C)[C@@H]1CC=C(C)C(=O)C1
REMARK SMILES IDX 8 1 7 2 6 3 5 4 4 5 11 6 9 7 10 8 2 9 1 10 3 11
REMARK H PARENT
REMARK Flexibility Score: inf
ROOT
ATOM      1  C   UNL     1      12.122 -36.167 -32.113  1.00  0.00     0.048 C 
ATOM      2  C   UNL     1      12.349 -35.483 -30.793  1.00  0.00    -0.012 C 
ATOM      3  C   UNL     1      12.996 -36.128 -29.806  1.00  0.00    -0.019 C 
ATOM      4  C   UNL     1      13.266 -35.482 -28.473  1.00  0.00     0.036 C 
ATOM      5  C   UNL     1      12.141 -34.501 -28.094  1.00  0.00     0.025 C 
ATOM      6  C   UNL     1      11.937 -33.463 -29.213  1.00  0.00     0.089 C 
ATOM      7  C   UNL     1      11.753 -34.146 -30.541  1.00  0.00     0.158 C 
ATOM      8  O   UNL     1      11.117 -33.554 -31.453  1.00  0.00    -0.295 OA
ENDROOT
BRANCH   5   9
ATOM      9  C   UNL     1      12.414 -33.829 -26.756  1.00  0.00    -0.077 C 
ATOM     10  C   UNL     1      11.475 -33.833 -25.796  1.00  0.00     0.008 C 
ATOM     11  C   UNL     1      13.730 -33.147 -26.473  1.00  0.00     0.039 C 
ENDBRANCH   5   9
TORSDOF 1
ENDMDL
MODEL 5
REMARK VINA RESULT:    -4.988      2.408      3.257
REMARK INTER + INTRA:          -5.376
REMARK INTER:                  -5.278
REMARK INTRA:                  -0.098
REMARK UNBOUND:                -0.096
REMARK SMILES C=C(C)[C@@H]1CC=C(C)C(=O)C1
REMARK SMILES IDX 8 1 7 2 6 3 5 4 4 5 11 6 9 7 10 8 2 9 1 10 3 11
REMARK H PARENT
REMARK Flexibility Score: inf
ROOT
ATOM      1  C   UNL     1      10.181 -35.053 -30.157  1.00  0.00     0.048 C 
ATOM      2  C   UNL     1      11.461 -34.349 -30.515  1.00  0.00    -0.012 C 
ATOM      3  C   UNL     1      11.743 -33.153 -29.970  1.00  0.00    -0.019 C 
ATOM      4  C   UNL     1      13.019 -32.415 -30.279  1.00  0.00     0.036 C 
ATOM      5  C   UNL     1      13.484 -32.692 -31.720  1.00  0.00     0.025 C 
ATOM      6  C   UNL     1      13.616 -34.208 -31.957  1.00  0.00     0.089 C 
ATOM      7  C   UNL     1      12.351 -34.918 -31.559  1.00  0.00     0.158 C 
ATOM      8  O   UNL     1      12.071 -36.022 -32.097  1.00  0.00    -0.295 OA
ENDROOT
BRANCH   5   9
ATOM      9  C   UNL     1      14.784 -31.965 -32.036  1.00  0.00    -0.077 C 
ATOM     10  C   UNL     1      15.139 -30.882 -31.327  1.00  0.00     0.008 C 
ATOM     11  C   UNL     1      15.698 -32.434 -33.141  1.00  0.00     0.039 C 
ENDBRANCH   5   9
TORSDOF 1
ENDMDL
MODEL 6
REMARK VINA RESULT:    -4.951      2.231      2.859
REMARK INTER + INTRA:          -5.337
REMARK INTER:                  -5.245
REMARK INTRA:                  -0.092
REMARK UNBOUND:                -0.096
REMARK SMILES C=C(C)[C@@H]1CC=C(C)C(=O)C1
REMARK SMILES IDX 8 1 7 2 6 3 5 4 4 5 11 6 9 7 10 8 2 9 1 10 3 11
REMARK H PARENT
REMARK Flexibility Score: inf
ROOT
ATOM      1  C   UNL     1       9.881 -35.019 -30.368  1.00  0.00     0.048 C 
ATOM      2  C   UNL     1      11.002 -34.086 -30.736  1.00  0.00    -0.012 C 
ATOM      3  C   UNL     1      11.271 -33.839 -32.030  1.00  0.00    -0.019 C 
ATOM      4  C   UNL     1      12.369 -32.899 -32.452  1.00  0.00     0.036 C 
ATOM      5  C   UNL     1      13.540 -32.930 -31.453  1.00  0.00     0.025 C 
ATOM      6  C   UNL     1      13.036 -32.634 -30.028  1.00  0.00     0.089 C 
ATOM      7  C   UNL     1      11.887 -33.538 -29.676  1.00  0.00     0.158 C 
ATOM      8  O   UNL     1      11.658 -33.797 -28.464  1.00  0.00    -0.295 OA
ENDROOT
BRANCH   5   9
ATOM      9  C   UNL     1      14.648 -31.969 -31.861  1.00  0.00    -0.077 C 
ATOM     10  C   UNL     1      15.302 -32.149 -33.020  1.00  0.00     0.008 C 
ATOM     11  C   UNL     1      15.039 -30.803 -30.987  1.00  0.00     0.039 C 
ENDBRANCH   5   9
TORSDOF 1
ENDMDL
MODEL 7
REMARK VINA RESULT:    -4.928      2.043      2.769
REMARK INTER + INTRA:          -5.313
REMARK INTER:                  -5.219
REMARK INTRA:                  -0.094
REMARK UNBOUND:                -0.096
REMARK SMILES C=C(C)[C@@H]1CC=C(C)C(=O)C1
REMARK SMILES IDX 8 1 7 2 6 3 5 4 4 5 11 6 9 7 10 8 2 9 1 10 3 11
REMARK H PARENT
REMARK Flexibility Score: inf
ROOT
ATOM      1  C   UNL     1      14.012 -36.998 -28.432  1.00  0.00     0.048 C 
ATOM      2  C   UNL     1      13.245 -35.873 -29.073  1.00  0.00    -0.012 C 
ATOM      3  C   UNL     1      12.994 -34.751 -28.376  1.00  0.00    -0.019 C 
ATOM      4  C   UNL     1      12.248 -33.589 -28.976  1.00  0.00     0.036 C 
ATOM      5  C   UNL     1      11.198 -34.070 -29.994  1.00  0.00     0.025 C 
ATOM      6  C   UNL     1      11.859 -34.954 -31.067  1.00  0.00     0.089 C 
ATOM      7  C   UNL     1      12.661 -36.053 -30.427  1.00  0.00     0.158 C 
ATOM      8  O   UNL     1      12.865 -37.118 -31.068  1.00  0.00    -0.295 OA
ENDROOT
BRANCH   5   9
ATOM      9  C   UNL     1      10.450 -32.901 -30.619  1.00  0.00    -0.077 C 
ATOM     10  C   UNL     1       9.875 -31.974 -29.837  1.00  0.00     0.008 C 
ATOM     11  C   UNL     1      10.335 -32.753 -32.116  1.00  0.00     0.039 C 
ENDBRANCH   5   9
TORSDOF 1
ENDMDL
MODEL 8
REMARK VINA RESULT:    -4.921      2.227      2.696
REMARK INTER + INTRA:          -5.304
REMARK INTER:                  -5.206
REMARK INTRA:                  -0.098
REMARK UNBOUND:                -0.096
REMARK SMILES C=C(C)[C@@H]1CC=C(C)C(=O)C1
REMARK SMILES IDX 8 1 7 2 6 3 5 4 4 5 11 6 9 7 10 8 2 9 1 10 3 11
REMARK H PARENT
REMARK Flexibility Score: inf
ROOT
ATOM      1  C   UNL     1      11.283 -34.106 -26.111  1.00  0.00     0.048 C 
ATOM      2  C   UNL     1      11.527 -33.671 -27.530  1.00  0.00    -0.012 C 
ATOM      3  C   UNL     1      10.622 -33.954 -28.483  1.00  0.00    -0.019 C 
ATOM      4  C   UNL     1      10.809 -33.525 -29.914  1.00  0.00     0.036 C 
ATOM      5  C   UNL     1      12.300 -33.512 -30.299  1.00  0.00     0.025 C 
ATOM      6  C   UNL     1      13.097 -32.633 -29.319  1.00  0.00     0.089 C 
ATOM      7  C   UNL     1      12.820 -33.039 -27.898  1.00  0.00     0.158 C 
ATOM      8  O   UNL     1      13.685 -32.804 -27.012  1.00  0.00    -0.295 OA
ENDROOT
BRANCH   5   9
ATOM      9  C   UNL     1      12.500 -33.062 -31.739  1.00  0.00    -0.077 C 
ATOM     10  C   UNL     1      11.451 -32.987 -32.574  1.00  0.00     0.008 C 
ATOM     11  C   UNL     1      13.865 -32.692 -32.265  1.00  0.00     0.039 C 
ENDBRANCH   5   9
TORSDOF 1
ENDMDL
MODEL 9
REMARK VINA RESULT:    -4.819      2.091      4.681
REMARK INTER + INTRA:          -5.197
REMARK INTER:                  -5.101
REMARK INTRA:                  -0.097
REMARK UNBOUND:                -0.096
REMARK SMILES C=C(C)[C@@H]1CC=C(C)C(=O)C1
REMARK SMILES IDX 8 1 7 2 6 3 5 4 4 5 11 6 9 7 10 8 2 9 1 10 3 11
REMARK H PARENT
REMARK Flexibility Score: inf
ROOT
ATOM      1  C   UNL     1      10.577 -32.372 -33.630  1.00  0.00     0.048 C 
ATOM      2  C   UNL     1      11.142 -33.081 -32.430  1.00  0.00    -0.012 C 
ATOM      3  C   UNL     1      10.316 -33.697 -31.567  1.00  0.00    -0.019 C 
ATOM      4  C   UNL     1      10.830 -34.437 -30.360  1.00  0.00     0.036 C 
ATOM      5  C   UNL     1      12.108 -33.778 -29.809  1.00  0.00     0.025 C 
ATOM      6  C   UNL     1      13.171 -33.662 -30.917  1.00  0.00     0.089 C 
ATOM      7  C   UNL     1      12.595 -32.992 -32.134  1.00  0.00     0.158 C 
ATOM      8  O   UNL     1      13.366 -32.384 -32.923  1.00  0.00    -0.295 OA
ENDROOT
BRANCH   5   9
ATOM      9  C   UNL     1      12.646 -34.529 -28.599  1.00  0.00    -0.077 C 
ATOM     10  C   UNL     1      13.283 -35.700 -28.762  1.00  0.00     0.008 C 
ATOM     11  C   UNL     1      12.480 -33.988 -27.200  1.00  0.00     0.039 C 
ENDBRANCH   5   9
TORSDOF 1
ENDMDL
