MODEL 1
REMARK VINA RESULT:     5.373      0.000      0.000
REMARK INTER + INTRA:           5.472
REMARK INTER:                   5.688
REMARK INTRA:                  -0.216
REMARK UNBOUND:                -0.216
REMARK SMILES CC1=CC[C@@]23[C@@H]([C@@H](C(C)C)CC[C@H]2C)[C@H]13
REMARK SMILES IDX 14 1 13 2 12 3 11 4 7 5 6 6 5 7 15 8 2 9 3 10 4 11 1 12 8 13
REMARK SMILES IDX 9 14 10 15
REMARK H PARENT
REMARK Flexibility Score: inf
ROOT
ATOM      1  C   UNL     1     136.376 141.159 161.877  1.00  0.00     0.008 C 
ATOM      2  C   UNL     1     135.507 139.971 162.329  1.00  0.00    -0.007 C 
ATOM      3  C   UNL     1     134.875 140.264 163.705  1.00  0.00     0.004 C 
ATOM      4  C   UNL     1     135.863 140.039 164.851  1.00  0.00     0.004 C 
ATOM      5  C   UNL     1     136.242 138.549 164.975  1.00  0.00    -0.004 C 
ATOM      6  C   UNL     1     136.762 137.994 163.619  1.00  0.00     0.007 C 
ATOM      7  C   UNL     1     136.333 138.657 162.300  1.00  0.00    -0.013 C 
ATOM      8  C   UNL     1     135.641 137.379 162.773  1.00  0.00     0.025 C 
ATOM      9  C   UNL     1     136.069 136.337 161.797  1.00  0.00    -0.073 C 
ATOM     10  C   UNL     1     136.861 136.817 160.849  1.00  0.00    -0.027 C 
ATOM     11  C   UNL     1     137.108 138.275 161.024  1.00  0.00     0.035 C 
ATOM     12  C   UNL     1     135.660 134.899 161.884  1.00  0.00     0.039 C 
ENDROOT
BRANCH   5  13
ATOM     13  C   UNL     1     137.299 138.290 166.098  1.00  0.00    -0.014 C 
ATOM     14  C   UNL     1     138.183 139.518 166.386  1.00  0.00     0.007 C 
ATOM     15  C   UNL     1     136.615 137.861 167.411  1.00  0.00     0.007 C 
ENDBRANCH   5  13
TORSDOF 1
ENDMDL
