MODEL 1
REMARK VINA RESULT:    -5.889      0.000      0.000
REMARK INTER + INTRA:         -10.985
REMARK INTER:                 -10.364
REMARK INTRA:                  -0.620
REMARK UNBOUND:                -0.620
REMARK SMILES CCCCCCCCCCCCCCC(=O)[O-]
REMARK SMILES IDX 9 1 10 2 11 3 12 4 13 5 14 6 15 7 16 8 17 9 8 10 7 11 6 12
REMARK SMILES IDX 5 13 4 14 3 15 2 16 1 17
REMARK H PARENT
REMARK Flexibility Score: inf
ROOT
ATOM      1  C   UNL     1     104.661 312.797 195.357  1.00  0.00     0.000 C 
ENDROOT
BRANCH   1   2
ATOM      2  C   UNL     1     103.534 311.897 195.888  1.00  0.00     0.000 C 
BRANCH   2   3
ATOM      3  C   UNL     1     103.886 311.245 197.236  1.00  0.00     0.000 C 
BRANCH   3   4
ATOM      4  C   UNL     1     103.653 312.187 198.428  1.00  0.00     0.000 C 
BRANCH   4   5
ATOM      5  C   UNL     1     103.057 311.467 199.647  1.00  0.00     0.006 C 
BRANCH   5   6
ATOM      6  C   UNL     1     103.829 311.820 200.922  1.00  0.00     0.053 C 
BRANCH   6   7
ATOM      7  C   UNL     1     103.262 311.089 202.098  1.00  0.00     0.041 C 
ATOM      8  O   UNL     1     104.027 310.631 202.987  1.00  0.00    -0.550 OA
ATOM      9  O   UNL     1     101.887 310.958 202.239  1.00  0.00    -0.550 OA
ENDBRANCH   6   7
ENDBRANCH   5   6
ENDBRANCH   4   5
ENDBRANCH   3   4
ENDBRANCH   2   3
ENDBRANCH   1   2
BRANCH   1  10
ATOM     10  C   UNL     1     105.578 312.071 194.354  1.00  0.00     0.000 C 
BRANCH  10  11
ATOM     11  C   UNL     1     104.791 311.328 193.263  1.00  0.00    -0.000 C 
BRANCH  11  12
ATOM     12  C   UNL     1     104.282 312.271 192.159  1.00  0.00    -0.000 C 
BRANCH  12  13
ATOM     13  C   UNL     1     105.366 313.240 191.650  1.00  0.00    -0.000 C 
BRANCH  13  14
ATOM     14  C   UNL     1     104.886 314.263 190.604  1.00  0.00    -0.000 C 
BRANCH  14  15
ATOM     15  C   UNL     1     103.417 314.057 190.195  1.00  0.00    -0.000 C 
BRANCH  15  16
ATOM     16  C   UNL     1     103.004 314.948 189.014  1.00  0.00    -0.003 C 
ATOM     17  C   UNL     1     101.872 314.341 188.185  1.00  0.00     0.004 C 
ENDBRANCH  15  16
ENDBRANCH  14  15
ENDBRANCH  13  14
ENDBRANCH  12  13
ENDBRANCH  11  12
ENDBRANCH  10  11
ENDBRANCH   1  10
TORSDOF 13
ENDMDL
MODEL 2
REMARK VINA RESULT:    -5.846     18.365     21.137
REMARK INTER + INTRA:         -10.909
REMARK INTER:                  -9.407
REMARK INTRA:                  -1.502
REMARK UNBOUND:                -0.620
REMARK SMILES CCCCCCCCCCCCCCC(=O)[O-]
REMARK SMILES IDX 9 1 10 2 11 3 12 4 13 5 14 6 15 7 16 8 17 9 8 10 7 11 6 12
REMARK SMILES IDX 5 13 4 14 3 15 2 16 1 17
REMARK H PARENT
REMARK Flexibility Score: inf
ROOT
ATOM      1  C   UNL     1      88.052 325.154 193.027  1.00  0.00     0.000 C 
ENDROOT
BRANCH   1   2
ATOM      2  C   UNL     1      86.703 324.564 192.588  1.00  0.00     0.000 C 
BRANCH   2   3
ATOM      3  C   UNL     1      86.847 323.567 191.426  1.00  0.00     0.000 C 
BRANCH   3   4
ATOM      4  C   UNL     1      88.301 323.418 190.950  1.00  0.00     0.000 C 
BRANCH   4   5
ATOM      5  C   UNL     1      88.406 323.076 189.456  1.00  0.00     0.006 C 
BRANCH   5   6
ATOM      6  C   UNL     1      89.691 323.651 188.852  1.00  0.00     0.053 C 
BRANCH   6   7
ATOM      7  C   UNL     1      90.638 322.551 188.487  1.00  0.00     0.041 C 
ATOM      8  O   UNL     1      90.246 321.589 187.776  1.00  0.00    -0.550 OA
ATOM      9  O   UNL     1      91.965 322.615 188.889  1.00  0.00    -0.550 OA
ENDBRANCH   6   7
ENDBRANCH   5   6
ENDBRANCH   4   5
ENDBRANCH   3   4
ENDBRANCH   2   3
ENDBRANCH   1   2
BRANCH   1  10
ATOM     10  C   UNL     1      87.910 326.539 193.686  1.00  0.00     0.000 C 
BRANCH  10  11
ATOM     11  C   UNL     1      86.627 326.667 194.524  1.00  0.00    -0.000 C 
BRANCH  11  12
ATOM     12  C   UNL     1      86.779 326.061 195.929  1.00  0.00    -0.000 C 
BRANCH  12  13
ATOM     13  C   UNL     1      88.217 326.158 196.473  1.00  0.00    -0.000 C 
BRANCH  13  14
ATOM     14  C   UNL     1      88.868 324.812 196.839  1.00  0.00    -0.000 C 
BRANCH  14  15
ATOM     15  C   UNL     1      88.059 323.601 196.342  1.00  0.00    -0.000 C 
BRANCH  15  16
ATOM     16  C   UNL     1      88.861 322.712 195.379  1.00  0.00    -0.003 C 
ATOM     17  C   UNL     1      88.004 321.629 194.725  1.00  0.00     0.004 C 
ENDBRANCH  15  16
ENDBRANCH  14  15
ENDBRANCH  13  14
ENDBRANCH  12  13
ENDBRANCH  11  12
ENDBRANCH  10  11
ENDBRANCH   1  10
TORSDOF 13
ENDMDL
MODEL 3
REMARK VINA RESULT:    -5.744      5.865      9.065
REMARK INTER + INTRA:         -10.730
REMARK INTER:                  -9.203
REMARK INTRA:                  -1.527
REMARK UNBOUND:                -0.620
REMARK SMILES CCCCCCCCCCCCCCC(=O)[O-]
REMARK SMILES IDX 9 1 10 2 11 3 12 4 13 5 14 6 15 7 16 8 17 9 8 10 7 11 6 12
REMARK SMILES IDX 5 13 4 14 3 15 2 16 1 17
REMARK H PARENT
REMARK Flexibility Score: inf
ROOT
ATOM      1  C   UNL     1     104.046 312.805 192.019  1.00  0.00     0.000 C 
ENDROOT
BRANCH   1   2
ATOM      2  C   UNL     1     105.356 313.399 191.478  1.00  0.00     0.000 C 
BRANCH   2   3
ATOM      3  C   UNL     1     105.115 314.517 190.448  1.00  0.00     0.000 C 
BRANCH   3   4
ATOM      4  C   UNL     1     103.621 314.755 190.174  1.00  0.00     0.000 C 
BRANCH   4   5
ATOM      5  C   UNL     1     103.297 314.837 188.674  1.00  0.00     0.006 C 
BRANCH   5   6
ATOM      6  C   UNL     1     101.915 314.247 188.380  1.00  0.00     0.053 C 
BRANCH   6   7
ATOM      7  C   UNL     1     101.021 315.282 187.771  1.00  0.00     0.041 C 
ATOM      8  O   UNL     1      99.775 315.109 187.751  1.00  0.00    -0.550 OA
ATOM      9  O   UNL     1     101.561 316.460 187.273  1.00  0.00    -0.550 OA
ENDBRANCH   6   7
ENDBRANCH   5   6
ENDBRANCH   4   5
ENDBRANCH   3   4
ENDBRANCH   2   3
ENDBRANCH   1   2
BRANCH   1  10
ATOM     10  C   UNL     1     104.269 311.517 192.833  1.00  0.00     0.000 C 
BRANCH  10  11
ATOM     11  C   UNL     1     105.651 311.472 193.504  1.00  0.00    -0.000 C 
BRANCH  11  12
ATOM     12  C   UNL     1     105.605 311.918 194.976  1.00  0.00    -0.000 C 
BRANCH  12  13
ATOM     13  C   UNL     1     104.182 311.905 195.564  1.00  0.00    -0.000 C 
BRANCH  13  14
ATOM     14  C   UNL     1     103.837 313.105 196.463  1.00  0.00    -0.000 C 
BRANCH  14  15
ATOM     15  C   UNL     1     103.127 314.239 195.704  1.00  0.00    -0.000 C 
BRANCH  15  16
ATOM     16  C   UNL     1     104.110 315.270 195.128  1.00  0.00    -0.003 C 
ATOM     17  C   UNL     1     103.634 315.862 193.802  1.00  0.00     0.004 C 
ENDBRANCH  15  16
ENDBRANCH  14  15
ENDBRANCH  13  14
ENDBRANCH  12  13
ENDBRANCH  11  12
ENDBRANCH  10  11
ENDBRANCH   1  10
TORSDOF 13
ENDMDL
MODEL 4
REMARK VINA RESULT:    -5.724      5.405      9.563
REMARK INTER + INTRA:         -10.694
REMARK INTER:                  -9.741
REMARK INTRA:                  -0.953
REMARK UNBOUND:                -0.620
REMARK SMILES CCCCCCCCCCCCCCC(=O)[O-]
REMARK SMILES IDX 9 1 10 2 11 3 12 4 13 5 14 6 15 7 16 8 17 9 8 10 7 11 6 12
REMARK SMILES IDX 5 13 4 14 3 15 2 16 1 17
REMARK H PARENT
REMARK Flexibility Score: inf
ROOT
ATOM      1  C   UNL     1     104.291 313.295 191.757  1.00  0.00     0.000 C 
ENDROOT
BRANCH   1   2
ATOM      2  C   UNL     1     105.725 313.730 191.417  1.00  0.00     0.000 C 
BRANCH   2   3
ATOM      3  C   UNL     1     105.782 314.672 190.201  1.00  0.00     0.000 C 
BRANCH   3   4
ATOM      4  C   UNL     1     104.451 315.400 189.955  1.00  0.00     0.000 C 
BRANCH   4   5
ATOM      5  C   UNL     1     103.853 315.095 188.573  1.00  0.00     0.006 C 
BRANCH   5   6
ATOM      6  C   UNL     1     102.473 314.444 188.704  1.00  0.00     0.053 C 
BRANCH   6   7
ATOM      7  C   UNL     1     101.441 315.250 187.980  1.00  0.00     0.041 C 
ATOM      8  O   UNL     1     100.226 314.931 188.049  1.00  0.00    -0.550 OA
ATOM      9  O   UNL     1     101.816 316.384 187.271  1.00  0.00    -0.550 OA
ENDBRANCH   6   7
ENDBRANCH   5   6
ENDBRANCH   4   5
ENDBRANCH   3   4
ENDBRANCH   2   3
ENDBRANCH   1   2
BRANCH   1  10
ATOM     10  C   UNL     1     104.240 311.958 192.519  1.00  0.00     0.000 C 
BRANCH  10  11
ATOM     11  C   UNL     1     105.561 311.634 193.235  1.00  0.00    -0.000 C 
BRANCH  11  12
ATOM     12  C   UNL     1     105.508 311.947 194.740  1.00  0.00    -0.000 C 
BRANCH  12  13
ATOM     13  C   UNL     1     104.073 311.964 195.300  1.00  0.00    -0.000 C 
BRANCH  13  14
ATOM     14  C   UNL     1     103.640 313.295 195.940  1.00  0.00    -0.000 C 
BRANCH  14  15
ATOM     15  C   UNL     1     103.529 313.215 197.473  1.00  0.00    -0.000 C 
BRANCH  15  16
ATOM     16  C   UNL     1     103.892 311.825 198.018  1.00  0.00    -0.003 C 
ATOM     17  C   UNL     1     103.212 311.520 199.352  1.00  0.00     0.004 C 
ENDBRANCH  15  16
ENDBRANCH  14  15
ENDBRANCH  13  14
ENDBRANCH  12  13
ENDBRANCH  11  12
ENDBRANCH  10  11
ENDBRANCH   1  10
TORSDOF 13
ENDMDL
MODEL 5
REMARK VINA RESULT:    -5.716      1.599      2.518
REMARK INTER + INTRA:         -10.681
REMARK INTER:                  -9.769
REMARK INTRA:                  -0.912
REMARK UNBOUND:                -0.620
REMARK SMILES CCCCCCCCCCCCCCC(=O)[O-]
REMARK SMILES IDX 9 1 10 2 11 3 12 4 13 5 14 6 15 7 16 8 17 9 8 10 7 11 6 12
REMARK SMILES IDX 5 13 4 14 3 15 2 16 1 17
REMARK H PARENT
REMARK Flexibility Score: inf
ROOT
ATOM      1  C   UNL     1     103.471 313.212 197.502  1.00  0.00     0.000 C 
ENDROOT
BRANCH   1   2
ATOM      2  C   UNL     1     103.748 311.763 197.934  1.00  0.00     0.000 C 
BRANCH   2   3
ATOM      3  C   UNL     1     103.389 311.510 199.409  1.00  0.00     0.000 C 
BRANCH   3   4
ATOM      4  C   UNL     1     104.461 312.037 200.377  1.00  0.00     0.000 C 
BRANCH   4   5
ATOM      5  C   UNL     1     103.913 312.291 201.789  1.00  0.00     0.006 C 
BRANCH   5   6
ATOM      6  C   UNL     1     102.985 311.155 202.229  1.00  0.00     0.053 C 
BRANCH   6   7
ATOM      7  C   UNL     1     103.305 310.727 203.627  1.00  0.00     0.041 C 
ATOM      8  O   UNL     1     104.495 310.744 204.037  1.00  0.00    -0.550 OA
ATOM      9  O   UNL     1     102.284 310.358 204.492  1.00  0.00    -0.550 OA
ENDBRANCH   6   7
ENDBRANCH   5   6
ENDBRANCH   4   5
ENDBRANCH   3   4
ENDBRANCH   2   3
ENDBRANCH   1   2
BRANCH   1  10
ATOM     10  C   UNL     1     103.611 313.416 195.982  1.00  0.00     0.000 C 
BRANCH  10  11
ATOM     11  C   UNL     1     104.558 312.394 195.332  1.00  0.00    -0.000 C 
BRANCH  11  12
ATOM     12  C   UNL     1     103.834 311.471 194.338  1.00  0.00    -0.000 C 
BRANCH  12  13
ATOM     13  C   UNL     1     104.604 311.291 193.015  1.00  0.00    -0.000 C 
BRANCH  13  14
ATOM     14  C   UNL     1     105.839 312.196 192.853  1.00  0.00    -0.000 C 
BRANCH  14  15
ATOM     15  C   UNL     1     105.677 313.235 191.730  1.00  0.00    -0.000 C 
BRANCH  15  16
ATOM     16  C   UNL     1     104.212 313.417 191.301  1.00  0.00    -0.003 C 
ATOM     17  C   UNL     1     103.590 314.697 191.858  1.00  0.00     0.004 C 
ENDBRANCH  15  16
ENDBRANCH  14  15
ENDBRANCH  13  14
ENDBRANCH  12  13
ENDBRANCH  11  12
ENDBRANCH  10  11
ENDBRANCH   1  10
TORSDOF 13
ENDMDL
MODEL 6
REMARK VINA RESULT:    -5.705     19.502     20.619
REMARK INTER + INTRA:         -10.661
REMARK INTER:                  -9.706
REMARK INTRA:                  -0.955
REMARK UNBOUND:                -0.620
REMARK SMILES CCCCCCCCCCCCCCC(=O)[O-]
REMARK SMILES IDX 9 1 10 2 11 3 12 4 13 5 14 6 15 7 16 8 17 9 8 10 7 11 6 12
REMARK SMILES IDX 5 13 4 14 3 15 2 16 1 17
REMARK H PARENT
REMARK Flexibility Score: inf
ROOT
ATOM      1  C   UNL     1      88.788 324.829 196.824  1.00  0.00     0.000 C 
ENDROOT
BRANCH   1   2
ATOM      2  C   UNL     1      89.220 324.944 198.294  1.00  0.00     0.000 C 
BRANCH   2   3
ATOM      3  C   UNL     1      88.970 326.348 198.873  1.00  0.00     0.000 C 
BRANCH   3   4
ATOM      4  C   UNL     1      89.488 326.494 200.313  1.00  0.00     0.000 C 
BRANCH   4   5
ATOM      5  C   UNL     1      88.437 326.109 201.365  1.00  0.00     0.006 C 
BRANCH   5   6
ATOM      6  C   UNL     1      89.102 325.523 202.614  1.00  0.00     0.053 C 
BRANCH   6   7
ATOM      7  C   UNL     1      89.803 326.594 203.388  1.00  0.00     0.041 C 
ATOM      8  O   UNL     1      89.153 327.565 203.855  1.00  0.00    -0.550 OA
ATOM      9  O   UNL     1      91.165 326.494 203.637  1.00  0.00    -0.550 OA
ENDBRANCH   6   7
ENDBRANCH   5   6
ENDBRANCH   4   5
ENDBRANCH   3   4
ENDBRANCH   2   3
ENDBRANCH   1   2
BRANCH   1  10
ATOM     10  C   UNL     1      88.342 326.178 196.228  1.00  0.00     0.000 C 
BRANCH  10  11
ATOM     11  C   UNL     1      86.864 326.179 195.806  1.00  0.00    -0.000 C 
BRANCH  11  12
ATOM     12  C   UNL     1      86.673 326.584 194.334  1.00  0.00    -0.000 C 
BRANCH  12  13
ATOM     13  C   UNL     1      86.142 325.433 193.459  1.00  0.00    -0.000 C 
BRANCH  13  14
ATOM     14  C   UNL     1      86.725 324.046 193.784  1.00  0.00    -0.000 C 
BRANCH  14  15
ATOM     15  C   UNL     1      88.012 323.738 192.998  1.00  0.00    -0.000 C 
BRANCH  15  16
ATOM     16  C   UNL     1      88.093 324.511 191.673  1.00  0.00    -0.003 C 
ATOM     17  C   UNL     1      88.429 323.610 190.485  1.00  0.00     0.004 C 
ENDBRANCH  15  16
ENDBRANCH  14  15
ENDBRANCH  13  14
ENDBRANCH  12  13
ENDBRANCH  11  12
ENDBRANCH  10  11
ENDBRANCH   1  10
TORSDOF 13
ENDMDL
MODEL 7
REMARK VINA RESULT:    -5.671      1.444      3.020
REMARK INTER + INTRA:         -10.601
REMARK INTER:                  -9.962
REMARK INTRA:                  -0.638
REMARK UNBOUND:                -0.620
REMARK SMILES CCCCCCCCCCCCCCC(=O)[O-]
REMARK SMILES IDX 9 1 10 2 11 3 12 4 13 5 14 6 15 7 16 8 17 9 8 10 7 11 6 12
REMARK SMILES IDX 5 13 4 14 3 15 2 16 1 17
REMARK H PARENT
REMARK Flexibility Score: inf
ROOT
ATOM      1  C   UNL     1     103.433 313.039 198.435  1.00  0.00     0.000 C 
ENDROOT
BRANCH   1   2
ATOM      2  C   UNL     1     103.493 311.586 198.933  1.00  0.00     0.000 C 
BRANCH   2   3
ATOM      3  C   UNL     1     103.511 311.491 200.469  1.00  0.00     0.000 C 
BRANCH   3   4
ATOM      4  C   UNL     1     102.104 311.328 201.067  1.00  0.00     0.000 C 
BRANCH   4   5
ATOM      5  C   UNL     1     102.131 310.881 202.537  1.00  0.00     0.006 C 
BRANCH   5   6
ATOM      6  C   UNL     1     103.569 310.652 203.013  1.00  0.00     0.053 C 
BRANCH   6   7
ATOM      7  C   UNL     1     103.884 311.538 204.177  1.00  0.00     0.041 C 
ATOM      8  O   UNL     1     103.603 312.764 204.132  1.00  0.00    -0.550 OA
ATOM      9  O   UNL     1     104.440 311.001 205.330  1.00  0.00    -0.550 OA
ENDBRANCH   6   7
ENDBRANCH   5   6
ENDBRANCH   4   5
ENDBRANCH   3   4
ENDBRANCH   2   3
ENDBRANCH   1   2
BRANCH   1  10
ATOM     10  C   UNL     1     103.497 313.144 196.900  1.00  0.00     0.000 C 
BRANCH  10  11
ATOM     11  C   UNL     1     103.863 311.811 196.229  1.00  0.00    -0.000 C 
BRANCH  11  12
ATOM     12  C   UNL     1     104.104 311.959 194.717  1.00  0.00    -0.000 C 
BRANCH  12  13
ATOM     13  C   UNL     1     105.593 311.873 194.335  1.00  0.00    -0.000 C 
BRANCH  13  14
ATOM     14  C   UNL     1     105.925 312.325 192.901  1.00  0.00    -0.000 C 
BRANCH  14  15
ATOM     15  C   UNL     1     104.670 312.582 192.048  1.00  0.00    -0.000 C 
BRANCH  15  16
ATOM     16  C   UNL     1     104.805 313.831 191.163  1.00  0.00    -0.003 C 
ATOM     17  C   UNL     1     103.569 314.075 190.297  1.00  0.00     0.004 C 
ENDBRANCH  15  16
ENDBRANCH  14  15
ENDBRANCH  13  14
ENDBRANCH  12  13
ENDBRANCH  11  12
ENDBRANCH  10  11
ENDBRANCH   1  10
TORSDOF 13
ENDMDL
MODEL 8
REMARK VINA RESULT:    -5.604      1.284      1.703
REMARK INTER + INTRA:         -10.483
REMARK INTER:                  -9.583
REMARK INTRA:                  -0.899
REMARK UNBOUND:                -0.620
REMARK SMILES CCCCCCCCCCCCCCC(=O)[O-]
REMARK SMILES IDX 9 1 10 2 11 3 12 4 13 5 14 6 15 7 16 8 17 9 8 10 7 11 6 12
REMARK SMILES IDX 5 13 4 14 3 15 2 16 1 17
REMARK H PARENT
REMARK Flexibility Score: inf
ROOT
ATOM      1  C   UNL     1     103.844 311.696 195.873  1.00  0.00     0.000 C 
ENDROOT
BRANCH   1   2
ATOM      2  C   UNL     1     103.788 313.171 196.303  1.00  0.00     0.000 C 
BRANCH   2   3
ATOM      3  C   UNL     1     103.435 313.337 197.791  1.00  0.00     0.000 C 
BRANCH   3   4
ATOM      4  C   UNL     1     103.509 312.012 198.567  1.00  0.00     0.000 C 
BRANCH   4   5
ATOM      5  C   UNL     1     104.118 312.177 199.968  1.00  0.00     0.006 C 
BRANCH   5   6
ATOM      6  C   UNL     1     103.208 311.564 201.037  1.00  0.00     0.053 C 
BRANCH   6   7
ATOM      7  C   UNL     1     103.842 311.669 202.388  1.00  0.00     0.041 C 
ATOM      8  O   UNL     1     104.135 312.796 202.864  1.00  0.00    -0.550 OA
ATOM      9  O   UNL     1     104.061 310.524 203.144  1.00  0.00    -0.550 OA
ENDBRANCH   6   7
ENDBRANCH   5   6
ENDBRANCH   4   5
ENDBRANCH   3   4
ENDBRANCH   2   3
ENDBRANCH   1   2
BRANCH   1  10
ATOM     10  C   UNL     1     104.334 311.518 194.424  1.00  0.00     0.000 C 
BRANCH  10  11
ATOM     11  C   UNL     1     105.786 311.983 194.227  1.00  0.00    -0.000 C 
BRANCH  11  12
ATOM     12  C   UNL     1     105.965 312.837 192.961  1.00  0.00    -0.000 C 
BRANCH  12  13
ATOM     13  C   UNL     1     105.252 314.199 193.049  1.00  0.00    -0.000 C 
BRANCH  13  14
ATOM     14  C   UNL     1     103.876 314.259 192.362  1.00  0.00    -0.000 C 
BRANCH  14  15
ATOM     15  C   UNL     1     103.822 313.450 191.055  1.00  0.00    -0.000 C 
BRANCH  15  16
ATOM     16  C   UNL     1     103.417 314.308 189.846  1.00  0.00    -0.003 C 
ATOM     17  C   UNL     1     104.520 315.274 189.413  1.00  0.00     0.004 C 
ENDBRANCH  15  16
ENDBRANCH  14  15
ENDBRANCH  13  14
ENDBRANCH  12  13
ENDBRANCH  11  12
ENDBRANCH  10  11
ENDBRANCH   1  10
TORSDOF 13
ENDMDL
MODEL 9
REMARK VINA RESULT:    -5.590     18.856     21.489
REMARK INTER + INTRA:         -10.458
REMARK INTER:                  -8.969
REMARK INTRA:                  -1.489
REMARK UNBOUND:                -0.620
REMARK SMILES CCCCCCCCCCCCCCC(=O)[O-]
REMARK SMILES IDX 9 1 10 2 11 3 12 4 13 5 14 6 15 7 16 8 17 9 8 10 7 11 6 12
REMARK SMILES IDX 5 13 4 14 3 15 2 16 1 17
REMARK H PARENT
REMARK Flexibility Score: inf
ROOT
ATOM      1  C   UNL     1      88.049 325.134 192.876  1.00  0.00     0.000 C 
ENDROOT
BRANCH   1   2
ATOM      2  C   UNL     1      86.696 324.510 192.504  1.00  0.00     0.000 C 
BRANCH   2   3
ATOM      3  C   UNL     1      86.815 323.482 191.365  1.00  0.00     0.000 C 
BRANCH   3   4
ATOM      4  C   UNL     1      88.171 323.553 190.644  1.00  0.00     0.000 C 
BRANCH   4   5
ATOM      5  C   UNL     1      88.599 322.204 190.047  1.00  0.00     0.006 C 
BRANCH   5   6
ATOM      6  C   UNL     1      88.311 322.154 188.543  1.00  0.00     0.053 C 
BRANCH   6   7
ATOM      7  C   UNL     1      87.078 321.351 188.271  1.00  0.00     0.041 C 
ATOM      8  O   UNL     1      87.117 320.094 188.327  1.00  0.00    -0.550 OA
ATOM      9  O   UNL     1      85.875 321.991 188.007  1.00  0.00    -0.550 OA
ENDBRANCH   6   7
ENDBRANCH   5   6
ENDBRANCH   4   5
ENDBRANCH   3   4
ENDBRANCH   2   3
ENDBRANCH   1   2
BRANCH   1  10
ATOM     10  C   UNL     1      87.901 326.476 193.618  1.00  0.00     0.000 C 
BRANCH  10  11
ATOM     11  C   UNL     1      86.620 326.546 194.465  1.00  0.00    -0.000 C 
BRANCH  11  12
ATOM     12  C   UNL     1      86.857 326.125 195.926  1.00  0.00    -0.000 C 
BRANCH  12  13
ATOM     13  C   UNL     1      88.345 326.139 196.321  1.00  0.00    -0.000 C 
BRANCH  13  14
ATOM     14  C   UNL     1      88.878 324.816 196.901  1.00  0.00    -0.000 C 
BRANCH  14  15
ATOM     15  C   UNL     1      88.109 323.585 196.390  1.00  0.00    -0.000 C 
BRANCH  15  16
ATOM     16  C   UNL     1      89.043 322.461 195.916  1.00  0.00    -0.003 C 
ATOM     17  C   UNL     1      88.872 322.140 194.431  1.00  0.00     0.004 C 
ENDBRANCH  15  16
ENDBRANCH  14  15
ENDBRANCH  13  14
ENDBRANCH  12  13
ENDBRANCH  11  12
ENDBRANCH  10  11
ENDBRANCH   1  10
TORSDOF 13
ENDMDL
