MODEL 1
REMARK VINA RESULT:    -7.814      0.000      0.000
REMARK INTER + INTRA:         -12.234
REMARK INTER:                 -11.469
REMARK INTRA:                  -0.765
REMARK UNBOUND:                -0.765
REMARK SMILES CC(C)(O)CC[C@@H](O)[C@@](C)(O)[C@@H]1CC[C@]2(O)C3=CC(=O)[C@H]4C[C@@H](O)[C@@H](O)C[C@]4(C)[C@@H]3CC[C@@]12C
REMARK SMILES IDX 6 1 7 2 9 3 10 4 12 5 34 6 33 7 32 8 15 9 31 10 17 11 14 12
REMARK SMILES IDX 13 13 30 14 18 15 28 16 19 17 21 18 27 19 29 20 20 21 22 22
REMARK SMILES IDX 25 23 23 24 16 25 26 27 24 29 11 31 8 33 5 35 2 36 1 37 3 38
REMARK SMILES IDX 4 39
REMARK H PARENT 16 26 26 28 24 30 11 32 8 34 4 40
REMARK Flexibility Score: inf
ROOT
ATOM      1  C   UNL     1     -38.155 -15.271  -7.467  1.00  0.00     0.038 C 
ENDROOT
BRANCH   1   2
ATOM      2  C   UNL     1     -38.137 -15.967  -6.083  1.00  0.00     0.146 C 
BRANCH   2   3
ATOM      3  C   UNL     1     -38.397 -17.523  -6.047  1.00  0.00     0.091 C 
ATOM      4  C   UNL     1     -38.659 -17.923  -4.565  1.00  0.00     0.045 C 
BRANCH   3   5
ATOM      5  C   UNL     1     -37.318 -18.534  -6.643  1.00  0.00     0.032 C 
ATOM      6  C   UNL     1     -35.295 -18.170  -5.079  1.00  0.00     0.015 C 
ATOM      7  C   UNL     1     -35.776 -18.291  -6.562  1.00  0.00     0.006 C 
ATOM      8  C   UNL     1     -35.226 -17.081  -7.367  1.00  0.00     0.011 C 
ATOM      9  C   UNL     1     -35.256 -19.597  -7.235  1.00  0.00     0.092 C 
ATOM     10  C   UNL     1     -33.671 -17.085  -7.417  1.00  0.00     0.009 C 
ATOM     11  C   UNL     1     -33.737 -19.601  -7.173  1.00  0.00    -0.031 C 
ATOM     12  C   UNL     1     -36.080 -20.684  -6.526  1.00  0.00     0.041 C 
ATOM     13  C   UNL     1     -37.481 -20.056  -6.368  1.00  0.00     0.010 C 
ATOM     14  C   UNL     1     -33.078 -18.433  -7.928  1.00  0.00     0.025 C 
ATOM     15  C   UNL     1     -33.039 -20.447  -6.391  1.00  0.00     0.050 C 
ATOM     16  C   UNL     1     -31.497 -18.537  -7.965  1.00  0.00    -0.013 C 
ATOM     17  C   UNL     1     -31.615 -20.226  -6.114  1.00  0.00     0.159 C 
ATOM     18  C   UNL     1     -30.979 -18.931  -6.548  1.00  0.00     0.070 C 
ATOM     19  C   UNL     1     -30.835 -17.184  -8.386  1.00  0.00     0.042 C 
ATOM     20  C   UNL     1     -31.143 -19.630  -9.023  1.00  0.00     0.013 C 
ATOM     21  O   UNL     1     -30.970 -21.082  -5.450  1.00  0.00    -0.295 OA
ATOM     22  C   UNL     1     -29.436 -18.959  -6.454  1.00  0.00     0.047 C 
ATOM     23  C   UNL     1     -29.292 -17.167  -8.280  1.00  0.00     0.143 C 
ATOM     24  C   UNL     1     -28.834 -17.605  -6.874  1.00  0.00     0.143 C 
BRANCH   9  25
ATOM     25  O   UNL     1     -35.620 -19.620  -8.602  1.00  0.00    -0.385 OA
ATOM     26  H   UNL     1     -36.409 -19.026  -8.716  1.00  0.00     0.211 HD
ENDBRANCH   9  25
BRANCH  23  27
ATOM     27  O   UNL     1     -28.702 -17.970  -9.270  1.00  0.00    -0.390 OA
ATOM     28  H   UNL     1     -27.852 -18.316  -8.891  1.00  0.00     0.211 HD
ENDBRANCH  23  27
BRANCH  24  29
ATOM     29  O   UNL     1     -27.431 -17.627  -6.783  1.00  0.00    -0.390 OA
ATOM     30  H   UNL     1     -27.184 -17.468  -5.835  1.00  0.00     0.211 HD
ENDBRANCH  24  29
ENDBRANCH   3   5
BRANCH   3  31
ATOM     31  O   UNL     1     -39.606 -17.713  -6.750  1.00  0.00    -0.387 OA
ATOM     32  H   UNL     1     -40.252 -17.008  -6.481  1.00  0.00     0.211 HD
ENDBRANCH   3  31
ENDBRANCH   2   3
BRANCH   2  33
ATOM     33  O   UNL     1     -39.008 -15.302  -5.206  1.00  0.00    -0.390 OA
ATOM     34  H   UNL     1     -38.462 -14.810  -4.537  1.00  0.00     0.211 HD
ENDBRANCH   2  33
ENDBRANCH   1   2
BRANCH   1  35
ATOM     35  C   UNL     1     -37.047 -14.201  -7.623  1.00  0.00     0.037 C 
BRANCH  35  36
ATOM     36  C   UNL     1     -37.534 -12.731  -7.478  1.00  0.00     0.059 C 
ATOM     37  C   UNL     1     -38.715 -12.502  -8.442  1.00  0.00     0.042 C 
ATOM     38  C   UNL     1     -36.397 -11.743  -7.831  1.00  0.00     0.042 C 
BRANCH  36  39
ATOM     39  O   UNL     1     -37.965 -12.509  -6.156  1.00  0.00    -0.390 OA
ATOM     40  H   UNL     1     -38.910 -12.201  -6.187  1.00  0.00     0.211 HD
ENDBRANCH  36  39
ENDBRANCH  35  36
ENDBRANCH   1  35
TORSDOF 11
ENDMDL
MODEL 2
REMARK VINA RESULT:    -7.327      8.034     11.853
REMARK INTER + INTRA:         -11.519
REMARK INTER:                 -10.639
REMARK INTRA:                  -0.880
REMARK UNBOUND:                -0.765
REMARK SMILES CC(C)(O)CC[C@@H](O)[C@@](C)(O)[C@@H]1CC[C@]2(O)C3=CC(=O)[C@H]4C[C@@H](O)[C@@H](O)C[C@]4(C)[C@@H]3CC[C@@]12C
REMARK SMILES IDX 6 1 7 2 9 3 10 4 12 5 34 6 33 7 32 8 15 9 31 10 17 11 14 12
REMARK SMILES IDX 13 13 30 14 18 15 28 16 19 17 21 18 27 19 29 20 20 21 22 22
REMARK SMILES IDX 25 23 23 24 16 25 26 27 24 29 11 31 8 33 5 35 2 36 1 37 3 38
REMARK SMILES IDX 4 39
REMARK H PARENT 16 26 26 28 24 30 11 32 8 34 4 40
REMARK Flexibility Score: inf
ROOT
ATOM      1  C   UNL     1     -28.493 -20.503  -1.928  1.00  0.00     0.038 C 
ENDROOT
BRANCH   1   2
ATOM      2  C   UNL     1     -28.770 -20.920  -0.462  1.00  0.00     0.146 C 
BRANCH   2   3
ATOM      3  C   UNL     1     -27.541 -20.972   0.525  1.00  0.00     0.091 C 
ATOM      4  C   UNL     1     -27.738 -22.202   1.460  1.00  0.00     0.045 C 
BRANCH   3   5
ATOM      5  C   UNL     1     -27.186 -19.714   1.438  1.00  0.00     0.032 C 
ATOM      6  C   UNL     1     -28.926 -17.966   0.671  1.00  0.00     0.015 C 
ATOM      7  C   UNL     1     -27.419 -18.234   0.990  1.00  0.00     0.006 C 
ATOM      8  C   UNL     1     -26.558 -17.732  -0.202  1.00  0.00     0.011 C 
ATOM      9  C   UNL     1     -26.956 -17.482   2.273  1.00  0.00     0.092 C 
ATOM     10  C   UNL     1     -26.689 -16.195  -0.396  1.00  0.00     0.009 C 
ATOM     11  C   UNL     1     -27.194 -15.994   2.073  1.00  0.00    -0.031 C 
ATOM     12  C   UNL     1     -27.677 -18.258   3.388  1.00  0.00     0.041 C 
ATOM     13  C   UNL     1     -27.602 -19.731   2.935  1.00  0.00     0.010 C 
ATOM     14  C   UNL     1     -26.399 -15.386   0.905  1.00  0.00     0.025 C 
ATOM     15  C   UNL     1     -28.138 -15.308   2.746  1.00  0.00     0.050 C 
ATOM     16  C   UNL     1     -26.558 -13.813   0.804  1.00  0.00    -0.013 C 
ATOM     17  C   UNL     1     -28.553 -13.967   2.317  1.00  0.00     0.159 C 
ATOM     18  C   UNL     1     -28.059 -13.438   0.996  1.00  0.00     0.070 C 
ATOM     19  C   UNL     1     -26.073 -13.265  -0.579  1.00  0.00     0.042 C 
ATOM     20  C   UNL     1     -25.672 -13.199   1.935  1.00  0.00     0.013 C 
ATOM     21  O   UNL     1     -29.375 -13.317   3.016  1.00  0.00    -0.295 OA
ATOM     22  C   UNL     1     -28.334 -11.928   0.814  1.00  0.00     0.047 C 
ATOM     23  C   UNL     1     -26.355 -11.762  -0.805  1.00  0.00     0.143 C 
ATOM     24  C   UNL     1     -27.844 -11.440  -0.563  1.00  0.00     0.143 C 
BRANCH   9  25
ATOM     25  O   UNL     1     -25.566 -17.662   2.469  1.00  0.00    -0.385 OA
ATOM     26  H   UNL     1     -25.443 -18.428   3.090  1.00  0.00     0.211 HD
ENDBRANCH   9  25
BRANCH  23  27
ATOM     27  O   UNL     1     -25.532 -10.958   0.002  1.00  0.00    -0.390 OA
ATOM     28  H   UNL     1     -24.943 -11.573   0.513  1.00  0.00     0.211 HD
ENDBRANCH  23  27
BRANCH  24  29
ATOM     29  O   UNL     1     -28.099 -10.067  -0.732  1.00  0.00    -0.390 OA
ATOM     30  H   UNL     1     -27.822  -9.601   0.100  1.00  0.00     0.211 HD
ENDBRANCH  24  29
ENDBRANCH   3   5
BRANCH   3  31
ATOM     31  O   UNL     1     -26.422 -21.246  -0.292  1.00  0.00    -0.387 OA
ATOM     32  H   UNL     1     -26.221 -20.447  -0.846  1.00  0.00     0.211 HD
ENDBRANCH   3  31
ENDBRANCH   2   3
BRANCH   2  33
ATOM     33  O   UNL     1     -29.472 -22.135  -0.439  1.00  0.00    -0.390 OA
ATOM     34  H   UNL     1     -29.263 -22.634  -1.272  1.00  0.00     0.211 HD
ENDBRANCH   2  33
ENDBRANCH   1   2
BRANCH   1  35
ATOM     35  C   UNL     1     -29.780 -20.144  -2.710  1.00  0.00     0.037 C 
BRANCH  35  36
ATOM     36  C   UNL     1     -30.180 -21.164  -3.814  1.00  0.00     0.059 C 
ATOM     37  C   UNL     1     -29.231 -20.991  -5.017  1.00  0.00     0.042 C 
ATOM     38  C   UNL     1     -31.634 -20.921  -4.281  1.00  0.00     0.042 C 
BRANCH  36  39
ATOM     39  O   UNL     1     -30.053 -22.473  -3.309  1.00  0.00    -0.390 OA
ATOM     40  H   UNL     1     -30.020 -22.420  -2.318  1.00  0.00     0.211 HD
ENDBRANCH  36  39
ENDBRANCH  35  36
ENDBRANCH   1  35
TORSDOF 11
ENDMDL
MODEL 3
REMARK VINA RESULT:    -7.272      7.398     11.074
REMARK INTER + INTRA:         -11.438
REMARK INTER:                 -10.782
REMARK INTRA:                  -0.656
REMARK UNBOUND:                -0.765
REMARK SMILES CC(C)(O)CC[C@@H](O)[C@@](C)(O)[C@@H]1CC[C@]2(O)C3=CC(=O)[C@H]4C[C@@H](O)[C@@H](O)C[C@]4(C)[C@@H]3CC[C@@]12C
REMARK SMILES IDX 6 1 7 2 9 3 10 4 12 5 34 6 33 7 32 8 15 9 31 10 17 11 14 12
REMARK SMILES IDX 13 13 30 14 18 15 28 16 19 17 21 18 27 19 29 20 20 21 22 22
REMARK SMILES IDX 25 23 23 24 16 25 26 27 24 29 11 31 8 33 5 35 2 36 1 37 3 38
REMARK SMILES IDX 4 39
REMARK H PARENT 16 26 26 28 24 30 11 32 8 34 4 40
REMARK Flexibility Score: inf
ROOT
ATOM      1  C   UNL     1     -29.241 -19.272  -3.860  1.00  0.00     0.038 C 
ENDROOT
BRANCH   1   2
ATOM      2  C   UNL     1     -29.658 -19.646  -2.416  1.00  0.00     0.146 C 
BRANCH   2   3
ATOM      3  C   UNL     1     -28.552 -20.257  -1.473  1.00  0.00     0.091 C 
ATOM      4  C   UNL     1     -29.262 -21.212  -0.469  1.00  0.00     0.045 C 
BRANCH   3   5
ATOM      5  C   UNL     1     -27.586 -19.301  -0.639  1.00  0.00     0.032 C 
ATOM      6  C   UNL     1     -29.243 -17.623   0.413  1.00  0.00     0.015 C 
ATOM      7  C   UNL     1     -27.897 -17.793  -0.364  1.00  0.00     0.006 C 
ATOM      8  C   UNL     1     -27.912 -16.856  -1.603  1.00  0.00     0.011 C 
ATOM      9  C   UNL     1     -26.668 -17.415   0.516  1.00  0.00     0.092 C 
ATOM     10  C   UNL     1     -27.982 -15.359  -1.188  1.00  0.00     0.009 C 
ATOM     11  C   UNL     1     -26.830 -15.975   0.977  1.00  0.00    -0.031 C 
ATOM     12  C   UNL     1     -26.619 -18.570   1.529  1.00  0.00     0.041 C 
ATOM     13  C   UNL     1     -26.987 -19.818   0.699  1.00  0.00     0.010 C 
ATOM     14  C   UNL     1     -26.871 -14.952  -0.171  1.00  0.00     0.025 C 
ATOM     15  C   UNL     1     -27.083 -15.642   2.257  1.00  0.00     0.050 C 
ATOM     16  C   UNL     1     -26.901 -13.453   0.339  1.00  0.00    -0.013 C 
ATOM     17  C   UNL     1     -27.538 -14.293   2.615  1.00  0.00     0.159 C 
ATOM     18  C   UNL     1     -27.916 -13.335   1.516  1.00  0.00     0.070 C 
ATOM     19  C   UNL     1     -27.322 -12.459  -0.794  1.00  0.00     0.042 C 
ATOM     20  C   UNL     1     -25.450 -13.108   0.806  1.00  0.00     0.013 C 
ATOM     21  O   UNL     1     -27.683 -13.986   3.829  1.00  0.00    -0.295 OA
ATOM     22  C   UNL     1     -28.093 -11.884   2.020  1.00  0.00     0.047 C 
ATOM     23  C   UNL     1     -27.533 -11.003  -0.321  1.00  0.00     0.143 C 
ATOM     24  C   UNL     1     -28.513 -10.948   0.870  1.00  0.00     0.143 C 
BRANCH   9  25
ATOM     25  O   UNL     1     -25.481 -17.479  -0.251  1.00  0.00    -0.385 OA
ATOM     26  H   UNL     1     -24.732 -17.694   0.365  1.00  0.00     0.211 HD
ENDBRANCH   9  25
BRANCH  23  27
ATOM     27  O   UNL     1     -26.313 -10.389   0.008  1.00  0.00    -0.390 OA
ATOM     28  H   UNL     1     -26.141 -10.587   0.966  1.00  0.00     0.211 HD
ENDBRANCH  23  27
BRANCH  24  29
ATOM     29  O   UNL     1     -28.680  -9.629   1.327  1.00  0.00    -0.390 OA
ATOM     30  H   UNL     1     -27.797  -9.176   1.279  1.00  0.00     0.211 HD
ENDBRANCH  24  29
ENDBRANCH   3   5
BRANCH   3  31
ATOM     31  O   UNL     1     -27.750 -21.059  -2.314  1.00  0.00    -0.387 OA
ATOM     32  H   UNL     1     -26.889 -20.594  -2.482  1.00  0.00     0.211 HD
ENDBRANCH   3  31
ENDBRANCH   2   3
BRANCH   2  33
ATOM     33  O   UNL     1     -30.790 -20.476  -2.450  1.00  0.00    -0.390 OA
ATOM     34  H   UNL     1     -31.290 -20.358  -1.600  1.00  0.00     0.211 HD
ENDBRANCH   2  33
ENDBRANCH   1   2
BRANCH   1  35
ATOM     35  C   UNL     1     -30.305 -19.652  -4.918  1.00  0.00     0.037 C 
BRANCH  35  36
ATOM     36  C   UNL     1     -29.730 -20.130  -6.282  1.00  0.00     0.059 C 
ATOM     37  C   UNL     1     -28.747 -21.290  -6.026  1.00  0.00     0.042 C 
ATOM     38  C   UNL     1     -28.976 -18.979  -6.990  1.00  0.00     0.042 C 
BRANCH  36  39
ATOM     39  O   UNL     1     -30.782 -20.585  -7.100  1.00  0.00    -0.390 OA
ATOM     40  H   UNL     1     -31.237 -21.333  -6.630  1.00  0.00     0.211 HD
ENDBRANCH  36  39
ENDBRANCH  35  36
ENDBRANCH   1  35
TORSDOF 11
ENDMDL
MODEL 4
REMARK VINA RESULT:    -7.213      1.545      1.837
REMARK INTER + INTRA:         -11.351
REMARK INTER:                 -10.551
REMARK INTRA:                  -0.801
REMARK UNBOUND:                -0.765
REMARK SMILES CC(C)(O)CC[C@@H](O)[C@@](C)(O)[C@@H]1CC[C@]2(O)C3=CC(=O)[C@H]4C[C@@H](O)[C@@H](O)C[C@]4(C)[C@@H]3CC[C@@]12C
REMARK SMILES IDX 6 1 7 2 9 3 10 4 12 5 34 6 33 7 32 8 15 9 31 10 17 11 14 12
REMARK SMILES IDX 13 13 30 14 18 15 28 16 19 17 21 18 27 19 29 20 20 21 22 22
REMARK SMILES IDX 25 23 23 24 16 25 26 27 24 29 11 31 8 33 5 35 2 36 1 37 3 38
REMARK SMILES IDX 4 39
REMARK H PARENT 16 26 26 28 24 30 11 32 8 34 4 40
REMARK Flexibility Score: inf
ROOT
ATOM      1  C   UNL     1     -38.407 -15.018  -7.108  1.00  0.00     0.038 C 
ENDROOT
BRANCH   1   2
ATOM      2  C   UNL     1     -37.902 -16.234  -6.293  1.00  0.00     0.146 C 
BRANCH   2   3
ATOM      3  C   UNL     1     -37.841 -17.629  -7.027  1.00  0.00     0.091 C 
ATOM      4  C   UNL     1     -38.693 -18.635  -6.199  1.00  0.00     0.045 C 
BRANCH   3   5
ATOM      5  C   UNL     1     -36.435 -18.316  -7.337  1.00  0.00     0.032 C 
ATOM      6  C   UNL     1     -35.217 -18.129  -5.067  1.00  0.00     0.015 C 
ATOM      7  C   UNL     1     -35.107 -17.920  -6.612  1.00  0.00     0.006 C 
ATOM      8  C   UNL     1     -34.574 -16.487  -6.887  1.00  0.00     0.011 C 
ATOM      9  C   UNL     1     -34.124 -18.937  -7.266  1.00  0.00     0.092 C 
ATOM     10  C   UNL     1     -33.138 -16.292  -6.324  1.00  0.00     0.009 C 
ATOM     11  C   UNL     1     -32.759 -18.775  -6.617  1.00  0.00    -0.031 C 
ATOM     12  C   UNL     1     -34.900 -20.260  -7.162  1.00  0.00     0.041 C 
ATOM     13  C   UNL     1     -36.364 -19.865  -7.447  1.00  0.00     0.010 C 
ATOM     14  C   UNL     1     -32.135 -17.383  -6.812  1.00  0.00     0.025 C 
ATOM     15  C   UNL     1     -32.223 -19.705  -5.803  1.00  0.00     0.050 C 
ATOM     16  C   UNL     1     -30.659 -17.284  -6.246  1.00  0.00    -0.013 C 
ATOM     17  C   UNL     1     -31.066 -19.395  -4.954  1.00  0.00     0.159 C 
ATOM     18  C   UNL     1     -30.603 -17.966  -4.845  1.00  0.00     0.070 C 
ATOM     19  C   UNL     1     -30.187 -15.799  -6.104  1.00  0.00     0.042 C 
ATOM     20  C   UNL     1     -29.735 -18.017  -7.270  1.00  0.00     0.013 C 
ATOM     21  O   UNL     1     -30.534 -20.310  -4.269  1.00  0.00    -0.295 OA
ATOM     22  C   UNL     1     -29.223 -17.833  -4.161  1.00  0.00     0.047 C 
ATOM     23  C   UNL     1     -28.821 -15.626  -5.401  1.00  0.00     0.143 C 
ATOM     24  C   UNL     1     -28.807 -16.354  -4.041  1.00  0.00     0.143 C 
BRANCH   9  25
ATOM     25  O   UNL     1     -33.970 -18.649  -8.643  1.00  0.00    -0.385 OA
ATOM     26  H   UNL     1     -34.876 -18.508  -9.028  1.00  0.00     0.211 HD
ENDBRANCH   9  25
BRANCH  23  27
ATOM     27  O   UNL     1     -27.766 -16.070  -6.216  1.00  0.00    -0.390 OA
ATOM     28  H   UNL     1     -27.500 -15.302  -6.785  1.00  0.00     0.211 HD
ENDBRANCH  23  27
BRANCH  24  29
ATOM     29  O   UNL     1     -27.554 -16.231  -3.414  1.00  0.00    -0.390 OA
ATOM     30  H   UNL     1     -27.670 -15.657  -2.613  1.00  0.00     0.211 HD
ENDBRANCH  24  29
ENDBRANCH   3   5
BRANCH   3  31
ATOM     31  O   UNL     1     -38.508 -17.430  -8.255  1.00  0.00    -0.387 OA
ATOM     32  H   UNL     1     -39.454 -17.188  -8.075  1.00  0.00     0.211 HD
ENDBRANCH   3  31
ENDBRANCH   2   3
BRANCH   2  33
ATOM     33  O   UNL     1     -38.628 -16.338  -5.096  1.00  0.00    -0.390 OA
ATOM     34  H   UNL     1     -39.460 -15.803  -5.187  1.00  0.00     0.211 HD
ENDBRANCH   2  33
ENDBRANCH   1   2
BRANCH   1  35
ATOM     35  C   UNL     1     -37.263 -14.094  -7.593  1.00  0.00     0.037 C 
BRANCH  35  36
ATOM     36  C   UNL     1     -37.599 -12.575  -7.580  1.00  0.00     0.059 C 
ATOM     37  C   UNL     1     -38.649 -12.290  -8.673  1.00  0.00     0.042 C 
ATOM     38  C   UNL     1     -36.334 -11.734  -7.865  1.00  0.00     0.042 C 
BRANCH  36  39
ATOM     39  O   UNL     1     -38.132 -12.225  -6.324  1.00  0.00    -0.390 OA
ATOM     40  H   UNL     1     -38.978 -11.727  -6.475  1.00  0.00     0.211 HD
ENDBRANCH  36  39
ENDBRANCH  35  36
ENDBRANCH   1  35
TORSDOF 11
ENDMDL
MODEL 5
REMARK VINA RESULT:    -7.131      1.883      3.188
REMARK INTER + INTRA:         -11.231
REMARK INTER:                 -10.249
REMARK INTRA:                  -0.982
REMARK UNBOUND:                -0.765
REMARK SMILES CC(C)(O)CC[C@@H](O)[C@@](C)(O)[C@@H]1CC[C@]2(O)C3=CC(=O)[C@H]4C[C@@H](O)[C@@H](O)C[C@]4(C)[C@@H]3CC[C@@]12C
REMARK SMILES IDX 6 1 7 2 9 3 10 4 12 5 34 6 33 7 32 8 15 9 31 10 17 11 14 12
REMARK SMILES IDX 13 13 30 14 18 15 28 16 19 17 21 18 27 19 29 20 20 21 22 22
REMARK SMILES IDX 25 23 23 24 16 25 26 27 24 29 11 31 8 33 5 35 2 36 1 37 3 38
REMARK SMILES IDX 4 39
REMARK H PARENT 16 26 26 28 24 30 11 32 8 34 4 40
REMARK Flexibility Score: inf
ROOT
ATOM      1  C   UNL     1     -37.575 -18.854  -7.546  1.00  0.00     0.038 C 
ENDROOT
BRANCH   1   2
ATOM      2  C   UNL     1     -37.699 -19.679  -6.241  1.00  0.00     0.146 C 
BRANCH   2   3
ATOM      3  C   UNL     1     -37.169 -21.164  -6.264  1.00  0.00     0.091 C 
ATOM      4  C   UNL     1     -38.115 -22.017  -5.367  1.00  0.00     0.045 C 
BRANCH   3   5
ATOM      5  C   UNL     1     -35.667 -21.491  -5.842  1.00  0.00     0.032 C 
ATOM      6  C   UNL     1     -34.834 -19.213  -4.955  1.00  0.00     0.015 C 
ATOM      7  C   UNL     1     -34.515 -20.435  -5.877  1.00  0.00     0.006 C 
ATOM      8  C   UNL     1     -34.106 -19.909  -7.281  1.00  0.00     0.011 C 
ATOM      9  C   UNL     1     -33.339 -21.291  -5.319  1.00  0.00     0.092 C 
ATOM     10  C   UNL     1     -32.801 -19.065  -7.220  1.00  0.00     0.009 C 
ATOM     11  C   UNL     1     -32.114 -20.400  -5.185  1.00  0.00    -0.031 C 
ATOM     12  C   UNL     1     -33.973 -21.958  -4.087  1.00  0.00     0.041 C 
ATOM     13  C   UNL     1     -35.411 -22.293  -4.535  1.00  0.00     0.010 C 
ATOM     14  C   UNL     1     -31.624 -19.808  -6.517  1.00  0.00     0.025 C 
ATOM     15  C   UNL     1     -31.608 -20.028  -3.994  1.00  0.00     0.050 C 
ATOM     16  C   UNL     1     -30.270 -18.998  -6.371  1.00  0.00    -0.013 C 
ATOM     17  C   UNL     1     -30.635 -18.935  -3.890  1.00  0.00     0.159 C 
ATOM     18  C   UNL     1     -30.353 -18.091  -5.106  1.00  0.00     0.070 C 
ATOM     19  C   UNL     1     -29.990 -18.099  -7.620  1.00  0.00     0.042 C 
ATOM     20  C   UNL     1     -29.127 -20.055  -6.237  1.00  0.00     0.013 C 
ATOM     21  O   UNL     1     -30.115 -18.667  -2.773  1.00  0.00    -0.295 OA
ATOM     22  C   UNL     1     -29.114 -17.182  -4.931  1.00  0.00     0.047 C 
ATOM     23  C   UNL     1     -28.773 -17.157  -7.471  1.00  0.00     0.143 C 
ATOM     24  C   UNL     1     -28.886 -16.314  -6.183  1.00  0.00     0.143 C 
BRANCH   9  25
ATOM     25  O   UNL     1     -33.010 -22.321  -6.232  1.00  0.00    -0.385 OA
ATOM     26  H   UNL     1     -32.463 -21.921  -6.958  1.00  0.00     0.211 HD
ENDBRANCH   9  25
BRANCH  23  27
ATOM     27  O   UNL     1     -27.565 -17.874  -7.494  1.00  0.00    -0.390 OA
ATOM     28  H   UNL     1     -26.842 -17.212  -7.651  1.00  0.00     0.211 HD
ENDBRANCH  23  27
BRANCH  24  29
ATOM     29  O   UNL     1     -27.763 -15.483  -6.024  1.00  0.00    -0.390 OA
ATOM     30  H   UNL     1     -26.978 -15.954  -6.409  1.00  0.00     0.211 HD
ENDBRANCH  24  29
ENDBRANCH   3   5
BRANCH   3  31
ATOM     31  O   UNL     1     -37.352 -21.601  -7.594  1.00  0.00    -0.387 OA
ATOM     32  H   UNL     1     -36.673 -22.295  -7.805  1.00  0.00     0.211 HD
ENDBRANCH   3  31
ENDBRANCH   2   3
BRANCH   2  33
ATOM     33  O   UNL     1     -39.023 -19.635  -5.776  1.00  0.00    -0.390 OA
ATOM     34  H   UNL     1     -39.044 -20.006  -4.855  1.00  0.00     0.211 HD
ENDBRANCH   2  33
ENDBRANCH   1   2
BRANCH   1  35
ATOM     35  C   UNL     1     -38.413 -17.553  -7.524  1.00  0.00     0.037 C 
BRANCH  35  36
ATOM     36  C   UNL     1     -37.800 -16.394  -6.688  1.00  0.00     0.059 C 
ATOM     37  C   UNL     1     -38.455 -15.068  -7.122  1.00  0.00     0.042 C 
ATOM     38  C   UNL     1     -36.274 -16.301  -6.921  1.00  0.00     0.042 C 
BRANCH  36  39
ATOM     39  O   UNL     1     -38.061 -16.614  -5.321  1.00  0.00    -0.390 OA
ATOM     40  H   UNL     1     -38.276 -15.738  -4.904  1.00  0.00     0.211 HD
ENDBRANCH  36  39
ENDBRANCH  35  36
ENDBRANCH   1  35
TORSDOF 11
ENDMDL
MODEL 6
REMARK VINA RESULT:    -7.117      6.897     10.570
REMARK INTER + INTRA:         -11.211
REMARK INTER:                 -10.248
REMARK INTRA:                  -0.963
REMARK UNBOUND:                -0.765
REMARK SMILES CC(C)(O)CC[C@@H](O)[C@@](C)(O)[C@@H]1CC[C@]2(O)C3=CC(=O)[C@H]4C[C@@H](O)[C@@H](O)C[C@]4(C)[C@@H]3CC[C@@]12C
REMARK SMILES IDX 6 1 7 2 9 3 10 4 12 5 34 6 33 7 32 8 15 9 31 10 17 11 14 12
REMARK SMILES IDX 13 13 30 14 18 15 28 16 19 17 21 18 27 19 29 20 20 21 22 22
REMARK SMILES IDX 25 23 23 24 16 25 26 27 24 29 11 31 8 33 5 35 2 36 1 37 3 38
REMARK SMILES IDX 4 39
REMARK H PARENT 16 26 26 28 24 30 11 32 8 34 4 40
REMARK Flexibility Score: inf
ROOT
ATOM      1  C   UNL     1     -29.719 -19.427  -2.986  1.00  0.00     0.038 C 
ENDROOT
BRANCH   1   2
ATOM      2  C   UNL     1     -29.352 -18.777  -4.343  1.00  0.00     0.146 C 
BRANCH   2   3
ATOM      3  C   UNL     1     -30.273 -17.607  -4.863  1.00  0.00     0.091 C 
ATOM      4  C   UNL     1     -30.588 -17.886  -6.363  1.00  0.00     0.045 C 
BRANCH   3   5
ATOM      5  C   UNL     1     -29.797 -16.090  -4.737  1.00  0.00     0.032 C 
ATOM      6  C   UNL     1     -28.163 -16.187  -2.740  1.00  0.00     0.015 C 
ATOM      7  C   UNL     1     -29.371 -15.433  -3.384  1.00  0.00     0.006 C 
ATOM      8  C   UNL     1     -30.488 -15.271  -2.316  1.00  0.00     0.011 C 
ATOM      9  C   UNL     1     -28.969 -14.013  -3.883  1.00  0.00     0.092 C 
ATOM     10  C   UNL     1     -30.018 -14.390  -1.124  1.00  0.00     0.009 C 
ATOM     11  C   UNL     1     -28.425 -13.223  -2.703  1.00  0.00    -0.031 C 
ATOM     12  C   UNL     1     -28.084 -14.330  -5.100  1.00  0.00     0.041 C 
ATOM     13  C   UNL     1     -28.779 -15.533  -5.771  1.00  0.00     0.010 C 
ATOM     14  C   UNL     1     -29.444 -13.011  -1.570  1.00  0.00     0.025 C 
ATOM     15  C   UNL     1     -27.126 -12.887  -2.585  1.00  0.00     0.050 C 
ATOM     16  C   UNL     1     -28.899 -12.070  -0.418  1.00  0.00    -0.013 C 
ATOM     17  C   UNL     1     -26.578 -12.407  -1.311  1.00  0.00     0.159 C 
ATOM     18  C   UNL     1     -27.435 -12.483  -0.074  1.00  0.00     0.070 C 
ATOM     19  C   UNL     1     -29.770 -12.170   0.877  1.00  0.00     0.042 C 
ATOM     20  C   UNL     1     -28.962 -10.608  -0.964  1.00  0.00     0.013 C 
ATOM     21  O   UNL     1     -25.380 -12.019  -1.255  1.00  0.00    -0.295 OA
ATOM     22  C   UNL     1     -26.845 -11.687   1.113  1.00  0.00     0.047 C 
ATOM     23  C   UNL     1     -29.196 -11.406   2.093  1.00  0.00     0.143 C 
ATOM     24  C   UNL     1     -27.735 -11.822   2.364  1.00  0.00     0.143 C 
BRANCH   9  25
ATOM     25  O   UNL     1     -30.108 -13.323  -4.360  1.00  0.00    -0.385 OA
ATOM     26  H   UNL     1     -30.061 -12.389  -4.023  1.00  0.00     0.211 HD
ENDBRANCH   9  25
BRANCH  23  27
ATOM     27  O   UNL     1     -29.296 -10.016   1.919  1.00  0.00    -0.390 OA
ATOM     28  H   UNL     1     -28.408  -9.634   2.146  1.00  0.00     0.211 HD
ENDBRANCH  23  27
BRANCH  24  29
ATOM     29  O   UNL     1     -27.198 -11.103   3.446  1.00  0.00    -0.390 OA
ATOM     30  H   UNL     1     -27.271 -10.135   3.236  1.00  0.00     0.211 HD
ENDBRANCH  24  29
ENDBRANCH   3   5
BRANCH   3  31
ATOM     31  O   UNL     1     -31.484 -17.744  -4.151  1.00  0.00    -0.387 OA
ATOM     32  H   UNL     1     -32.160 -17.129  -4.538  1.00  0.00     0.211 HD
ENDBRANCH   3  31
ENDBRANCH   2   3
BRANCH   2  33
ATOM     33  O   UNL     1     -29.217 -19.772  -5.324  1.00  0.00    -0.390 OA
ATOM     34  H   UNL     1     -28.305 -19.708  -5.711  1.00  0.00     0.211 HD
ENDBRANCH   2  33
ENDBRANCH   1   2
BRANCH   1  35
ATOM     35  C   UNL     1     -28.509 -20.085  -2.280  1.00  0.00     0.037 C 
BRANCH  35  36
ATOM     36  C   UNL     1     -28.305 -19.658  -0.798  1.00  0.00     0.059 C 
ATOM     37  C   UNL     1     -28.302 -20.922   0.086  1.00  0.00     0.042 C 
ATOM     38  C   UNL     1     -29.449 -18.725  -0.337  1.00  0.00     0.042 C 
BRANCH  36  39
ATOM     39  O   UNL     1     -27.068 -18.998  -0.667  1.00  0.00    -0.390 OA
ATOM     40  H   UNL     1     -26.868 -18.907   0.302  1.00  0.00     0.211 HD
ENDBRANCH  36  39
ENDBRANCH  35  36
ENDBRANCH   1  35
TORSDOF 11
ENDMDL
MODEL 7
REMARK VINA RESULT:    -7.086      5.898      8.482
REMARK INTER + INTRA:         -11.166
REMARK INTER:                 -11.067
REMARK INTRA:                  -0.098
REMARK UNBOUND:                -0.765
REMARK SMILES CC(C)(O)CC[C@@H](O)[C@@](C)(O)[C@@H]1CC[C@]2(O)C3=CC(=O)[C@H]4C[C@@H](O)[C@@H](O)C[C@]4(C)[C@@H]3CC[C@@]12C
REMARK SMILES IDX 6 1 7 2 9 3 10 4 12 5 34 6 33 7 32 8 15 9 31 10 17 11 14 12
REMARK SMILES IDX 13 13 30 14 18 15 28 16 19 17 21 18 27 19 29 20 20 21 22 22
REMARK SMILES IDX 25 23 23 24 16 25 26 27 24 29 11 31 8 33 5 35 2 36 1 37 3 38
REMARK SMILES IDX 4 39
REMARK H PARENT 16 26 26 28 24 30 11 32 8 34 4 40
REMARK Flexibility Score: inf
ROOT
ATOM      1  C   UNL     1     -27.930 -11.016  -0.507  1.00  0.00     0.038 C 
ENDROOT
BRANCH   1   2
ATOM      2  C   UNL     1     -27.367 -11.824  -1.701  1.00  0.00     0.146 C 
BRANCH   2   3
ATOM      3  C   UNL     1     -27.652 -13.375  -1.731  1.00  0.00     0.091 C 
ATOM      4  C   UNL     1     -26.492 -14.054  -2.516  1.00  0.00     0.045 C 
BRANCH   3   5
ATOM      5  C   UNL     1     -29.029 -13.931  -2.314  1.00  0.00     0.032 C 
ATOM      6  C   UNL     1     -28.454 -16.394  -2.834  1.00  0.00     0.015 C 
ATOM      7  C   UNL     1     -29.112 -15.081  -3.370  1.00  0.00     0.006 C 
ATOM      8  C   UNL     1     -28.532 -14.768  -4.777  1.00  0.00     0.011 C 
ATOM      9  C   UNL     1     -30.658 -15.220  -3.503  1.00  0.00     0.092 C 
ATOM     10  C   UNL     1     -28.891 -15.878  -5.805  1.00  0.00     0.009 C 
ATOM     11  C   UNL     1     -30.960 -16.379  -4.440  1.00  0.00    -0.031 C 
ATOM     12  C   UNL     1     -31.114 -15.249  -2.034  1.00  0.00     0.041 C 
ATOM     13  C   UNL     1     -30.197 -14.226  -1.332  1.00  0.00     0.010 C 
ATOM     14  C   UNL     1     -30.419 -16.185  -5.867  1.00  0.00     0.025 C 
ATOM     15  C   UNL     1     -31.501 -17.538  -4.018  1.00  0.00     0.050 C 
ATOM     16  C   UNL     1     -30.864 -17.339  -6.857  1.00  0.00    -0.013 C 
ATOM     17  C   UNL     1     -31.492 -18.734  -4.869  1.00  0.00     0.159 C 
ATOM     18  C   UNL     1     -30.692 -18.716  -6.145  1.00  0.00     0.070 C 
ATOM     19  C   UNL     1     -30.014 -17.340  -8.171  1.00  0.00     0.042 C 
ATOM     20  C   UNL     1     -32.360 -17.070  -7.217  1.00  0.00     0.013 C 
ATOM     21  O   UNL     1     -32.082 -19.778  -4.481  1.00  0.00    -0.295 OA
ATOM     22  C   UNL     1     -31.006 -19.917  -7.067  1.00  0.00     0.047 C 
ATOM     23  C   UNL     1     -30.284 -18.542  -9.105  1.00  0.00     0.143 C 
ATOM     24  C   UNL     1     -30.141 -19.875  -8.341  1.00  0.00     0.143 C 
BRANCH   9  25
ATOM     25  O   UNL     1     -31.204 -14.054  -4.089  1.00  0.00    -0.385 OA
ATOM     26  H   UNL     1     -31.028 -13.293  -3.473  1.00  0.00     0.211 HD
ENDBRANCH   9  25
BRANCH  23  27
ATOM     27  O   UNL     1     -31.548 -18.446  -9.711  1.00  0.00    -0.390 OA
ATOM     28  H   UNL     1     -32.122 -17.920  -9.096  1.00  0.00     0.211 HD
ENDBRANCH  23  27
BRANCH  24  29
ATOM     29  O   UNL     1     -30.422 -20.969  -9.178  1.00  0.00    -0.390 OA
ATOM     30  H   UNL     1     -30.761 -21.709  -8.609  1.00  0.00     0.211 HD
ENDBRANCH  24  29
ENDBRANCH   3   5
BRANCH   3  31
ATOM     31  O   UNL     1     -27.548 -13.796  -0.387  1.00  0.00    -0.387 OA
ATOM     32  H   UNL     1     -28.169 -13.259   0.171  1.00  0.00     0.211 HD
ENDBRANCH   3  31
ENDBRANCH   2   3
BRANCH   2  33
ATOM     33  O   UNL     1     -25.992 -11.574  -1.837  1.00  0.00    -0.390 OA
ATOM     34  H   UNL     1     -25.549 -11.781  -0.974  1.00  0.00     0.211 HD
ENDBRANCH   2  33
ENDBRANCH   1   2
BRANCH   1  35
ATOM     35  C   UNL     1     -29.369 -10.497  -0.749  1.00  0.00     0.037 C 
BRANCH  35  36
ATOM     36  C   UNL     1     -30.028  -9.803   0.477  1.00  0.00     0.059 C 
ATOM     37  C   UNL     1     -31.033 -10.780   1.119  1.00  0.00     0.042 C 
ATOM     38  C   UNL     1     -30.779  -8.523   0.041  1.00  0.00     0.042 C 
BRANCH  36  39
ATOM     39  O   UNL     1     -29.034  -9.475   1.420  1.00  0.00    -0.390 OA
ATOM     40  H   UNL     1     -29.400  -9.650   2.327  1.00  0.00     0.211 HD
ENDBRANCH  36  39
ENDBRANCH  35  36
ENDBRANCH   1  35
TORSDOF 11
ENDMDL
MODEL 8
REMARK VINA RESULT:    -6.989      3.167      7.994
REMARK INTER + INTRA:         -11.023
REMARK INTER:                 -10.037
REMARK INTRA:                  -0.986
REMARK UNBOUND:                -0.765
REMARK SMILES CC(C)(O)CC[C@@H](O)[C@@](C)(O)[C@@H]1CC[C@]2(O)C3=CC(=O)[C@H]4C[C@@H](O)[C@@H](O)C[C@]4(C)[C@@H]3CC[C@@]12C
REMARK SMILES IDX 6 1 7 2 9 3 10 4 12 5 34 6 33 7 32 8 15 9 31 10 17 11 14 12
REMARK SMILES IDX 13 13 30 14 18 15 28 16 19 17 21 18 27 19 29 20 20 21 22 22
REMARK SMILES IDX 25 23 23 24 16 25 26 27 24 29 11 31 8 33 5 35 2 36 1 37 3 38
REMARK SMILES IDX 4 39
REMARK H PARENT 16 26 26 28 24 30 11 32 8 34 4 40
REMARK Flexibility Score: inf
ROOT
ATOM      1  C   UNL     1     -29.544 -14.804  -2.946  1.00  0.00     0.038 C 
ENDROOT
BRANCH   1   2
ATOM      2  C   UNL     1     -30.020 -15.009  -4.405  1.00  0.00     0.146 C 
BRANCH   2   3
ATOM      3  C   UNL     1     -29.237 -16.056  -5.287  1.00  0.00     0.091 C 
ATOM      4  C   UNL     1     -28.486 -15.268  -6.401  1.00  0.00     0.045 C 
BRANCH   3   5
ATOM      5  C   UNL     1     -30.012 -17.265  -5.981  1.00  0.00     0.032 C 
ATOM      6  C   UNL     1     -31.946 -16.058  -7.195  1.00  0.00     0.015 C 
ATOM      7  C   UNL     1     -31.549 -17.250  -6.264  1.00  0.00     0.006 C 
ATOM      8  C   UNL     1     -32.479 -17.244  -5.019  1.00  0.00     0.011 C 
ATOM      9  C   UNL     1     -31.710 -18.624  -6.982  1.00  0.00     0.092 C 
ATOM     10  C   UNL     1     -33.965 -17.481  -5.412  1.00  0.00     0.009 C 
ATOM     11  C   UNL     1     -33.155 -18.767  -7.433  1.00  0.00    -0.031 C 
ATOM     12  C   UNL     1     -30.560 -18.599  -8.003  1.00  0.00     0.041 C 
ATOM     13  C   UNL     1     -29.396 -17.926  -7.246  1.00  0.00     0.010 C 
ATOM     14  C   UNL     1     -34.173 -18.760  -6.280  1.00  0.00     0.025 C 
ATOM     15  C   UNL     1     -33.523 -18.733  -8.728  1.00  0.00     0.050 C 
ATOM     16  C   UNL     1     -35.654 -19.049  -6.763  1.00  0.00    -0.013 C 
ATOM     17  C   UNL     1     -34.928 -18.561  -9.114  1.00  0.00     0.159 C 
ATOM     18  C   UNL     1     -35.940 -18.220  -8.051  1.00  0.00     0.070 C 
ATOM     19  C   UNL     1     -36.708 -18.668  -5.671  1.00  0.00     0.042 C 
ATOM     20  C   UNL     1     -35.743 -20.583  -7.044  1.00  0.00     0.013 C 
ATOM     21  O   UNL     1     -35.252 -18.619 -10.331  1.00  0.00    -0.295 OA
ATOM     22  C   UNL     1     -37.399 -18.356  -8.547  1.00  0.00     0.047 C 
ATOM     23  C   UNL     1     -38.178 -18.767  -6.140  1.00  0.00     0.143 C 
ATOM     24  C   UNL     1     -38.396 -17.964  -7.439  1.00  0.00     0.143 C 
BRANCH   9  25
ATOM     25  O   UNL     1     -31.446 -19.680  -6.078  1.00  0.00    -0.385 OA
ATOM     26  H   UNL     1     -30.505 -19.970  -6.216  1.00  0.00     0.211 HD
ENDBRANCH   9  25
BRANCH  23  27
ATOM     27  O   UNL     1     -38.573 -20.105  -6.308  1.00  0.00    -0.390 OA
ATOM     28  H   UNL     1     -39.379 -20.095  -6.888  1.00  0.00     0.211 HD
ENDBRANCH  23  27
BRANCH  24  29
ATOM     29  O   UNL     1     -39.723 -18.081  -7.889  1.00  0.00    -0.390 OA
ATOM     30  H   UNL     1     -40.184 -18.742  -7.309  1.00  0.00     0.211 HD
ENDBRANCH  24  29
ENDBRANCH   3   5
BRANCH   3  31
ATOM     31  O   UNL     1     -28.257 -16.602  -4.431  1.00  0.00    -0.387 OA
ATOM     32  H   UNL     1     -27.486 -16.911  -4.975  1.00  0.00     0.211 HD
ENDBRANCH   3  31
ENDBRANCH   2   3
BRANCH   2  33
ATOM     33  O   UNL     1     -30.092 -13.769  -5.059  1.00  0.00    -0.390 OA
ATOM     34  H   UNL     1     -30.808 -13.230  -4.631  1.00  0.00     0.211 HD
ENDBRANCH   2  33
ENDBRANCH   1   2
BRANCH   1  35
ATOM     35  C   UNL     1     -29.175 -13.334  -2.627  1.00  0.00     0.037 C 
BRANCH  35  36
ATOM     36  C   UNL     1     -27.664 -12.993  -2.771  1.00  0.00     0.059 C 
ATOM     37  C   UNL     1     -26.838 -14.252  -2.439  1.00  0.00     0.042 C 
ATOM     38  C   UNL     1     -27.266 -11.859  -1.799  1.00  0.00     0.042 C 
BRANCH  36  39
ATOM     39  O   UNL     1     -27.398 -12.601  -4.097  1.00  0.00    -0.390 OA
ATOM     40  H   UNL     1     -26.672 -13.180  -4.451  1.00  0.00     0.211 HD
ENDBRANCH  36  39
ENDBRANCH  35  36
ENDBRANCH   1  35
TORSDOF 11
ENDMDL
MODEL 9
REMARK VINA RESULT:    -6.983      5.588      9.211
REMARK INTER + INTRA:         -11.015
REMARK INTER:                 -10.622
REMARK INTRA:                  -0.392
REMARK UNBOUND:                -0.765
REMARK SMILES CC(C)(O)CC[C@@H](O)[C@@](C)(O)[C@@H]1CC[C@]2(O)C3=CC(=O)[C@H]4C[C@@H](O)[C@@H](O)C[C@]4(C)[C@@H]3CC[C@@]12C
REMARK SMILES IDX 6 1 7 2 9 3 10 4 12 5 34 6 33 7 32 8 15 9 31 10 17 11 14 12
REMARK SMILES IDX 13 13 30 14 18 15 28 16 19 17 21 18 27 19 29 20 20 21 22 22
REMARK SMILES IDX 25 23 23 24 16 25 26 27 24 29 11 31 8 33 5 35 2 36 1 37 3 38
REMARK SMILES IDX 4 39
REMARK H PARENT 16 26 26 28 24 30 11 32 8 34 4 40
REMARK Flexibility Score: inf
ROOT
ATOM      1  C   UNL     1     -26.825 -14.480  -0.517  1.00  0.00     0.038 C 
ENDROOT
BRANCH   1   2
ATOM      2  C   UNL     1     -26.430 -13.571  -1.707  1.00  0.00     0.146 C 
BRANCH   2   3
ATOM      3  C   UNL     1     -27.579 -12.754  -2.412  1.00  0.00     0.091 C 
ATOM      4  C   UNL     1     -27.917 -11.534  -1.504  1.00  0.00     0.045 C 
BRANCH   3   5
ATOM      5  C   UNL     1     -28.951 -13.466  -2.805  1.00  0.00     0.032 C 
ATOM      6  C   UNL     1     -28.200 -15.891  -3.276  1.00  0.00     0.015 C 
ATOM      7  C   UNL     1     -29.039 -14.677  -3.790  1.00  0.00     0.006 C 
ATOM      8  C   UNL     1     -28.654 -14.391  -5.268  1.00  0.00     0.011 C 
ATOM      9  C   UNL     1     -30.569 -14.965  -3.735  1.00  0.00     0.092 C 
ATOM     10  C   UNL     1     -29.014 -15.587  -6.195  1.00  0.00     0.009 C 
ATOM     11  C   UNL     1     -30.859 -16.197  -4.577  1.00  0.00    -0.031 C 
ATOM     12  C   UNL     1     -30.853 -14.953  -2.224  1.00  0.00     0.041 C 
ATOM     13  C   UNL     1     -29.968 -13.812  -1.681  1.00  0.00     0.010 C 
ATOM     14  C   UNL     1     -30.502 -16.036  -6.064  1.00  0.00     0.025 C 
ATOM     15  C   UNL     1     -31.232 -17.376  -4.042  1.00  0.00     0.050 C 
ATOM     16  C   UNL     1     -30.940 -17.280  -6.942  1.00  0.00    -0.013 C 
ATOM     17  C   UNL     1     -31.202 -18.612  -4.833  1.00  0.00     0.159 C 
ATOM     18  C   UNL     1     -30.555 -18.593  -6.194  1.00  0.00     0.070 C 
ATOM     19  C   UNL     1     -30.246 -17.277  -8.345  1.00  0.00     0.042 C 
ATOM     20  C   UNL     1     -32.486 -17.171  -7.137  1.00  0.00     0.013 C 
ATOM     21  O   UNL     1     -31.639 -19.683  -4.331  1.00  0.00    -0.295 OA
ATOM     22  C   UNL     1     -30.851 -19.868  -7.016  1.00  0.00     0.047 C 
ATOM     23  C   UNL     1     -30.500 -18.550  -9.186  1.00  0.00     0.143 C 
ATOM     24  C   UNL     1     -30.143 -19.818  -8.383  1.00  0.00     0.143 C 
BRANCH   9  25
ATOM     25  O   UNL     1     -31.289 -13.889  -4.306  1.00  0.00    -0.385 OA
ATOM     26  H   UNL     1     -31.242 -13.982  -5.294  1.00  0.00     0.211 HD
ENDBRANCH   9  25
BRANCH  23  27
ATOM     27  O   UNL     1     -31.826 -18.605  -9.644  1.00  0.00    -0.390 OA
ATOM     28  H   UNL     1     -32.392 -18.198  -8.937  1.00  0.00     0.211 HD
ENDBRANCH  23  27
BRANCH  24  29
ATOM     29  O   UNL     1     -30.406 -20.980  -9.131  1.00  0.00    -0.390 OA
ATOM     30  H   UNL     1     -31.274 -21.351  -8.822  1.00  0.00     0.211 HD
ENDBRANCH  24  29
ENDBRANCH   3   5
BRANCH   3  31
ATOM     31  O   UNL     1     -27.000 -12.244  -3.594  1.00  0.00    -0.387 OA
ATOM     32  H   UNL     1     -26.109 -12.664  -3.726  1.00  0.00     0.211 HD
ENDBRANCH   3  31
ENDBRANCH   2   3
BRANCH   2  33
ATOM     33  O   UNL     1     -25.703 -14.314  -2.650  1.00  0.00    -0.390 OA
ATOM     34  H   UNL     1     -26.154 -15.190  -2.774  1.00  0.00     0.211 HD
ENDBRANCH   2  33
ENDBRANCH   1   2
BRANCH   1  35
ATOM     35  C   UNL     1     -25.912 -14.294   0.720  1.00  0.00     0.037 C 
BRANCH  35  36
ATOM     36  C   UNL     1     -26.462 -13.314   1.796  1.00  0.00     0.059 C 
ATOM     37  C   UNL     1     -25.965 -13.771   3.182  1.00  0.00     0.042 C 
ATOM     38  C   UNL     1     -28.009 -13.311   1.791  1.00  0.00     0.042 C 
BRANCH  36  39
ATOM     39  O   UNL     1     -25.981 -12.016   1.537  1.00  0.00    -0.390 OA
ATOM     40  H   UNL     1     -26.148 -11.811   0.579  1.00  0.00     0.211 HD
ENDBRANCH  36  39
ENDBRANCH  35  36
ENDBRANCH   1  35
TORSDOF 11
ENDMDL
