MODEL 1
REMARK VINA RESULT:    -6.999      0.000      0.000
REMARK INTER + INTRA:         -10.822
REMARK INTER:                  -9.659
REMARK INTRA:                  -1.162
REMARK UNBOUND:                -1.162
REMARK SMILES O=C([O-])[C@@H]1O[C@@H](Oc2cc3oc(-c4ccccc4)cc(=O)c3c(O)c2O)[C@@H](O)[C@H](O)[C@H]1O
REMARK SMILES IDX 7 1 6 2 4 3 31 4 5 5 29 6 27 7 2 8 1 9 3 10 32 11 30 13
REMARK SMILES IDX 28 15 8 17 25 18 9 19 23 20 10 21 22 22 11 23 20 24 12 25
REMARK SMILES IDX 19 26 21 27 26 28 24 30 13 32 14 33 18 34 15 35 17 36 16 37
REMARK H PARENT 32 12 30 14 28 16 26 29 24 31
REMARK Flexibility Score: inf
ROOT
ATOM      1  O   UNL     1       0.996 -37.699 -36.001  1.00  0.00    -0.458 OA
ENDROOT
BRANCH   1   2
ATOM      2  C   UNL     1       1.064 -39.091 -36.342  1.00  0.00     0.339 C 
ATOM      3  C   UNL     1      -1.149 -39.447 -35.629  1.00  0.00     0.199 C 
ATOM      4  C   UNL     1      -0.715 -40.306 -34.419  1.00  0.00     0.180 C 
ATOM      5  O   UNL     1      -0.225 -39.567 -36.701  1.00  0.00    -0.328 OA
ATOM      6  C   UNL     1       0.700 -39.907 -33.981  1.00  0.00     0.181 C 
ATOM      7  C   UNL     1       1.648 -39.940 -35.189  1.00  0.00     0.214 C 
BRANCH   3   8
ATOM      8  C   UNL     1      -2.498 -39.885 -36.118  1.00  0.00     0.073 C 
ATOM      9  O   UNL     1      -2.637 -40.330 -37.289  1.00  0.00    -0.547 OA
ATOM     10  O   UNL     1      -3.597 -39.832 -35.270  1.00  0.00    -0.547 OA
ENDBRANCH   3   8
BRANCH   4  11
ATOM     11  O   UNL     1      -1.596 -40.110 -33.343  1.00  0.00    -0.387 OA
ATOM     12  H   UNL     1      -2.470 -40.501 -33.606  1.00  0.00     0.211 HD
ENDBRANCH   4  11
BRANCH   6  13
ATOM     13  O   UNL     1       1.146 -40.803 -32.993  1.00  0.00    -0.387 OA
ATOM     14  H   UNL     1       1.670 -41.505 -33.458  1.00  0.00     0.211 HD
ENDBRANCH   6  13
BRANCH   7  15
ATOM     15  O   UNL     1       2.913 -39.465 -34.809  1.00  0.00    -0.384 OA
ATOM     16  H   UNL     1       3.116 -38.690 -35.395  1.00  0.00     0.211 HD
ENDBRANCH   7  15
ENDBRANCH   1   2
BRANCH   1  17
ATOM     17  C   UNL     1       0.673 -36.631 -36.857  1.00  0.00     0.172 A 
ATOM     18  C   UNL     1      -0.230 -35.667 -36.385  1.00  0.00     0.201 A 
ATOM     19  C   UNL     1       1.205 -36.512 -38.151  1.00  0.00     0.098 A 
ATOM     20  C   UNL     1      -0.595 -34.566 -37.202  1.00  0.00     0.176 A 
ATOM     21  C   UNL     1       0.855 -35.437 -38.965  1.00  0.00     0.146 A 
ATOM     22  C   UNL     1      -0.045 -34.452 -38.503  1.00  0.00     0.111 A 
ATOM     23  O   UNL     1       1.382 -35.356 -40.184  1.00  0.00    -0.456 OA
ATOM     24  C   UNL     1      -0.348 -33.387 -39.379  1.00  0.00     0.197 A 
ATOM     25  C   UNL     1       1.108 -34.372 -41.036  1.00  0.00     0.138 A 
ATOM     26  C   UNL     1       0.232 -33.347 -40.646  1.00  0.00     0.100 A 
ATOM     27  O   UNL     1      -1.134 -32.459 -39.042  1.00  0.00    -0.289 OA
BRANCH  18  28
ATOM     28  O   UNL     1      -0.740 -35.843 -35.094  1.00  0.00    -0.502 OA
ATOM     29  H   UNL     1      -1.536 -35.350 -34.718  1.00  0.00     0.293 HD
ENDBRANCH  18  28
BRANCH  20  30
ATOM     30  O   UNL     1      -1.486 -33.587 -36.751  1.00  0.00    -0.504 OA
ATOM     31  H   UNL     1      -1.638 -33.350 -35.781  1.00  0.00     0.293 HD
ENDBRANCH  20  30
BRANCH  25  32
ATOM     32  C   UNL     1       1.756 -34.384 -42.372  1.00  0.00     0.017 A 
ATOM     33  C   UNL     1       2.008 -33.194 -43.086  1.00  0.00     0.012 A 
ATOM     34  C   UNL     1       2.105 -35.613 -42.962  1.00  0.00     0.012 A 
ATOM     35  C   UNL     1       2.611 -33.239 -44.346  1.00  0.00     0.001 A 
ATOM     36  C   UNL     1       2.709 -35.651 -44.221  1.00  0.00     0.001 A 
ATOM     37  C   UNL     1       2.964 -34.466 -44.912  1.00  0.00     0.000 A 
ENDBRANCH  25  32
ENDBRANCH   1  17
TORSDOF 9
ENDMDL
MODEL 2
REMARK VINA RESULT:    -6.608      2.073      9.042
REMARK INTER + INTRA:         -10.281
REMARK INTER:                  -9.123
REMARK INTRA:                  -1.157
REMARK UNBOUND:                -1.162
REMARK SMILES O=C([O-])[C@@H]1O[C@@H](Oc2cc3oc(-c4ccccc4)cc(=O)c3c(O)c2O)[C@@H](O)[C@H](O)[C@H]1O
REMARK SMILES IDX 7 1 6 2 4 3 31 4 5 5 29 6 27 7 2 8 1 9 3 10 32 11 30 13
REMARK SMILES IDX 28 15 8 17 25 18 9 19 23 20 10 21 22 22 11 23 20 24 12 25
REMARK SMILES IDX 19 26 21 27 26 28 24 30 13 32 14 33 18 34 15 35 17 36 16 37
REMARK H PARENT 32 12 30 14 28 16 26 29 24 31
REMARK Flexibility Score: inf
ROOT
ATOM      1  O   UNL     1      -0.284 -34.950 -38.301  1.00  0.00    -0.458 OA
ENDROOT
BRANCH   1   2
ATOM      2  C   UNL     1      -0.938 -34.854 -39.576  1.00  0.00     0.339 C 
ATOM      3  C   UNL     1       1.010 -34.012 -40.590  1.00  0.00     0.199 C 
ATOM      4  C   UNL     1       0.397 -32.610 -40.809  1.00  0.00     0.180 C 
ATOM      5  O   UNL     1       0.009 -35.019 -40.621  1.00  0.00    -0.328 OA
ATOM      6  C   UNL     1      -0.688 -32.348 -39.755  1.00  0.00     0.181 C 
ATOM      7  C   UNL     1      -1.689 -33.513 -39.740  1.00  0.00     0.214 C 
BRANCH   3   8
ATOM      8  C   UNL     1       2.013 -34.311 -41.665  1.00  0.00     0.073 C 
ATOM      9  O   UNL     1       3.053 -33.609 -41.778  1.00  0.00    -0.547 OA
ATOM     10  O   UNL     1       1.815 -35.387 -42.522  1.00  0.00    -0.547 OA
ENDBRANCH   3   8
BRANCH   4  11
ATOM     11  O   UNL     1       1.389 -31.622 -40.693  1.00  0.00    -0.387 OA
ATOM     12  H   UNL     1       0.929 -30.743 -40.717  1.00  0.00     0.211 HD
ENDBRANCH   4  11
BRANCH   6  13
ATOM     13  O   UNL     1      -1.350 -31.147 -40.064  1.00  0.00    -0.387 OA
ATOM     14  H   UNL     1      -0.773 -30.657 -40.706  1.00  0.00     0.211 HD
ENDBRANCH   6  13
BRANCH   7  15
ATOM     15  O   UNL     1      -2.613 -33.327 -38.699  1.00  0.00    -0.384 OA
ATOM     16  H   UNL     1      -2.977 -34.222 -38.475  1.00  0.00     0.211 HD
ENDBRANCH   7  15
ENDBRANCH   1   2
BRANCH   1  17
ATOM     17  C   UNL     1      -0.120 -36.106 -37.518  1.00  0.00     0.172 A 
ATOM     18  C   UNL     1       1.189 -36.529 -37.247  1.00  0.00     0.201 A 
ATOM     19  C   UNL     1      -1.206 -36.844 -37.022  1.00  0.00     0.098 A 
ATOM     20  C   UNL     1       1.421 -37.687 -36.461  1.00  0.00     0.176 A 
ATOM     21  C   UNL     1      -0.995 -37.985 -36.251  1.00  0.00     0.146 A 
ATOM     22  C   UNL     1       0.316 -38.419 -35.959  1.00  0.00     0.111 A 
ATOM     23  O   UNL     1      -2.049 -38.657 -35.796  1.00  0.00    -0.456 OA
ATOM     24  C   UNL     1       0.455 -39.579 -35.165  1.00  0.00     0.197 A 
ATOM     25  C   UNL     1      -1.952 -39.758 -35.055  1.00  0.00     0.138 A 
ATOM     26  C   UNL     1      -0.682 -40.247 -34.712  1.00  0.00     0.100 A 
ATOM     27  O   UNL     1       1.590 -40.030 -34.849  1.00  0.00    -0.289 OA
BRANCH  18  28
ATOM     28  O   UNL     1       2.234 -35.763 -37.777  1.00  0.00    -0.502 OA
ATOM     29  H   UNL     1       2.382 -34.783 -37.587  1.00  0.00     0.293 HD
ENDBRANCH  18  28
BRANCH  20  30
ATOM     30  O   UNL     1       2.716 -38.124 -36.168  1.00  0.00    -0.504 OA
ATOM     31  H   UNL     1       2.984 -39.089 -36.041  1.00  0.00     0.293 HD
ENDBRANCH  20  30
BRANCH  25  32
ATOM     32  C   UNL     1      -3.199 -40.426 -34.602  1.00  0.00     0.017 A 
ATOM     33  C   UNL     1      -4.127 -39.774 -33.764  1.00  0.00     0.012 A 
ATOM     34  C   UNL     1      -3.454 -41.754 -34.992  1.00  0.00     0.012 A 
ATOM     35  C   UNL     1      -5.287 -40.433 -33.347  1.00  0.00     0.001 A 
ATOM     36  C   UNL     1      -4.617 -42.406 -34.573  1.00  0.00     0.001 A 
ATOM     37  C   UNL     1      -5.534 -41.746 -33.753  1.00  0.00     0.000 A 
ENDBRANCH  25  32
ENDBRANCH   1  17
TORSDOF 9
ENDMDL
MODEL 3
REMARK VINA RESULT:    -6.544      6.120     10.117
REMARK INTER + INTRA:         -10.193
REMARK INTER:                  -8.833
REMARK INTRA:                  -1.361
REMARK UNBOUND:                -1.162
REMARK SMILES O=C([O-])[C@@H]1O[C@@H](Oc2cc3oc(-c4ccccc4)cc(=O)c3c(O)c2O)[C@@H](O)[C@H](O)[C@H]1O
REMARK SMILES IDX 7 1 6 2 4 3 31 4 5 5 29 6 27 7 2 8 1 9 3 10 32 11 30 13
REMARK SMILES IDX 28 15 8 17 25 18 9 19 23 20 10 21 22 22 11 23 20 24 12 25
REMARK SMILES IDX 19 26 21 27 26 28 24 30 13 32 14 33 18 34 15 35 17 36 16 37
REMARK H PARENT 32 12 30 14 28 16 26 29 24 31
REMARK Flexibility Score: inf
ROOT
ATOM      1  O   UNL     1      -6.690 -37.003 -30.884  1.00  0.00    -0.458 OA
ENDROOT
BRANCH   1   2
ATOM      2  C   UNL     1      -7.835 -36.911 -31.745  1.00  0.00     0.339 C 
ATOM      3  C   UNL     1      -7.671 -34.566 -31.827  1.00  0.00     0.199 C 
ATOM      4  C   UNL     1      -8.972 -34.358 -31.018  1.00  0.00     0.180 C 
ATOM      5  O   UNL     1      -7.723 -35.769 -32.581  1.00  0.00    -0.328 OA
ATOM      6  C   UNL     1      -9.219 -35.572 -30.112  1.00  0.00     0.181 C 
ATOM      7  C   UNL     1      -9.156 -36.862 -30.943  1.00  0.00     0.214 C 
BRANCH   3   8
ATOM      8  C   UNL     1      -7.464 -33.423 -32.777  1.00  0.00     0.073 C 
ATOM      9  O   UNL     1      -7.768 -33.543 -33.993  1.00  0.00    -0.547 OA
ATOM     10  O   UNL     1      -6.964 -32.213 -32.311  1.00  0.00    -0.547 OA
ENDBRANCH   3   8
BRANCH   4  11
ATOM     11  O   UNL     1      -8.868 -33.208 -30.218  1.00  0.00    -0.387 OA
ATOM     12  H   UNL     1      -8.151 -33.379 -29.553  1.00  0.00     0.211 HD
ENDBRANCH   4  11
BRANCH   6  13
ATOM     13  O   UNL     1     -10.483 -35.447 -29.510  1.00  0.00    -0.387 OA
ATOM     14  H   UNL     1     -10.608 -36.247 -28.936  1.00  0.00     0.211 HD
ENDBRANCH   6  13
BRANCH   7  15
ATOM     15  O   UNL     1      -9.267 -37.975 -30.094  1.00  0.00    -0.384 OA
ATOM     16  H   UNL     1      -8.828 -38.734 -30.558  1.00  0.00     0.211 HD
ENDBRANCH   7  15
ENDBRANCH   1   2
BRANCH   1  17
ATOM     17  C   UNL     1      -5.613 -37.899 -31.001  1.00  0.00     0.172 A 
ATOM     18  C   UNL     1      -5.494 -38.906 -30.032  1.00  0.00     0.201 A 
ATOM     19  C   UNL     1      -4.661 -37.809 -32.030  1.00  0.00     0.098 A 
ATOM     20  C   UNL     1      -4.429 -39.841 -30.096  1.00  0.00     0.176 A 
ATOM     21  C   UNL     1      -3.609 -38.719 -32.105  1.00  0.00     0.146 A 
ATOM     22  C   UNL     1      -3.480 -39.745 -31.144  1.00  0.00     0.111 A 
ATOM     23  O   UNL     1      -2.730 -38.603 -33.097  1.00  0.00    -0.456 OA
ATOM     24  C   UNL     1      -2.394 -40.636 -31.287  1.00  0.00     0.197 A 
ATOM     25  C   UNL     1      -1.691 -39.420 -33.253  1.00  0.00     0.138 A 
ATOM     26  C   UNL     1      -1.500 -40.473 -32.345  1.00  0.00     0.100 A 
ATOM     27  O   UNL     1      -2.210 -41.588 -30.479  1.00  0.00    -0.289 OA
BRANCH  18  28
ATOM     28  O   UNL     1      -6.461 -38.941 -29.022  1.00  0.00    -0.502 OA
ATOM     29  H   UNL     1      -7.449 -38.792 -29.166  1.00  0.00     0.293 HD
ENDBRANCH  18  28
BRANCH  20  30
ATOM     30  O   UNL     1      -4.294 -40.861 -29.148  1.00  0.00    -0.504 OA
ATOM     31  H   UNL     1      -5.057 -41.413 -28.785  1.00  0.00     0.293 HD
ENDBRANCH  20  30
BRANCH  25  32
ATOM     32  C   UNL     1      -0.773 -39.195 -34.398  1.00  0.00     0.017 A 
ATOM     33  C   UNL     1      -1.174 -38.470 -35.539  1.00  0.00     0.012 A 
ATOM     34  C   UNL     1       0.524 -39.742 -34.364  1.00  0.00     0.012 A 
ATOM     35  C   UNL     1      -0.289 -38.284 -36.605  1.00  0.00     0.001 A 
ATOM     36  C   UNL     1       1.404 -39.550 -35.433  1.00  0.00     0.001 A 
ATOM     37  C   UNL     1       0.999 -38.820 -36.552  1.00  0.00     0.000 A 
ENDBRANCH  25  32
ENDBRANCH   1  17
TORSDOF 9
ENDMDL
MODEL 4
REMARK VINA RESULT:    -6.470      2.823      5.720
REMARK INTER + INTRA:         -10.091
REMARK INTER:                  -9.059
REMARK INTRA:                  -1.032
REMARK UNBOUND:                -1.162
REMARK SMILES O=C([O-])[C@@H]1O[C@@H](Oc2cc3oc(-c4ccccc4)cc(=O)c3c(O)c2O)[C@@H](O)[C@H](O)[C@H]1O
REMARK SMILES IDX 7 1 6 2 4 3 31 4 5 5 29 6 27 7 2 8 1 9 3 10 32 11 30 13
REMARK SMILES IDX 28 15 8 17 25 18 9 19 23 20 10 21 22 22 11 23 20 24 12 25
REMARK SMILES IDX 19 26 21 27 26 28 24 30 13 32 14 33 18 34 15 35 17 36 16 37
REMARK H PARENT 32 12 30 14 28 16 26 29 24 31
REMARK Flexibility Score: inf
ROOT
ATOM      1  O   UNL     1      -2.107 -40.283 -33.726  1.00  0.00    -0.458 OA
ENDROOT
BRANCH   1   2
ATOM      2  C   UNL     1      -3.347 -39.820 -33.171  1.00  0.00     0.339 C 
ATOM      3  C   UNL     1      -3.414 -41.607 -31.644  1.00  0.00     0.199 C 
ATOM      4  C   UNL     1      -4.626 -42.271 -32.337  1.00  0.00     0.180 C 
ATOM      5  O   UNL     1      -3.440 -40.197 -31.805  1.00  0.00    -0.328 OA
ATOM      6  C   UNL     1      -4.653 -41.881 -33.821  1.00  0.00     0.181 C 
ATOM      7  C   UNL     1      -4.567 -40.353 -33.958  1.00  0.00     0.214 C 
BRANCH   3   8
ATOM      8  C   UNL     1      -3.424 -41.915 -30.176  1.00  0.00     0.073 C 
ATOM      9  O   UNL     1      -3.847 -41.062 -29.350  1.00  0.00    -0.547 OA
ATOM     10  O   UNL     1      -2.997 -43.156 -29.722  1.00  0.00    -0.547 OA
ENDBRANCH   3   8
BRANCH   4  11
ATOM     11  O   UNL     1      -4.538 -43.669 -32.237  1.00  0.00    -0.387 OA
ATOM     12  H   UNL     1      -3.820 -43.961 -32.857  1.00  0.00     0.211 HD
ENDBRANCH   4  11
BRANCH   6  13
ATOM     13  O   UNL     1      -5.845 -42.350 -34.399  1.00  0.00    -0.387 OA
ATOM     14  H   UNL     1      -6.224 -41.600 -34.926  1.00  0.00     0.211 HD
ENDBRANCH   6  13
BRANCH   7  15
ATOM     15  O   UNL     1      -4.475 -40.007 -35.316  1.00  0.00    -0.384 OA
ATOM     16  H   UNL     1      -4.996 -40.684 -35.820  1.00  0.00     0.211 HD
ENDBRANCH   7  15
ENDBRANCH   1   2
BRANCH   1  17
ATOM     17  C   UNL     1      -1.190 -39.538 -34.489  1.00  0.00     0.172 A 
ATOM     18  C   UNL     1       0.166 -39.883 -34.397  1.00  0.00     0.201 A 
ATOM     19  C   UNL     1      -1.582 -38.471 -35.312  1.00  0.00     0.098 A 
ATOM     20  C   UNL     1       1.139 -39.170 -35.143  1.00  0.00     0.176 A 
ATOM     21  C   UNL     1      -0.638 -37.760 -36.050  1.00  0.00     0.146 A 
ATOM     22  C   UNL     1       0.730 -38.100 -35.978  1.00  0.00     0.111 A 
ATOM     23  O   UNL     1      -1.048 -36.757 -36.822  1.00  0.00    -0.456 OA
ATOM     24  C   UNL     1       1.630 -37.342 -36.758  1.00  0.00     0.197 A 
ATOM     25  C   UNL     1      -0.225 -36.018 -37.561  1.00  0.00     0.138 A 
ATOM     26  C   UNL     1       1.150 -36.301 -37.552  1.00  0.00     0.100 A 
ATOM     27  O   UNL     1       2.868 -37.585 -36.761  1.00  0.00    -0.289 OA
BRANCH  18  28
ATOM     28  O   UNL     1       0.502 -40.946 -33.551  1.00  0.00    -0.502 OA
ATOM     29  H   UNL     1       1.192 -40.899 -32.815  1.00  0.00     0.293 HD
ENDBRANCH  18  28
BRANCH  20  30
ATOM     30  O   UNL     1       2.496 -39.501 -35.077  1.00  0.00    -0.504 OA
ATOM     31  H   UNL     1       3.180 -39.273 -35.784  1.00  0.00     0.293 HD
ENDBRANCH  20  30
BRANCH  25  32
ATOM     32  C   UNL     1      -0.795 -34.922 -38.385  1.00  0.00     0.017 A 
ATOM     33  C   UNL     1       0.021 -34.085 -39.173  1.00  0.00     0.012 A 
ATOM     34  C   UNL     1      -2.183 -34.688 -38.361  1.00  0.00     0.012 A 
ATOM     35  C   UNL     1      -0.545 -33.056 -39.931  1.00  0.00     0.001 A 
ATOM     36  C   UNL     1      -2.742 -33.659 -39.123  1.00  0.00     0.001 A 
ATOM     37  C   UNL     1      -1.925 -32.845 -39.910  1.00  0.00     0.000 A 
ENDBRANCH  25  32
ENDBRANCH   1  17
TORSDOF 9
ENDMDL
MODEL 5
REMARK VINA RESULT:    -6.307      3.142      5.890
REMARK INTER + INTRA:          -9.865
REMARK INTER:                  -8.713
REMARK INTRA:                  -1.153
REMARK UNBOUND:                -1.162
REMARK SMILES O=C([O-])[C@@H]1O[C@@H](Oc2cc3oc(-c4ccccc4)cc(=O)c3c(O)c2O)[C@@H](O)[C@H](O)[C@H]1O
REMARK SMILES IDX 7 1 6 2 4 3 31 4 5 5 29 6 27 7 2 8 1 9 3 10 32 11 30 13
REMARK SMILES IDX 28 15 8 17 25 18 9 19 23 20 10 21 22 22 11 23 20 24 12 25
REMARK SMILES IDX 19 26 21 27 26 28 24 30 13 32 14 33 18 34 15 35 17 36 16 37
REMARK H PARENT 32 12 30 14 28 16 26 29 24 31
REMARK Flexibility Score: inf
ROOT
ATOM      1  O   UNL     1      -2.965 -40.663 -33.769  1.00  0.00    -0.458 OA
ENDROOT
BRANCH   1   2
ATOM      2  C   UNL     1      -4.383 -40.443 -33.814  1.00  0.00     0.339 C 
ATOM      3  C   UNL     1      -4.488 -40.188 -31.478  1.00  0.00     0.199 C 
ATOM      4  C   UNL     1      -5.271 -41.507 -31.280  1.00  0.00     0.180 C 
ATOM      5  O   UNL     1      -4.779 -39.604 -32.739  1.00  0.00    -0.328 OA
ATOM      6  C   UNL     1      -4.955 -42.475 -32.428  1.00  0.00     0.181 C 
ATOM      7  C   UNL     1      -5.174 -41.771 -33.776  1.00  0.00     0.214 C 
BRANCH   3   8
ATOM      8  C   UNL     1      -4.853 -39.204 -30.406  1.00  0.00     0.073 C 
ATOM      9  O   UNL     1      -5.593 -38.220 -30.671  1.00  0.00    -0.547 OA
ATOM     10  O   UNL     1      -4.400 -39.390 -29.106  1.00  0.00    -0.547 OA
ENDBRANCH   3   8
BRANCH   4  11
ATOM     11  O   UNL     1      -4.908 -42.110 -30.064  1.00  0.00    -0.387 OA
ATOM     12  H   UNL     1      -4.498 -41.403 -29.499  1.00  0.00     0.211 HD
ENDBRANCH   4  11
BRANCH   6  13
ATOM     13  O   UNL     1      -5.795 -43.597 -32.327  1.00  0.00    -0.387 OA
ATOM     14  H   UNL     1      -5.918 -43.948 -33.248  1.00  0.00     0.211 HD
ENDBRANCH   6  13
BRANCH   7  15
ATOM     15  O   UNL     1      -4.774 -42.621 -34.820  1.00  0.00    -0.384 OA
ATOM     16  H   UNL     1      -4.377 -42.044 -35.523  1.00  0.00     0.211 HD
ENDBRANCH   7  15
ENDBRANCH   1   2
BRANCH   1  17
ATOM     17  C   UNL     1      -1.954 -39.718 -34.017  1.00  0.00     0.172 A 
ATOM     18  C   UNL     1      -0.975 -39.536 -33.029  1.00  0.00     0.201 A 
ATOM     19  C   UNL     1      -1.904 -38.954 -35.195  1.00  0.00     0.098 A 
ATOM     20  C   UNL     1       0.072 -38.598 -33.221  1.00  0.00     0.176 A 
ATOM     21  C   UNL     1      -0.883 -38.028 -35.397  1.00  0.00     0.146 A 
ATOM     22  C   UNL     1       0.116 -37.840 -34.418  1.00  0.00     0.111 A 
ATOM     23  O   UNL     1      -0.867 -37.326 -36.527  1.00  0.00    -0.456 OA
ATOM     24  C   UNL     1       1.124 -36.890 -34.693  1.00  0.00     0.197 A 
ATOM     25  C   UNL     1       0.062 -36.417 -36.811  1.00  0.00     0.138 A 
ATOM     26  C   UNL     1       1.097 -36.180 -35.893  1.00  0.00     0.100 A 
ATOM     27  O   UNL     1       2.061 -36.666 -33.877  1.00  0.00    -0.289 OA
BRANCH  18  28
ATOM     28  O   UNL     1      -1.081 -40.313 -31.871  1.00  0.00    -0.502 OA
ATOM     29  H   UNL     1      -1.117 -39.943 -30.932  1.00  0.00     0.293 HD
ENDBRANCH  18  28
BRANCH  20  30
ATOM     30  O   UNL     1       1.065 -38.405 -32.256  1.00  0.00    -0.504 OA
ATOM     31  H   UNL     1       1.811 -39.056 -32.060  1.00  0.00     0.293 HD
ENDBRANCH  20  30
BRANCH  25  32
ATOM     32  C   UNL     1      -0.021 -35.693 -38.105  1.00  0.00     0.017 A 
ATOM     33  C   UNL     1      -1.197 -35.029 -38.509  1.00  0.00     0.012 A 
ATOM     34  C   UNL     1       1.090 -35.689 -38.969  1.00  0.00     0.012 A 
ATOM     35  C   UNL     1      -1.247 -34.364 -39.738  1.00  0.00     0.001 A 
ATOM     36  C   UNL     1       1.034 -35.020 -40.194  1.00  0.00     0.001 A 
ATOM     37  C   UNL     1      -0.132 -34.356 -40.578  1.00  0.00     0.000 A 
ENDBRANCH  25  32
ENDBRANCH   1  17
TORSDOF 9
ENDMDL
MODEL 6
REMARK VINA RESULT:    -6.258      2.710      8.831
REMARK INTER + INTRA:          -9.798
REMARK INTER:                  -8.651
REMARK INTRA:                  -1.147
REMARK UNBOUND:                -1.162
REMARK SMILES O=C([O-])[C@@H]1O[C@@H](Oc2cc3oc(-c4ccccc4)cc(=O)c3c(O)c2O)[C@@H](O)[C@H](O)[C@H]1O
REMARK SMILES IDX 7 1 6 2 4 3 31 4 5 5 29 6 27 7 2 8 1 9 3 10 32 11 30 13
REMARK SMILES IDX 28 15 8 17 25 18 9 19 23 20 10 21 22 22 11 23 20 24 12 25
REMARK SMILES IDX 19 26 21 27 26 28 24 30 13 32 14 33 18 34 15 35 17 36 16 37
REMARK H PARENT 32 12 30 14 28 16 26 29 24 31
REMARK Flexibility Score: inf
ROOT
ATOM      1  O   UNL     1      -0.264 -34.999 -38.125  1.00  0.00    -0.458 OA
ENDROOT
BRANCH   1   2
ATOM      2  C   UNL     1       0.019 -33.657 -37.701  1.00  0.00     0.339 C 
ATOM      3  C   UNL     1      -2.176 -32.966 -38.186  1.00  0.00     0.199 C 
ATOM      4  C   UNL     1      -1.730 -32.080 -39.372  1.00  0.00     0.180 C 
ATOM      5  O   UNL     1      -1.160 -33.048 -37.197  1.00  0.00    -0.328 OA
ATOM      6  C   UNL     1      -0.422 -32.623 -39.962  1.00  0.00     0.181 C 
ATOM      7  C   UNL     1       0.617 -32.805 -38.845  1.00  0.00     0.214 C 
BRANCH   3   8
ATOM      8  C   UNL     1      -3.409 -32.396 -37.550  1.00  0.00     0.073 C 
ATOM      9  O   UNL     1      -3.385 -32.004 -36.353  1.00  0.00    -0.547 OA
ATOM     10  O   UNL     1      -4.579 -32.268 -38.289  1.00  0.00    -0.547 OA
ENDBRANCH   3   8
BRANCH   4  11
ATOM     11  O   UNL     1      -2.714 -32.078 -40.375  1.00  0.00    -0.387 OA
ATOM     12  H   UNL     1      -3.176 -32.956 -40.331  1.00  0.00     0.211 HD
ENDBRANCH   4  11
BRANCH   6  13
ATOM     13  O   UNL     1       0.059 -31.720 -40.926  1.00  0.00    -0.387 OA
ATOM     14  H   UNL     1       0.939 -32.065 -41.230  1.00  0.00     0.211 HD
ENDBRANCH   6  13
BRANCH   7  15
ATOM     15  O   UNL     1       1.771 -33.409 -39.368  1.00  0.00    -0.384 OA
ATOM     16  H   UNL     1       2.054 -32.861 -40.145  1.00  0.00     0.211 HD
ENDBRANCH   7  15
ENDBRANCH   1   2
BRANCH   1  17
ATOM     17  C   UNL     1      -0.119 -36.174 -37.367  1.00  0.00     0.172 A 
ATOM     18  C   UNL     1       1.182 -36.626 -37.105  1.00  0.00     0.201 A 
ATOM     19  C   UNL     1      -1.219 -36.905 -36.887  1.00  0.00     0.098 A 
ATOM     20  C   UNL     1       1.393 -37.806 -36.346  1.00  0.00     0.176 A 
ATOM     21  C   UNL     1      -1.028 -38.065 -36.141  1.00  0.00     0.146 A 
ATOM     22  C   UNL     1       0.276 -38.529 -35.859  1.00  0.00     0.111 A 
ATOM     23  O   UNL     1      -2.093 -38.728 -35.700  1.00  0.00    -0.456 OA
ATOM     24  C   UNL     1       0.394 -39.708 -35.091  1.00  0.00     0.197 A 
ATOM     25  C   UNL     1      -2.015 -39.847 -34.983  1.00  0.00     0.138 A 
ATOM     26  C   UNL     1      -0.754 -40.365 -34.652  1.00  0.00     0.100 A 
ATOM     27  O   UNL     1       1.522 -40.186 -34.785  1.00  0.00    -0.289 OA
BRANCH  18  28
ATOM     28  O   UNL     1       2.240 -35.868 -37.620  1.00  0.00    -0.502 OA
ATOM     29  H   UNL     1       2.281 -35.502 -38.560  1.00  0.00     0.293 HD
ENDBRANCH  18  28
BRANCH  20  30
ATOM     30  O   UNL     1       2.681 -38.271 -36.063  1.00  0.00    -0.504 OA
ATOM     31  H   UNL     1       3.055 -38.402 -35.134  1.00  0.00     0.293 HD
ENDBRANCH  20  30
BRANCH  25  32
ATOM     32  C   UNL     1      -3.273 -40.502 -34.545  1.00  0.00     0.017 A 
ATOM     33  C   UNL     1      -4.193 -39.851 -33.697  1.00  0.00     0.012 A 
ATOM     34  C   UNL     1      -3.549 -41.819 -34.958  1.00  0.00     0.012 A 
ATOM     35  C   UNL     1      -5.364 -40.498 -33.294  1.00  0.00     0.001 A 
ATOM     36  C   UNL     1      -4.724 -42.459 -34.552  1.00  0.00     0.001 A 
ATOM     37  C   UNL     1      -5.632 -41.799 -33.723  1.00  0.00     0.000 A 
ENDBRANCH  25  32
ENDBRANCH   1  17
TORSDOF 9
ENDMDL
MODEL 7
REMARK VINA RESULT:    -6.199      7.208     10.782
REMARK INTER + INTRA:          -9.717
REMARK INTER:                  -8.440
REMARK INTRA:                  -1.277
REMARK UNBOUND:                -1.162
REMARK SMILES O=C([O-])[C@@H]1O[C@@H](Oc2cc3oc(-c4ccccc4)cc(=O)c3c(O)c2O)[C@@H](O)[C@H](O)[C@H]1O
REMARK SMILES IDX 7 1 6 2 4 3 31 4 5 5 29 6 27 7 2 8 1 9 3 10 32 11 30 13
REMARK SMILES IDX 28 15 8 17 25 18 9 19 23 20 10 21 22 22 11 23 20 24 12 25
REMARK SMILES IDX 19 26 21 27 26 28 24 30 13 32 14 33 18 34 15 35 17 36 16 37
REMARK H PARENT 32 12 30 14 28 16 26 29 24 31
REMARK Flexibility Score: inf
ROOT
ATOM      1  O   UNL     1      -5.934 -36.524 -31.935  1.00  0.00    -0.458 OA
ENDROOT
BRANCH   1   2
ATOM      2  C   UNL     1      -6.124 -35.285 -31.235  1.00  0.00     0.339 C 
ATOM      3  C   UNL     1      -8.462 -35.543 -31.269  1.00  0.00     0.199 C 
ATOM      4  C   UNL     1      -8.667 -34.365 -32.249  1.00  0.00     0.180 C 
ATOM      5  O   UNL     1      -7.312 -35.342 -30.460  1.00  0.00    -0.328 OA
ATOM      6  C   UNL     1      -7.409 -34.179 -33.107  1.00  0.00     0.181 C 
ATOM      7  C   UNL     1      -6.172 -34.078 -32.201  1.00  0.00     0.214 C 
BRANCH   3   8
ATOM      8  C   UNL     1      -9.654 -35.681 -30.369  1.00  0.00     0.073 C 
ATOM      9  O   UNL     1     -10.454 -34.720 -30.220  1.00  0.00    -0.547 OA
ATOM     10  O   UNL     1      -9.899 -36.884 -29.718  1.00  0.00    -0.547 OA
ENDBRANCH   3   8
BRANCH   4  11
ATOM     11  O   UNL     1      -9.759 -34.621 -33.095  1.00  0.00    -0.387 OA
ATOM     12  H   UNL     1     -10.284 -35.355 -32.679  1.00  0.00     0.211 HD
ENDBRANCH   4  11
BRANCH   6  13
ATOM     13  O   UNL     1      -7.542 -33.008 -33.873  1.00  0.00    -0.387 OA
ATOM     14  H   UNL     1      -7.528 -32.246 -33.238  1.00  0.00     0.211 HD
ENDBRANCH   6  13
BRANCH   7  15
ATOM     15  O   UNL     1      -5.013 -34.024 -32.991  1.00  0.00    -0.384 OA
ATOM     16  H   UNL     1      -4.265 -34.352 -32.427  1.00  0.00     0.211 HD
ENDBRANCH   7  15
ENDBRANCH   1   2
BRANCH   1  17
ATOM     17  C   UNL     1      -5.208 -37.643 -31.493  1.00  0.00     0.172 A 
ATOM     18  C   UNL     1      -5.827 -38.500 -30.571  1.00  0.00     0.201 A 
ATOM     19  C   UNL     1      -3.900 -37.916 -31.926  1.00  0.00     0.098 A 
ATOM     20  C   UNL     1      -5.145 -39.647 -30.088  1.00  0.00     0.176 A 
ATOM     21  C   UNL     1      -3.218 -39.037 -31.460  1.00  0.00     0.146 A 
ATOM     22  C   UNL     1      -3.830 -39.916 -30.539  1.00  0.00     0.111 A 
ATOM     23  O   UNL     1      -1.982 -39.265 -31.896  1.00  0.00    -0.456 OA
ATOM     24  C   UNL     1      -3.082 -41.037 -30.116  1.00  0.00     0.197 A 
ATOM     25  C   UNL     1      -1.248 -40.305 -31.508  1.00  0.00     0.138 A 
ATOM     26  C   UNL     1      -1.790 -41.231 -30.604  1.00  0.00     0.100 A 
ATOM     27  O   UNL     1      -3.556 -41.877 -29.303  1.00  0.00    -0.289 OA
BRANCH  18  28
ATOM     28  O   UNL     1      -7.124 -38.173 -30.163  1.00  0.00    -0.502 OA
ATOM     29  H   UNL     1      -7.749 -37.560 -30.667  1.00  0.00     0.293 HD
ENDBRANCH  18  28
BRANCH  20  30
ATOM     30  O   UNL     1      -5.745 -40.522 -29.176  1.00  0.00    -0.504 OA
ATOM     31  H   UNL     1      -6.741 -40.647 -29.068  1.00  0.00     0.293 HD
ENDBRANCH  20  30
BRANCH  25  32
ATOM     32  C   UNL     1       0.121 -40.458 -32.061  1.00  0.00     0.017 A 
ATOM     33  C   UNL     1       1.200 -40.891 -31.263  1.00  0.00     0.012 A 
ATOM     34  C   UNL     1       0.363 -40.136 -33.410  1.00  0.00     0.012 A 
ATOM     35  C   UNL     1       2.480 -41.016 -31.811  1.00  0.00     0.001 A 
ATOM     36  C   UNL     1       1.645 -40.265 -33.952  1.00  0.00     0.001 A 
ATOM     37  C   UNL     1       2.702 -40.707 -33.155  1.00  0.00     0.000 A 
ENDBRANCH  25  32
ENDBRANCH   1  17
TORSDOF 9
ENDMDL
MODEL 8
REMARK VINA RESULT:    -5.971      4.881     10.216
REMARK INTER + INTRA:          -9.402
REMARK INTER:                  -8.240
REMARK INTRA:                  -1.162
REMARK UNBOUND:                -1.162
REMARK SMILES O=C([O-])[C@@H]1O[C@@H](Oc2cc3oc(-c4ccccc4)cc(=O)c3c(O)c2O)[C@@H](O)[C@H](O)[C@H]1O
REMARK SMILES IDX 7 1 6 2 4 3 31 4 5 5 29 6 27 7 2 8 1 9 3 10 32 11 30 13
REMARK SMILES IDX 28 15 8 17 25 18 9 19 23 20 10 21 22 22 11 23 20 24 12 25
REMARK SMILES IDX 19 26 21 27 26 28 24 30 13 32 14 33 18 34 15 35 17 36 16 37
REMARK H PARENT 32 12 30 14 28 16 26 29 24 31
REMARK Flexibility Score: inf
ROOT
ATOM      1  O   UNL     1      -0.115 -39.524 -32.804  1.00  0.00    -0.458 OA
ENDROOT
BRANCH   1   2
ATOM      2  C   UNL     1       0.546 -38.289 -33.119  1.00  0.00     0.339 C 
ATOM      3  C   UNL     1      -0.027 -38.481 -35.392  1.00  0.00     0.199 C 
ATOM      4  C   UNL     1       1.436 -38.719 -35.833  1.00  0.00     0.180 C 
ATOM      5  O   UNL     1      -0.086 -37.669 -34.229  1.00  0.00    -0.328 OA
ATOM      6  C   UNL     1       2.230 -39.343 -34.678  1.00  0.00     0.181 C 
ATOM      7  C   UNL     1       2.051 -38.498 -33.407  1.00  0.00     0.214 C 
BRANCH   3   8
ATOM      8  C   UNL     1      -0.792 -37.795 -36.486  1.00  0.00     0.073 C 
ATOM      9  O   UNL     1      -0.202 -37.021 -37.286  1.00  0.00    -0.547 OA
ATOM     10  O   UNL     1      -2.151 -38.035 -36.640  1.00  0.00    -0.547 OA
ENDBRANCH   3   8
BRANCH   4  11
ATOM     11  O   UNL     1       1.476 -39.590 -36.935  1.00  0.00    -0.387 OA
ATOM     12  H   UNL     1       0.636 -40.118 -36.919  1.00  0.00     0.211 HD
ENDBRANCH   4  11
BRANCH   6  13
ATOM     13  O   UNL     1       3.589 -39.400 -35.032  1.00  0.00    -0.387 OA
ATOM     14  H   UNL     1       3.762 -38.631 -35.635  1.00  0.00     0.211 HD
ENDBRANCH   6  13
BRANCH   7  15
ATOM     15  O   UNL     1       2.683 -39.134 -32.327  1.00  0.00    -0.384 OA
ATOM     16  H   UNL     1       2.450 -38.616 -31.513  1.00  0.00     0.211 HD
ENDBRANCH   7  15
ENDBRANCH   1   2
BRANCH   1  17
ATOM     17  C   UNL     1      -1.169 -39.711 -31.892  1.00  0.00     0.172 A 
ATOM     18  C   UNL     1      -1.001 -40.681 -30.892  1.00  0.00     0.201 A 
ATOM     19  C   UNL     1      -2.367 -38.982 -31.960  1.00  0.00     0.098 A 
ATOM     20  C   UNL     1      -2.027 -40.916 -29.942  1.00  0.00     0.176 A 
ATOM     21  C   UNL     1      -3.385 -39.203 -31.035  1.00  0.00     0.146 A 
ATOM     22  C   UNL     1      -3.228 -40.168 -30.015  1.00  0.00     0.111 A 
ATOM     23  O   UNL     1      -4.504 -38.491 -31.129  1.00  0.00    -0.456 OA
ATOM     24  C   UNL     1      -4.298 -40.333 -29.108  1.00  0.00     0.197 A 
ATOM     25  C   UNL     1      -5.533 -38.630 -30.296  1.00  0.00     0.138 A 
ATOM     26  C   UNL     1      -5.450 -39.560 -29.249  1.00  0.00     0.100 A 
ATOM     27  O   UNL     1      -4.237 -41.165 -28.161  1.00  0.00    -0.289 OA
BRANCH  18  28
ATOM     28  O   UNL     1       0.207 -41.387 -30.880  1.00  0.00    -0.502 OA
ATOM     29  H   UNL     1       1.118 -40.971 -31.012  1.00  0.00     0.293 HD
ENDBRANCH  18  28
BRANCH  20  30
ATOM     30  O   UNL     1      -1.880 -41.870 -28.930  1.00  0.00    -0.504 OA
ATOM     31  H   UNL     1      -1.040 -42.008 -28.387  1.00  0.00     0.293 HD
ENDBRANCH  20  30
BRANCH  25  32
ATOM     32  C   UNL     1      -6.733 -37.780 -30.498  1.00  0.00     0.017 A 
ATOM     33  C   UNL     1      -7.586 -37.436 -29.429  1.00  0.00     0.012 A 
ATOM     34  C   UNL     1      -7.051 -37.325 -31.791  1.00  0.00     0.012 A 
ATOM     35  C   UNL     1      -8.714 -36.641 -29.652  1.00  0.00     0.001 A 
ATOM     36  C   UNL     1      -8.180 -36.529 -32.007  1.00  0.00     0.001 A 
ATOM     37  C   UNL     1      -9.010 -36.185 -30.938  1.00  0.00     0.000 A 
ENDBRANCH  25  32
ENDBRANCH   1  17
TORSDOF 9
ENDMDL
MODEL 9
REMARK VINA RESULT:    -5.956      8.736     10.675
REMARK INTER + INTRA:          -9.381
REMARK INTER:                  -8.463
REMARK INTRA:                  -0.919
REMARK UNBOUND:                -1.162
REMARK SMILES O=C([O-])[C@@H]1O[C@@H](Oc2cc3oc(-c4ccccc4)cc(=O)c3c(O)c2O)[C@@H](O)[C@H](O)[C@H]1O
REMARK SMILES IDX 7 1 6 2 4 3 31 4 5 5 29 6 27 7 2 8 1 9 3 10 32 11 30 13
REMARK SMILES IDX 28 15 8 17 25 18 9 19 23 20 10 21 22 22 11 23 20 24 12 25
REMARK SMILES IDX 19 26 21 27 26 28 24 30 13 32 14 33 18 34 15 35 17 36 16 37
REMARK H PARENT 32 12 30 14 28 16 26 29 24 31
REMARK Flexibility Score: inf
ROOT
ATOM      1  O   UNL     1      -4.782 -39.445 -29.414  1.00  0.00    -0.458 OA
ENDROOT
BRANCH   1   2
ATOM      2  C   UNL     1      -3.577 -39.481 -30.192  1.00  0.00     0.339 C 
ATOM      3  C   UNL     1      -4.596 -40.814 -31.840  1.00  0.00     0.199 C 
ATOM      4  C   UNL     1      -3.737 -42.052 -31.496  1.00  0.00     0.180 C 
ATOM      5  O   UNL     1      -3.892 -39.610 -31.570  1.00  0.00    -0.328 OA
ATOM      6  C   UNL     1      -3.293 -41.985 -30.029  1.00  0.00     0.181 C 
ATOM      7  C   UNL     1      -2.636 -40.625 -29.747  1.00  0.00     0.214 C 
BRANCH   3   8
ATOM      8  C   UNL     1      -4.967 -40.828 -33.293  1.00  0.00     0.073 C 
ATOM      9  O   UNL     1      -5.942 -41.517 -33.695  1.00  0.00    -0.547 OA
ATOM     10  O   UNL     1      -4.253 -40.055 -34.201  1.00  0.00    -0.547 OA
ENDBRANCH   3   8
BRANCH   4  11
ATOM     11  O   UNL     1      -4.480 -43.229 -31.692  1.00  0.00    -0.387 OA
ATOM     12  H   UNL     1      -4.204 -43.868 -30.984  1.00  0.00     0.211 HD
ENDBRANCH   4  11
BRANCH   6  13
ATOM     13  O   UNL     1      -2.380 -43.023 -29.775  1.00  0.00    -0.387 OA
ATOM     14  H   UNL     1      -1.800 -42.721 -29.029  1.00  0.00     0.211 HD
ENDBRANCH   6  13
BRANCH   7  15
ATOM     15  O   UNL     1      -2.336 -40.521 -28.379  1.00  0.00    -0.384 OA
ATOM     16  H   UNL     1      -1.363 -40.338 -28.313  1.00  0.00     0.211 HD
ENDBRANCH   7  15
ENDBRANCH   1   2
BRANCH   1  17
ATOM     17  C   UNL     1      -5.857 -38.550 -29.557  1.00  0.00     0.172 A 
ATOM     18  C   UNL     1      -7.078 -38.895 -28.959  1.00  0.00     0.201 A 
ATOM     19  C   UNL     1      -5.751 -37.351 -30.280  1.00  0.00     0.098 A 
ATOM     20  C   UNL     1      -8.199 -38.033 -29.068  1.00  0.00     0.176 A 
ATOM     21  C   UNL     1      -6.843 -36.494 -30.397  1.00  0.00     0.146 A 
ATOM     22  C   UNL     1      -8.077 -36.821 -29.792  1.00  0.00     0.111 A 
ATOM     23  O   UNL     1      -6.704 -35.366 -31.086  1.00  0.00    -0.456 OA
ATOM     24  C   UNL     1      -9.139 -35.903 -29.945  1.00  0.00     0.197 A 
ATOM     25  C   UNL     1      -7.687 -34.485 -31.258  1.00  0.00     0.138 A 
ATOM     26  C   UNL     1      -8.941 -34.733 -30.677  1.00  0.00     0.100 A 
ATOM     27  O   UNL     1     -10.271 -36.112 -29.429  1.00  0.00    -0.289 OA
BRANCH  18  28
ATOM     28  O   UNL     1      -7.130 -40.108 -28.263  1.00  0.00    -0.502 OA
ATOM     29  H   UNL     1      -7.580 -40.946 -28.601  1.00  0.00     0.293 HD
ENDBRANCH  18  28
BRANCH  20  30
ATOM     30  O   UNL     1      -9.424 -38.350 -28.472  1.00  0.00    -0.504 OA
ATOM     31  H   UNL     1     -10.257 -37.783 -28.533  1.00  0.00     0.293 HD
ENDBRANCH  20  30
BRANCH  25  32
ATOM     32  C   UNL     1      -7.417 -33.258 -32.048  1.00  0.00     0.017 A 
ATOM     33  C   UNL     1      -7.380 -33.276 -33.457  1.00  0.00     0.012 A 
ATOM     34  C   UNL     1      -7.160 -32.046 -31.380  1.00  0.00     0.012 A 
ATOM     35  C   UNL     1      -7.114 -32.106 -34.173  1.00  0.00     0.001 A 
ATOM     36  C   UNL     1      -6.896 -30.879 -32.102  1.00  0.00     0.001 A 
ATOM     37  C   UNL     1      -6.875 -30.908 -33.497  1.00  0.00     0.000 A 
ENDBRANCH  25  32
ENDBRANCH   1  17
TORSDOF 9
ENDMDL
