MODEL 1
REMARK VINA RESULT:    -4.908      0.000      0.000
REMARK INTER + INTRA:          -5.986
REMARK INTER:                  -5.912
REMARK INTRA:                  -0.074
REMARK UNBOUND:                -0.074
REMARK SMILES NC(=O)C[C@H]([NH3+])C(=O)[O-]
REMARK SMILES IDX 4 1 5 2 6 3 7 7 8 8 9 9 2 10 3 11 1 12
REMARK H PARENT 6 4 6 5 6 6 1 13 1 14
REMARK Flexibility Score: inf
ROOT
ATOM      1  C   UNL     1     102.847  70.966  74.795  1.00  0.00     0.171 C 
ENDROOT
BRANCH   1   2
ATOM      2  C   UNL     1     101.377  70.689  74.422  1.00  0.00     0.237 C 
BRANCH   2   3
ATOM      3  N   UNL     1     100.492  70.830  75.587  1.00  0.00    -0.350 N 
ATOM      4  H   UNL     1      99.824  70.027  75.629  1.00  0.00     0.345 HD
ATOM      5  H   UNL     1      99.952  71.724  75.538  1.00  0.00     0.345 HD
ATOM      6  H   UNL     1     101.060  70.820  76.467  1.00  0.00     0.345 HD
ENDBRANCH   2   3
BRANCH   2   7
ATOM      7  C   UNL     1     101.253  69.304  73.844  1.00  0.00     0.100 C 
ATOM      8  O   UNL     1     101.678  68.310  74.490  1.00  0.00    -0.544 OA
ATOM      9  O   UNL     1     100.656  69.113  72.604  1.00  0.00    -0.544 OA
ENDBRANCH   2   7
ENDBRANCH   1   2
BRANCH   1  10
ATOM     10  C   UNL     1     103.238  72.385  74.499  1.00  0.00     0.223 C 
ATOM     11  O   UNL     1     104.391  72.792  74.803  1.00  0.00    -0.275 OA
ATOM     12  N   UNL     1     102.325  73.268  73.846  1.00  0.00    -0.369 N 
ATOM     13  H   UNL     1     102.605  74.251  73.633  1.00  0.00     0.159 HD
ATOM     14  H   UNL     1     101.374  72.941  73.567  1.00  0.00     0.159 HD
ENDBRANCH   1  10
TORSDOF 4
ENDMDL
MODEL 2
REMARK VINA RESULT:    -4.581     13.402     13.929
REMARK INTER + INTRA:          -5.593
REMARK INTER:                  -5.138
REMARK INTRA:                  -0.455
REMARK UNBOUND:                -0.074
REMARK SMILES NC(=O)C[C@H]([NH3+])C(=O)[O-]
REMARK SMILES IDX 4 1 5 2 6 3 7 7 8 8 9 9 2 10 3 11 1 12
REMARK H PARENT 6 4 6 5 6 6 1 13 1 14
REMARK Flexibility Score: inf
ROOT
ATOM      1  C   UNL     1      92.024  80.000  68.925  1.00  0.00     0.171 C 
ENDROOT
BRANCH   1   2
ATOM      2  C   UNL     1      91.910  79.914  70.460  1.00  0.00     0.237 C 
BRANCH   2   3
ATOM      3  N   UNL     1      92.471  81.107  71.109  1.00  0.00    -0.350 N 
ATOM      4  H   UNL     1      93.378  80.870  71.574  1.00  0.00     0.345 HD
ATOM      5  H   UNL     1      91.809  81.489  71.823  1.00  0.00     0.345 HD
ATOM      6  H   UNL     1      92.663  81.843  70.391  1.00  0.00     0.345 HD
ENDBRANCH   2   3
BRANCH   2   7
ATOM      7  C   UNL     1      92.618  78.678  70.951  1.00  0.00     0.100 C 
ATOM      8  O   UNL     1      93.873  78.600  70.884  1.00  0.00    -0.544 OA
ATOM      9  O   UNL     1      91.893  77.625  71.496  1.00  0.00    -0.544 OA
ENDBRANCH   2   7
ENDBRANCH   1   2
BRANCH   1  10
ATOM     10  C   UNL     1      93.031  81.030  68.500  1.00  0.00     0.223 C 
ATOM     11  O   UNL     1      92.661  82.216  68.293  1.00  0.00    -0.275 OA
ATOM     12  N   UNL     1      94.409  80.684  68.362  1.00  0.00    -0.369 N 
ATOM     13  H   UNL     1      95.107  81.406  68.077  1.00  0.00     0.159 HD
ATOM     14  H   UNL     1      94.736  79.711  68.553  1.00  0.00     0.159 HD
ENDBRANCH   1  10
TORSDOF 4
ENDMDL
MODEL 3
REMARK VINA RESULT:    -4.270      2.626      4.113
REMARK INTER + INTRA:          -5.217
REMARK INTER:                  -4.968
REMARK INTRA:                  -0.250
REMARK UNBOUND:                -0.074
REMARK SMILES NC(=O)C[C@H]([NH3+])C(=O)[O-]
REMARK SMILES IDX 4 1 5 2 6 3 7 7 8 8 9 9 2 10 3 11 1 12
REMARK H PARENT 6 4 6 5 6 6 1 13 1 14
REMARK Flexibility Score: inf
ROOT
ATOM      1  C   UNL     1     100.500  69.369  73.113  1.00  0.00     0.171 C 
ENDROOT
BRANCH   1   2
ATOM      2  C   UNL     1     101.716  69.498  74.052  1.00  0.00     0.237 C 
BRANCH   2   3
ATOM      3  N   UNL     1     101.997  68.233  74.744  1.00  0.00    -0.350 N 
ATOM      4  H   UNL     1     101.552  67.437  74.232  1.00  0.00     0.345 HD
ATOM      5  H   UNL     1     101.634  68.257  75.725  1.00  0.00     0.345 HD
ATOM      6  H   UNL     1     103.029  68.062  74.765  1.00  0.00     0.345 HD
ENDBRANCH   2   3
BRANCH   2   7
ATOM      7  C   UNL     1     101.465  70.591  75.057  1.00  0.00     0.100 C 
ATOM      8  O   UNL     1     100.501  70.502  75.861  1.00  0.00    -0.544 OA
ATOM      9  O   UNL     1     102.306  71.697  75.114  1.00  0.00    -0.544 OA
ENDBRANCH   2   7
ENDBRANCH   1   2
BRANCH   1  10
ATOM     10  C   UNL     1     100.835  68.591  71.873  1.00  0.00     0.223 C 
ATOM     11  O   UNL     1     101.873  67.879  71.844  1.00  0.00    -0.275 OA
ATOM     12  N   UNL     1      99.968  68.626  70.739  1.00  0.00    -0.369 N 
ATOM     13  H   UNL     1     100.199  68.075  69.883  1.00  0.00     0.159 HD
ATOM     14  H   UNL     1      99.091  69.193  70.755  1.00  0.00     0.159 HD
ENDBRANCH   1  10
TORSDOF 4
ENDMDL
MODEL 4
REMARK VINA RESULT:    -4.260      1.981      3.927
REMARK INTER + INTRA:          -5.205
REMARK INTER:                  -4.972
REMARK INTRA:                  -0.233
REMARK UNBOUND:                -0.074
REMARK SMILES NC(=O)C[C@H]([NH3+])C(=O)[O-]
REMARK SMILES IDX 4 1 5 2 6 3 7 7 8 8 9 9 2 10 3 11 1 12
REMARK H PARENT 6 4 6 5 6 6 1 13 1 14
REMARK Flexibility Score: inf
ROOT
ATOM      1  C   UNL     1     100.649  69.745  73.492  1.00  0.00     0.171 C 
ENDROOT
BRANCH   1   2
ATOM      2  C   UNL     1     101.153  70.079  74.910  1.00  0.00     0.237 C 
BRANCH   2   3
ATOM      3  N   UNL     1     100.065  70.577  75.763  1.00  0.00    -0.350 N 
ATOM      4  H   UNL     1      99.666  71.455  75.360  1.00  0.00     0.345 HD
ATOM      5  H   UNL     1     100.410  70.769  76.732  1.00  0.00     0.345 HD
ATOM      6  H   UNL     1      99.297  69.868  75.808  1.00  0.00     0.345 HD
ENDBRANCH   2   3
BRANCH   2   7
ATOM      7  C   UNL     1     102.254  71.104  74.827  1.00  0.00     0.100 C 
ATOM      8  O   UNL     1     102.008  72.316  75.063  1.00  0.00    -0.544 OA
ATOM      9  O   UNL     1     103.549  70.716  74.507  1.00  0.00    -0.544 OA
ENDBRANCH   2   7
ENDBRANCH   1   2
BRANCH   1  10
ATOM     10  C   UNL     1     101.304  68.509  72.947  1.00  0.00     0.223 C 
ATOM     11  O   UNL     1     100.932  68.042  71.838  1.00  0.00    -0.275 OA
ATOM     12  N   UNL     1     102.368  67.878  73.659  1.00  0.00    -0.369 N 
ATOM     13  H   UNL     1     102.829  67.025  73.270  1.00  0.00     0.159 HD
ATOM     14  H   UNL     1     102.705  68.264  74.568  1.00  0.00     0.159 HD
ENDBRANCH   1  10
TORSDOF 4
ENDMDL
MODEL 5
REMARK VINA RESULT:    -4.105     13.968     14.665
REMARK INTER + INTRA:          -5.019
REMARK INTER:                  -4.838
REMARK INTRA:                  -0.181
REMARK UNBOUND:                -0.074
REMARK SMILES NC(=O)C[C@H]([NH3+])C(=O)[O-]
REMARK SMILES IDX 4 1 5 2 6 3 7 7 8 8 9 9 2 10 3 11 1 12
REMARK H PARENT 6 4 6 5 6 6 1 13 1 14
REMARK Flexibility Score: inf
ROOT
ATOM      1  C   UNL     1      92.311  80.272  69.884  1.00  0.00     0.171 C 
ENDROOT
BRANCH   1   2
ATOM      2  C   UNL     1      92.966  80.364  68.492  1.00  0.00     0.237 C 
BRANCH   2   3
ATOM      3  N   UNL     1      94.407  80.630  68.592  1.00  0.00    -0.350 N 
ATOM      4  H   UNL     1      94.892  79.817  69.037  1.00  0.00     0.345 HD
ATOM      5  H   UNL     1      94.588  81.490  69.160  1.00  0.00     0.345 HD
ATOM      6  H   UNL     1      94.812  80.760  67.636  1.00  0.00     0.345 HD
ENDBRANCH   2   3
BRANCH   2   7
ATOM      7  C   UNL     1      92.296  81.448  67.689  1.00  0.00     0.100 C 
ATOM      8  O   UNL     1      91.962  82.529  68.241  1.00  0.00    -0.544 OA
ATOM      9  O   UNL     1      92.058  81.269  66.331  1.00  0.00    -0.544 OA
ENDBRANCH   2   7
ENDBRANCH   1   2
BRANCH   1  10
ATOM     10  C   UNL     1      92.790  79.069  70.645  1.00  0.00     0.223 C 
ATOM     11  O   UNL     1      93.970  78.658  70.484  1.00  0.00    -0.275 OA
ATOM     12  N   UNL     1      91.931  78.411  71.576  1.00  0.00    -0.369 N 
ATOM     13  H   UNL     1      92.273  77.581  72.111  1.00  0.00     0.159 HD
ATOM     14  H   UNL     1      90.959  78.752  71.739  1.00  0.00     0.159 HD
ENDBRANCH   1  10
TORSDOF 4
ENDMDL
MODEL 6
REMARK VINA RESULT:    -3.865      1.398      1.439
REMARK INTER + INTRA:          -4.730
REMARK INTER:                  -4.690
REMARK INTRA:                  -0.040
REMARK UNBOUND:                -0.074
REMARK SMILES NC(=O)C[C@H]([NH3+])C(=O)[O-]
REMARK SMILES IDX 4 1 5 2 6 3 7 7 8 8 9 9 2 10 3 11 1 12
REMARK H PARENT 6 4 6 5 6 6 1 13 1 14
REMARK Flexibility Score: inf
ROOT
ATOM      1  C   UNL     1     101.890  71.503  74.981  1.00  0.00     0.171 C 
ENDROOT
BRANCH   1   2
ATOM      2  C   UNL     1     102.534  70.107  74.863  1.00  0.00     0.237 C 
BRANCH   2   3
ATOM      3  N   UNL     1     103.772  70.151  74.073  1.00  0.00    -0.350 N 
ATOM      4  H   UNL     1     104.083  71.142  73.948  1.00  0.00     0.345 HD
ATOM      5  H   UNL     1     103.629  69.714  73.133  1.00  0.00     0.345 HD
ATOM      6  H   UNL     1     104.533  69.639  74.577  1.00  0.00     0.345 HD
ENDBRANCH   2   3
BRANCH   2   7
ATOM      7  C   UNL     1     101.555  69.150  74.236  1.00  0.00     0.100 C 
ATOM      8  O   UNL     1     101.665  67.911  74.436  1.00  0.00    -0.544 OA
ATOM      9  O   UNL     1     100.516  69.627  73.446  1.00  0.00    -0.544 OA
ENDBRANCH   2   7
ENDBRANCH   1   2
BRANCH   1  10
ATOM     10  C   UNL     1     102.833  72.588  74.548  1.00  0.00     0.223 C 
ATOM     11  O   UNL     1     104.013  72.603  74.988  1.00  0.00    -0.275 OA
ATOM     12  N   UNL     1     102.414  73.582  73.613  1.00  0.00    -0.369 N 
ATOM     13  H   UNL     1     103.076  74.329  73.305  1.00  0.00     0.159 HD
ATOM     14  H   UNL     1     101.447  73.571  73.220  1.00  0.00     0.159 HD
ENDBRANCH   1  10
TORSDOF 4
ENDMDL
MODEL 7
REMARK VINA RESULT:    -3.853      5.200      6.415
REMARK INTER + INTRA:          -4.716
REMARK INTER:                  -4.539
REMARK INTRA:                  -0.176
REMARK UNBOUND:                -0.074
REMARK SMILES NC(=O)C[C@H]([NH3+])C(=O)[O-]
REMARK SMILES IDX 4 1 5 2 6 3 7 7 8 8 9 9 2 10 3 11 1 12
REMARK H PARENT 6 4 6 5 6 6 1 13 1 14
REMARK Flexibility Score: inf
ROOT
ATOM      1  C   UNL     1      99.901  69.639  70.468  1.00  0.00     0.171 C 
ENDROOT
BRANCH   1   2
ATOM      2  C   UNL     1      99.143  69.597  69.126  1.00  0.00     0.237 C 
BRANCH   2   3
ATOM      3  N   UNL     1     100.064  69.683  67.985  1.00  0.00    -0.350 N 
ATOM      4  H   UNL     1     100.196  70.682  67.705  1.00  0.00     0.345 HD
ATOM      5  H   UNL     1      99.696  69.143  67.168  1.00  0.00     0.345 HD
ATOM      6  H   UNL     1     101.000  69.300  68.255  1.00  0.00     0.345 HD
ENDBRANCH   2   3
BRANCH   2   7
ATOM      7  C   UNL     1      98.147  70.725  69.072  1.00  0.00     0.100 C 
ATOM      8  O   UNL     1      96.913  70.483  69.137  1.00  0.00    -0.544 OA
ATOM      9  O   UNL     1      98.583  72.040  68.967  1.00  0.00    -0.544 OA
ENDBRANCH   2   7
ENDBRANCH   1   2
BRANCH   1  10
ATOM     10  C   UNL     1     100.746  68.414  70.667  1.00  0.00     0.223 C 
ATOM     11  O   UNL     1     101.310  67.877  69.678  1.00  0.00    -0.275 OA
ATOM     12  N   UNL     1     100.944  67.875  71.974  1.00  0.00    -0.369 N 
ATOM     13  H   UNL     1     101.542  67.029  72.110  1.00  0.00     0.159 HD
ATOM     14  H   UNL     1     100.503  68.322  72.808  1.00  0.00     0.159 HD
ENDBRANCH   1  10
TORSDOF 4
ENDMDL
MODEL 8
REMARK VINA RESULT:    -3.640     14.243     14.907
REMARK INTER + INTRA:          -4.459
REMARK INTER:                  -4.386
REMARK INTRA:                  -0.073
REMARK UNBOUND:                -0.074
REMARK SMILES NC(=O)C[C@H]([NH3+])C(=O)[O-]
REMARK SMILES IDX 4 1 5 2 6 3 7 7 8 8 9 9 2 10 3 11 1 12
REMARK H PARENT 6 4 6 5 6 6 1 13 1 14
REMARK Flexibility Score: inf
ROOT
ATOM      1  C   UNL     1      92.090  80.306  67.637  1.00  0.00     0.171 C 
ENDROOT
BRANCH   1   2
ATOM      2  C   UNL     1      92.962  80.353  68.907  1.00  0.00     0.237 C 
BRANCH   2   3
ATOM      3  N   UNL     1      94.370  80.620  68.583  1.00  0.00    -0.350 N 
ATOM      4  H   UNL     1      94.473  80.807  67.559  1.00  0.00     0.345 HD
ATOM      5  H   UNL     1      94.973  79.806  68.846  1.00  0.00     0.345 HD
ATOM      6  H   UNL     1      94.698  81.469  69.098  1.00  0.00     0.345 HD
ENDBRANCH   2   3
BRANCH   2   7
ATOM      7  C   UNL     1      92.843  79.049  69.652  1.00  0.00     0.100 C 
ATOM      8  O   UNL     1      91.947  78.222  69.338  1.00  0.00    -0.544 OA
ATOM      9  O   UNL     1      93.729  78.744  70.678  1.00  0.00    -0.544 OA
ENDBRANCH   2   7
ENDBRANCH   1   2
BRANCH   1  10
ATOM     10  C   UNL     1      92.013  81.647  66.966  1.00  0.00     0.223 C 
ATOM     11  O   UNL     1      92.039  81.718  65.709  1.00  0.00    -0.275 OA
ATOM     12  N   UNL     1      91.875  82.838  67.740  1.00  0.00    -0.369 N 
ATOM     13  H   UNL     1      91.810  83.768  67.269  1.00  0.00     0.159 HD
ATOM     14  H   UNL     1      91.828  82.795  68.782  1.00  0.00     0.159 HD
ENDBRANCH   1  10
TORSDOF 4
ENDMDL
