MODEL 1
REMARK VINA RESULT:    -7.616      0.000      0.000
REMARK INTER + INTRA:         -10.783
REMARK INTER:                 -10.065
REMARK INTRA:                  -0.717
REMARK UNBOUND:                -0.717
REMARK SMILES CC[C@H](C=C[C@H](C)[C@@H]1CC[C@@H]2[C@@H]3CC[C@@H]4C[C@@H](O)CC[C@]4(C)[C@@H]3CC[C@@]21C)C(C)C
REMARK SMILES IDX 6 1 7 2 5 3 4 4 3 5 2 6 1 7 28 8 29 9 30 10 8 11 9 12 26 13
REMARK SMILES IDX 10 14 11 15 25 16 27 17 12 18 24 19 23 20 13 21 21 22 14 23
REMARK SMILES IDX 15 24 20 25 22 26 16 27 19 28 17 29 18 30
REMARK H PARENT 18 31
REMARK Flexibility Score: inf
ROOT
ATOM      1  C   UNL     1     112.365 116.432 126.345  1.00  0.00     0.012 C 
ATOM      2  C   UNL     1     112.708 115.434 125.223  1.00  0.00     0.012 C 
ENDROOT
BRANCH   1   3
ATOM      3  C   UNL     1     113.309 116.256 127.522  1.00  0.00    -0.028 C 
ATOM      4  C   UNL     1     112.904 115.852 128.741  1.00  0.00    -0.027 C 
BRANCH   4   5
ATOM      5  C   UNL     1     113.847 115.684 129.919  1.00  0.00     0.014 C 
BRANCH   5   6
ATOM      6  C   UNL     1     115.320 115.563 129.446  1.00  0.00     0.004 C 
ATOM      7  C   UNL     1     116.156 114.623 130.313  1.00  0.00     0.004 C 
ENDBRANCH   5   6
BRANCH   5   8
ATOM      8  C   UNL     1     113.603 116.737 131.045  1.00  0.00    -0.011 C 
ATOM      9  C   UNL     1     114.576 117.927 131.026  1.00  0.00     0.008 C 
ATOM     10  C   UNL     1     112.154 117.249 131.026  1.00  0.00     0.008 C 
ENDBRANCH   5   8
ENDBRANCH   4   5
ENDBRANCH   1   3
BRANCH   1  11
ATOM     11  C   UNL     1     112.221 117.896 125.789  1.00  0.00     0.002 C 
ATOM     12  C   UNL     1     112.649 118.144 124.333  1.00  0.00     0.005 C 
ATOM     13  C   UNL     1     112.902 119.036 126.598  1.00  0.00    -0.026 C 
ATOM     14  C   UNL     1     112.936 119.644 124.225  1.00  0.00     0.005 C 
ATOM     15  C   UNL     1     112.725 120.233 125.634  1.00  0.00    -0.001 C 
ATOM     16  C   UNL     1     114.418 118.731 126.884  1.00  0.00     0.007 C 
ATOM     17  C   UNL     1     112.139 119.297 127.923  1.00  0.00     0.012 C 
ATOM     18  C   UNL     1     113.544 121.517 126.000  1.00  0.00    -0.004 C 
ATOM     19  C   UNL     1     115.405 119.843 126.493  1.00  0.00     0.005 C 
ATOM     20  C   UNL     1     114.855 121.247 126.796  1.00  0.00    -0.001 C 
ATOM     21  C   UNL     1     113.771 122.430 124.794  1.00  0.00     0.004 C 
ATOM     22  C   UNL     1     115.951 122.405 126.726  1.00  0.00    -0.026 C 
ATOM     23  C   UNL     1     114.293 123.803 125.216  1.00  0.00     0.004 C 
ATOM     24  C   UNL     1     115.269 123.792 126.433  1.00  0.00    -0.002 C 
ATOM     25  C   UNL     1     117.055 122.134 125.649  1.00  0.00     0.010 C 
ATOM     26  C   UNL     1     116.633 122.455 128.128  1.00  0.00     0.012 C 
ATOM     27  C   UNL     1     116.301 124.941 126.286  1.00  0.00     0.036 C 
ATOM     28  C   UNL     1     118.075 123.276 125.509  1.00  0.00     0.032 C 
ATOM     29  C   UNL     1     117.395 124.627 125.243  1.00  0.00     0.114 C 
BRANCH  29  30
ATOM     30  O   UNL     1     118.350 125.660 125.204  1.00  0.00    -0.393 OA
ATOM     31  H   UNL     1     119.053 125.446 125.873  1.00  0.00     0.210 HD
ENDBRANCH  29  30
ENDBRANCH   1  11
TORSDOF 6
ENDMDL
MODEL 2
REMARK VINA RESULT:    -7.580      3.763      9.309
REMARK INTER + INTRA:         -10.735
REMARK INTER:                 -10.415
REMARK INTRA:                  -0.320
REMARK UNBOUND:                -0.717
REMARK SMILES CC[C@H](C=C[C@H](C)[C@@H]1CC[C@@H]2[C@@H]3CC[C@@H]4C[C@@H](O)CC[C@]4(C)[C@@H]3CC[C@@]21C)C(C)C
REMARK SMILES IDX 6 1 7 2 5 3 4 4 3 5 2 6 1 7 28 8 29 9 30 10 8 11 9 12 26 13
REMARK SMILES IDX 10 14 11 15 25 16 27 17 12 18 24 19 23 20 13 21 21 22 14 23
REMARK SMILES IDX 15 24 20 25 22 26 16 27 19 28 17 29 18 30
REMARK H PARENT 18 31
REMARK Flexibility Score: inf
ROOT
ATOM      1  C   UNL     1     116.357 125.597 126.715  1.00  0.00     0.012 C 
ATOM      2  C   UNL     1     116.035 125.662 128.219  1.00  0.00     0.012 C 
ENDROOT
BRANCH   1   3
ATOM      3  C   UNL     1     117.368 126.667 126.340  1.00  0.00    -0.028 C 
ATOM      4  C   UNL     1     117.214 127.970 126.643  1.00  0.00    -0.027 C 
BRANCH   4   5
ATOM      5  C   UNL     1     118.220 129.040 126.262  1.00  0.00     0.014 C 
BRANCH   5   6
ATOM      6  C   UNL     1     119.221 128.515 125.199  1.00  0.00     0.004 C 
ATOM      7  C   UNL     1     120.665 128.936 125.471  1.00  0.00     0.004 C 
ENDBRANCH   5   6
BRANCH   5   8
ATOM      8  C   UNL     1     117.550 130.406 125.913  1.00  0.00    -0.011 C 
ATOM      9  C   UNL     1     117.642 130.802 124.431  1.00  0.00     0.008 C 
ATOM     10  C   UNL     1     116.083 130.440 126.370  1.00  0.00     0.008 C 
ENDBRANCH   5   8
ENDBRANCH   4   5
ENDBRANCH   1   3
BRANCH   1  11
ATOM     11  C   UNL     1     116.705 124.131 126.263  1.00  0.00     0.002 C 
ATOM     12  C   UNL     1     117.092 123.920 124.791  1.00  0.00     0.005 C 
ATOM     13  C   UNL     1     115.650 123.026 126.554  1.00  0.00    -0.026 C 
ATOM     14  C   UNL     1     116.838 122.439 124.493  1.00  0.00     0.005 C 
ATOM     15  C   UNL     1     116.252 121.828 125.782  1.00  0.00    -0.001 C 
ATOM     16  C   UNL     1     114.225 123.416 126.017  1.00  0.00     0.007 C 
ATOM     17  C   UNL     1     115.593 122.712 128.072  1.00  0.00     0.012 C 
ATOM     18  C   UNL     1     115.306 120.591 125.619  1.00  0.00    -0.004 C 
ATOM     19  C   UNL     1     113.540 122.366 125.127  1.00  0.00     0.005 C 
ATOM     20  C   UNL     1     113.785 120.930 125.621  1.00  0.00    -0.001 C 
ATOM     21  C   UNL     1     115.703 119.702 124.439  1.00  0.00     0.004 C 
ATOM     22  C   UNL     1     112.838 119.838 124.946  1.00  0.00    -0.026 C 
ATOM     23  C   UNL     1     114.976 118.358 124.476  1.00  0.00     0.004 C 
ATOM     24  C   UNL     1     113.509 118.416 125.003  1.00  0.00    -0.002 C 
ATOM     25  C   UNL     1     112.476 120.180 123.462  1.00  0.00     0.010 C 
ATOM     26  C   UNL     1     111.521 119.816 125.782  1.00  0.00     0.012 C 
ATOM     27  C   UNL     1     112.657 117.330 124.296  1.00  0.00     0.036 C 
ATOM     28  C   UNL     1     111.630 119.100 122.767  1.00  0.00     0.032 C 
ATOM     29  C   UNL     1     112.286 117.714 122.847  1.00  0.00     0.114 C 
BRANCH  29  30
ATOM     30  O   UNL     1     111.448 116.738 122.277  1.00  0.00    -0.393 OA
ATOM     31  H   UNL     1     110.989 116.264 123.020  1.00  0.00     0.210 HD
ENDBRANCH  29  30
ENDBRANCH   1  11
TORSDOF 6
ENDMDL
MODEL 3
REMARK VINA RESULT:    -7.495      1.805      3.934
REMARK INTER + INTRA:         -10.623
REMARK INTER:                  -9.383
REMARK INTRA:                  -1.239
REMARK UNBOUND:                -0.717
REMARK SMILES CC[C@H](C=C[C@H](C)[C@@H]1CC[C@@H]2[C@@H]3CC[C@@H]4C[C@@H](O)CC[C@]4(C)[C@@H]3CC[C@@]21C)C(C)C
REMARK SMILES IDX 6 1 7 2 5 3 4 4 3 5 2 6 1 7 28 8 29 9 30 10 8 11 9 12 26 13
REMARK SMILES IDX 10 14 11 15 25 16 27 17 12 18 24 19 23 20 13 21 21 22 14 23
REMARK SMILES IDX 15 24 20 25 22 26 16 27 19 28 17 29 18 30
REMARK H PARENT 18 31
REMARK Flexibility Score: inf
ROOT
ATOM      1  C   UNL     1     112.634 116.586 127.537  1.00  0.00     0.012 C 
ATOM      2  C   UNL     1     111.665 115.903 128.519  1.00  0.00     0.012 C 
ENDROOT
BRANCH   1   3
ATOM      3  C   UNL     1     112.448 116.034 126.134  1.00  0.00    -0.028 C 
ATOM      4  C   UNL     1     113.466 115.836 125.276  1.00  0.00    -0.027 C 
BRANCH   4   5
ATOM      5  C   UNL     1     113.279 115.292 123.872  1.00  0.00     0.014 C 
BRANCH   5   6
ATOM      6  C   UNL     1     113.030 116.437 122.855  1.00  0.00     0.004 C 
ATOM      7  C   UNL     1     111.547 116.688 122.581  1.00  0.00     0.004 C 
ENDBRANCH   5   6
BRANCH   5   8
ATOM      8  C   UNL     1     114.396 114.280 123.460  1.00  0.00    -0.011 C 
ATOM      9  C   UNL     1     115.806 114.657 123.942  1.00  0.00     0.008 C 
ATOM     10  C   UNL     1     114.052 112.854 123.918  1.00  0.00     0.008 C 
ENDBRANCH   5   8
ENDBRANCH   4   5
ENDBRANCH   1   3
BRANCH   1  11
ATOM     11  C   UNL     1     112.585 118.152 127.675  1.00  0.00     0.002 C 
ATOM     12  C   UNL     1     111.925 118.940 126.532  1.00  0.00     0.005 C 
ATOM     13  C   UNL     1     113.931 118.887 127.934  1.00  0.00    -0.026 C 
ATOM     14  C   UNL     1     112.480 120.365 126.623  1.00  0.00     0.005 C 
ATOM     15  C   UNL     1     113.496 120.365 127.783  1.00  0.00    -0.001 C 
ATOM     16  C   UNL     1     115.031 118.488 126.885  1.00  0.00     0.007 C 
ATOM     17  C   UNL     1     114.430 118.620 129.378  1.00  0.00     0.012 C 
ATOM     18  C   UNL     1     114.666 121.404 127.706  1.00  0.00    -0.004 C 
ATOM     19  C   UNL     1     115.733 119.660 126.179  1.00  0.00     0.005 C 
ATOM     20  C   UNL     1     115.999 120.840 127.128  1.00  0.00    -0.001 C 
ATOM     21  C   UNL     1     114.245 122.710 127.031  1.00  0.00     0.004 C 
ATOM     22  C   UNL     1     117.009 121.930 126.547  1.00  0.00    -0.026 C 
ATOM     23  C   UNL     1     115.286 123.811 127.234  1.00  0.00     0.004 C 
ATOM     24  C   UNL     1     116.768 123.326 127.231  1.00  0.00    -0.002 C 
ATOM     25  C   UNL     1     116.902 122.091 124.993  1.00  0.00     0.010 C 
ATOM     26  C   UNL     1     118.447 121.431 126.892  1.00  0.00     0.012 C 
ATOM     27  C   UNL     1     117.680 124.437 126.648  1.00  0.00     0.036 C 
ATOM     28  C   UNL     1     117.809 123.193 124.422  1.00  0.00     0.032 C 
ATOM     29  C   UNL     1     117.578 124.546 125.111  1.00  0.00     0.114 C 
BRANCH  29  30
ATOM     30  O   UNL     1     118.481 125.508 124.624  1.00  0.00    -0.393 OA
ATOM     31  H   UNL     1     118.190 126.395 124.965  1.00  0.00     0.210 HD
ENDBRANCH  29  30
ENDBRANCH   1  11
TORSDOF 6
ENDMDL
MODEL 4
REMARK VINA RESULT:    -7.299      3.509      9.294
REMARK INTER + INTRA:         -10.363
REMARK INTER:                 -10.115
REMARK INTRA:                  -0.248
REMARK UNBOUND:                -0.717
REMARK SMILES CC[C@H](C=C[C@H](C)[C@@H]1CC[C@@H]2[C@@H]3CC[C@@H]4C[C@@H](O)CC[C@]4(C)[C@@H]3CC[C@@]21C)C(C)C
REMARK SMILES IDX 6 1 7 2 5 3 4 4 3 5 2 6 1 7 28 8 29 9 30 10 8 11 9 12 26 13
REMARK SMILES IDX 10 14 11 15 25 16 27 17 12 18 24 19 23 20 13 21 21 22 14 23
REMARK SMILES IDX 15 24 20 25 22 26 16 27 19 28 17 29 18 30
REMARK H PARENT 18 31
REMARK Flexibility Score: inf
ROOT
ATOM      1  C   UNL     1     117.510 124.930 126.283  1.00  0.00     0.012 C 
ATOM      2  C   UNL     1     117.921 124.805 124.805  1.00  0.00     0.012 C 
ENDROOT
BRANCH   1   3
ATOM      3  C   UNL     1     117.661 126.364 126.759  1.00  0.00    -0.028 C 
ATOM      4  C   UNL     1     117.925 127.394 125.933  1.00  0.00    -0.027 C 
BRANCH   4   5
ATOM      5  C   UNL     1     118.083 128.826 126.410  1.00  0.00     0.014 C 
BRANCH   5   6
ATOM      6  C   UNL     1     119.580 129.208 126.556  1.00  0.00     0.004 C 
ATOM      7  C   UNL     1     120.481 128.510 125.537  1.00  0.00     0.004 C 
ENDBRANCH   5   6
BRANCH   5   8
ATOM      8  C   UNL     1     117.225 129.838 125.585  1.00  0.00    -0.011 C 
ATOM      9  C   UNL     1     116.023 130.422 126.344  1.00  0.00     0.008 C 
ATOM     10  C   UNL     1     118.092 130.977 125.026  1.00  0.00     0.008 C 
ENDBRANCH   5   8
ENDBRANCH   4   5
ENDBRANCH   1   3
BRANCH   1  11
ATOM     11  C   UNL     1     116.114 124.257 126.552  1.00  0.00     0.002 C 
ATOM     12  C   UNL     1     115.541 124.364 127.974  1.00  0.00     0.005 C 
ATOM     13  C   UNL     1     115.963 122.755 126.180  1.00  0.00    -0.026 C 
ATOM     14  C   UNL     1     114.531 123.221 128.112  1.00  0.00     0.005 C 
ATOM     15  C   UNL     1     114.576 122.435 126.786  1.00  0.00    -0.001 C 
ATOM     16  C   UNL     1     117.100 121.874 126.814  1.00  0.00     0.007 C 
ATOM     17  C   UNL     1     115.929 122.575 124.639  1.00  0.00     0.012 C 
ATOM     18  C   UNL     1     114.203 120.915 126.846  1.00  0.00    -0.004 C 
ATOM     19  C   UNL     1     116.624 120.645 127.606  1.00  0.00     0.005 C 
ATOM     20  C   UNL     1     115.423 119.950 126.943  1.00  0.00    -0.001 C 
ATOM     21  C   UNL     1     113.137 120.615 127.900  1.00  0.00     0.004 C 
ATOM     22  C   UNL     1     115.104 118.500 127.526  1.00  0.00    -0.026 C 
ATOM     23  C   UNL     1     112.567 119.206 127.741  1.00  0.00     0.004 C 
ATOM     24  C   UNL     1     113.595 118.126 127.283  1.00  0.00    -0.002 C 
ATOM     25  C   UNL     1     115.428 118.373 129.053  1.00  0.00     0.010 C 
ATOM     26  C   UNL     1     116.012 117.498 126.747  1.00  0.00     0.012 C 
ATOM     27  C   UNL     1     113.218 116.752 127.895  1.00  0.00     0.036 C 
ATOM     28  C   UNL     1     115.052 117.009 129.654  1.00  0.00     0.032 C 
ATOM     29  C   UNL     1     113.583 116.647 129.392  1.00  0.00     0.114 C 
BRANCH  29  30
ATOM     30  O   UNL     1     113.297 115.360 129.880  1.00  0.00    -0.393 OA
ATOM     31  H   UNL     1     113.104 115.440 130.851  1.00  0.00     0.210 HD
ENDBRANCH  29  30
ENDBRANCH   1  11
TORSDOF 6
ENDMDL
MODEL 5
REMARK VINA RESULT:    -7.192      2.219      3.735
REMARK INTER + INTRA:         -10.222
REMARK INTER:                  -9.368
REMARK INTRA:                  -0.854
REMARK UNBOUND:                -0.717
REMARK SMILES CC[C@H](C=C[C@H](C)[C@@H]1CC[C@@H]2[C@@H]3CC[C@@H]4C[C@@H](O)CC[C@]4(C)[C@@H]3CC[C@@]21C)C(C)C
REMARK SMILES IDX 6 1 7 2 5 3 4 4 3 5 2 6 1 7 28 8 29 9 30 10 8 11 9 12 26 13
REMARK SMILES IDX 10 14 11 15 25 16 27 17 12 18 24 19 23 20 13 21 21 22 14 23
REMARK SMILES IDX 15 24 20 25 22 26 16 27 19 28 17 29 18 30
REMARK H PARENT 18 31
REMARK Flexibility Score: inf
ROOT
ATOM      1  C   UNL     1     112.010 116.663 124.297  1.00  0.00     0.012 C 
ATOM      2  C   UNL     1     112.007 116.760 122.760  1.00  0.00     0.012 C 
ENDROOT
BRANCH   1   3
ATOM      3  C   UNL     1     113.080 115.694 124.768  1.00  0.00    -0.028 C 
ATOM      4  C   UNL     1     113.853 114.979 123.929  1.00  0.00    -0.027 C 
BRANCH   4   5
ATOM      5  C   UNL     1     114.917 114.006 124.400  1.00  0.00     0.014 C 
BRANCH   5   6
ATOM      6  C   UNL     1     114.905 112.707 123.551  1.00  0.00     0.004 C 
ATOM      7  C   UNL     1     114.921 112.971 122.045  1.00  0.00     0.004 C 
ENDBRANCH   5   6
BRANCH   5   8
ATOM      8  C   UNL     1     116.320 114.672 124.560  1.00  0.00    -0.011 C 
ATOM      9  C   UNL     1     116.635 115.754 123.515  1.00  0.00     0.008 C 
ATOM     10  C   UNL     1     116.508 115.244 125.974  1.00  0.00     0.008 C 
ENDBRANCH   5   8
ENDBRANCH   4   5
ENDBRANCH   1   3
BRANCH   1  11
ATOM     11  C   UNL     1     112.028 118.088 124.964  1.00  0.00     0.002 C 
ATOM     12  C   UNL     1     111.490 119.263 124.132  1.00  0.00     0.005 C 
ATOM     13  C   UNL     1     113.387 118.594 125.526  1.00  0.00    -0.026 C 
ATOM     14  C   UNL     1     112.107 120.528 124.736  1.00  0.00     0.005 C 
ATOM     15  C   UNL     1     113.037 120.061 125.873  1.00  0.00    -0.001 C 
ATOM     16  C   UNL     1     114.538 118.500 124.459  1.00  0.00     0.007 C 
ATOM     17  C   UNL     1     113.770 117.816 126.812  1.00  0.00     0.012 C 
ATOM     18  C   UNL     1     114.260 120.979 126.216  1.00  0.00    -0.004 C 
ATOM     19  C   UNL     1     115.344 119.789 124.236  1.00  0.00     0.005 C 
ATOM     20  C   UNL     1     115.600 120.554 125.546  1.00  0.00    -0.001 C 
ATOM     21  C   UNL     1     113.952 122.463 126.014  1.00  0.00     0.004 C 
ATOM     22  C   UNL     1     116.702 121.702 125.426  1.00  0.00    -0.026 C 
ATOM     23  C   UNL     1     115.029 123.352 126.635  1.00  0.00     0.004 C 
ATOM     24  C   UNL     1     116.482 122.795 126.538  1.00  0.00    -0.002 C 
ATOM     25  C   UNL     1     116.713 122.390 124.020  1.00  0.00     0.010 C 
ATOM     26  C   UNL     1     118.085 121.016 125.649  1.00  0.00     0.012 C 
ATOM     27  C   UNL     1     117.487 123.970 126.419  1.00  0.00     0.036 C 
ATOM     28  C   UNL     1     117.711 123.555 123.910  1.00  0.00     0.032 C 
ATOM     29  C   UNL     1     117.498 124.603 125.011  1.00  0.00     0.114 C 
BRANCH  29  30
ATOM     30  O   UNL     1     118.480 125.608 124.931  1.00  0.00    -0.393 OA
ATOM     31  H   UNL     1     118.129 126.412 125.398  1.00  0.00     0.210 HD
ENDBRANCH  29  30
ENDBRANCH   1  11
TORSDOF 6
ENDMDL
MODEL 6
REMARK VINA RESULT:    -7.104      3.976      7.846
REMARK INTER + INTRA:         -10.106
REMARK INTER:                  -9.687
REMARK INTRA:                  -0.419
REMARK UNBOUND:                -0.717
REMARK SMILES CC[C@H](C=C[C@H](C)[C@@H]1CC[C@@H]2[C@@H]3CC[C@@H]4C[C@@H](O)CC[C@]4(C)[C@@H]3CC[C@@]21C)C(C)C
REMARK SMILES IDX 6 1 7 2 5 3 4 4 3 5 2 6 1 7 28 8 29 9 30 10 8 11 9 12 26 13
REMARK SMILES IDX 10 14 11 15 25 16 27 17 12 18 24 19 23 20 13 21 21 22 14 23
REMARK SMILES IDX 15 24 20 25 22 26 16 27 19 28 17 29 18 30
REMARK H PARENT 18 31
REMARK Flexibility Score: inf
ROOT
ATOM      1  C   UNL     1     111.779 119.397 126.071  1.00  0.00     0.012 C 
ATOM      2  C   UNL     1     111.091 119.591 127.435  1.00  0.00     0.012 C 
ENDROOT
BRANCH   1   3
ATOM      3  C   UNL     1     113.100 120.145 126.028  1.00  0.00    -0.028 C 
ATOM      4  C   UNL     1     113.384 121.092 125.115  1.00  0.00    -0.027 C 
BRANCH   4   5
ATOM      5  C   UNL     1     114.707 121.835 125.068  1.00  0.00     0.014 C 
BRANCH   5   6
ATOM      6  C   UNL     1     115.418 121.628 123.704  1.00  0.00     0.004 C 
ATOM      7  C   UNL     1     116.636 120.709 123.793  1.00  0.00     0.004 C 
ENDBRANCH   5   6
BRANCH   5   8
ATOM      8  C   UNL     1     114.583 123.323 125.524  1.00  0.00    -0.011 C 
ATOM      9  C   UNL     1     115.744 124.226 125.076  1.00  0.00     0.008 C 
ATOM     10  C   UNL     1     113.246 123.934 125.076  1.00  0.00     0.008 C 
ENDBRANCH   5   8
ENDBRANCH   4   5
ENDBRANCH   1   3
BRANCH   1  11
ATOM     11  C   UNL     1     111.833 117.878 125.665  1.00  0.00     0.002 C 
ATOM     12  C   UNL     1     112.228 116.870 126.756  1.00  0.00     0.005 C 
ATOM     13  C   UNL     1     112.714 117.498 124.441  1.00  0.00    -0.026 C 
ATOM     14  C   UNL     1     112.733 115.625 126.020  1.00  0.00     0.005 C 
ATOM     15  C   UNL     1     112.677 115.953 124.515  1.00  0.00    -0.001 C 
ATOM     16  C   UNL     1     114.177 118.058 124.573  1.00  0.00     0.007 C 
ATOM     17  C   UNL     1     112.059 117.988 123.123  1.00  0.00     0.012 C 
ATOM     18  C   UNL     1     113.696 115.212 123.584  1.00  0.00    -0.004 C 
ATOM     19  C   UNL     1     115.303 117.029 124.376  1.00  0.00     0.005 C 
ATOM     20  C   UNL     1     114.986 116.022 123.258  1.00  0.00    -0.001 C 
ATOM     21  C   UNL     1     114.005 113.794 124.068  1.00  0.00     0.004 C 
ATOM     22  C   UNL     1     116.240 115.154 122.787  1.00  0.00    -0.026 C 
ATOM     23  C   UNL     1     114.747 112.985 123.004  1.00  0.00     0.004 C 
ATOM     24  C   UNL     1     115.763 113.799 122.145  1.00  0.00    -0.002 C 
ATOM     25  C   UNL     1     117.241 114.850 123.952  1.00  0.00     0.010 C 
ATOM     26  C   UNL     1     116.984 115.999 121.707  1.00  0.00     0.012 C 
ATOM     27  C   UNL     1     116.949 112.888 121.735  1.00  0.00     0.036 C 
ATOM     28  C   UNL     1     118.414 113.947 123.538  1.00  0.00     0.032 C 
ATOM     29  C   UNL     1     117.936 112.637 122.896  1.00  0.00     0.114 C 
BRANCH  29  30
ATOM     30  O   UNL     1     119.033 111.875 122.454  1.00  0.00    -0.393 OA
ATOM     31  H   UNL     1     118.677 111.048 122.034  1.00  0.00     0.210 HD
ENDBRANCH  29  30
ENDBRANCH   1  11
TORSDOF 6
ENDMDL
MODEL 7
REMARK VINA RESULT:    -7.035      3.658      9.597
REMARK INTER + INTRA:         -10.014
REMARK INTER:                 -10.428
REMARK INTRA:                   0.413
REMARK UNBOUND:                -0.717
REMARK SMILES CC[C@H](C=C[C@H](C)[C@@H]1CC[C@@H]2[C@@H]3CC[C@@H]4C[C@@H](O)CC[C@]4(C)[C@@H]3CC[C@@]21C)C(C)C
REMARK SMILES IDX 6 1 7 2 5 3 4 4 3 5 2 6 1 7 28 8 29 9 30 10 8 11 9 12 26 13
REMARK SMILES IDX 10 14 11 15 25 16 27 17 12 18 24 19 23 20 13 21 21 22 14 23
REMARK SMILES IDX 15 24 20 25 22 26 16 27 19 28 17 29 18 30
REMARK H PARENT 18 31
REMARK Flexibility Score: inf
ROOT
ATOM      1  C   UNL     1     117.760 125.569 126.634  1.00  0.00     0.012 C 
ATOM      2  C   UNL     1     118.841 124.476 126.704  1.00  0.00     0.012 C 
ENDROOT
BRANCH   1   3
ATOM      3  C   UNL     1     118.311 126.823 125.976  1.00  0.00    -0.028 C 
ATOM      4  C   UNL     1     117.997 128.069 126.378  1.00  0.00    -0.027 C 
BRANCH   4   5
ATOM      5  C   UNL     1     118.542 129.321 125.716  1.00  0.00     0.014 C 
BRANCH   5   6
ATOM      6  C   UNL     1     117.505 130.474 125.759  1.00  0.00     0.004 C 
ATOM      7  C   UNL     1     117.172 131.037 124.378  1.00  0.00     0.004 C 
ENDBRANCH   5   6
BRANCH   5   8
ATOM      8  C   UNL     1     119.969 129.702 126.222  1.00  0.00    -0.011 C 
ATOM      9  C   UNL     1     121.089 129.490 125.191  1.00  0.00     0.008 C 
ATOM     10  C   UNL     1     120.008 131.147 126.744  1.00  0.00     0.008 C 
ENDBRANCH   5   8
ENDBRANCH   4   5
ENDBRANCH   1   3
BRANCH   1  11
ATOM     11  C   UNL     1     116.415 125.012 126.038  1.00  0.00     0.002 C 
ATOM     12  C   UNL     1     115.198 124.955 126.976  1.00  0.00     0.005 C 
ATOM     13  C   UNL     1     116.460 123.610 125.367  1.00  0.00    -0.026 C 
ATOM     14  C   UNL     1     114.247 123.916 126.374  1.00  0.00     0.005 C 
ATOM     15  C   UNL     1     114.954 123.346 125.128  1.00  0.00    -0.001 C 
ATOM     16  C   UNL     1     117.106 122.527 126.306  1.00  0.00     0.007 C 
ATOM     17  C   UNL     1     117.214 123.677 124.013  1.00  0.00     0.012 C 
ATOM     18  C   UNL     1     114.588 121.881 124.708  1.00  0.00    -0.004 C 
ATOM     19  C   UNL     1     116.280 121.246 126.509  1.00  0.00     0.005 C 
ATOM     20  C   UNL     1     115.578 120.792 125.218  1.00  0.00    -0.001 C 
ATOM     21  C   UNL     1     113.130 121.533 125.012  1.00  0.00     0.004 C 
ATOM     22  C   UNL     1     114.992 119.309 125.282  1.00  0.00    -0.026 C 
ATOM     23  C   UNL     1     112.707 120.233 124.329  1.00  0.00     0.004 C 
ATOM     24  C   UNL     1     113.814 119.137 124.252  1.00  0.00    -0.002 C 
ATOM     25  C   UNL     1     114.491 118.913 126.711  1.00  0.00     0.010 C 
ATOM     26  C   UNL     1     116.160 118.353 124.888  1.00  0.00     0.012 C 
ATOM     27  C   UNL     1     113.164 117.731 124.325  1.00  0.00     0.036 C 
ATOM     28  C   UNL     1     113.848 117.518 126.777  1.00  0.00     0.032 C 
ATOM     29  C   UNL     1     112.714 117.357 125.754  1.00  0.00     0.114 C 
BRANCH  29  30
ATOM     30  O   UNL     1     112.206 116.045 125.784  1.00  0.00    -0.393 OA
ATOM     31  H   UNL     1     111.572 115.949 125.025  1.00  0.00     0.210 HD
ENDBRANCH  29  30
ENDBRANCH   1  11
TORSDOF 6
ENDMDL
MODEL 8
REMARK VINA RESULT:    -6.907      1.830      3.749
REMARK INTER + INTRA:          -9.845
REMARK INTER:                  -8.815
REMARK INTRA:                  -1.030
REMARK UNBOUND:                -0.717
REMARK SMILES CC[C@H](C=C[C@H](C)[C@@H]1CC[C@@H]2[C@@H]3CC[C@@H]4C[C@@H](O)CC[C@]4(C)[C@@H]3CC[C@@]21C)C(C)C
REMARK SMILES IDX 6 1 7 2 5 3 4 4 3 5 2 6 1 7 28 8 29 9 30 10 8 11 9 12 26 13
REMARK SMILES IDX 10 14 11 15 25 16 27 17 12 18 24 19 23 20 13 21 21 22 14 23
REMARK SMILES IDX 15 24 20 25 22 26 16 27 19 28 17 29 18 30
REMARK H PARENT 18 31
REMARK Flexibility Score: inf
ROOT
ATOM      1  C   UNL     1     115.177 116.223 125.000  1.00  0.00     0.012 C 
ATOM      2  C   UNL     1     115.588 114.744 125.121  1.00  0.00     0.012 C 
ENDROOT
BRANCH   1   3
ATOM      3  C   UNL     1     113.744 116.419 125.465  1.00  0.00    -0.028 C 
ATOM      4  C   UNL     1     113.417 116.796 126.715  1.00  0.00    -0.027 C 
BRANCH   4   5
ATOM      5  C   UNL     1     111.985 116.985 127.181  1.00  0.00     0.014 C 
BRANCH   5   6
ATOM      6  C   UNL     1     111.707 116.181 128.480  1.00  0.00     0.004 C 
ATOM      7  C   UNL     1     112.964 115.928 129.312  1.00  0.00     0.004 C 
ENDBRANCH   5   6
BRANCH   5   8
ATOM      8  C   UNL     1     111.557 118.486 127.234  1.00  0.00    -0.011 C 
ATOM      9  C   UNL     1     112.616 119.429 127.825  1.00  0.00     0.008 C 
ATOM     10  C   UNL     1     111.125 118.991 125.848  1.00  0.00     0.008 C 
ENDBRANCH   5   8
ENDBRANCH   4   5
ENDBRANCH   1   3
BRANCH   1  11
ATOM     11  C   UNL     1     116.249 117.174 125.651  1.00  0.00     0.002 C 
ATOM     12  C   UNL     1     116.102 117.481 127.149  1.00  0.00     0.005 C 
ATOM     13  C   UNL     1     116.468 118.562 124.984  1.00  0.00    -0.026 C 
ATOM     14  C   UNL     1     116.866 118.787 127.391  1.00  0.00     0.005 C 
ATOM     15  C   UNL     1     117.395 119.245 126.018  1.00  0.00    -0.001 C 
ATOM     16  C   UNL     1     115.118 119.345 124.796  1.00  0.00     0.007 C 
ATOM     17  C   UNL     1     117.202 118.406 123.627  1.00  0.00     0.012 C 
ATOM     18  C   UNL     1     117.610 120.783 125.813  1.00  0.00    -0.004 C 
ATOM     19  C   UNL     1     115.102 120.781 125.345  1.00  0.00     0.005 C 
ATOM     20  C   UNL     1     116.431 121.516 125.105  1.00  0.00    -0.001 C 
ATOM     21  C   UNL     1     118.047 121.489 127.098  1.00  0.00     0.004 C 
ATOM     22  C   UNL     1     116.359 123.091 125.346  1.00  0.00    -0.026 C 
ATOM     23  C   UNL     1     118.543 122.907 126.821  1.00  0.00     0.004 C 
ATOM     24  C   UNL     1     117.785 123.663 125.687  1.00  0.00    -0.002 C 
ATOM     25  C   UNL     1     115.358 123.487 126.483  1.00  0.00     0.010 C 
ATOM     26  C   UNL     1     115.860 123.722 124.009  1.00  0.00     0.012 C 
ATOM     27  C   UNL     1     117.755 125.182 126.000  1.00  0.00     0.036 C 
ATOM     28  C   UNL     1     115.333 124.994 126.788  1.00  0.00     0.032 C 
ATOM     29  C   UNL     1     116.733 125.543 127.099  1.00  0.00     0.114 C 
BRANCH  29  30
ATOM     30  O   UNL     1     116.685 126.936 127.289  1.00  0.00    -0.393 OA
ATOM     31  H   UNL     1     116.537 127.105 128.257  1.00  0.00     0.210 HD
ENDBRANCH  29  30
ENDBRANCH   1  11
TORSDOF 6
ENDMDL
MODEL 9
REMARK VINA RESULT:    -6.846      1.840      4.574
REMARK INTER + INTRA:          -9.765
REMARK INTER:                  -9.590
REMARK INTRA:                  -0.175
REMARK UNBOUND:                -0.717
REMARK SMILES CC[C@H](C=C[C@H](C)[C@@H]1CC[C@@H]2[C@@H]3CC[C@@H]4C[C@@H](O)CC[C@]4(C)[C@@H]3CC[C@@]21C)C(C)C
REMARK SMILES IDX 6 1 7 2 5 3 4 4 3 5 2 6 1 7 28 8 29 9 30 10 8 11 9 12 26 13
REMARK SMILES IDX 10 14 11 15 25 16 27 17 12 18 24 19 23 20 13 21 21 22 14 23
REMARK SMILES IDX 15 24 20 25 22 26 16 27 19 28 17 29 18 30
REMARK H PARENT 18 31
REMARK Flexibility Score: inf
ROOT
ATOM      1  C   UNL     1     113.921 116.975 127.999  1.00  0.00     0.012 C 
ATOM      2  C   UNL     1     112.976 117.718 128.961  1.00  0.00     0.012 C 
ENDROOT
BRANCH   1   3
ATOM      3  C   UNL     1     113.167 116.505 126.767  1.00  0.00    -0.028 C 
ATOM      4  C   UNL     1     113.731 115.772 125.789  1.00  0.00    -0.027 C 
BRANCH   4   5
ATOM      5  C   UNL     1     112.979 115.308 124.555  1.00  0.00     0.014 C 
BRANCH   5   6
ATOM      6  C   UNL     1     111.977 116.388 124.070  1.00  0.00     0.004 C 
ATOM      7  C   UNL     1     112.016 116.612 122.558  1.00  0.00     0.004 C 
ENDBRANCH   5   6
BRANCH   5   8
ATOM      8  C   UNL     1     113.923 114.744 123.446  1.00  0.00    -0.011 C 
ATOM      9  C   UNL     1     115.257 115.495 123.302  1.00  0.00     0.008 C 
ATOM     10  C   UNL     1     114.190 113.244 123.652  1.00  0.00     0.008 C 
ENDBRANCH   5   8
ENDBRANCH   4   5
ENDBRANCH   1   3
BRANCH   1  11
ATOM     11  C   UNL     1     115.234 117.799 127.731  1.00  0.00     0.002 C 
ATOM     12  C   UNL     1     116.058 118.231 128.954  1.00  0.00     0.005 C 
ATOM     13  C   UNL     1     115.103 119.088 126.870  1.00  0.00    -0.026 C 
ATOM     14  C   UNL     1     116.906 119.421 128.496  1.00  0.00     0.005 C 
ATOM     15  C   UNL     1     116.517 119.697 127.030  1.00  0.00    -0.001 C 
ATOM     16  C   UNL     1     113.984 120.048 127.415  1.00  0.00     0.007 C 
ATOM     17  C   UNL     1     114.839 118.729 125.385  1.00  0.00     0.012 C 
ATOM     18  C   UNL     1     116.676 121.168 126.514  1.00  0.00    -0.004 C 
ATOM     19  C   UNL     1     114.414 121.506 127.646  1.00  0.00     0.005 C 
ATOM     20  C   UNL     1     115.369 122.016 126.554  1.00  0.00    -0.001 C 
ATOM     21  C   UNL     1     117.858 121.890 127.162  1.00  0.00     0.004 C 
ATOM     22  C   UNL     1     115.578 123.597 126.556  1.00  0.00    -0.026 C 
ATOM     23  C   UNL     1     118.186 123.196 126.438  1.00  0.00     0.004 C 
ATOM     24  C   UNL     1     116.952 123.973 125.888  1.00  0.00    -0.002 C 
ATOM     25  C   UNL     1     115.515 124.218 127.992  1.00  0.00     0.010 C 
ATOM     26  C   UNL     1     114.414 124.200 125.708  1.00  0.00     0.012 C 
ATOM     27  C   UNL     1     117.233 125.498 125.928  1.00  0.00     0.036 C 
ATOM     28  C   UNL     1     115.794 125.730 128.025  1.00  0.00     0.032 C 
ATOM     29  C   UNL     1     117.128 126.085 127.353  1.00  0.00     0.114 C 
BRANCH  29  30
ATOM     30  O   UNL     1     117.311 127.479 127.326  1.00  0.00    -0.393 OA
ATOM     31  H   UNL     1     116.465 127.901 127.633  1.00  0.00     0.210 HD
ENDBRANCH  29  30
ENDBRANCH   1  11
TORSDOF 6
ENDMDL
