MODEL 1
REMARK VINA RESULT:    -3.043      0.000      0.000
REMARK INTER + INTRA:          -4.566
REMARK INTER:                  -4.288
REMARK INTRA:                  -0.278
REMARK UNBOUND:                -0.278
REMARK SMILES CCCCCCCCC(=O)[O-]
REMARK SMILES IDX 6 1 7 2 8 3 9 4 10 5 11 6 5 7 4 8 3 9 2 10 1 11
REMARK H PARENT
REMARK Flexibility Score: inf
ROOT
ATOM      1  C   UNL     1      65.974  56.947   9.232  1.00  0.00     0.000 C 
ENDROOT
BRANCH   1   2
ATOM      2  C   UNL     1      64.912  58.061   9.251  1.00  0.00     0.006 C 
BRANCH   2   3
ATOM      3  C   UNL     1      64.052  58.017  10.521  1.00  0.00     0.053 C 
BRANCH   3   4
ATOM      4  C   UNL     1      62.607  57.772  10.208  1.00  0.00     0.041 C 
ATOM      5  O   UNL     1      61.943  58.630   9.568  1.00  0.00    -0.550 OA
ATOM      6  O   UNL     1      62.002  56.584  10.595  1.00  0.00    -0.550 OA
ENDBRANCH   3   4
ENDBRANCH   2   3
ENDBRANCH   1   2
BRANCH   1   7
ATOM      7  C   UNL     1      66.119  56.244  10.591  1.00  0.00     0.000 C 
BRANCH   7   8
ATOM      8  C   UNL     1      67.008  54.993  10.520  1.00  0.00    -0.000 C 
BRANCH   8   9
ATOM      9  C   UNL     1      68.441  55.311  10.962  1.00  0.00    -0.000 C 
BRANCH   9  10
ATOM     10  C   UNL     1      69.449  54.957   9.863  1.00  0.00    -0.003 C 
ATOM     11  C   UNL     1      70.825  54.659  10.451  1.00  0.00     0.004 C 
ENDBRANCH   9  10
ENDBRANCH   8   9
ENDBRANCH   7   8
ENDBRANCH   1   7
TORSDOF 7
ENDMDL
MODEL 2
REMARK VINA RESULT:    -2.805      3.957      6.488
REMARK INTER + INTRA:          -4.231
REMARK INTER:                  -3.954
REMARK INTRA:                  -0.278
REMARK UNBOUND:                -0.278
REMARK SMILES CCCCCCCCC(=O)[O-]
REMARK SMILES IDX 6 1 7 2 8 3 9 4 10 5 11 6 5 7 4 8 3 9 2 10 1 11
REMARK H PARENT
REMARK Flexibility Score: inf
ROOT
ATOM      1  C   UNL     1      66.664  56.199   9.802  1.00  0.00     0.000 C 
ENDROOT
BRANCH   1   2
ATOM      2  C   UNL     1      67.687  55.067   9.999  1.00  0.00     0.006 C 
BRANCH   2   3
ATOM      3  C   UNL     1      68.682  55.376  11.125  1.00  0.00     0.053 C 
BRANCH   3   4
ATOM      4  C   UNL     1      70.102  55.297  10.652  1.00  0.00     0.041 C 
ATOM      5  O   UNL     1      70.530  54.247  10.105  1.00  0.00    -0.550 OA
ATOM      6  O   UNL     1      70.942  56.395  10.786  1.00  0.00    -0.550 OA
ENDBRANCH   3   4
ENDBRANCH   2   3
ENDBRANCH   1   2
BRANCH   1   7
ATOM      7  C   UNL     1      65.994  56.626  11.118  1.00  0.00     0.000 C 
BRANCH   7   8
ATOM      8  C   UNL     1      65.405  58.044  11.051  1.00  0.00    -0.000 C 
BRANCH   8   9
ATOM      9  C   UNL     1      64.331  58.141   9.961  1.00  0.00    -0.000 C 
BRANCH   9  10
ATOM     10  C   UNL     1      63.040  57.435  10.393  1.00  0.00    -0.003 C 
ATOM     11  C   UNL     1      61.894  58.429  10.551  1.00  0.00     0.004 C 
ENDBRANCH   9  10
ENDBRANCH   8   9
ENDBRANCH   7   8
ENDBRANCH   1   7
TORSDOF 7
ENDMDL
MODEL 3
REMARK VINA RESULT:    -1.425      3.908      6.099
REMARK INTER + INTRA:          -2.286
REMARK INTER:                  -2.030
REMARK INTRA:                  -0.256
REMARK UNBOUND:                -0.278
REMARK SMILES CCCCCCCCC(=O)[O-]
REMARK SMILES IDX 6 1 7 2 8 3 9 4 10 5 11 6 5 7 4 8 3 9 2 10 1 11
REMARK H PARENT
REMARK Flexibility Score: inf
ROOT
ATOM      1  C   UNL     1      66.713  53.909  10.181  1.00  0.00     0.000 C 
ENDROOT
BRANCH   1   2
ATOM      2  C   UNL     1      66.415  52.713  11.102  1.00  0.00     0.006 C 
BRANCH   2   3
ATOM      3  C   UNL     1      65.203  51.902  10.624  1.00  0.00     0.053 C 
BRANCH   3   4
ATOM      4  C   UNL     1      65.340  50.447  10.951  1.00  0.00     0.041 C 
ATOM      5  O   UNL     1      64.315  49.731  11.098  1.00  0.00    -0.550 OA
ATOM      6  O   UNL     1      66.601  49.874  11.063  1.00  0.00    -0.550 OA
ENDBRANCH   3   4
ENDBRANCH   2   3
ENDBRANCH   1   2
BRANCH   1   7
ATOM      7  C   UNL     1      67.032  55.193  10.963  1.00  0.00     0.000 C 
BRANCH   7   8
ATOM      8  C   UNL     1      65.820  56.130  11.083  1.00  0.00    -0.000 C 
BRANCH   8   9
ATOM      9  C   UNL     1      65.943  57.313  10.116  1.00  0.00    -0.000 C 
BRANCH   9  10
ATOM     10  C   UNL     1      64.581  57.979   9.883  1.00  0.00    -0.003 C 
ATOM     11  C   UNL     1      63.601  57.634  11.000  1.00  0.00     0.004 C 
ENDBRANCH   9  10
ENDBRANCH   8   9
ENDBRANCH   7   8
ENDBRANCH   1   7
TORSDOF 7
ENDMDL
MODEL 4
REMARK VINA RESULT:    -1.256      1.491      2.172
REMARK INTER + INTRA:          -2.048
REMARK INTER:                  -1.770
REMARK INTRA:                  -0.278
REMARK UNBOUND:                -0.278
REMARK SMILES CCCCCCCCC(=O)[O-]
REMARK SMILES IDX 6 1 7 2 8 3 9 4 10 5 11 6 5 7 4 8 3 9 2 10 1 11
REMARK H PARENT
REMARK Flexibility Score: inf
ROOT
ATOM      1  C   UNL     1      66.816  55.441  10.262  1.00  0.00     0.000 C 
ENDROOT
BRANCH   1   2
ATOM      2  C   UNL     1      65.483  55.968  10.823  1.00  0.00     0.006 C 
BRANCH   2   3
ATOM      3  C   UNL     1      65.383  57.496  10.737  1.00  0.00     0.053 C 
BRANCH   3   4
ATOM      4  C   UNL     1      64.447  57.934   9.652  1.00  0.00     0.041 C 
ATOM      5  O   UNL     1      63.284  58.325   9.938  1.00  0.00    -0.550 OA
ATOM      6  O   UNL     1      64.868  57.938   8.329  1.00  0.00    -0.550 OA
ENDBRANCH   3   4
ENDBRANCH   2   3
ENDBRANCH   1   2
BRANCH   1   7
ATOM      7  C   UNL     1      67.408  54.306  11.111  1.00  0.00     0.000 C 
BRANCH   7   8
ATOM      8  C   UNL     1      68.918  54.125  10.890  1.00  0.00    -0.000 C 
BRANCH   8   9
ATOM      9  C   UNL     1      69.669  55.441  11.125  1.00  0.00    -0.000 C 
BRANCH   9  10
ATOM     10  C   UNL     1      70.854  55.579  10.162  1.00  0.00    -0.003 C 
ATOM     11  C   UNL     1      72.146  55.876  10.918  1.00  0.00     0.004 C 
ENDBRANCH   9  10
ENDBRANCH   8   9
ENDBRANCH   7   8
ENDBRANCH   1   7
TORSDOF 7
ENDMDL
MODEL 5
REMARK VINA RESULT:    -1.137      4.333      6.708
REMARK INTER + INTRA:          -1.881
REMARK INTER:                  -1.606
REMARK INTRA:                  -0.274
REMARK UNBOUND:                -0.278
REMARK SMILES CCCCCCCCC(=O)[O-]
REMARK SMILES IDX 6 1 7 2 8 3 9 4 10 5 11 6 5 7 4 8 3 9 2 10 1 11
REMARK H PARENT
REMARK Flexibility Score: inf
ROOT
ATOM      1  C   UNL     1      67.469  55.899  10.604  1.00  0.00     0.000 C 
ENDROOT
BRANCH   1   2
ATOM      2  C   UNL     1      68.723  55.135  11.065  1.00  0.00     0.006 C 
BRANCH   2   3
ATOM      3  C   UNL     1      70.010  55.935  10.823  1.00  0.00     0.053 C 
BRANCH   3   4
ATOM      4  C   UNL     1      71.193  55.040  10.616  1.00  0.00     0.041 C 
ATOM      5  O   UNL     1      72.312  55.346  11.107  1.00  0.00    -0.550 OA
ATOM      6  O   UNL     1      71.054  53.853   9.909  1.00  0.00    -0.550 OA
ENDBRANCH   3   4
ENDBRANCH   2   3
ENDBRANCH   1   2
BRANCH   1   7
ATOM      7  C   UNL     1      66.168  55.142  10.914  1.00  0.00     0.000 C 
BRANCH   7   8
ATOM      8  C   UNL     1      64.917  56.014  10.731  1.00  0.00    -0.000 C 
BRANCH   8   9
ATOM      9  C   UNL     1      65.164  57.120   9.698  1.00  0.00    -0.000 C 
BRANCH   9  10
ATOM     10  C   UNL     1      64.016  58.136   9.692  1.00  0.00    -0.003 C 
ATOM     11  C   UNL     1      63.267  58.130  11.022  1.00  0.00     0.004 C 
ENDBRANCH   9  10
ENDBRANCH   8   9
ENDBRANCH   7   8
ENDBRANCH   1   7
TORSDOF 7
ENDMDL
