MODEL 1
REMARK VINA RESULT:    -4.245      0.000      0.000
REMARK INTER + INTRA:          -4.967
REMARK INTER:                  -4.865
REMARK INTRA:                  -0.102
REMARK UNBOUND:                -0.102
REMARK SMILES COc1ccc(C(C)=O)cc1O
REMARK SMILES IDX 6 1 10 2 11 3 3 4 4 5 5 6 7 7 8 8 9 9 12 10 2 12 1 13
REMARK H PARENT 12 11
REMARK Flexibility Score: inf
ROOT
ATOM      1  C   UNL     1      26.339  37.689  19.462  1.00  0.00     0.021 A 
ATOM      2  C   UNL     1      25.624  38.248  20.537  1.00  0.00     0.062 A 
ATOM      3  C   UNL     1      25.716  39.614  20.829  1.00  0.00     0.158 A 
ATOM      4  C   UNL     1      26.529  40.451  20.046  1.00  0.00     0.160 A 
ATOM      5  C   UNL     1      27.245  39.896  18.970  1.00  0.00     0.051 A 
ATOM      6  C   UNL     1      27.151  38.532  18.682  1.00  0.00     0.016 A 
ENDROOT
BRANCH   1   7
ATOM      7  C   UNL     1      26.228  36.234  19.170  1.00  0.00     0.159 C 
ATOM      8  C   UNL     1      27.376  35.293  19.381  1.00  0.00     0.093 C 
ATOM      9  O   UNL     1      25.143  35.765  18.731  1.00  0.00    -0.295 OA
ENDBRANCH   1   7
BRANCH   3  10
ATOM     10  O   UNL     1      24.988  40.121  21.906  1.00  0.00    -0.504 OA
ATOM     11  H   UNL     1      24.242  39.597  22.347  1.00  0.00     0.293 HD
ENDBRANCH   3  10
BRANCH   4  12
ATOM     12  O   UNL     1      26.600  41.817  20.362  1.00  0.00    -0.493 OA
ATOM     13  C   UNL     1      26.966  42.840  19.441  1.00  0.00     0.278 C 
ENDBRANCH   4  12
TORSDOF 3
ENDMDL
MODEL 2
REMARK VINA RESULT:    -4.167      1.088      2.077
REMARK INTER + INTRA:          -4.878
REMARK INTER:                  -4.785
REMARK INTRA:                  -0.093
REMARK UNBOUND:                -0.102
REMARK SMILES COc1ccc(C(C)=O)cc1O
REMARK SMILES IDX 6 1 10 2 11 3 3 4 4 5 5 6 7 7 8 8 9 9 12 10 2 12 1 13
REMARK H PARENT 12 11
REMARK Flexibility Score: inf
ROOT
ATOM      1  C   UNL     1      26.231  37.567  19.539  1.00  0.00     0.021 A 
ATOM      2  C   UNL     1      26.887  38.480  18.692  1.00  0.00     0.062 A 
ATOM      3  C   UNL     1      26.996  39.832  19.038  1.00  0.00     0.158 A 
ATOM      4  C   UNL     1      26.449  40.299  20.244  1.00  0.00     0.160 A 
ATOM      5  C   UNL     1      25.793  39.390  21.095  1.00  0.00     0.051 A 
ATOM      6  C   UNL     1      25.686  38.042  20.746  1.00  0.00     0.016 A 
ENDROOT
BRANCH   1   7
ATOM      7  C   UNL     1      26.126  36.134  19.152  1.00  0.00     0.159 C 
ATOM      8  C   UNL     1      27.274  35.183  19.313  1.00  0.00     0.093 C 
ATOM      9  O   UNL     1      25.045  35.693  18.674  1.00  0.00    -0.295 OA
ENDBRANCH   1   7
BRANCH   3  10
ATOM     10  O   UNL     1      27.656  40.697  18.164  1.00  0.00    -0.504 OA
ATOM     11  H   UNL     1      27.378  40.803  17.197  1.00  0.00     0.293 HD
ENDBRANCH   3  10
BRANCH   4  12
ATOM     12  O   UNL     1      26.575  41.660  20.565  1.00  0.00    -0.493 OA
ATOM     13  C   UNL     1      26.222  42.229  21.822  1.00  0.00     0.278 C 
ENDBRANCH   4  12
TORSDOF 3
ENDMDL
MODEL 3
REMARK VINA RESULT:    -4.053      9.363     11.641
REMARK INTER + INTRA:          -4.747
REMARK INTER:                  -4.630
REMARK INTRA:                  -0.117
REMARK UNBOUND:                -0.102
REMARK SMILES COc1ccc(C(C)=O)cc1O
REMARK SMILES IDX 6 1 10 2 11 3 3 4 4 5 5 6 7 7 8 8 9 9 12 10 2 12 1 13
REMARK H PARENT 12 11
REMARK Flexibility Score: inf
ROOT
ATOM      1  C   UNL     1      27.848  27.628  25.615  1.00  0.00     0.021 A 
ATOM      2  C   UNL     1      26.616  28.302  25.519  1.00  0.00     0.062 A 
ATOM      3  C   UNL     1      26.556  29.633  25.092  1.00  0.00     0.158 A 
ATOM      4  C   UNL     1      27.732  30.320  24.750  1.00  0.00     0.160 A 
ATOM      5  C   UNL     1      28.967  29.651  24.843  1.00  0.00     0.051 A 
ATOM      6  C   UNL     1      29.023  28.322  25.271  1.00  0.00     0.016 A 
ENDROOT
BRANCH   1   7
ATOM      7  C   UNL     1      27.890  26.212  26.072  1.00  0.00     0.159 C 
ATOM      8  C   UNL     1      29.007  25.289  25.688  1.00  0.00     0.093 C 
ATOM      9  O   UNL     1      26.967  25.763  26.804  1.00  0.00    -0.295 OA
ENDBRANCH   1   7
BRANCH   3  10
ATOM     10  O   UNL     1      25.310  30.257  25.013  1.00  0.00    -0.504 OA
ATOM     11  H   UNL     1      24.780  30.509  25.838  1.00  0.00     0.293 HD
ENDBRANCH   3  10
BRANCH   4  12
ATOM     12  O   UNL     1      27.640  31.654  24.324  1.00  0.00    -0.493 OA
ATOM     13  C   UNL     1      28.659  32.632  24.508  1.00  0.00     0.278 C 
ENDBRANCH   4  12
TORSDOF 3
ENDMDL
MODEL 4
REMARK VINA RESULT:    -4.033      8.973     11.990
REMARK INTER + INTRA:          -4.724
REMARK INTER:                  -4.607
REMARK INTRA:                  -0.117
REMARK UNBOUND:                -0.102
REMARK SMILES COc1ccc(C(C)=O)cc1O
REMARK SMILES IDX 6 1 10 2 11 3 3 4 4 5 5 6 7 7 8 8 9 9 12 10 2 12 1 13
REMARK H PARENT 12 11
REMARK Flexibility Score: inf
ROOT
ATOM      1  C   UNL     1      28.057  30.096  24.378  1.00  0.00     0.021 A 
ATOM      2  C   UNL     1      26.881  29.977  25.141  1.00  0.00     0.062 A 
ATOM      3  C   UNL     1      26.574  28.787  25.809  1.00  0.00     0.158 A 
ATOM      4  C   UNL     1      27.443  27.686  25.728  1.00  0.00     0.160 A 
ATOM      5  C   UNL     1      28.622  27.800  24.967  1.00  0.00     0.051 A 
ATOM      6  C   UNL     1      28.923  28.990  24.300  1.00  0.00     0.016 A 
ENDROOT
BRANCH   1   7
ATOM      7  C   UNL     1      28.364  31.371  23.674  1.00  0.00     0.159 C 
ATOM      8  C   UNL     1      29.103  31.398  22.369  1.00  0.00     0.093 C 
ATOM      9  O   UNL     1      27.999  32.468  24.178  1.00  0.00    -0.295 OA
ENDBRANCH   1   7
BRANCH   3  10
ATOM     10  O   UNL     1      25.396  28.719  26.554  1.00  0.00    -0.504 OA
ATOM     11  H   UNL     1      25.319  28.159  27.393  1.00  0.00     0.293 HD
ENDBRANCH   3  10
BRANCH   4  12
ATOM     12  O   UNL     1      27.110  26.506  26.410  1.00  0.00    -0.493 OA
ATOM     13  C   UNL     1      27.296  25.193  25.890  1.00  0.00     0.278 C 
ENDBRANCH   4  12
TORSDOF 3
ENDMDL
MODEL 5
REMARK VINA RESULT:    -4.002      1.682      4.311
REMARK INTER + INTRA:          -4.689
REMARK INTER:                  -4.567
REMARK INTRA:                  -0.122
REMARK UNBOUND:                -0.102
REMARK SMILES COc1ccc(C(C)=O)cc1O
REMARK SMILES IDX 6 1 10 2 11 3 3 4 4 5 5 6 7 7 8 8 9 9 12 10 2 12 1 13
REMARK H PARENT 12 11
REMARK Flexibility Score: inf
ROOT
ATOM      1  C   UNL     1      27.345  40.525  19.035  1.00  0.00     0.021 A 
ATOM      2  C   UNL     1      26.557  40.848  20.155  1.00  0.00     0.062 A 
ATOM      3  C   UNL     1      25.893  39.851  20.879  1.00  0.00     0.158 A 
ATOM      4  C   UNL     1      26.005  38.504  20.493  1.00  0.00     0.160 A 
ATOM      5  C   UNL     1      26.792  38.176  19.373  1.00  0.00     0.051 A 
ATOM      6  C   UNL     1      27.452  39.176  18.654  1.00  0.00     0.016 A 
ENDROOT
BRANCH   1   7
ATOM      7  C   UNL     1      28.042  41.602  18.279  1.00  0.00     0.159 C 
ATOM      8  C   UNL     1      29.124  41.299  17.286  1.00  0.00     0.093 C 
ATOM      9  O   UNL     1      27.723  42.807  18.469  1.00  0.00    -0.295 OA
ENDBRANCH   1   7
BRANCH   3  10
ATOM     10  O   UNL     1      25.125  40.221  21.983  1.00  0.00    -0.504 OA
ATOM     11  H   UNL     1      24.129  40.392  21.915  1.00  0.00     0.293 HD
ENDBRANCH   3  10
BRANCH   4  12
ATOM     12  O   UNL     1      25.329  37.526  21.238  1.00  0.00    -0.493 OA
ATOM     13  C   UNL     1      23.996  37.094  20.982  1.00  0.00     0.278 C 
ENDBRANCH   4  12
TORSDOF 3
ENDMDL
MODEL 6
REMARK VINA RESULT:    -3.980      1.302      4.690
REMARK INTER + INTRA:          -4.663
REMARK INTER:                  -4.540
REMARK INTRA:                  -0.124
REMARK UNBOUND:                -0.102
REMARK SMILES COc1ccc(C(C)=O)cc1O
REMARK SMILES IDX 6 1 10 2 11 3 3 4 4 5 5 6 7 7 8 8 9 9 12 10 2 12 1 13
REMARK H PARENT 12 11
REMARK Flexibility Score: inf
ROOT
ATOM      1  C   UNL     1      26.257  40.253  20.471  1.00  0.00     0.021 A 
ATOM      2  C   UNL     1      25.535  39.346  21.268  1.00  0.00     0.062 A 
ATOM      3  C   UNL     1      25.376  38.012  20.876  1.00  0.00     0.158 A 
ATOM      4  C   UNL     1      25.941  37.557  19.672  1.00  0.00     0.160 A 
ATOM      5  C   UNL     1      26.665  38.460  18.872  1.00  0.00     0.051 A 
ATOM      6  C   UNL     1      26.820  39.791  19.267  1.00  0.00     0.016 A 
ENDROOT
BRANCH   1   7
ATOM      7  C   UNL     1      26.414  41.668  20.906  1.00  0.00     0.159 C 
ATOM      8  C   UNL     1      26.874  42.740  19.965  1.00  0.00     0.093 C 
ATOM      9  O   UNL     1      26.155  41.988  22.098  1.00  0.00    -0.295 OA
ENDBRANCH   1   7
BRANCH   3  10
ATOM     10  O   UNL     1      24.651  37.151  21.701  1.00  0.00    -0.504 OA
ATOM     11  H   UNL     1      23.863  36.614  21.361  1.00  0.00     0.293 HD
ENDBRANCH   3  10
BRANCH   4  12
ATOM     12  O   UNL     1      25.766  36.213  19.305  1.00  0.00    -0.493 OA
ATOM     13  C   UNL     1      24.676  35.724  18.529  1.00  0.00     0.278 C 
ENDBRANCH   4  12
TORSDOF 3
ENDMDL
MODEL 7
REMARK VINA RESULT:    -3.897      1.733      5.293
REMARK INTER + INTRA:          -4.568
REMARK INTER:                  -4.473
REMARK INTRA:                  -0.095
REMARK UNBOUND:                -0.102
REMARK SMILES COc1ccc(C(C)=O)cc1O
REMARK SMILES IDX 6 1 10 2 11 3 3 4 4 5 5 6 7 7 8 8 9 9 12 10 2 12 1 13
REMARK H PARENT 12 11
REMARK Flexibility Score: inf
ROOT
ATOM      1  C   UNL     1      26.605  41.443  20.525  1.00  0.00     0.021 A 
ATOM      2  C   UNL     1      27.274  41.220  19.308  1.00  0.00     0.062 A 
ATOM      3  C   UNL     1      27.353  39.937  18.754  1.00  0.00     0.158 A 
ATOM      4  C   UNL     1      26.759  38.846  19.410  1.00  0.00     0.160 A 
ATOM      5  C   UNL     1      26.087  39.064  20.628  1.00  0.00     0.051 A 
ATOM      6  C   UNL     1      26.012  40.346  21.177  1.00  0.00     0.016 A 
ENDROOT
BRANCH   1   7
ATOM      7  C   UNL     1      26.534  42.815  21.097  1.00  0.00     0.159 C 
ATOM      8  C   UNL     1      26.466  44.034  20.227  1.00  0.00     0.093 C 
ATOM      9  O   UNL     1      26.530  42.972  22.349  1.00  0.00    -0.295 OA
ENDBRANCH   1   7
BRANCH   3  10
ATOM     10  O   UNL     1      28.028  39.768  17.544  1.00  0.00    -0.504 OA
ATOM     11  H   UNL     1      27.580  39.373  16.727  1.00  0.00     0.293 HD
ENDBRANCH   3  10
BRANCH   4  12
ATOM     12  O   UNL     1      26.853  37.572  18.830  1.00  0.00    -0.493 OA
ATOM     13  C   UNL     1      25.940  36.505  19.073  1.00  0.00     0.278 C 
ENDBRANCH   4  12
TORSDOF 3
ENDMDL
MODEL 8
REMARK VINA RESULT:    -3.687      1.817      4.859
REMARK INTER + INTRA:          -4.327
REMARK INTER:                  -4.228
REMARK INTRA:                  -0.100
REMARK UNBOUND:                -0.102
REMARK SMILES COc1ccc(C(C)=O)cc1O
REMARK SMILES IDX 6 1 10 2 11 3 3 4 4 5 5 6 7 7 8 8 9 9 12 10 2 12 1 13
REMARK H PARENT 12 11
REMARK Flexibility Score: inf
ROOT
ATOM      1  C   UNL     1      27.186  41.007  19.606  1.00  0.00     0.021 A 
ATOM      2  C   UNL     1      27.200  39.792  18.896  1.00  0.00     0.062 A 
ATOM      3  C   UNL     1      26.518  38.669  19.378  1.00  0.00     0.158 A 
ATOM      4  C   UNL     1      25.804  38.741  20.585  1.00  0.00     0.160 A 
ATOM      5  C   UNL     1      25.785  39.953  21.299  1.00  0.00     0.051 A 
ATOM      6  C   UNL     1      26.468  41.072  20.814  1.00  0.00     0.016 A 
ENDROOT
BRANCH   1   7
ATOM      7  C   UNL     1      27.918  42.189  19.076  1.00  0.00     0.159 C 
ATOM      8  C   UNL     1      28.543  42.189  17.713  1.00  0.00     0.093 C 
ATOM      9  O   UNL     1      28.025  43.228  19.783  1.00  0.00    -0.295 OA
ENDBRANCH   1   7
BRANCH   3  10
ATOM     10  O   UNL     1      26.562  37.488  18.637  1.00  0.00    -0.504 OA
ATOM     11  H   UNL     1      25.724  37.029  18.301  1.00  0.00     0.293 HD
ENDBRANCH   3  10
BRANCH   4  12
ATOM     12  O   UNL     1      25.128  37.598  21.043  1.00  0.00    -0.493 OA
ATOM     13  C   UNL     1      23.844  37.613  21.660  1.00  0.00     0.278 C 
ENDBRANCH   4  12
TORSDOF 3
ENDMDL
