MODEL 1
REMARK VINA RESULT:    -4.316      0.000      0.000
REMARK INTER + INTRA:          -6.358
REMARK INTER:                  -6.586
REMARK INTRA:                   0.228
REMARK UNBOUND:                 0.228
REMARK SMILES CC1=CCC[C@H](C)C(=O)C[C@H](C(C)C)C(=O)C1
REMARK SMILES IDX 8 1 9 2 6 3 7 4 5 5 4 6 3 7 2 8 1 9 10 11 11 12 15 13 16 14
REMARK SMILES IDX 17 15 12 17 13 18 14 19
REMARK H PARENT
REMARK Flexibility Score: 70.00
ROOT
ATOM      1  C   UNL     1     -12.062 -18.026  31.795  1.00  0.00     0.136 C 
ATOM      2  O   UNL     1     -11.094 -17.521  32.345  1.00  0.00    -0.299 OA
ENDROOT
BRANCH   1   3
ATOM      3  C   UNL     1     -11.877 -19.332  31.047  1.00  0.00     0.053 C 
ATOM      4  C   UNL     1     -12.473 -20.504  31.836  1.00  0.00     0.016 C 
BRANCH   3   5
ATOM      5  C   UNL     1     -12.470 -19.262  29.627  1.00  0.00     0.015 C 
BRANCH   5   6
ATOM      6  C   UNL     1     -11.665 -18.322  28.712  1.00  0.00     0.028 C 
BRANCH   6   7
ATOM      7  C   UNL     1     -12.587 -17.472  27.876  1.00  0.00    -0.028 C 
ATOM      8  C   UNL     1     -12.968 -16.213  28.192  1.00  0.00    -0.070 CG0
ATOM      9  C   UNL     1     -13.947 -15.519  27.280  1.00  0.00     0.039 C 
ATOM     10  G   UNL     1     -12.441 -15.471  29.412  1.00  0.00     0.000 G0
ENDBRANCH   6   7
ENDBRANCH   5   6
ENDBRANCH   3   5
ENDBRANCH   1   3
BRANCH   1  11
ATOM     11  C   UNL     1     -13.404 -17.337  31.913  1.00  0.00     0.087 C 
BRANCH  11  12
ATOM     12  C   UNL     1     -13.276 -15.789  31.874  1.00  0.00     0.066 C 
BRANCH  12  13
ATOM     13  C   UNL     1     -13.473 -15.255  30.463  1.00  0.00     0.140 C 
ATOM     14  O   UNL     1     -14.461 -14.585  30.198  1.00  0.00    -0.299 OA
BRANCH  13  15
ATOM     15  C   UNL     1     -12.427 -15.468  29.396  1.00  0.00     0.106 CG0
ATOM     16  G   UNL     1     -12.976 -16.223  28.194  1.00  0.00     0.000 G0
ENDBRANCH  13  15
ENDBRANCH  12  13
BRANCH  12  17
ATOM     17  C   UNL     1     -14.232 -15.061  32.874  1.00  0.00    -0.006 C 
ATOM     18  C   UNL     1     -13.513 -14.706  34.186  1.00  0.00     0.008 C 
ATOM     19  C   UNL     1     -15.529 -15.834  33.179  1.00  0.00     0.008 C 
ENDBRANCH  12  17
ENDBRANCH  11  12
ENDBRANCH   1  11
TORSDOF 1
ENDMDL
MODEL 2
REMARK VINA RESULT:    -4.290      1.861      3.748
REMARK INTER + INTRA:          -6.319
REMARK INTER:                  -6.888
REMARK INTRA:                   0.569
REMARK UNBOUND:                 0.228
REMARK SMILES CC1=CCC[C@H](C)C(=O)C[C@H](C(C)C)C(=O)C1
REMARK SMILES IDX 8 1 9 2 6 3 7 4 5 5 4 6 3 7 2 8 1 9 10 11 11 12 15 13 16 14
REMARK SMILES IDX 17 15 12 17 13 18 14 19
REMARK H PARENT
REMARK Flexibility Score: 70.00
ROOT
ATOM      1  C   UNL     1     -12.735 -16.002  28.447  1.00  0.00     0.136 C 
ATOM      2  O   UNL     1     -13.710 -15.866  27.722  1.00  0.00    -0.299 OA
ENDROOT
BRANCH   1   3
ATOM      3  C   UNL     1     -11.646 -16.974  28.031  1.00  0.00     0.053 C 
ATOM      4  C   UNL     1     -11.433 -16.939  26.513  1.00  0.00     0.016 C 
BRANCH   3   5
ATOM      5  C   UNL     1     -10.328 -16.705  28.782  1.00  0.00     0.015 C 
BRANCH   5   6
ATOM      6  C   UNL     1      -9.986 -17.835  29.768  1.00  0.00     0.028 C 
BRANCH   6   7
ATOM      7  C   UNL     1     -11.129 -18.810  29.881  1.00  0.00    -0.028 C 
ATOM      8  C   UNL     1     -11.959 -18.900  30.947  1.00  0.00    -0.070 CG0
ATOM      9  C   UNL     1     -13.018 -19.973  30.931  1.00  0.00     0.039 C 
ATOM     10  G   UNL     1     -11.876 -17.961  32.141  1.00  0.00     0.000 G0
ENDBRANCH   6   7
ENDBRANCH   5   6
ENDBRANCH   3   5
ENDBRANCH   1   3
BRANCH   1  11
ATOM     11  C   UNL     1     -12.648 -15.173  29.710  1.00  0.00     0.087 C 
BRANCH  11  12
ATOM     12  C   UNL     1     -13.136 -15.955  30.961  1.00  0.00     0.066 C 
BRANCH  12  13
ATOM     13  C   UNL     1     -11.964 -16.512  31.755  1.00  0.00     0.140 C 
ATOM     14  O   UNL     1     -11.080 -15.762  32.145  1.00  0.00    -0.299 OA
BRANCH  13  15
ATOM     15  C   UNL     1     -11.909 -17.970  32.143  1.00  0.00     0.106 CG0
ATOM     16  G   UNL     1     -11.971 -18.891  30.934  1.00  0.00     0.000 G0
ENDBRANCH  13  15
ENDBRANCH  12  13
BRANCH  12  17
ATOM     17  C   UNL     1     -14.077 -15.119  31.887  1.00  0.00    -0.006 C 
ATOM     18  C   UNL     1     -14.779 -16.007  32.928  1.00  0.00     0.008 C 
ATOM     19  C   UNL     1     -15.119 -14.277  31.129  1.00  0.00     0.008 C 
ENDBRANCH  12  17
ENDBRANCH  11  12
ENDBRANCH   1  11
TORSDOF 1
ENDMDL
MODEL 3
REMARK VINA RESULT:    -4.241      1.997      3.982
REMARK INTER + INTRA:          -6.244
REMARK INTER:                  -6.313
REMARK INTRA:                   0.069
REMARK UNBOUND:                 0.228
REMARK SMILES CC1=CCC[C@H](C)C(=O)C[C@H](C(C)C)C(=O)C1
REMARK SMILES IDX 8 1 9 2 6 3 7 4 5 5 4 6 3 7 2 8 1 9 10 11 11 12 15 13 16 14
REMARK SMILES IDX 17 15 12 17 13 18 14 19
REMARK H PARENT
REMARK Flexibility Score: 70.00
ROOT
ATOM      1  C   UNL     1     -11.850 -15.831  29.367  1.00  0.00     0.136 C 
ATOM      2  O   UNL     1     -10.920 -15.312  28.768  1.00  0.00    -0.299 OA
ENDROOT
BRANCH   1   3
ATOM      3  C   UNL     1     -12.917 -16.558  28.570  1.00  0.00     0.053 C 
ATOM      4  C   UNL     1     -13.215 -15.823  27.258  1.00  0.00     0.016 C 
BRANCH   3   5
ATOM      5  C   UNL     1     -12.530 -18.026  28.308  1.00  0.00     0.015 C 
BRANCH   5   6
ATOM      6  C   UNL     1     -13.676 -18.994  28.650  1.00  0.00     0.028 C 
BRANCH   6   7
ATOM      7  C   UNL     1     -13.164 -20.169  29.443  1.00  0.00    -0.028 C 
ATOM      8  C   UNL     1     -13.102 -20.214  30.795  1.00  0.00    -0.070 CG0
ATOM      9  C   UNL     1     -12.504 -21.441  31.435  1.00  0.00     0.039 C 
ATOM     10  G   UNL     1     -13.619 -19.093  31.685  1.00  0.00     0.000 G0
ENDBRANCH   6   7
ENDBRANCH   5   6
ENDBRANCH   3   5
ENDBRANCH   1   3
BRANCH   1  11
ATOM     11  C   UNL     1     -11.876 -15.749  30.878  1.00  0.00     0.087 C 
BRANCH  11  12
ATOM     12  C   UNL     1     -13.067 -16.538  31.489  1.00  0.00     0.066 C 
BRANCH  12  13
ATOM     13  C   UNL     1     -12.657 -17.956  31.858  1.00  0.00     0.140 C 
ATOM     14  O   UNL     1     -11.553 -18.166  32.342  1.00  0.00    -0.299 OA
BRANCH  13  15
ATOM     15  C   UNL     1     -13.621 -19.109  31.713  1.00  0.00     0.106 CG0
ATOM     16  G   UNL     1     -13.090 -20.191  30.786  1.00  0.00     0.000 G0
ENDBRANCH  13  15
ENDBRANCH  12  13
BRANCH  12  17
ATOM     17  C   UNL     1     -13.724 -15.822  32.713  1.00  0.00    -0.006 C 
ATOM     18  C   UNL     1     -14.772 -14.789  32.267  1.00  0.00     0.008 C 
ATOM     19  C   UNL     1     -12.716 -15.165  33.673  1.00  0.00     0.008 C 
ENDBRANCH  12  17
ENDBRANCH  11  12
ENDBRANCH   1  11
TORSDOF 1
ENDMDL
MODEL 4
REMARK VINA RESULT:    -4.015      1.484      4.101
REMARK INTER + INTRA:          -5.899
REMARK INTER:                  -6.096
REMARK INTRA:                   0.197
REMARK UNBOUND:                 0.228
REMARK SMILES CC1=CCC[C@H](C)C(=O)C[C@H](C(C)C)C(=O)C1
REMARK SMILES IDX 8 1 9 2 6 3 7 4 5 5 4 6 3 7 2 8 1 9 10 11 11 12 15 13 16 14
REMARK SMILES IDX 17 15 12 17 13 18 14 19
REMARK H PARENT
REMARK Flexibility Score: 70.00
ROOT
ATOM      1  C   UNL     1     -11.573 -18.623  29.762  1.00  0.00     0.136 C 
ATOM      2  O   UNL     1     -10.644 -19.204  30.304  1.00  0.00    -0.299 OA
ENDROOT
BRANCH   1   3
ATOM      3  C   UNL     1     -12.983 -19.141  29.977  1.00  0.00     0.053 C 
ATOM      4  C   UNL     1     -13.192 -20.475  29.250  1.00  0.00     0.016 C 
BRANCH   3   5
ATOM      5  C   UNL     1     -13.320 -19.268  31.475  1.00  0.00     0.015 C 
BRANCH   5   6
ATOM      6  C   UNL     1     -12.761 -18.089  32.292  1.00  0.00     0.028 C 
BRANCH   6   7
ATOM      7  C   UNL     1     -13.767 -16.970  32.373  1.00  0.00    -0.028 C 
ATOM      8  C   UNL     1     -13.651 -15.786  31.727  1.00  0.00    -0.070 CG0
ATOM      9  C   UNL     1     -14.715 -14.745  31.963  1.00  0.00     0.039 C 
ATOM     10  G   UNL     1     -12.510 -15.473  30.771  1.00  0.00     0.000 G0
ENDBRANCH   6   7
ENDBRANCH   5   6
ENDBRANCH   3   5
ENDBRANCH   1   3
BRANCH   1  11
ATOM     11  C   UNL     1     -11.274 -17.398  28.926  1.00  0.00     0.087 C 
BRANCH  11  12
ATOM     12  C   UNL     1     -12.568 -16.695  28.430  1.00  0.00     0.066 C 
BRANCH  12  13
ATOM     13  C   UNL     1     -12.922 -15.507  29.313  1.00  0.00     0.140 C 
ATOM     14  O   UNL     1     -13.614 -14.602  28.867  1.00  0.00    -0.299 OA
BRANCH  13  15
ATOM     15  C   UNL     1     -12.502 -15.459  30.762  1.00  0.00     0.106 CG0
ATOM     16  G   UNL     1     -13.649 -15.788  31.705  1.00  0.00     0.000 G0
ENDBRANCH  13  15
ENDBRANCH  12  13
BRANCH  12  17
ATOM     17  C   UNL     1     -12.505 -16.262  26.930  1.00  0.00    -0.006 C 
ATOM     18  C   UNL     1     -13.872 -16.413  26.241  1.00  0.00     0.008 C 
ATOM     19  C   UNL     1     -11.423 -16.990  26.111  1.00  0.00     0.008 C 
ENDBRANCH  12  17
ENDBRANCH  11  12
ENDBRANCH   1  11
TORSDOF 1
ENDMDL
MODEL 5
REMARK VINA RESULT:    -3.922      2.203      4.721
REMARK INTER + INTRA:          -5.758
REMARK INTER:                  -7.026
REMARK INTRA:                   1.268
REMARK UNBOUND:                 0.228
REMARK SMILES CC1=CCC[C@H](C)C(=O)C[C@H](C(C)C)C(=O)C1
REMARK SMILES IDX 8 1 9 2 6 3 7 4 5 5 4 6 3 7 2 8 1 9 10 11 11 12 15 13 16 14
REMARK SMILES IDX 17 15 12 17 13 18 14 19
REMARK H PARENT
REMARK Flexibility Score: 70.00
ROOT
ATOM      1  C   UNL     1     -12.714 -16.866  27.718  1.00  0.00     0.136 C 
ATOM      2  O   UNL     1     -13.289 -16.112  26.948  1.00  0.00    -0.299 OA
ENDROOT
BRANCH   1   3
ATOM      3  C   UNL     1     -11.366 -17.434  27.314  1.00  0.00     0.053 C 
ATOM      4  C   UNL     1     -11.054 -17.111  25.848  1.00  0.00     0.016 C 
BRANCH   3   5
ATOM      5  C   UNL     1     -10.240 -16.940  28.243  1.00  0.00     0.015 C 
BRANCH   5   6
ATOM      6  C   UNL     1     -10.589 -15.596  28.906  1.00  0.00     0.028 C 
BRANCH   6   7
ATOM      7  C   UNL     1      -9.975 -15.502  30.279  1.00  0.00    -0.028 C 
ATOM      8  C   UNL     1     -10.622 -15.798  31.431  1.00  0.00    -0.070 CG0
ATOM      9  C   UNL     1      -9.884 -15.592  32.729  1.00  0.00     0.039 C 
ATOM     10  G   UNL     1     -12.043 -16.338  31.466  1.00  0.00     0.000 G0
ENDBRANCH   6   7
ENDBRANCH   5   6
ENDBRANCH   3   5
ENDBRANCH   1   3
BRANCH   1  11
ATOM     11  C   UNL     1     -13.361 -17.174  29.051  1.00  0.00     0.087 C 
BRANCH  11  12
ATOM     12  C   UNL     1     -12.611 -18.293  29.825  1.00  0.00     0.066 C 
BRANCH  12  13
ATOM     13  C   UNL     1     -12.155 -17.808  31.193  1.00  0.00     0.140 C 
ATOM     14  O   UNL     1     -11.797 -18.616  32.038  1.00  0.00    -0.299 OA
BRANCH  13  15
ATOM     15  C   UNL     1     -12.059 -16.334  31.505  1.00  0.00     0.106 CG0
ATOM     16  G   UNL     1     -10.629 -15.821  31.428  1.00  0.00     0.000 G0
ENDBRANCH  13  15
ENDBRANCH  12  13
BRANCH  12  17
ATOM     17  C   UNL     1     -13.433 -19.615  29.959  1.00  0.00    -0.006 C 
ATOM     18  C   UNL     1     -12.618 -20.720  30.652  1.00  0.00     0.008 C 
ATOM     19  C   UNL     1     -14.000 -20.140  28.627  1.00  0.00     0.008 C 
ENDBRANCH  12  17
ENDBRANCH  11  12
ENDBRANCH   1  11
TORSDOF 1
ENDMDL
MODEL 6
REMARK VINA RESULT:    -3.880      1.480      1.783
REMARK INTER + INTRA:          -5.693
REMARK INTER:                  -6.023
REMARK INTRA:                   0.330
REMARK UNBOUND:                 0.228
REMARK SMILES CC1=CCC[C@H](C)C(=O)C[C@H](C(C)C)C(=O)C1
REMARK SMILES IDX 8 1 9 2 6 3 7 4 5 5 4 6 3 7 2 8 1 9 10 11 11 12 15 13 16 14
REMARK SMILES IDX 17 15 12 17 13 18 14 19
REMARK H PARENT
REMARK Flexibility Score: 70.00
ROOT
ATOM      1  C   UNL     1     -10.871 -16.220  32.451  1.00  0.00     0.136 C 
ATOM      2  O   UNL     1     -10.444 -15.438  33.288  1.00  0.00    -0.299 OA
ENDROOT
BRANCH   1   3
ATOM      3  C   UNL     1      -9.886 -16.904  31.521  1.00  0.00     0.053 C 
ATOM      4  C   UNL     1     -10.175 -18.407  31.429  1.00  0.00     0.016 C 
BRANCH   3   5
ATOM      5  C   UNL     1      -9.879 -16.254  30.124  1.00  0.00     0.015 C 
BRANCH   5   6
ATOM      6  C   UNL     1     -10.344 -17.233  29.031  1.00  0.00     0.028 C 
BRANCH   6   7
ATOM      7  C   UNL     1     -11.316 -16.564  28.093  1.00  0.00    -0.028 C 
ATOM      8  C   UNL     1     -12.629 -16.368  28.359  1.00  0.00    -0.070 CG0
ATOM      9  C   UNL     1     -13.482 -15.739  27.288  1.00  0.00     0.039 C 
ATOM     10  G   UNL     1     -13.267 -16.741  29.689  1.00  0.00     0.000 G0
ENDBRANCH   6   7
ENDBRANCH   5   6
ENDBRANCH   3   5
ENDBRANCH   1   3
BRANCH   1  11
ATOM     11  C   UNL     1     -12.359 -16.489  32.402  1.00  0.00     0.087 C 
BRANCH  11  12
ATOM     12  C   UNL     1     -13.162 -15.264  31.886  1.00  0.00     0.066 C 
BRANCH  12  13
ATOM     13  C   UNL     1     -13.677 -15.496  30.473  1.00  0.00     0.140 C 
ATOM     14  O   UNL     1     -14.375 -14.650  29.932  1.00  0.00    -0.299 OA
BRANCH  13  15
ATOM     15  C   UNL     1     -13.275 -16.722  29.689  1.00  0.00     0.106 CG0
ATOM     16  G   UNL     1     -12.611 -16.367  28.366  1.00  0.00     0.000 G0
ENDBRANCH  13  15
ENDBRANCH  12  13
BRANCH  12  17
ATOM     17  C   UNL     1     -14.333 -14.844  32.833  1.00  0.00    -0.006 C 
ATOM     18  C   UNL     1     -13.810 -14.340  34.188  1.00  0.00     0.008 C 
ATOM     19  C   UNL     1     -15.388 -15.943  33.054  1.00  0.00     0.008 C 
ENDBRANCH  12  17
ENDBRANCH  11  12
ENDBRANCH   1  11
TORSDOF 1
ENDMDL
MODEL 7
REMARK VINA RESULT:    -3.784      2.005      4.044
REMARK INTER + INTRA:          -5.547
REMARK INTER:                  -6.843
REMARK INTRA:                   1.296
REMARK UNBOUND:                 0.228
REMARK SMILES CC1=CCC[C@H](C)C(=O)C[C@H](C(C)C)C(=O)C1
REMARK SMILES IDX 8 1 9 2 6 3 7 4 5 5 4 6 3 7 2 8 1 9 10 11 11 12 15 13 16 14
REMARK SMILES IDX 17 15 12 17 13 18 14 19
REMARK H PARENT
REMARK Flexibility Score: 70.00
ROOT
ATOM      1  C   UNL     1     -11.555 -16.093  30.991  1.00  0.00     0.136 C 
ATOM      2  O   UNL     1     -10.449 -15.699  30.654  1.00  0.00    -0.299 OA
ENDROOT
BRANCH   1   3
ATOM      3  C   UNL     1     -11.738 -16.648  32.391  1.00  0.00     0.053 C 
ATOM      4  C   UNL     1     -11.960 -15.517  33.403  1.00  0.00     0.016 C 
BRANCH   3   5
ATOM      5  C   UNL     1     -12.883 -17.677  32.450  1.00  0.00     0.015 C 
BRANCH   5   6
ATOM      6  C   UNL     1     -12.445 -19.057  31.928  1.00  0.00     0.028 C 
BRANCH   6   7
ATOM      7  C   UNL     1     -13.269 -19.462  30.733  1.00  0.00    -0.028 C 
ATOM      8  C   UNL     1     -12.941 -19.194  29.448  1.00  0.00    -0.070 CG0
ATOM      9  C   UNL     1     -13.907 -19.614  28.369  1.00  0.00     0.039 C 
ATOM     10  G   UNL     1     -11.644 -18.504  29.051  1.00  0.00     0.000 G0
ENDBRANCH   6   7
ENDBRANCH   5   6
ENDBRANCH   3   5
ENDBRANCH   1   3
BRANCH   1  11
ATOM     11  C   UNL     1     -12.697 -15.982  30.004  1.00  0.00     0.087 C 
BRANCH  11  12
ATOM     12  C   UNL     1     -12.202 -15.976  28.531  1.00  0.00     0.066 C 
BRANCH  12  13
ATOM     13  C   UNL     1     -11.823 -17.375  28.071  1.00  0.00     0.140 C 
ATOM     14  O   UNL     1     -11.600 -17.588  26.887  1.00  0.00    -0.299 OA
BRANCH  13  15
ATOM     15  C   UNL     1     -11.637 -18.499  29.062  1.00  0.00     0.106 CG0
ATOM     16  G   UNL     1     -12.955 -19.163  29.433  1.00  0.00     0.000 G0
ENDBRANCH  13  15
ENDBRANCH  12  13
BRANCH  12  17
ATOM     17  C   UNL     1     -13.220 -15.329  27.537  1.00  0.00    -0.006 C 
ATOM     18  C   UNL     1     -14.214 -14.408  28.264  1.00  0.00     0.008 C 
ATOM     19  C   UNL     1     -13.985 -16.346  26.671  1.00  0.00     0.008 C 
ENDBRANCH  12  17
ENDBRANCH  11  12
ENDBRANCH   1  11
TORSDOF 1
ENDMDL
MODEL 8
REMARK VINA RESULT:    -3.734      2.090      3.592
REMARK INTER + INTRA:          -5.470
REMARK INTER:                  -6.404
REMARK INTRA:                   0.934
REMARK UNBOUND:                 0.228
REMARK SMILES CC1=CCC[C@H](C)C(=O)C[C@H](C(C)C)C(=O)C1
REMARK SMILES IDX 8 1 9 2 6 3 7 4 5 5 4 6 3 7 2 8 1 9 10 11 11 12 15 13 16 14
REMARK SMILES IDX 17 15 12 17 13 18 14 19
REMARK H PARENT
REMARK Flexibility Score: 70.00
ROOT
ATOM      1  C   UNL     1     -13.216 -16.914  29.462  1.00  0.00     0.136 C 
ATOM      2  O   UNL     1     -13.374 -18.037  29.919  1.00  0.00    -0.299 OA
ENDROOT
BRANCH   1   3
ATOM      3  C   UNL     1     -12.985 -16.760  27.970  1.00  0.00     0.053 C 
ATOM      4  C   UNL     1     -13.342 -15.343  27.505  1.00  0.00     0.016 C 
BRANCH   3   5
ATOM      5  C   UNL     1     -11.540 -17.123  27.578  1.00  0.00     0.015 C 
BRANCH   5   6
ATOM      6  C   UNL     1     -10.513 -16.563  28.578  1.00  0.00     0.028 C 
BRANCH   6   7
ATOM      7  C   UNL     1     -10.242 -17.557  29.678  1.00  0.00    -0.028 C 
ATOM      8  C   UNL     1     -10.227 -17.257  30.998  1.00  0.00    -0.070 CG0
ATOM      9  C   UNL     1      -9.877 -18.354  31.970  1.00  0.00     0.039 C 
ATOM     10  G   UNL     1     -10.560 -15.872  31.535  1.00  0.00     0.000 G0
ENDBRANCH   6   7
ENDBRANCH   5   6
ENDBRANCH   3   5
ENDBRANCH   1   3
BRANCH   1  11
ATOM     11  C   UNL     1     -13.287 -15.731  30.402  1.00  0.00     0.087 C 
BRANCH  11  12
ATOM     12  C   UNL     1     -13.177 -16.156  31.892  1.00  0.00     0.066 C 
BRANCH  12  13
ATOM     13  C   UNL     1     -11.786 -15.881  32.443  1.00  0.00     0.140 C 
ATOM     14  O   UNL     1     -11.627 -15.725  33.646  1.00  0.00    -0.299 OA
BRANCH  13  15
ATOM     15  C   UNL     1     -10.577 -15.874  31.540  1.00  0.00     0.106 CG0
ATOM     16  G   UNL     1     -10.241 -17.263  31.017  1.00  0.00     0.000 G0
ENDBRANCH  13  15
ENDBRANCH  12  13
BRANCH  12  17
ATOM     17  C   UNL     1     -14.267 -15.507  32.806  1.00  0.00    -0.006 C 
ATOM     18  C   UNL     1     -15.159 -16.573  33.465  1.00  0.00     0.008 C 
ATOM     19  C   UNL     1     -15.141 -14.460  32.093  1.00  0.00     0.008 C 
ENDBRANCH  12  17
ENDBRANCH  11  12
ENDBRANCH   1  11
TORSDOF 1
ENDMDL
MODEL 9
REMARK VINA RESULT:    -3.544      1.973      4.554
REMARK INTER + INTRA:          -5.181
REMARK INTER:                  -6.070
REMARK INTRA:                   0.889
REMARK UNBOUND:                 0.228
REMARK SMILES CC1=CCC[C@H](C)C(=O)C[C@H](C(C)C)C(=O)C1
REMARK SMILES IDX 8 1 9 2 6 3 7 4 5 5 4 6 3 7 2 8 1 9 10 11 11 12 15 13 16 14
REMARK SMILES IDX 17 15 12 17 13 18 14 19
REMARK H PARENT
REMARK Flexibility Score: 70.00
ROOT
ATOM      1  C   UNL     1     -13.921 -15.219  31.204  1.00  0.00     0.136 C 
ATOM      2  O   UNL     1     -14.752 -14.381  31.523  1.00  0.00    -0.299 OA
ENDROOT
BRANCH   1   3
ATOM      3  C   UNL     1     -13.240 -16.025  32.294  1.00  0.00     0.053 C 
ATOM      4  C   UNL     1     -12.896 -15.136  33.496  1.00  0.00     0.016 C 
BRANCH   3   5
ATOM      5  C   UNL     1     -14.093 -17.233  32.725  1.00  0.00     0.015 C 
BRANCH   5   6
ATOM      6  C   UNL     1     -13.562 -18.552  32.135  1.00  0.00     0.028 C 
BRANCH   6   7
ATOM      7  C   UNL     1     -12.064 -18.501  31.974  1.00  0.00    -0.028 C 
ATOM      8  C   UNL     1     -11.410 -18.711  30.808  1.00  0.00    -0.070 CG0
ATOM      9  C   UNL     1      -9.903 -18.686  30.828  1.00  0.00     0.039 C 
ATOM     10  G   UNL     1     -12.128 -18.954  29.489  1.00  0.00     0.000 G0
ENDBRANCH   6   7
ENDBRANCH   5   6
ENDBRANCH   3   5
ENDBRANCH   1   3
BRANCH   1  11
ATOM     11  C   UNL     1     -13.635 -15.433  29.734  1.00  0.00     0.087 C 
BRANCH  11  12
ATOM     12  C   UNL     1     -12.379 -16.318  29.502  1.00  0.00     0.066 C 
BRANCH  12  13
ATOM     13  C   UNL     1     -12.759 -17.683  28.948  1.00  0.00     0.140 C 
ATOM     14  O   UNL     1     -13.550 -17.764  28.018  1.00  0.00    -0.299 OA
BRANCH  13  15
ATOM     15  C   UNL     1     -12.117 -18.944  29.472  1.00  0.00     0.106 CG0
ATOM     16  G   UNL     1     -11.413 -18.722  30.802  1.00  0.00     0.000 G0
ENDBRANCH  13  15
ENDBRANCH  12  13
BRANCH  12  17
ATOM     17  C   UNL     1     -11.299 -15.641  28.597  1.00  0.00    -0.006 C 
ATOM     18  C   UNL     1     -10.915 -16.538  27.409  1.00  0.00     0.008 C 
ATOM     19  C   UNL     1     -10.032 -15.200  29.352  1.00  0.00     0.008 C 
ENDBRANCH  12  17
ENDBRANCH  11  12
ENDBRANCH   1  11
TORSDOF 1
ENDMDL
