MODEL 1
REMARK VINA RESULT:    -4.704      0.000      0.000
REMARK INTER + INTRA:          -8.465
REMARK INTER:                  -7.179
REMARK INTRA:                  -1.287
REMARK UNBOUND:                -1.287
REMARK SMILES CC(=O)CCC=C(C)CCC=C(C)CCC=C(C)C
REMARK SMILES IDX 10 1 11 2 12 3 13 4 14 5 15 6 16 7 18 8 17 9 19 10 9 11 7 12
REMARK SMILES IDX 6 13 8 14 5 15 4 16 2 17 3 18 1 19
REMARK H PARENT
REMARK Flexibility Score: inf
ROOT
ATOM      1  C   UNL     1     155.323 159.734 198.938  1.00  0.00     0.032 C 
ENDROOT
BRANCH   1   2
ATOM      2  C   UNL     1     154.017 159.644 199.692  1.00  0.00    -0.028 C 
ATOM      3  C   UNL     1     153.919 159.156 200.947  1.00  0.00    -0.077 C 
ATOM      4  C   UNL     1     155.131 158.638 201.686  1.00  0.00     0.039 C 
BRANCH   3   5
ATOM      5  C   UNL     1     152.565 159.117 201.621  1.00  0.00     0.034 C 
BRANCH   5   6
ATOM      6  C   UNL     1     151.880 160.488 201.552  1.00  0.00     0.032 C 
BRANCH   6   7
ATOM      7  C   UNL     1     150.381 160.348 201.454  1.00  0.00    -0.028 C 
ATOM      8  C   UNL     1     150.447 160.454 198.960  1.00  0.00     0.039 C 
ATOM      9  C   UNL     1     149.722 160.312 200.276  1.00  0.00    -0.080 C 
ATOM     10  C   UNL     1     148.220 160.191 200.256  1.00  0.00     0.039 C 
ENDBRANCH   6   7
ENDBRANCH   5   6
ENDBRANCH   3   5
ENDBRANCH   1   2
BRANCH   1  11
ATOM     11  C   UNL     1     155.424 161.021 198.107  1.00  0.00     0.034 C 
BRANCH  11  12
ATOM     12  C   UNL     1     156.779 161.686 198.249  1.00  0.00    -0.077 C 
ATOM     13  C   UNL     1     157.073 162.341 199.396  1.00  0.00    -0.028 C 
ATOM     14  C   UNL     1     157.770 161.583 197.114  1.00  0.00     0.039 C 
BRANCH  13  15
ATOM     15  C   UNL     1     158.357 163.093 199.656  1.00  0.00     0.035 C 
BRANCH  15  16
ATOM     16  C   UNL     1     158.078 164.593 199.788  1.00  0.00     0.079 C 
BRANCH  16  17
ATOM     17  C   UNL     1     158.001 165.247 198.433  1.00  0.00     0.130 C 
ATOM     18  O   UNL     1     156.951 165.756 198.070  1.00  0.00    -0.300 OA
ATOM     19  C   UNL     1     159.182 165.273 197.508  1.00  0.00     0.087 C 
ENDBRANCH  16  17
ENDBRANCH  15  16
ENDBRANCH  13  15
ENDBRANCH  11  12
ENDBRANCH   1  11
TORSDOF 9
ENDMDL
MODEL 2
REMARK VINA RESULT:    -4.681      1.314      1.817
REMARK INTER + INTRA:          -8.431
REMARK INTER:                  -7.315
REMARK INTRA:                  -1.116
REMARK UNBOUND:                -1.287
REMARK SMILES CC(=O)CCC=C(C)CCC=C(C)CCC=C(C)C
REMARK SMILES IDX 10 1 11 2 12 3 13 4 14 5 15 6 16 7 18 8 17 9 19 10 9 11 7 12
REMARK SMILES IDX 6 13 8 14 5 15 4 16 2 17 3 18 1 19
REMARK H PARENT
REMARK Flexibility Score: inf
ROOT
ATOM      1  C   UNL     1     156.468 160.424 198.975  1.00  0.00     0.032 C 
ENDROOT
BRANCH   1   2
ATOM      2  C   UNL     1     155.011 160.305 199.357  1.00  0.00    -0.028 C 
ATOM      3  C   UNL     1     154.575 159.553 200.390  1.00  0.00    -0.077 C 
ATOM      4  C   UNL     1     155.535 158.748 201.235  1.00  0.00     0.039 C 
BRANCH   3   5
ATOM      5  C   UNL     1     153.095 159.507 200.698  1.00  0.00     0.034 C 
BRANCH   5   6
ATOM      6  C   UNL     1     152.279 160.122 199.553  1.00  0.00     0.032 C 
BRANCH   6   7
ATOM      7  C   UNL     1     150.873 160.448 199.995  1.00  0.00    -0.028 C 
ATOM      8  C   UNL     1     149.920 158.581 198.638  1.00  0.00     0.039 C 
ATOM      9  C   UNL     1     149.796 159.738 199.599  1.00  0.00    -0.080 C 
ATOM     10  C   UNL     1     148.419 160.136 200.065  1.00  0.00     0.039 C 
ENDBRANCH   6   7
ENDBRANCH   5   6
ENDBRANCH   3   5
ENDBRANCH   1   2
BRANCH   1  11
ATOM     11  C   UNL     1     156.698 161.493 197.897  1.00  0.00     0.034 C 
BRANCH  11  12
ATOM     12  C   UNL     1     156.924 162.867 198.498  1.00  0.00    -0.077 C 
ATOM     13  C   UNL     1     156.373 163.947 197.895  1.00  0.00    -0.028 C 
ATOM     14  C   UNL     1     157.741 162.992 199.762  1.00  0.00     0.039 C 
BRANCH  13  15
ATOM     15  C   UNL     1     156.558 165.376 198.348  1.00  0.00     0.035 C 
BRANCH  15  16
ATOM     16  C   UNL     1     157.541 166.103 197.426  1.00  0.00     0.079 C 
BRANCH  16  17
ATOM     17  C   UNL     1     158.921 166.135 198.031  1.00  0.00     0.130 C 
ATOM     18  O   UNL     1     159.152 166.890 198.962  1.00  0.00    -0.300 OA
ATOM     19  C   UNL     1     160.026 165.268 197.502  1.00  0.00     0.087 C 
ENDBRANCH  16  17
ENDBRANCH  15  16
ENDBRANCH  13  15
ENDBRANCH  11  12
ENDBRANCH   1  11
TORSDOF 9
ENDMDL
MODEL 3
REMARK VINA RESULT:    -4.675      1.440      2.732
REMARK INTER + INTRA:          -8.421
REMARK INTER:                  -7.147
REMARK INTRA:                  -1.274
REMARK UNBOUND:                -1.287
REMARK SMILES CC(=O)CCC=C(C)CCC=C(C)CCC=C(C)C
REMARK SMILES IDX 10 1 11 2 12 3 13 4 14 5 15 6 16 7 18 8 17 9 19 10 9 11 7 12
REMARK SMILES IDX 6 13 8 14 5 15 4 16 2 17 3 18 1 19
REMARK H PARENT
REMARK Flexibility Score: inf
ROOT
ATOM      1  C   UNL     1     157.645 160.469 197.573  1.00  0.00     0.032 C 
ENDROOT
BRANCH   1   2
ATOM      2  C   UNL     1     156.885 160.119 198.831  1.00  0.00    -0.028 C 
ATOM      3  C   UNL     1     155.540 160.189 198.927  1.00  0.00    -0.077 C 
ATOM      4  C   UNL     1     154.692 160.650 197.765  1.00  0.00     0.039 C 
BRANCH   3   5
ATOM      5  C   UNL     1     154.872 159.808 200.230  1.00  0.00     0.034 C 
BRANCH   5   6
ATOM      6  C   UNL     1     153.349 159.732 200.062  1.00  0.00     0.032 C 
BRANCH   6   7
ATOM      7  C   UNL     1     152.636 160.137 201.329  1.00  0.00    -0.028 C 
ATOM      8  C   UNL     1     150.491 160.512 200.107  1.00  0.00     0.039 C 
ATOM      9  C   UNL     1     151.329 160.474 201.361  1.00  0.00    -0.080 C 
ATOM     10  C   UNL     1     150.691 160.889 202.662  1.00  0.00     0.039 C 
ENDBRANCH   6   7
ENDBRANCH   5   6
ENDBRANCH   3   5
ENDBRANCH   1   2
BRANCH   1  11
ATOM     11  C   UNL     1     158.781 161.467 197.842  1.00  0.00     0.034 C 
BRANCH  11  12
ATOM     12  C   UNL     1     158.285 162.719 198.539  1.00  0.00    -0.077 C 
ATOM     13  C   UNL     1     157.487 163.576 197.862  1.00  0.00    -0.028 C 
ATOM     14  C   UNL     1     158.680 162.966 199.976  1.00  0.00     0.039 C 
BRANCH  13  15
ATOM     15  C   UNL     1     156.964 164.884 198.408  1.00  0.00     0.035 C 
BRANCH  15  16
ATOM     16  C   UNL     1     157.381 166.045 197.499  1.00  0.00     0.079 C 
BRANCH  16  17
ATOM     17  C   UNL     1     158.415 166.910 198.172  1.00  0.00     0.130 C 
ATOM     18  O   UNL     1     158.896 167.854 197.565  1.00  0.00    -0.300 OA
ATOM     19  C   UNL     1     158.880 166.628 199.571  1.00  0.00     0.087 C 
ENDBRANCH  16  17
ENDBRANCH  15  16
ENDBRANCH  13  15
ENDBRANCH  11  12
ENDBRANCH   1  11
TORSDOF 9
ENDMDL
MODEL 4
REMARK VINA RESULT:    -4.606      2.381      8.149
REMARK INTER + INTRA:          -8.316
REMARK INTER:                  -6.840
REMARK INTRA:                  -1.476
REMARK UNBOUND:                -1.287
REMARK SMILES CC(=O)CCC=C(C)CCC=C(C)CCC=C(C)C
REMARK SMILES IDX 10 1 11 2 12 3 13 4 14 5 15 6 16 7 18 8 17 9 19 10 9 11 7 12
REMARK SMILES IDX 6 13 8 14 5 15 4 16 2 17 3 18 1 19
REMARK H PARENT
REMARK Flexibility Score: inf
ROOT
ATOM      1  C   UNL     1     157.346 162.459 199.783  1.00  0.00     0.032 C 
ENDROOT
BRANCH   1   2
ATOM      2  C   UNL     1     158.193 163.709 199.726  1.00  0.00    -0.028 C 
ATOM      3  C   UNL     1     157.763 164.871 199.187  1.00  0.00    -0.077 C 
ATOM      4  C   UNL     1     156.387 164.991 198.577  1.00  0.00     0.039 C 
BRANCH   3   5
ATOM      5  C   UNL     1     158.685 166.070 199.187  1.00  0.00     0.034 C 
BRANCH   5   6
ATOM      6  C   UNL     1     159.316 166.275 197.804  1.00  0.00     0.032 C 
BRANCH   6   7
ATOM      7  C   UNL     1     160.537 165.405 197.624  1.00  0.00    -0.028 C 
ATOM      8  C   UNL     1     159.326 163.877 196.064  1.00  0.00     0.039 C 
ATOM      9  C   UNL     1     160.555 164.323 196.817  1.00  0.00    -0.080 C 
ATOM     10  C   UNL     1     161.806 163.490 196.704  1.00  0.00     0.039 C 
ENDBRANCH   6   7
ENDBRANCH   5   6
ENDBRANCH   3   5
ENDBRANCH   1   2
BRANCH   1  11
ATOM     11  C   UNL     1     157.349 161.698 198.449  1.00  0.00     0.034 C 
BRANCH  11  12
ATOM     12  C   UNL     1     155.970 161.186 198.082  1.00  0.00    -0.077 C 
ATOM     13  C   UNL     1     155.226 160.564 199.027  1.00  0.00    -0.028 C 
ATOM     14  C   UNL     1     155.455 161.401 196.679  1.00  0.00     0.039 C 
BRANCH  13  15
ATOM     15  C   UNL     1     153.863 159.958 198.792  1.00  0.00     0.035 C 
BRANCH  15  16
ATOM     16  C   UNL     1     153.268 159.460 200.113  1.00  0.00     0.079 C 
BRANCH  16  17
ATOM     17  C   UNL     1     151.996 160.198 200.441  1.00  0.00     0.130 C 
ATOM     18  O   UNL     1     151.198 160.445 199.551  1.00  0.00    -0.300 OA
ATOM     19  C   UNL     1     151.695 160.653 201.839  1.00  0.00     0.087 C 
ENDBRANCH  16  17
ENDBRANCH  15  16
ENDBRANCH  13  15
ENDBRANCH  11  12
ENDBRANCH   1  11
TORSDOF 9
ENDMDL
MODEL 5
REMARK VINA RESULT:    -4.555      2.498      7.768
REMARK INTER + INTRA:          -8.238
REMARK INTER:                  -7.252
REMARK INTRA:                  -0.986
REMARK UNBOUND:                -1.287
REMARK SMILES CC(=O)CCC=C(C)CCC=C(C)CCC=C(C)C
REMARK SMILES IDX 10 1 11 2 12 3 13 4 14 5 15 6 16 7 18 8 17 9 19 10 9 11 7 12
REMARK SMILES IDX 6 13 8 14 5 15 4 16 2 17 3 18 1 19
REMARK H PARENT
REMARK Flexibility Score: inf
ROOT
ATOM      1  C   UNL     1     156.523 160.387 199.298  1.00  0.00     0.032 C 
ENDROOT
BRANCH   1   2
ATOM      2  C   UNL     1     157.145 161.689 199.748  1.00  0.00    -0.028 C 
ATOM      3  C   UNL     1     158.314 162.159 199.262  1.00  0.00    -0.077 C 
ATOM      4  C   UNL     1     159.102 161.387 198.230  1.00  0.00     0.039 C 
BRANCH   3   5
ATOM      5  C   UNL     1     158.848 163.479 199.771  1.00  0.00     0.034 C 
BRANCH   5   6
ATOM      6  C   UNL     1     157.799 164.588 199.623  1.00  0.00     0.032 C 
BRANCH   6   7
ATOM      7  C   UNL     1     158.437 165.899 199.236  1.00  0.00    -0.028 C 
ATOM      8  C   UNL     1     157.237 165.938 197.047  1.00  0.00     0.039 C 
ATOM      9  C   UNL     1     158.171 166.531 198.073  1.00  0.00    -0.080 C 
ATOM     10  C   UNL     1     158.863 167.829 197.745  1.00  0.00     0.039 C 
ENDBRANCH   6   7
ENDBRANCH   5   6
ENDBRANCH   3   5
ENDBRANCH   1   2
BRANCH   1  11
ATOM     11  C   UNL     1     155.274 160.612 198.433  1.00  0.00     0.034 C 
BRANCH  11  12
ATOM     12  C   UNL     1     154.014 160.112 199.113  1.00  0.00    -0.077 C 
ATOM     13  C   UNL     1     154.016 159.938 200.455  1.00  0.00    -0.028 C 
ATOM     14  C   UNL     1     152.786 159.841 198.276  1.00  0.00     0.039 C 
BRANCH  13  15
ATOM     15  C   UNL     1     152.855 159.397 201.256  1.00  0.00     0.035 C 
BRANCH  15  16
ATOM     16  C   UNL     1     152.124 160.538 201.969  1.00  0.00     0.079 C 
BRANCH  16  17
ATOM     17  C   UNL     1     150.634 160.426 201.776  1.00  0.00     0.130 C 
ATOM     18  O   UNL     1     150.183 160.283 200.650  1.00  0.00    -0.300 OA
ATOM     19  C   UNL     1     149.686 160.501 202.937  1.00  0.00     0.087 C 
ENDBRANCH  16  17
ENDBRANCH  15  16
ENDBRANCH  13  15
ENDBRANCH  11  12
ENDBRANCH   1  11
TORSDOF 9
ENDMDL
MODEL 6
REMARK VINA RESULT:    -4.543      2.656      7.787
REMARK INTER + INTRA:          -8.221
REMARK INTER:                  -7.127
REMARK INTRA:                  -1.094
REMARK UNBOUND:                -1.287
REMARK SMILES CC(=O)CCC=C(C)CCC=C(C)CCC=C(C)C
REMARK SMILES IDX 10 1 11 2 12 3 13 4 14 5 15 6 16 7 18 8 17 9 19 10 9 11 7 12
REMARK SMILES IDX 6 13 8 14 5 15 4 16 2 17 3 18 1 19
REMARK H PARENT
REMARK Flexibility Score: inf
ROOT
ATOM      1  C   UNL     1     154.212 160.090 199.587  1.00  0.00     0.032 C 
ENDROOT
BRANCH   1   2
ATOM      2  C   UNL     1     155.642 160.574 199.670  1.00  0.00    -0.028 C 
ATOM      3  C   UNL     1     156.250 161.260 198.680  1.00  0.00    -0.077 C 
ATOM      4  C   UNL     1     155.532 161.579 197.389  1.00  0.00     0.039 C 
BRANCH   3   5
ATOM      5  C   UNL     1     157.683 161.708 198.864  1.00  0.00     0.034 C 
BRANCH   5   6
ATOM      6  C   UNL     1     157.759 162.940 199.775  1.00  0.00     0.032 C 
BRANCH   6   7
ATOM      7  C   UNL     1     158.588 164.035 199.150  1.00  0.00    -0.028 C 
ATOM      8  C   UNL     1     156.551 165.261 198.386  1.00  0.00     0.039 C 
ATOM      9  C   UNL     1     158.045 165.106 198.533  1.00  0.00    -0.080 C 
ATOM     10  C   UNL     1     158.937 166.150 197.913  1.00  0.00     0.039 C 
ENDBRANCH   6   7
ENDBRANCH   5   6
ENDBRANCH   3   5
ENDBRANCH   1   2
BRANCH   1  11
ATOM     11  C   UNL     1     153.576 159.927 200.975  1.00  0.00     0.034 C 
BRANCH  11  12
ATOM     12  C   UNL     1     152.075 160.136 200.941  1.00  0.00    -0.077 C 
ATOM     13  C   UNL     1     151.363 159.627 199.909  1.00  0.00    -0.028 C 
ATOM     14  C   UNL     1     151.412 160.889 202.070  1.00  0.00     0.039 C 
BRANCH  13  15
ATOM     15  C   UNL     1     149.875 159.803 199.716  1.00  0.00     0.035 C 
BRANCH  15  16
ATOM     16  C   UNL     1     149.598 160.924 198.709  1.00  0.00     0.079 C 
BRANCH  16  17
ATOM     17  C   UNL     1     149.517 160.378 197.307  1.00  0.00     0.130 C 
ATOM     18  O   UNL     1     148.652 159.563 197.028  1.00  0.00    -0.300 OA
ATOM     19  C   UNL     1     150.488 160.804 196.245  1.00  0.00     0.087 C 
ENDBRANCH  16  17
ENDBRANCH  15  16
ENDBRANCH  13  15
ENDBRANCH  11  12
ENDBRANCH   1  11
TORSDOF 9
ENDMDL
MODEL 7
REMARK VINA RESULT:    -4.458      2.549      7.856
REMARK INTER + INTRA:          -8.090
REMARK INTER:                  -6.938
REMARK INTRA:                  -1.152
REMARK UNBOUND:                -1.287
REMARK SMILES CC(=O)CCC=C(C)CCC=C(C)CCC=C(C)C
REMARK SMILES IDX 10 1 11 2 12 3 13 4 14 5 15 6 16 7 18 8 17 9 19 10 9 11 7 12
REMARK SMILES IDX 6 13 8 14 5 15 4 16 2 17 3 18 1 19
REMARK H PARENT
REMARK Flexibility Score: inf
ROOT
ATOM      1  C   UNL     1     155.606 160.476 198.258  1.00  0.00     0.032 C 
ENDROOT
BRANCH   1   2
ATOM      2  C   UNL     1     156.162 161.831 197.887  1.00  0.00    -0.028 C 
ATOM      3  C   UNL     1     155.846 162.474 196.743  1.00  0.00    -0.077 C 
ATOM      4  C   UNL     1     154.911 161.858 195.729  1.00  0.00     0.039 C 
BRANCH   3   5
ATOM      5  C   UNL     1     156.450 163.833 196.468  1.00  0.00     0.034 C 
BRANCH   5   6
ATOM      6  C   UNL     1     155.964 164.865 197.494  1.00  0.00     0.032 C 
BRANCH   6   7
ATOM      7  C   UNL     1     157.071 165.814 197.883  1.00  0.00    -0.028 C 
ATOM      8  C   UNL     1     157.786 164.345 199.772  1.00  0.00     0.039 C 
ATOM      9  C   UNL     1     157.918 165.574 198.907  1.00  0.00    -0.080 C 
ATOM     10  C   UNL     1     158.988 166.580 199.250  1.00  0.00     0.039 C 
ENDBRANCH   6   7
ENDBRANCH   5   6
ENDBRANCH   3   5
ENDBRANCH   1   2
BRANCH   1  11
ATOM     11  C   UNL     1     155.344 160.351 199.766  1.00  0.00     0.034 C 
BRANCH  11  12
ATOM     12  C   UNL     1     153.978 159.763 200.060  1.00  0.00    -0.077 C 
ATOM     13  C   UNL     1     153.038 159.765 199.087  1.00  0.00    -0.028 C 
ATOM     14  C   UNL     1     153.710 159.174 201.425  1.00  0.00     0.039 C 
BRANCH  13  15
ATOM     15  C   UNL     1     151.622 159.265 199.253  1.00  0.00     0.035 C 
BRANCH  15  16
ATOM     16  C   UNL     1     150.646 160.443 199.322  1.00  0.00     0.079 C 
BRANCH  16  17
ATOM     17  C   UNL     1     149.739 160.321 200.519  1.00  0.00     0.130 C 
ATOM     18  O   UNL     1     150.226 160.239 201.636  1.00  0.00    -0.300 OA
ATOM     19  C   UNL     1     148.247 160.280 200.368  1.00  0.00     0.087 C 
ENDBRANCH  16  17
ENDBRANCH  15  16
ENDBRANCH  13  15
ENDBRANCH  11  12
ENDBRANCH   1  11
TORSDOF 9
ENDMDL
MODEL 8
REMARK VINA RESULT:    -4.420      1.475      2.534
REMARK INTER + INTRA:          -8.032
REMARK INTER:                  -6.336
REMARK INTRA:                  -1.696
REMARK UNBOUND:                -1.287
REMARK SMILES CC(=O)CCC=C(C)CCC=C(C)CCC=C(C)C
REMARK SMILES IDX 10 1 11 2 12 3 13 4 14 5 15 6 16 7 18 8 17 9 19 10 9 11 7 12
REMARK SMILES IDX 6 13 8 14 5 15 4 16 2 17 3 18 1 19
REMARK H PARENT
REMARK Flexibility Score: inf
ROOT
ATOM      1  C   UNL     1     154.759 159.256 200.656  1.00  0.00     0.032 C 
ENDROOT
BRANCH   1   2
ATOM      2  C   UNL     1     153.524 160.099 200.872  1.00  0.00    -0.028 C 
ATOM      3  C   UNL     1     152.413 159.641 201.487  1.00  0.00    -0.077 C 
ATOM      4  C   UNL     1     152.324 158.221 201.993  1.00  0.00     0.039 C 
BRANCH   3   5
ATOM      5  C   UNL     1     151.230 160.569 201.662  1.00  0.00     0.034 C 
BRANCH   5   6
ATOM      6  C   UNL     1     150.052 160.124 200.787  1.00  0.00     0.032 C 
BRANCH   6   7
ATOM      7  C   UNL     1     150.217 160.595 199.363  1.00  0.00    -0.028 C 
ATOM      8  C   UNL     1     150.659 158.275 198.554  1.00  0.00     0.039 C 
ATOM      9  C   UNL     1     150.473 159.756 198.337  1.00  0.00    -0.080 C 
ATOM     10  C   UNL     1     150.647 160.302 196.943  1.00  0.00     0.039 C 
ENDBRANCH   6   7
ENDBRANCH   5   6
ENDBRANCH   3   5
ENDBRANCH   1   2
BRANCH   1  11
ATOM     11  C   UNL     1     154.997 158.947 199.171  1.00  0.00     0.034 C 
BRANCH  11  12
ATOM     12  C   UNL     1     155.218 160.207 198.356  1.00  0.00    -0.077 C 
ATOM     13  C   UNL     1     156.206 161.058 198.716  1.00  0.00    -0.028 C 
ATOM     14  C   UNL     1     154.341 160.468 197.155  1.00  0.00     0.039 C 
BRANCH  13  15
ATOM     15  C   UNL     1     156.506 162.371 198.034  1.00  0.00     0.035 C 
BRANCH  15  16
ATOM     16  C   UNL     1     158.000 162.695 198.135  1.00  0.00     0.079 C 
BRANCH  16  17
ATOM     17  C   UNL     1     158.305 163.430 199.414  1.00  0.00     0.130 C 
ATOM     18  O   UNL     1     158.872 162.844 200.323  1.00  0.00    -0.300 OA
ATOM     19  C   UNL     1     157.913 164.866 199.604  1.00  0.00     0.087 C 
ENDBRANCH  16  17
ENDBRANCH  15  16
ENDBRANCH  13  15
ENDBRANCH  11  12
ENDBRANCH   1  11
TORSDOF 9
ENDMDL
MODEL 9
REMARK VINA RESULT:    -4.394      3.949      7.107
REMARK INTER + INTRA:          -7.993
REMARK INTER:                  -5.739
REMARK INTRA:                  -2.254
REMARK UNBOUND:                -1.287
REMARK SMILES CC(=O)CCC=C(C)CCC=C(C)CCC=C(C)C
REMARK SMILES IDX 10 1 11 2 12 3 13 4 14 5 15 6 16 7 18 8 17 9 19 10 9 11 7 12
REMARK SMILES IDX 6 13 8 14 5 15 4 16 2 17 3 18 1 19
REMARK H PARENT
REMARK Flexibility Score: inf
ROOT
ATOM      1  C   UNL     1     151.840 160.778 201.189  1.00  0.00     0.032 C 
ENDROOT
BRANCH   1   2
ATOM      2  C   UNL     1     152.974 159.898 201.661  1.00  0.00    -0.028 C 
ATOM      3  C   UNL     1     154.043 159.594 200.893  1.00  0.00    -0.077 C 
ATOM      4  C   UNL     1     154.167 160.108 199.479  1.00  0.00     0.039 C 
BRANCH   3   5
ATOM      5  C   UNL     1     155.132 158.711 201.462  1.00  0.00     0.034 C 
BRANCH   5   6
ATOM      6  C   UNL     1     154.577 157.332 201.838  1.00  0.00     0.032 C 
BRANCH   6   7
ATOM      7  C   UNL     1     153.998 156.626 200.637  1.00  0.00    -0.028 C 
ATOM      8  C   UNL     1     151.736 156.507 201.687  1.00  0.00     0.039 C 
ATOM      9  C   UNL     1     152.700 156.265 200.552  1.00  0.00    -0.080 C 
ATOM     10  C   UNL     1     152.198 155.544 199.327  1.00  0.00     0.039 C 
ENDBRANCH   6   7
ENDBRANCH   5   6
ENDBRANCH   3   5
ENDBRANCH   1   2
BRANCH   1  11
ATOM     11  C   UNL     1     150.467 160.152 201.472  1.00  0.00     0.034 C 
BRANCH  11  12
ATOM     12  C   UNL     1     149.761 159.727 200.199  1.00  0.00    -0.077 C 
ATOM     13  C   UNL     1     150.453 159.035 199.264  1.00  0.00    -0.028 C 
ATOM     14  C   UNL     1     148.302 160.072 200.018  1.00  0.00     0.039 C 
BRANCH  13  15
ATOM     15  C   UNL     1     149.897 158.595 197.930  1.00  0.00     0.035 C 
BRANCH  15  16
ATOM     16  C   UNL     1     150.262 159.609 196.841  1.00  0.00     0.079 C 
BRANCH  16  17
ATOM     17  C   UNL     1     149.060 160.423 196.440  1.00  0.00     0.130 C 
ATOM     18  O   UNL     1     149.078 161.635 196.585  1.00  0.00    -0.300 OA
ATOM     19  C   UNL     1     147.829 159.773 195.877  1.00  0.00     0.087 C 
ENDBRANCH  16  17
ENDBRANCH  15  16
ENDBRANCH  13  15
ENDBRANCH  11  12
ENDBRANCH   1  11
TORSDOF 9
ENDMDL
