MODEL 1
REMARK VINA RESULT:    -4.024      0.000      0.000
REMARK INTER + INTRA:          -5.826
REMARK INTER:                  -6.142
REMARK INTRA:                   0.316
REMARK UNBOUND:                 0.316
REMARK SMILES CC1=CCC[C@H](C)C(=O)C[C@@H](C(C)C)C(=O)C1
REMARK SMILES IDX 8 1 9 2 6 3 7 4 5 5 4 6 3 7 2 8 1 9 10 11 11 12 15 13 16 14
REMARK SMILES IDX 17 15 12 17 13 18 14 19
REMARK H PARENT
REMARK Flexibility Score: 70.00
ROOT
ATOM      1  C   UNL     1      19.340 206.115  12.808  1.00  0.00     0.136 C 
ATOM      2  O   UNL     1      18.323 205.547  12.437  1.00  0.00    -0.299 OA
ENDROOT
BRANCH   1   3
ATOM      3  C   UNL     1      19.644 207.493  12.238  1.00  0.00     0.053 C 
ATOM      4  C   UNL     1      18.542 207.932  11.263  1.00  0.00     0.016 C 
BRANCH   3   5
ATOM      5  C   UNL     1      19.869 208.560  13.337  1.00  0.00     0.015 C 
BRANCH   5   6
ATOM      6  C   UNL     1      21.287 208.605  13.946  1.00  0.00     0.028 C 
BRANCH   6   7
ATOM      7  C   UNL     1      21.390 208.986  15.407  1.00  0.00    -0.028 C 
ATOM      8  C   UNL     1      21.293 208.147  16.465  1.00  0.00    -0.070 CG0
ATOM      9  C   UNL     1      21.255 208.758  17.844  1.00  0.00     0.039 C 
ATOM     10  G   UNL     1      21.292 206.636  16.348  1.00  0.00     0.000 G0
ENDBRANCH   6   7
ENDBRANCH   5   6
ENDBRANCH   3   5
ENDBRANCH   1   3
BRANCH   1  11
ATOM     11  C   UNL     1      20.216 205.415  13.836  1.00  0.00     0.087 C 
BRANCH  11  12
ATOM     12  C   UNL     1      19.498 205.107  15.177  1.00  0.00     0.066 C 
BRANCH  12  13
ATOM     13  C   UNL     1      19.889 206.086  16.270  1.00  0.00     0.140 C 
ATOM     14  O   UNL     1      19.079 206.390  17.133  1.00  0.00    -0.299 OA
BRANCH  13  15
ATOM     15  C   UNL     1      21.297 206.630  16.358  1.00  0.00     0.106 CG0
ATOM     16  G   UNL     1      21.262 208.142  16.468  1.00  0.00     0.000 G0
ENDBRANCH  13  15
ENDBRANCH  12  13
BRANCH  12  17
ATOM     17  C   UNL     1      19.623 203.608  15.600  1.00  0.00    -0.006 C 
ATOM     18  C   UNL     1      19.094 202.592  14.569  1.00  0.00     0.008 C 
ATOM     19  C   UNL     1      21.074 203.260  15.970  1.00  0.00     0.008 C 
ENDBRANCH  12  17
ENDBRANCH  11  12
ENDBRANCH   1  11
TORSDOF 1
ENDMDL
MODEL 2
REMARK VINA RESULT:    -3.853      1.581      3.797
REMARK INTER + INTRA:          -5.565
REMARK INTER:                  -5.730
REMARK INTRA:                   0.165
REMARK UNBOUND:                 0.316
REMARK SMILES CC1=CCC[C@H](C)C(=O)C[C@@H](C(C)C)C(=O)C1
REMARK SMILES IDX 8 1 9 2 6 3 7 4 5 5 4 6 3 7 2 8 1 9 10 11 11 12 15 13 16 14
REMARK SMILES IDX 17 15 12 17 13 18 14 19
REMARK H PARENT
REMARK Flexibility Score: 70.00
ROOT
ATOM      1  C   UNL     1      21.164 207.064  16.583  1.00  0.00     0.136 C 
ATOM      2  O   UNL     1      22.135 206.340  16.750  1.00  0.00    -0.299 OA
ENDROOT
BRANCH   1   3
ATOM      3  C   UNL     1      21.345 208.564  16.762  1.00  0.00     0.053 C 
ATOM      4  C   UNL     1      21.454 208.925  18.251  1.00  0.00     0.016 C 
BRANCH   3   5
ATOM      5  C   UNL     1      22.551 209.121  15.967  1.00  0.00     0.015 C 
BRANCH   5   6
ATOM      6  C   UNL     1      22.492 208.926  14.436  1.00  0.00     0.028 C 
BRANCH   6   7
ATOM      7  C   UNL     1      21.144 209.117  13.776  1.00  0.00    -0.028 C 
ATOM      8  C   UNL     1      20.454 208.187  13.074  1.00  0.00    -0.070 CG0
ATOM      9  C   UNL     1      19.205 208.634  12.355  1.00  0.00     0.039 C 
ATOM     10  G   UNL     1      20.823 206.717  13.028  1.00  0.00     0.000 G0
ENDBRANCH   6   7
ENDBRANCH   5   6
ENDBRANCH   3   5
ENDBRANCH   1   3
BRANCH   1  11
ATOM     11  C   UNL     1      19.848 206.415  16.181  1.00  0.00     0.087 C 
BRANCH  11  12
ATOM     12  C   UNL     1      19.990 205.308  15.102  1.00  0.00     0.066 C 
BRANCH  12  13
ATOM     13  C   UNL     1      19.778 205.852  13.700  1.00  0.00     0.140 C 
ATOM     14  O   UNL     1      18.711 205.669  13.132  1.00  0.00    -0.299 OA
BRANCH  13  15
ATOM     15  C   UNL     1      20.837 206.693  13.025  1.00  0.00     0.106 CG0
ATOM     16  G   UNL     1      20.443 208.156  13.073  1.00  0.00     0.000 G0
ENDBRANCH  13  15
ENDBRANCH  12  13
BRANCH  12  17
ATOM     17  C   UNL     1      19.138 204.039  15.422  1.00  0.00    -0.006 C 
ATOM     18  C   UNL     1      19.815 202.696  15.086  1.00  0.00     0.008 C 
ATOM     19  C   UNL     1      18.685 204.036  16.891  1.00  0.00     0.008 C 
ENDBRANCH  12  17
ENDBRANCH  11  12
ENDBRANCH   1  11
TORSDOF 1
ENDMDL
MODEL 3
REMARK VINA RESULT:    -3.784      1.835      4.206
REMARK INTER + INTRA:          -5.458
REMARK INTER:                  -5.772
REMARK INTRA:                   0.313
REMARK UNBOUND:                 0.316
REMARK SMILES CC1=CCC[C@H](C)C(=O)C[C@@H](C(C)C)C(=O)C1
REMARK SMILES IDX 8 1 9 2 6 3 7 4 5 5 4 6 3 7 2 8 1 9 10 11 11 12 15 13 16 14
REMARK SMILES IDX 17 15 12 17 13 18 14 19
REMARK H PARENT
REMARK Flexibility Score: 70.00
ROOT
ATOM      1  C   UNL     1      21.334 204.577  15.159  1.00  0.00     0.136 C 
ATOM      2  O   UNL     1      21.922 204.318  16.199  1.00  0.00    -0.299 OA
ENDROOT
BRANCH   1   3
ATOM      3  C   UNL     1      19.889 204.123  15.016  1.00  0.00     0.053 C 
ATOM      4  C   UNL     1      19.821 202.635  14.645  1.00  0.00     0.016 C 
BRANCH   3   5
ATOM      5  C   UNL     1      19.040 204.419  16.277  1.00  0.00     0.015 C 
BRANCH   5   6
ATOM      6  C   UNL     1      18.572 205.881  16.442  1.00  0.00     0.028 C 
BRANCH   6   7
ATOM      7  C   UNL     1      19.530 206.831  17.124  1.00  0.00    -0.028 C 
ATOM      8  C   UNL     1      20.213 207.843  16.538  1.00  0.00    -0.070 CG0
ATOM      9  C   UNL     1      21.247 208.565  17.366  1.00  0.00     0.039 C 
ATOM     10  G   UNL     1      19.949 208.335  15.129  1.00  0.00     0.000 G0
ENDBRANCH   6   7
ENDBRANCH   5   6
ENDBRANCH   3   5
ENDBRANCH   1   3
BRANCH   1  11
ATOM     11  C   UNL     1      22.082 205.359  14.090  1.00  0.00     0.087 C 
BRANCH  11  12
ATOM     12  C   UNL     1      21.993 206.900  14.253  1.00  0.00     0.066 C 
BRANCH  12  13
ATOM     13  C   UNL     1      20.569 207.406  14.102  1.00  0.00     0.140 C 
ATOM     14  O   UNL     1      19.870 206.991  13.189  1.00  0.00    -0.299 OA
BRANCH  13  15
ATOM     15  C   UNL     1      19.968 208.352  15.116  1.00  0.00     0.106 CG0
ATOM     16  G   UNL     1      20.208 207.829  16.518  1.00  0.00     0.000 G0
ENDBRANCH  13  15
ENDBRANCH  12  13
BRANCH  12  17
ATOM     17  C   UNL     1      23.030 207.664  13.370  1.00  0.00    -0.006 C 
ATOM     18  C   UNL     1      22.454 208.834  12.550  1.00  0.00     0.008 C 
ATOM     19  C   UNL     1      24.215 208.158  14.215  1.00  0.00     0.008 C 
ENDBRANCH  12  17
ENDBRANCH  11  12
ENDBRANCH   1  11
TORSDOF 1
ENDMDL
MODEL 4
REMARK VINA RESULT:    -3.671      1.617      3.960
REMARK INTER + INTRA:          -5.286
REMARK INTER:                  -5.787
REMARK INTRA:                   0.501
REMARK UNBOUND:                 0.316
REMARK SMILES CC1=CCC[C@H](C)C(=O)C[C@@H](C(C)C)C(=O)C1
REMARK SMILES IDX 8 1 9 2 6 3 7 4 5 5 4 6 3 7 2 8 1 9 10 11 11 12 15 13 16 14
REMARK SMILES IDX 17 15 12 17 13 18 14 19
REMARK H PARENT
REMARK Flexibility Score: 70.00
ROOT
ATOM      1  C   UNL     1      19.911 205.720  14.902  1.00  0.00     0.136 C 
ATOM      2  O   UNL     1      19.375 206.020  15.959  1.00  0.00    -0.299 OA
ENDROOT
BRANCH   1   3
ATOM      3  C   UNL     1      21.183 204.886  14.951  1.00  0.00     0.053 C 
ATOM      4  C   UNL     1      20.851 203.387  14.906  1.00  0.00     0.016 C 
BRANCH   3   5
ATOM      5  C   UNL     1      22.191 205.264  13.838  1.00  0.00     0.015 C 
BRANCH   5   6
ATOM      6  C   UNL     1      23.170 206.407  14.181  1.00  0.00     0.028 C 
BRANCH   6   7
ATOM      7  C   UNL     1      22.870 207.211  15.427  1.00  0.00    -0.028 C 
ATOM      8  C   UNL     1      22.256 208.416  15.477  1.00  0.00    -0.070 CG0
ATOM      9  C   UNL     1      22.206 209.124  16.809  1.00  0.00     0.039 C 
ATOM     10  G   UNL     1      21.557 209.058  14.295  1.00  0.00     0.000 G0
ENDBRANCH   6   7
ENDBRANCH   5   6
ENDBRANCH   3   5
ENDBRANCH   1   3
BRANCH   1  11
ATOM     11  C   UNL     1      19.252 206.178  13.610  1.00  0.00     0.087 C 
BRANCH  11  12
ATOM     12  C   UNL     1      19.829 207.502  13.039  1.00  0.00     0.066 C 
BRANCH  12  13
ATOM     13  C   UNL     1      20.149 208.501  14.137  1.00  0.00     0.140 C 
ATOM     14  O   UNL     1      19.288 208.810  14.948  1.00  0.00    -0.299 OA
BRANCH  13  15
ATOM     15  C   UNL     1      21.545 209.060  14.296  1.00  0.00     0.106 CG0
ATOM     16  G   UNL     1      22.232 208.406  15.479  1.00  0.00     0.000 G0
ENDBRANCH  13  15
ENDBRANCH  12  13
BRANCH  12  17
ATOM     17  C   UNL     1      18.960 208.091  11.883  1.00  0.00    -0.006 C 
ATOM     18  C   UNL     1      19.741 208.886  10.818  1.00  0.00     0.008 C 
ATOM     19  C   UNL     1      18.132 206.990  11.201  1.00  0.00     0.008 C 
ENDBRANCH  12  17
ENDBRANCH  11  12
ENDBRANCH   1  11
TORSDOF 1
ENDMDL
MODEL 5
REMARK VINA RESULT:    -3.664      1.830      4.215
REMARK INTER + INTRA:          -5.276
REMARK INTER:                  -5.520
REMARK INTRA:                   0.244
REMARK UNBOUND:                 0.316
REMARK SMILES CC1=CCC[C@H](C)C(=O)C[C@@H](C(C)C)C(=O)C1
REMARK SMILES IDX 8 1 9 2 6 3 7 4 5 5 4 6 3 7 2 8 1 9 10 11 11 12 15 13 16 14
REMARK SMILES IDX 17 15 12 17 13 18 14 19
REMARK H PARENT
REMARK Flexibility Score: 70.00
ROOT
ATOM      1  C   UNL     1      19.007 205.626  13.869  1.00  0.00     0.136 C 
ATOM      2  O   UNL     1      18.700 205.096  12.811  1.00  0.00    -0.299 OA
ENDROOT
BRANCH   1   3
ATOM      3  C   UNL     1      19.007 204.771  15.128  1.00  0.00     0.053 C 
ATOM      4  C   UNL     1      19.631 203.396  14.851  1.00  0.00     0.016 C 
BRANCH   3   5
ATOM      5  C   UNL     1      19.704 205.465  16.324  1.00  0.00     0.015 C 
BRANCH   5   6
ATOM      6  C   UNL     1      21.248 205.478  16.284  1.00  0.00     0.028 C 
BRANCH   6   7
ATOM      7  C   UNL     1      21.919 206.833  16.317  1.00  0.00    -0.028 C 
ATOM      8  C   UNL     1      22.550 207.443  15.286  1.00  0.00    -0.070 CG0
ATOM      9  C   UNL     1      23.300 208.720  15.578  1.00  0.00     0.039 C 
ATOM     10  G   UNL     1      22.486 206.959  13.851  1.00  0.00     0.000 G0
ENDBRANCH   6   7
ENDBRANCH   5   6
ENDBRANCH   3   5
ENDBRANCH   1   3
BRANCH   1  11
ATOM     11  C   UNL     1      19.395 207.097  13.848  1.00  0.00     0.087 C 
BRANCH  11  12
ATOM     12  C   UNL     1      20.236 207.513  12.612  1.00  0.00     0.066 C 
BRANCH  12  13
ATOM     13  C   UNL     1      21.663 207.867  12.989  1.00  0.00     0.140 C 
ATOM     14  O   UNL     1      22.130 208.948  12.659  1.00  0.00    -0.299 OA
BRANCH  13  15
ATOM     15  C   UNL     1      22.494 206.939  13.846  1.00  0.00     0.106 CG0
ATOM     16  G   UNL     1      22.553 207.460  15.268  1.00  0.00     0.000 G0
ENDBRANCH  13  15
ENDBRANCH  12  13
BRANCH  12  17
ATOM     17  C   UNL     1      19.528 208.596  11.736  1.00  0.00    -0.006 C 
ATOM     18  C   UNL     1      19.212 208.162  10.291  1.00  0.00     0.008 C 
ATOM     19  C   UNL     1      18.246 209.102  12.416  1.00  0.00     0.008 C 
ENDBRANCH  12  17
ENDBRANCH  11  12
ENDBRANCH   1  11
TORSDOF 1
ENDMDL
MODEL 6
REMARK VINA RESULT:    -3.444      1.706      2.177
REMARK INTER + INTRA:          -4.940
REMARK INTER:                  -6.297
REMARK INTRA:                   1.357
REMARK UNBOUND:                 0.316
REMARK SMILES CC1=CCC[C@H](C)C(=O)C[C@@H](C(C)C)C(=O)C1
REMARK SMILES IDX 8 1 9 2 6 3 7 4 5 5 4 6 3 7 2 8 1 9 10 11 11 12 15 13 16 14
REMARK SMILES IDX 17 15 12 17 13 18 14 19
REMARK H PARENT
REMARK Flexibility Score: 70.00
ROOT
ATOM      1  C   UNL     1      19.159 206.116  13.402  1.00  0.00     0.136 C 
ATOM      2  O   UNL     1      18.645 205.107  12.944  1.00  0.00    -0.299 OA
ENDROOT
BRANCH   1   3
ATOM      3  C   UNL     1      19.429 207.279  12.458  1.00  0.00     0.053 C 
ATOM      4  C   UNL     1      18.502 207.212  11.235  1.00  0.00     0.016 C 
BRANCH   3   5
ATOM      5  C   UNL     1      19.325 208.656  13.157  1.00  0.00     0.015 C 
BRANCH   5   6
ATOM      6  C   UNL     1      20.281 208.876  14.349  1.00  0.00     0.028 C 
BRANCH   6   7
ATOM      7  C   UNL     1      21.750 209.033  14.025  1.00  0.00    -0.028 C 
ATOM      8  C   UNL     1      22.777 208.366  14.603  1.00  0.00    -0.070 CG0
ATOM      9  C   UNL     1      24.180 208.796  14.252  1.00  0.00     0.039 C 
ATOM     10  G   UNL     1      22.599 207.173  15.521  1.00  0.00     0.000 G0
ENDBRANCH   6   7
ENDBRANCH   5   6
ENDBRANCH   3   5
ENDBRANCH   1   3
BRANCH   1  11
ATOM     11  C   UNL     1      19.468 206.151  14.892  1.00  0.00     0.087 C 
BRANCH  11  12
ATOM     12  C   UNL     1      20.730 205.343  15.296  1.00  0.00     0.066 C 
BRANCH  12  13
ATOM     13  C   UNL     1      22.006 205.997  14.796  1.00  0.00     0.140 C 
ATOM     14  O   UNL     1      22.514 205.619  13.750  1.00  0.00    -0.299 OA
BRANCH  13  15
ATOM     15  C   UNL     1      22.617 207.171  15.528  1.00  0.00     0.106 CG0
ATOM     16  G   UNL     1      22.748 208.354  14.589  1.00  0.00     0.000 G0
ENDBRANCH  13  15
ENDBRANCH  12  13
BRANCH  12  17
ATOM     17  C   UNL     1      20.617 203.826  14.941  1.00  0.00    -0.006 C 
ATOM     18  C   UNL     1      21.952 203.056  14.935  1.00  0.00     0.008 C 
ATOM     19  C   UNL     1      19.616 203.118  15.868  1.00  0.00     0.008 C 
ENDBRANCH  12  17
ENDBRANCH  11  12
ENDBRANCH   1  11
TORSDOF 1
ENDMDL
MODEL 7
REMARK VINA RESULT:    -3.421      1.855      4.870
REMARK INTER + INTRA:          -4.906
REMARK INTER:                  -5.061
REMARK INTRA:                   0.155
REMARK UNBOUND:                 0.316
REMARK SMILES CC1=CCC[C@H](C)C(=O)C[C@@H](C(C)C)C(=O)C1
REMARK SMILES IDX 8 1 9 2 6 3 7 4 5 5 4 6 3 7 2 8 1 9 10 11 11 12 15 13 16 14
REMARK SMILES IDX 17 15 12 17 13 18 14 19
REMARK H PARENT
REMARK Flexibility Score: 70.00
ROOT
ATOM      1  C   UNL     1      20.960 208.052  14.517  1.00  0.00     0.136 C 
ATOM      2  O   UNL     1      20.488 209.120  14.879  1.00  0.00    -0.299 OA
ENDROOT
BRANCH   1   3
ATOM      3  C   UNL     1      21.727 207.221  15.535  1.00  0.00     0.053 C 
ATOM      4  C   UNL     1      22.994 207.959  15.994  1.00  0.00     0.016 C 
BRANCH   3   5
ATOM      5  C   UNL     1      20.859 206.806  16.748  1.00  0.00     0.015 C 
BRANCH   5   6
ATOM      6  C   UNL     1      19.422 206.347  16.417  1.00  0.00     0.028 C 
BRANCH   6   7
ATOM      7  C   UNL     1      19.222 204.872  16.149  1.00  0.00    -0.028 C 
ATOM      8  C   UNL     1      19.389 204.240  14.964  1.00  0.00    -0.070 CG0
ATOM      9  C   UNL     1      18.974 202.792  14.875  1.00  0.00     0.039 C 
ATOM     10  G   UNL     1      20.033 204.878  13.750  1.00  0.00     0.000 G0
ENDBRANCH   6   7
ENDBRANCH   5   6
ENDBRANCH   3   5
ENDBRANCH   1   3
BRANCH   1  11
ATOM     11  C   UNL     1      20.722 207.615  13.079  1.00  0.00     0.087 C 
BRANCH  11  12
ATOM     12  C   UNL     1      19.259 207.189  12.780  1.00  0.00     0.066 C 
BRANCH  12  13
ATOM     13  C   UNL     1      19.055 205.695  12.956  1.00  0.00     0.140 C 
ATOM     14  O   UNL     1      18.112 205.141  12.410  1.00  0.00    -0.299 OA
BRANCH  13  15
ATOM     15  C   UNL     1      20.051 204.860  13.728  1.00  0.00     0.106 CG0
ATOM     16  G   UNL     1      19.387 204.262  14.952  1.00  0.00     0.000 G0
ENDBRANCH  13  15
ENDBRANCH  12  13
BRANCH  12  17
ATOM     17  C   UNL     1      18.736 207.741  11.415  1.00  0.00    -0.006 C 
ATOM     18  C   UNL     1      17.458 208.597  11.503  1.00  0.00     0.008 C 
ATOM     19  C   UNL     1      19.835 208.527  10.683  1.00  0.00     0.008 C 
ENDBRANCH  12  17
ENDBRANCH  11  12
ENDBRANCH   1  11
TORSDOF 1
ENDMDL
MODEL 8
REMARK VINA RESULT:    -3.258      2.271      5.194
REMARK INTER + INTRA:          -4.656
REMARK INTER:                  -4.594
REMARK INTRA:                  -0.062
REMARK UNBOUND:                 0.316
REMARK SMILES CC1=CCC[C@H](C)C(=O)C[C@@H](C(C)C)C(=O)C1
REMARK SMILES IDX 8 1 9 2 6 3 7 4 5 5 4 6 3 7 2 8 1 9 10 11 11 12 15 13 16 14
REMARK SMILES IDX 17 15 12 17 13 18 14 19
REMARK H PARENT
REMARK Flexibility Score: 70.00
ROOT
ATOM      1  C   UNL     1      21.635 205.586  14.985  1.00  0.00     0.136 C 
ATOM      2  O   UNL     1      21.710 205.653  16.203  1.00  0.00    -0.299 OA
ENDROOT
BRANCH   1   3
ATOM      3  C   UNL     1      20.953 204.371  14.372  1.00  0.00     0.053 C 
ATOM      4  C   UNL     1      21.507 203.074  14.979  1.00  0.00     0.016 C 
BRANCH   3   5
ATOM      5  C   UNL     1      19.411 204.425  14.492  1.00  0.00     0.015 C 
BRANCH   5   6
ATOM      6  C   UNL     1      18.752 205.755  14.069  1.00  0.00     0.028 C 
BRANCH   6   7
ATOM      7  C   UNL     1      18.850 206.130  12.606  1.00  0.00    -0.028 C 
ATOM      8  C   UNL     1      19.013 207.377  12.105  1.00  0.00    -0.070 CG0
ATOM      9  C   UNL     1      18.917 207.551  10.609  1.00  0.00     0.039 C 
ATOM     10  G   UNL     1      19.356 208.588  12.949  1.00  0.00     0.000 G0
ENDBRANCH   6   7
ENDBRANCH   5   6
ENDBRANCH   3   5
ENDBRANCH   1   3
BRANCH   1  11
ATOM     11  C   UNL     1      22.204 206.736  14.167  1.00  0.00     0.087 C 
BRANCH  11  12
ATOM     12  C   UNL     1      21.499 208.097  14.412  1.00  0.00     0.066 C 
BRANCH  12  13
ATOM     13  C   UNL     1      20.867 208.645  13.144  1.00  0.00     0.140 C 
ATOM     14  O   UNL     1      21.577 209.074  12.247  1.00  0.00    -0.299 OA
BRANCH  13  15
ATOM     15  C   UNL     1      19.370 208.589  12.936  1.00  0.00     0.106 CG0
ATOM     16  G   UNL     1      19.009 207.379  12.097  1.00  0.00     0.000 G0
ENDBRANCH  13  15
ENDBRANCH  12  13
BRANCH  12  17
ATOM     17  C   UNL     1      22.409 209.124  15.157  1.00  0.00    -0.006 C 
ATOM     18  C   UNL     1      22.328 209.073  16.695  1.00  0.00     0.008 C 
ATOM     19  C   UNL     1      23.874 208.985  14.712  1.00  0.00     0.008 C 
ENDBRANCH  12  17
ENDBRANCH  11  12
ENDBRANCH   1  11
TORSDOF 1
ENDMDL
MODEL 9
REMARK VINA RESULT:    -3.165      2.035      3.455
REMARK INTER + INTRA:          -4.514
REMARK INTER:                  -4.623
REMARK INTRA:                   0.109
REMARK UNBOUND:                 0.316
REMARK SMILES CC1=CCC[C@H](C)C(=O)C[C@@H](C(C)C)C(=O)C1
REMARK SMILES IDX 8 1 9 2 6 3 7 4 5 5 4 6 3 7 2 8 1 9 10 11 11 12 15 13 16 14
REMARK SMILES IDX 17 15 12 17 13 18 14 19
REMARK H PARENT
REMARK Flexibility Score: 70.00
ROOT
ATOM      1  C   UNL     1      19.443 206.673  16.381  1.00  0.00     0.136 C 
ATOM      2  O   UNL     1      19.055 206.347  17.493  1.00  0.00    -0.299 OA
ENDROOT
BRANCH   1   3
ATOM      3  C   UNL     1      19.988 208.082  16.192  1.00  0.00     0.053 C 
ATOM      4  C   UNL     1      18.880 209.125  16.403  1.00  0.00     0.016 C 
BRANCH   3   5
ATOM      5  C   UNL     1      21.208 208.379  17.097  1.00  0.00     0.015 C 
BRANCH   5   6
ATOM      6  C   UNL     1      22.592 208.173  16.444  1.00  0.00     0.028 C 
BRANCH   6   7
ATOM      7  C   UNL     1      22.782 208.741  15.055  1.00  0.00    -0.028 C 
ATOM      8  C   UNL     1      22.982 208.033  13.918  1.00  0.00    -0.070 CG0
ATOM      9  C   UNL     1      23.317 208.801  12.663  1.00  0.00     0.039 C 
ATOM     10  G   UNL     1      22.819 206.529  13.819  1.00  0.00     0.000 G0
ENDBRANCH   6   7
ENDBRANCH   5   6
ENDBRANCH   3   5
ENDBRANCH   1   3
BRANCH   1  11
ATOM     11  C   UNL     1      19.381 205.638  15.268  1.00  0.00     0.087 C 
BRANCH  11  12
ATOM     12  C   UNL     1      20.770 205.176  14.752  1.00  0.00     0.066 C 
BRANCH  12  13
ATOM     13  C   UNL     1      21.358 206.156  13.752  1.00  0.00     0.140 C 
ATOM     14  O   UNL     1      20.630 206.708  12.941  1.00  0.00    -0.299 OA
BRANCH  13  15
ATOM     15  C   UNL     1      22.823 206.527  13.797  1.00  0.00     0.106 CG0
ATOM     16  G   UNL     1      22.972 208.031  13.917  1.00  0.00     0.000 G0
ENDBRANCH  13  15
ENDBRANCH  12  13
BRANCH  12  17
ATOM     17  C   UNL     1      20.771 203.694  14.259  1.00  0.00    -0.006 C 
ATOM     18  C   UNL     1      21.927 202.828  14.795  1.00  0.00     0.008 C 
ATOM     19  C   UNL     1      19.429 203.012  14.567  1.00  0.00     0.008 C 
ENDBRANCH  12  17
ENDBRANCH  11  12
ENDBRANCH   1  11
TORSDOF 1
ENDMDL
