MODEL 1
REMARK VINA RESULT:    -6.147      0.000      0.000
REMARK INTER + INTRA:          -8.786
REMARK INTER:                  -7.585
REMARK INTRA:                  -1.201
REMARK UNBOUND:                -1.201
REMARK SMILES CC(C)=CCC[C@H](C)c1ccc(C)cc1
REMARK SMILES IDX 6 1 7 2 8 3 9 4 13 5 12 6 11 7 14 8 10 9 15 10 5 11 4 12
REMARK SMILES IDX 2 13 1 14 3 15
REMARK H PARENT
REMARK Flexibility Score: inf
ROOT
ATOM      1  C   UNL     1      -7.619  -4.058  16.252  1.00  0.00     0.012 C 
ENDROOT
BRANCH   1   2
ATOM      2  C   UNL     1      -7.388  -4.310  17.764  1.00  0.00     0.016 C 
ATOM      3  C   UNL     1      -8.200  -3.366  18.667  1.00  0.00     0.013 C 
BRANCH   2   4
ATOM      4  C   UNL     1      -5.912  -4.393  18.129  1.00  0.00    -0.045 A 
ATOM      5  C   UNL     1      -1.685  -4.688  18.978  1.00  0.00     0.044 C 
ATOM      6  C   UNL     1      -3.158  -4.595  18.709  1.00  0.00    -0.051 A 
ATOM      7  C   UNL     1      -3.839  -5.673  18.129  1.00  0.00     0.004 A 
ATOM      8  C   UNL     1      -3.848  -3.403  18.966  1.00  0.00     0.004 A 
ATOM      9  C   UNL     1      -5.203  -5.573  17.842  1.00  0.00     0.004 A 
ATOM     10  C   UNL     1      -5.213  -3.301  18.681  1.00  0.00     0.004 A 
ENDBRANCH   2   4
ENDBRANCH   1   2
BRANCH   1  11
ATOM     11  C   UNL     1      -6.826  -2.896  15.616  1.00  0.00     0.028 C 
BRANCH  11  12
ATOM     12  C   UNL     1      -6.236  -3.237  14.271  1.00  0.00    -0.028 C 
ATOM     13  C   UNL     1      -4.941  -3.558  14.054  1.00  0.00    -0.080 C 
ATOM     14  C   UNL     1      -3.913  -3.556  15.162  1.00  0.00     0.039 C 
ATOM     15  C   UNL     1      -4.513  -3.889  12.647  1.00  0.00     0.039 C 
ENDBRANCH  11  12
ENDBRANCH   1  11
TORSDOF 4
ENDMDL
MODEL 2
REMARK VINA RESULT:    -5.877      1.070      4.581
REMARK INTER + INTRA:          -8.453
REMARK INTER:                  -7.365
REMARK INTRA:                  -1.087
REMARK UNBOUND:                -1.201
REMARK SMILES CC(C)=CCC[C@H](C)c1ccc(C)cc1
REMARK SMILES IDX 6 1 7 2 8 3 9 4 13 5 12 6 11 7 14 8 10 9 15 10 5 11 4 12
REMARK SMILES IDX 2 13 1 14 3 15
REMARK H PARENT
REMARK Flexibility Score: inf
ROOT
ATOM      1  C   UNL     1      -6.049  -2.612  18.945  1.00  0.00     0.012 C 
ENDROOT
BRANCH   1   2
ATOM      2  C   UNL     1      -6.547  -3.777  18.051  1.00  0.00     0.016 C 
ATOM      3  C   UNL     1      -6.375  -5.159  18.704  1.00  0.00     0.013 C 
BRANCH   2   4
ATOM      4  C   UNL     1      -6.010  -3.697  16.628  1.00  0.00    -0.045 A 
ATOM      5  C   UNL     1      -4.403  -3.646  12.617  1.00  0.00     0.044 C 
ATOM      6  C   UNL     1      -4.956  -3.636  14.011  1.00  0.00    -0.051 A 
ATOM      7  C   UNL     1      -4.119  -3.890  15.106  1.00  0.00     0.004 A 
ATOM      8  C   UNL     1      -6.328  -3.447  14.225  1.00  0.00     0.004 A 
ATOM      9  C   UNL     1      -4.641  -3.920  16.401  1.00  0.00     0.004 A 
ATOM     10  C   UNL     1      -6.853  -3.475  15.520  1.00  0.00     0.004 A 
ENDBRANCH   2   4
ENDBRANCH   1   2
BRANCH   1  11
ATOM     11  C   UNL     1      -4.937  -2.948  19.962  1.00  0.00     0.028 C 
BRANCH  11  12
ATOM     12  C   UNL     1      -3.555  -2.583  19.481  1.00  0.00    -0.028 C 
ATOM     13  C   UNL     1      -2.578  -3.471  19.193  1.00  0.00    -0.080 C 
ATOM     14  C   UNL     1      -2.760  -4.960  19.379  1.00  0.00     0.039 C 
ATOM     15  C   UNL     1      -1.252  -2.943  18.708  1.00  0.00     0.039 C 
ENDBRANCH  11  12
ENDBRANCH   1  11
TORSDOF 4
ENDMDL
MODEL 3
REMARK VINA RESULT:    -5.804      1.253      3.785
REMARK INTER + INTRA:          -8.362
REMARK INTER:                  -7.133
REMARK INTRA:                  -1.229
REMARK UNBOUND:                -1.201
REMARK SMILES CC(C)=CCC[C@H](C)c1ccc(C)cc1
REMARK SMILES IDX 6 1 7 2 8 3 9 4 13 5 12 6 11 7 14 8 10 9 15 10 5 11 4 12
REMARK SMILES IDX 2 13 1 14 3 15
REMARK H PARENT
REMARK Flexibility Score: inf
ROOT
ATOM      1  C   UNL     1      -6.664  -4.200  15.152  1.00  0.00     0.012 C 
ENDROOT
BRANCH   1   2
ATOM      2  C   UNL     1      -5.254  -3.675  15.527  1.00  0.00     0.016 C 
ATOM      3  C   UNL     1      -4.280  -3.653  14.336  1.00  0.00     0.013 C 
BRANCH   2   4
ATOM      4  C   UNL     1      -4.688  -4.344  16.772  1.00  0.00    -0.045 A 
ATOM      5  C   UNL     1      -3.147  -6.087  20.414  1.00  0.00     0.044 C 
ATOM      6  C   UNL     1      -3.660  -5.492  19.136  1.00  0.00    -0.051 A 
ATOM      7  C   UNL     1      -3.338  -4.172  18.793  1.00  0.00     0.004 A 
ATOM      8  C   UNL     1      -4.525  -6.225  18.313  1.00  0.00     0.004 A 
ATOM      9  C   UNL     1      -3.847  -3.604  17.622  1.00  0.00     0.004 A 
ATOM     10  C   UNL     1      -5.035  -5.659  17.141  1.00  0.00     0.004 A 
ENDBRANCH   2   4
ENDBRANCH   1   2
BRANCH   1  11
ATOM     11  C   UNL     1      -7.866  -3.400  15.698  1.00  0.00     0.028 C 
BRANCH  11  12
ATOM     12  C   UNL     1      -7.727  -3.025  17.152  1.00  0.00    -0.028 C 
ATOM     13  C   UNL     1      -8.079  -3.816  18.190  1.00  0.00    -0.080 C 
ATOM     14  C   UNL     1      -8.713  -5.174  17.992  1.00  0.00     0.039 C 
ATOM     15  C   UNL     1      -7.862  -3.297  19.589  1.00  0.00     0.039 C 
ENDBRANCH  11  12
ENDBRANCH   1  11
TORSDOF 4
ENDMDL
MODEL 4
REMARK VINA RESULT:    -5.803      1.002      4.611
REMARK INTER + INTRA:          -8.361
REMARK INTER:                  -7.331
REMARK INTRA:                  -1.030
REMARK UNBOUND:                -1.201
REMARK SMILES CC(C)=CCC[C@H](C)c1ccc(C)cc1
REMARK SMILES IDX 6 1 7 2 8 3 9 4 13 5 12 6 11 7 14 8 10 9 15 10 5 11 4 12
REMARK SMILES IDX 2 13 1 14 3 15
REMARK H PARENT
REMARK Flexibility Score: inf
ROOT
ATOM      1  C   UNL     1      -6.251  -5.129  18.742  1.00  0.00     0.012 C 
ENDROOT
BRANCH   1   2
ATOM      2  C   UNL     1      -6.609  -3.782  18.063  1.00  0.00     0.016 C 
ATOM      3  C   UNL     1      -8.094  -3.408  18.204  1.00  0.00     0.013 C 
BRANCH   2   4
ATOM      4  C   UNL     1      -6.082  -3.683  16.638  1.00  0.00    -0.045 A 
ATOM      5  C   UNL     1      -4.510  -3.582  12.614  1.00  0.00     0.044 C 
ATOM      6  C   UNL     1      -5.049  -3.590  14.013  1.00  0.00    -0.051 A 
ATOM      7  C   UNL     1      -4.218  -3.930  15.089  1.00  0.00     0.004 A 
ATOM      8  C   UNL     1      -6.406  -3.330  14.248  1.00  0.00     0.004 A 
ATOM      9  C   UNL     1      -4.729  -3.975  16.388  1.00  0.00     0.004 A 
ATOM     10  C   UNL     1      -6.920  -3.375  15.548  1.00  0.00     0.004 A 
ENDBRANCH   2   4
ENDBRANCH   1   2
BRANCH   1  11
ATOM     11  C   UNL     1      -5.312  -5.058  19.965  1.00  0.00     0.028 C 
BRANCH  11  12
ATOM     12  C   UNL     1      -3.863  -5.300  19.624  1.00  0.00    -0.028 C 
ATOM     13  C   UNL     1      -2.935  -4.331  19.466  1.00  0.00    -0.080 C 
ATOM     14  C   UNL     1      -3.275  -2.862  19.567  1.00  0.00     0.039 C 
ATOM     15  C   UNL     1      -1.521  -4.742  19.140  1.00  0.00     0.039 C 
ENDBRANCH  11  12
ENDBRANCH   1  11
TORSDOF 4
ENDMDL
MODEL 5
REMARK VINA RESULT:    -5.640      1.930      4.880
REMARK INTER + INTRA:          -8.159
REMARK INTER:                  -6.614
REMARK INTRA:                  -1.546
REMARK UNBOUND:                -1.201
REMARK SMILES CC(C)=CCC[C@H](C)c1ccc(C)cc1
REMARK SMILES IDX 6 1 7 2 8 3 9 4 13 5 12 6 11 7 14 8 10 9 15 10 5 11 4 12
REMARK SMILES IDX 2 13 1 14 3 15
REMARK H PARENT
REMARK Flexibility Score: inf
ROOT
ATOM      1  C   UNL     1      -4.994  -6.353  21.208  1.00  0.00     0.012 C 
ENDROOT
BRANCH   1   2
ATOM      2  C   UNL     1      -3.667  -6.413  20.409  1.00  0.00     0.016 C 
ATOM      3  C   UNL     1      -2.434  -6.047  21.252  1.00  0.00     0.013 C 
BRANCH   2   4
ATOM      4  C   UNL     1      -3.746  -5.672  19.081  1.00  0.00    -0.045 A 
ATOM      5  C   UNL     1      -4.166  -3.556  15.336  1.00  0.00     0.044 C 
ATOM      6  C   UNL     1      -4.000  -4.307  16.624  1.00  0.00    -0.051 A 
ATOM      7  C   UNL     1      -4.793  -5.430  16.895  1.00  0.00     0.004 A 
ATOM      8  C   UNL     1      -3.104  -3.847  17.599  1.00  0.00     0.004 A 
ATOM      9  C   UNL     1      -4.667  -6.106  18.111  1.00  0.00     0.004 A 
ATOM     10  C   UNL     1      -2.975  -4.522  18.816  1.00  0.00     0.004 A 
ENDBRANCH   2   4
ENDBRANCH   1   2
BRANCH   1  11
ATOM     11  C   UNL     1      -5.554  -4.948  21.514  1.00  0.00     0.028 C 
BRANCH  11  12
ATOM     12  C   UNL     1      -6.754  -4.585  20.677  1.00  0.00    -0.028 C 
ATOM     13  C   UNL     1      -6.847  -3.488  19.894  1.00  0.00    -0.080 C 
ATOM     14  C   UNL     1      -5.745  -2.457  19.815  1.00  0.00     0.039 C 
ATOM     15  C   UNL     1      -8.115  -3.277  19.106  1.00  0.00     0.039 C 
ENDBRANCH  11  12
ENDBRANCH   1  11
TORSDOF 4
ENDMDL
MODEL 6
REMARK VINA RESULT:    -5.512      1.644      3.862
REMARK INTER + INTRA:          -8.001
REMARK INTER:                  -6.547
REMARK INTRA:                  -1.454
REMARK UNBOUND:                -1.201
REMARK SMILES CC(C)=CCC[C@H](C)c1ccc(C)cc1
REMARK SMILES IDX 6 1 7 2 8 3 9 4 13 5 12 6 11 7 14 8 10 9 15 10 5 11 4 12
REMARK SMILES IDX 2 13 1 14 3 15
REMARK H PARENT
REMARK Flexibility Score: inf
ROOT
ATOM      1  C   UNL     1      -3.533  -3.657  16.573  1.00  0.00     0.012 C 
ENDROOT
BRANCH   1   2
ATOM      2  C   UNL     1      -3.266  -3.701  18.099  1.00  0.00     0.016 C 
ATOM      3  C   UNL     1      -2.182  -4.717  18.497  1.00  0.00     0.013 C 
BRANCH   2   4
ATOM      4  C   UNL     1      -4.544  -3.812  18.918  1.00  0.00    -0.045 A 
ATOM      5  C   UNL     1      -8.067  -4.202  21.391  1.00  0.00     0.044 C 
ATOM      6  C   UNL     1      -6.860  -4.074  20.510  1.00  0.00    -0.051 A 
ATOM      7  C   UNL     1      -5.995  -5.162  20.335  1.00  0.00     0.004 A 
ATOM      8  C   UNL     1      -6.546  -2.844  19.916  1.00  0.00     0.004 A 
ATOM      9  C   UNL     1      -4.849  -5.033  19.546  1.00  0.00     0.004 A 
ATOM     10  C   UNL     1      -5.400  -2.712  19.126  1.00  0.00     0.004 A 
ENDBRANCH   2   4
ENDBRANCH   1   2
BRANCH   1  11
ATOM     11  C   UNL     1      -4.657  -4.572  16.042  1.00  0.00     0.028 C 
BRANCH  11  12
ATOM     12  C   UNL     1      -5.921  -3.827  15.691  1.00  0.00    -0.028 C 
ATOM     13  C   UNL     1      -7.165  -4.198  16.065  1.00  0.00    -0.080 C 
ATOM     14  C   UNL     1      -7.429  -5.460  16.853  1.00  0.00     0.039 C 
ATOM     15  C   UNL     1      -8.326  -3.333  15.642  1.00  0.00     0.039 C 
ENDBRANCH  11  12
ENDBRANCH   1  11
TORSDOF 4
ENDMDL
MODEL 7
REMARK VINA RESULT:    -5.496      1.140      1.973
REMARK INTER + INTRA:          -7.982
REMARK INTER:                  -6.476
REMARK INTRA:                  -1.506
REMARK UNBOUND:                -1.201
REMARK SMILES CC(C)=CCC[C@H](C)c1ccc(C)cc1
REMARK SMILES IDX 6 1 7 2 8 3 9 4 13 5 12 6 11 7 14 8 10 9 15 10 5 11 4 12
REMARK SMILES IDX 2 13 1 14 3 15
REMARK H PARENT
REMARK Flexibility Score: inf
ROOT
ATOM      1  C   UNL     1      -7.885  -5.630  18.557  1.00  0.00     0.012 C 
ENDROOT
BRANCH   1   2
ATOM      2  C   UNL     1      -7.224  -4.594  19.502  1.00  0.00     0.016 C 
ATOM      3  C   UNL     1      -7.983  -3.258  19.562  1.00  0.00     0.013 C 
BRANCH   2   4
ATOM      4  C   UNL     1      -5.729  -4.442  19.256  1.00  0.00    -0.045 A 
ATOM      5  C   UNL     1      -1.503  -4.137  18.407  1.00  0.00     0.044 C 
ATOM      6  C   UNL     1      -2.964  -4.242  18.729  1.00  0.00    -0.051 A 
ATOM      7  C   UNL     1      -3.569  -5.499  18.865  1.00  0.00     0.004 A 
ATOM      8  C   UNL     1      -3.751  -3.086  18.823  1.00  0.00     0.004 A 
ATOM      9  C   UNL     1      -4.938  -5.598  19.127  1.00  0.00     0.004 A 
ATOM     10  C   UNL     1      -5.121  -3.183  19.085  1.00  0.00     0.004 A 
ENDBRANCH   2   4
ENDBRANCH   1   2
BRANCH   1  11
ATOM     11  C   UNL     1      -8.282  -5.129  17.152  1.00  0.00     0.028 C 
BRANCH  11  12
ATOM     12  C   UNL     1      -7.111  -4.993  16.211  1.00  0.00    -0.028 C 
ATOM     13  C   UNL     1      -6.646  -3.822  15.721  1.00  0.00    -0.080 C 
ATOM     14  C   UNL     1      -7.302  -2.498  16.037  1.00  0.00     0.039 C 
ATOM     15  C   UNL     1      -5.453  -3.856  14.799  1.00  0.00     0.039 C 
ENDBRANCH  11  12
ENDBRANCH   1  11
TORSDOF 4
ENDMDL
MODEL 8
REMARK VINA RESULT:    -5.427      1.651      3.799
REMARK INTER + INTRA:          -7.897
REMARK INTER:                  -6.454
REMARK INTRA:                  -1.443
REMARK UNBOUND:                -1.201
REMARK SMILES CC(C)=CCC[C@H](C)c1ccc(C)cc1
REMARK SMILES IDX 6 1 7 2 8 3 9 4 13 5 12 6 11 7 14 8 10 9 15 10 5 11 4 12
REMARK SMILES IDX 2 13 1 14 3 15
REMARK H PARENT
REMARK Flexibility Score: inf
ROOT
ATOM      1  C   UNL     1      -5.814  -3.406  15.581  1.00  0.00     0.012 C 
ENDROOT
BRANCH   1   2
ATOM      2  C   UNL     1      -7.116  -3.917  16.250  1.00  0.00     0.016 C 
ATOM      3  C   UNL     1      -8.379  -3.197  15.747  1.00  0.00     0.013 C 
BRANCH   2   4
ATOM      4  C   UNL     1      -7.010  -3.986  17.767  1.00  0.00    -0.045 A 
ATOM      5  C   UNL     1      -6.804  -4.010  22.084  1.00  0.00     0.044 C 
ATOM      6  C   UNL     1      -6.850  -4.013  20.585  1.00  0.00    -0.051 A 
ATOM      7  C   UNL     1      -6.429  -2.888  19.863  1.00  0.00     0.004 A 
ATOM      8  C   UNL     1      -7.384  -5.111  19.897  1.00  0.00     0.004 A 
ATOM      9  C   UNL     1      -6.507  -2.875  18.468  1.00  0.00     0.004 A 
ATOM     10  C   UNL     1      -7.464  -5.100  18.501  1.00  0.00     0.004 A 
ENDBRANCH   2   4
ENDBRANCH   1   2
BRANCH   1  11
ATOM     11  C   UNL     1      -4.562  -4.296  15.736  1.00  0.00     0.028 C 
BRANCH  11  12
ATOM     12  C   UNL     1      -3.519  -3.709  16.654  1.00  0.00    -0.028 C 
ATOM     13  C   UNL     1      -3.132  -4.251  17.829  1.00  0.00    -0.080 C 
ATOM     14  C   UNL     1      -3.758  -5.509  18.383  1.00  0.00     0.039 C 
ATOM     15  C   UNL     1      -2.062  -3.545  18.624  1.00  0.00     0.039 C 
ENDBRANCH  11  12
ENDBRANCH   1  11
TORSDOF 4
ENDMDL
MODEL 9
REMARK VINA RESULT:    -5.403      1.505      4.387
REMARK INTER + INTRA:          -7.867
REMARK INTER:                  -6.529
REMARK INTRA:                  -1.338
REMARK UNBOUND:                -1.201
REMARK SMILES CC(C)=CCC[C@H](C)c1ccc(C)cc1
REMARK SMILES IDX 6 1 7 2 8 3 9 4 13 5 12 6 11 7 14 8 10 9 15 10 5 11 4 12
REMARK SMILES IDX 2 13 1 14 3 15
REMARK H PARENT
REMARK Flexibility Score: inf
ROOT
ATOM      1  C   UNL     1      -8.425  -3.251  18.966  1.00  0.00     0.012 C 
ENDROOT
BRANCH   1   2
ATOM      2  C   UNL     1      -8.250  -4.458  18.009  1.00  0.00     0.016 C 
ATOM      3  C   UNL     1      -8.050  -5.793  18.746  1.00  0.00     0.013 C 
BRANCH   2   4
ATOM      4  C   UNL     1      -7.222  -4.197  16.916  1.00  0.00    -0.045 A 
ATOM      5  C   UNL     1      -4.296  -3.654  13.783  1.00  0.00     0.044 C 
ATOM      6  C   UNL     1      -5.299  -3.821  14.885  1.00  0.00    -0.051 A 
ATOM      7  C   UNL     1      -5.064  -4.734  15.922  1.00  0.00     0.004 A 
ATOM      8  C   UNL     1      -6.514  -3.123  14.846  1.00  0.00     0.004 A 
ATOM      9  C   UNL     1      -6.015  -4.919  16.928  1.00  0.00     0.004 A 
ATOM     10  C   UNL     1      -7.467  -3.307  15.852  1.00  0.00     0.004 A 
ENDBRANCH   2   4
ENDBRANCH   1   2
BRANCH   1  11
ATOM     11  C   UNL     1      -7.483  -3.195  20.187  1.00  0.00     0.028 C 
BRANCH  11  12
ATOM     12  C   UNL     1      -6.129  -2.608  19.874  1.00  0.00    -0.028 C 
ATOM     13  C   UNL     1      -4.959  -3.279  19.957  1.00  0.00    -0.080 C 
ATOM     14  C   UNL     1      -4.881  -4.711  20.435  1.00  0.00     0.039 C 
ATOM     15  C   UNL     1      -3.690  -2.550  19.594  1.00  0.00     0.039 C 
ENDBRANCH  11  12
ENDBRANCH   1  11
TORSDOF 4
ENDMDL
