MODEL 1
REMARK VINA RESULT:    -4.084      0.000      0.000
REMARK INTER + INTRA:          -4.204
REMARK INTER:                  -4.204
REMARK INTRA:                   0.000
REMARK UNBOUND:                 0.000
REMARK SMILES Oc1ccc2[nH]ccc2c1
REMARK SMILES IDX 3 1 4 2 5 3 9 4 8 5 7 6 6 7 10 8 2 9 1 11
REMARK H PARENT 6 10 1 12
REMARK Flexibility Score: inf
ROOT
ATOM      1  C   UNL     1      12.498  -4.010  -1.900  1.00  0.00     0.048 A 
ATOM      2  C   UNL     1      11.636  -4.528  -0.914  1.00  0.00     0.030 A 
ATOM      3  C   UNL     1      10.296  -4.705  -1.252  1.00  0.00     0.046 A 
ATOM      4  C   UNL     1       9.819  -4.390  -2.496  1.00  0.00     0.003 A 
ATOM      5  C   UNL     1       8.472  -4.679  -2.507  1.00  0.00     0.028 A 
ATOM      6  C   UNL     1       8.195  -5.166  -1.233  1.00  0.00     0.083 A 
ATOM      7  N   UNL     1       9.313  -5.180  -0.471  1.00  0.00    -0.361 N 
ATOM      8  C   UNL     1      10.644  -3.877  -3.494  1.00  0.00     0.056 A 
ATOM      9  C   UNL     1      12.006  -3.685  -3.187  1.00  0.00     0.116 A 
ATOM     10  H   UNL     1       9.391  -5.497   0.522  1.00  0.00     0.166 HD
ENDROOT
BRANCH   9  11
ATOM     11  O   UNL     1      12.861  -3.173  -4.162  1.00  0.00    -0.508 OA
ATOM     12  H   UNL     1      13.867  -3.225  -4.063  1.00  0.00     0.293 HD
ENDBRANCH   9  11
TORSDOF 1
ENDMDL
MODEL 2
REMARK VINA RESULT:    -3.886      2.617      4.096
REMARK INTER + INTRA:          -3.999
REMARK INTER:                  -3.999
REMARK INTRA:                   0.000
REMARK UNBOUND:                 0.000
REMARK SMILES Oc1ccc2[nH]ccc2c1
REMARK SMILES IDX 3 1 4 2 5 3 9 4 8 5 7 6 6 7 10 8 2 9 1 11
REMARK H PARENT 6 10 1 12
REMARK Flexibility Score: inf
ROOT
ATOM      1  C   UNL     1      11.421  -3.791  -3.368  1.00  0.00     0.048 A 
ATOM      2  C   UNL     1      12.791  -4.116  -3.401  1.00  0.00     0.030 A 
ATOM      3  C   UNL     1      13.416  -4.417  -2.192  1.00  0.00     0.046 A 
ATOM      4  C   UNL     1      12.735  -4.400  -1.005  1.00  0.00     0.003 A 
ATOM      5  C   UNL     1      13.629  -4.738  -0.012  1.00  0.00     0.028 A 
ATOM      6  C   UNL     1      14.838  -4.947  -0.668  1.00  0.00     0.083 A 
ATOM      7  N   UNL     1      14.703  -4.749  -2.000  1.00  0.00    -0.361 N 
ATOM      8  C   UNL     1      11.381  -4.083  -0.937  1.00  0.00     0.056 A 
ATOM      9  C   UNL     1      10.715  -3.774  -2.140  1.00  0.00     0.116 A 
ATOM     10  H   UNL     1      15.449  -4.839  -2.726  1.00  0.00     0.166 HD
ENDROOT
BRANCH   9  11
ATOM     11  O   UNL     1       9.360  -3.452  -2.108  1.00  0.00    -0.508 OA
ATOM     12  H   UNL     1       8.889  -3.233  -1.239  1.00  0.00     0.293 HD
ENDBRANCH   9  11
TORSDOF 1
ENDMDL
MODEL 3
REMARK VINA RESULT:    -3.789      2.027      2.621
REMARK INTER + INTRA:          -3.900
REMARK INTER:                  -3.900
REMARK INTRA:                   0.000
REMARK UNBOUND:                 0.000
REMARK SMILES Oc1ccc2[nH]ccc2c1
REMARK SMILES IDX 3 1 4 2 5 3 9 4 8 5 7 6 6 7 10 8 2 9 1 11
REMARK H PARENT 6 10 1 12
REMARK Flexibility Score: inf
ROOT
ATOM      1  C   UNL     1      13.233  -3.961  -2.501  1.00  0.00     0.048 A 
ATOM      2  C   UNL     1      12.374  -3.966  -3.616  1.00  0.00     0.030 A 
ATOM      3  C   UNL     1      11.002  -4.027  -3.377  1.00  0.00     0.046 A 
ATOM      4  C   UNL     1      10.493  -4.080  -2.108  1.00  0.00     0.003 A 
ATOM      5  C   UNL     1       9.121  -4.132  -2.215  1.00  0.00     0.028 A 
ATOM      6  C   UNL     1       8.862  -4.107  -3.582  1.00  0.00     0.083 A 
ATOM      7  N   UNL     1      10.015  -4.043  -4.288  1.00  0.00    -0.361 N 
ATOM      8  C   UNL     1      11.316  -4.077  -0.984  1.00  0.00     0.056 A 
ATOM      9  C   UNL     1      12.709  -4.016  -1.187  1.00  0.00     0.116 A 
ATOM     10  H   UNL     1      10.112  -4.012  -5.328  1.00  0.00     0.166 HD
ENDROOT
BRANCH   9  11
ATOM     11  O   UNL     1      13.561  -4.010  -0.085  1.00  0.00    -0.508 OA
ATOM     12  H   UNL     1      13.387  -4.599   0.721  1.00  0.00     0.293 HD
ENDBRANCH   9  11
TORSDOF 1
ENDMDL
MODEL 4
REMARK VINA RESULT:    -3.730      2.269      3.832
REMARK INTER + INTRA:          -3.839
REMARK INTER:                  -3.839
REMARK INTRA:                   0.000
REMARK UNBOUND:                 0.000
REMARK SMILES Oc1ccc2[nH]ccc2c1
REMARK SMILES IDX 3 1 4 2 5 3 9 4 8 5 7 6 6 7 10 8 2 9 1 11
REMARK H PARENT 6 10 1 12
REMARK Flexibility Score: inf
ROOT
ATOM      1  C   UNL     1      10.995  -4.184  -1.788  1.00  0.00     0.048 A 
ATOM      2  C   UNL     1      11.719  -4.921  -0.831  1.00  0.00     0.030 A 
ATOM      3  C   UNL     1      13.050  -5.222  -1.115  1.00  0.00     0.046 A 
ATOM      4  C   UNL     1      13.646  -4.821  -2.280  1.00  0.00     0.003 A 
ATOM      5  C   UNL     1      14.948  -5.272  -2.253  1.00  0.00     0.028 A 
ATOM      6  C   UNL     1      15.075  -5.942  -1.040  1.00  0.00     0.083 A 
ATOM      7  N   UNL     1      13.912  -5.908  -0.349  1.00  0.00    -0.361 N 
ATOM      8  C   UNL     1      12.959  -4.091  -3.247  1.00  0.00     0.056 A 
ATOM      9  C   UNL     1      11.611  -3.768  -2.993  1.00  0.00     0.116 A 
ATOM     10  H   UNL     1      13.729  -6.330   0.589  1.00  0.00     0.166 HD
ENDROOT
BRANCH   9  11
ATOM     11  O   UNL     1      10.894  -3.038  -3.939  1.00  0.00    -0.508 OA
ATOM     12  H   UNL     1      10.131  -2.429  -3.669  1.00  0.00     0.293 HD
ENDBRANCH   9  11
TORSDOF 1
ENDMDL
MODEL 5
REMARK VINA RESULT:    -3.672      3.177      4.262
REMARK INTER + INTRA:          -3.780
REMARK INTER:                  -3.780
REMARK INTRA:                   0.000
REMARK UNBOUND:                 0.000
REMARK SMILES Oc1ccc2[nH]ccc2c1
REMARK SMILES IDX 3 1 4 2 5 3 9 4 8 5 7 6 6 7 10 8 2 9 1 11
REMARK H PARENT 6 10 1 12
REMARK Flexibility Score: inf
ROOT
ATOM      1  C   UNL     1      15.436  -5.559  -1.161  1.00  0.00     0.048 A 
ATOM      2  C   UNL     1      14.885  -5.375  -2.444  1.00  0.00     0.030 A 
ATOM      3  C   UNL     1      13.626  -4.783  -2.530  1.00  0.00     0.046 A 
ATOM      4  C   UNL     1      12.937  -4.389  -1.415  1.00  0.00     0.003 A 
ATOM      5  C   UNL     1      11.743  -3.848  -1.838  1.00  0.00     0.028 A 
ATOM      6  C   UNL     1      11.772  -3.945  -3.226  1.00  0.00     0.083 A 
ATOM      7  N   UNL     1      12.924  -4.517  -3.644  1.00  0.00    -0.361 N 
ATOM      8  C   UNL     1      13.453  -4.558  -0.132  1.00  0.00     0.056 A 
ATOM      9  C   UNL     1      14.724  -5.152  -0.007  1.00  0.00     0.116 A 
ATOM     10  H   UNL     1      13.206  -4.709  -4.631  1.00  0.00     0.166 HD
ENDROOT
BRANCH   9  11
ATOM     11  O   UNL     1      15.270  -5.336   1.262  1.00  0.00    -0.508 OA
ATOM     12  H   UNL     1      16.171  -4.944   1.511  1.00  0.00     0.293 HD
ENDBRANCH   9  11
TORSDOF 1
ENDMDL
MODEL 6
REMARK VINA RESULT:    -3.670      2.611      4.046
REMARK INTER + INTRA:          -3.777
REMARK INTER:                  -3.777
REMARK INTRA:                   0.000
REMARK UNBOUND:                 0.000
REMARK SMILES Oc1ccc2[nH]ccc2c1
REMARK SMILES IDX 3 1 4 2 5 3 9 4 8 5 7 6 6 7 10 8 2 9 1 11
REMARK H PARENT 6 10 1 12
REMARK Flexibility Score: inf
ROOT
ATOM      1  C   UNL     1       8.747  -3.920  -2.741  1.00  0.00     0.048 A 
ATOM      2  C   UNL     1       9.796  -3.557  -3.606  1.00  0.00     0.030 A 
ATOM      3  C   UNL     1      11.099  -3.851  -3.206  1.00  0.00     0.046 A 
ATOM      4  C   UNL     1      11.365  -4.470  -2.015  1.00  0.00     0.003 A 
ATOM      5  C   UNL     1      12.732  -4.614  -1.921  1.00  0.00     0.028 A 
ATOM      6  C   UNL     1      13.237  -4.058  -3.093  1.00  0.00     0.083 A 
ATOM      7  N   UNL     1      12.235  -3.593  -3.874  1.00  0.00    -0.361 N 
ATOM      8  C   UNL     1      10.350  -4.842  -1.136  1.00  0.00     0.056 A 
ATOM      9  C   UNL     1       9.021  -4.562  -1.508  1.00  0.00     0.116 A 
ATOM     10  H   UNL     1      12.331  -3.130  -4.806  1.00  0.00     0.166 HD
ENDROOT
BRANCH   9  11
ATOM     11  O   UNL     1       7.981  -4.920  -0.652  1.00  0.00    -0.508 OA
ATOM     12  H   UNL     1       7.944  -5.835  -0.220  1.00  0.00     0.293 HD
ENDBRANCH   9  11
TORSDOF 1
ENDMDL
MODEL 7
REMARK VINA RESULT:    -3.637      1.779      2.413
REMARK INTER + INTRA:          -3.743
REMARK INTER:                  -3.743
REMARK INTRA:                   0.000
REMARK UNBOUND:                 0.000
REMARK SMILES Oc1ccc2[nH]ccc2c1
REMARK SMILES IDX 3 1 4 2 5 3 9 4 8 5 7 6 6 7 10 8 2 9 1 11
REMARK H PARENT 6 10 1 12
REMARK Flexibility Score: inf
ROOT
ATOM      1  C   UNL     1      13.613  -4.720  -0.545  1.00  0.00     0.048 A 
ATOM      2  C   UNL     1      12.248  -4.466  -0.317  1.00  0.00     0.030 A 
ATOM      3  C   UNL     1      11.451  -4.165  -1.421  1.00  0.00     0.046 A 
ATOM      4  C   UNL     1      11.964  -4.114  -2.688  1.00  0.00     0.003 A 
ATOM      5  C   UNL     1      10.930  -3.794  -3.540  1.00  0.00     0.028 A 
ATOM      6  C   UNL     1       9.812  -3.664  -2.721  1.00  0.00     0.083 A 
ATOM      7  N   UNL     1      10.136  -3.892  -1.427  1.00  0.00    -0.361 N 
ATOM      8  C   UNL     1      13.310  -4.360  -2.948  1.00  0.00     0.056 A 
ATOM      9  C   UNL     1      14.146  -4.668  -1.857  1.00  0.00     0.116 A 
ATOM     10  H   UNL     1       9.492  -3.861  -0.605  1.00  0.00     0.166 HD
ENDROOT
BRANCH   9  11
ATOM     11  O   UNL     1      15.498  -4.920  -2.081  1.00  0.00    -0.508 OA
ATOM     12  H   UNL     1      16.128  -4.189  -2.387  1.00  0.00     0.293 HD
ENDBRANCH   9  11
TORSDOF 1
ENDMDL
MODEL 8
REMARK VINA RESULT:    -3.602      1.086      1.976
REMARK INTER + INTRA:          -3.707
REMARK INTER:                  -3.707
REMARK INTRA:                   0.000
REMARK UNBOUND:                 0.000
REMARK SMILES Oc1ccc2[nH]ccc2c1
REMARK SMILES IDX 3 1 4 2 5 3 9 4 8 5 7 6 6 7 10 8 2 9 1 11
REMARK H PARENT 6 10 1 12
REMARK Flexibility Score: inf
ROOT
ATOM      1  C   UNL     1      11.429  -3.520  -3.524  1.00  0.00     0.048 A 
ATOM      2  C   UNL     1      10.072  -3.891  -3.568  1.00  0.00     0.030 A 
ATOM      3  C   UNL     1       9.544  -4.551  -2.459  1.00  0.00     0.046 A 
ATOM      4  C   UNL     1      10.306  -4.834  -1.359  1.00  0.00     0.003 A 
ATOM      5  C   UNL     1       9.497  -5.483  -0.451  1.00  0.00     0.028 A 
ATOM      6  C   UNL     1       8.251  -5.560  -1.068  1.00  0.00     0.083 A 
ATOM      7  N   UNL     1       8.285  -4.990  -2.294  1.00  0.00    -0.361 N 
ATOM      8  C   UNL     1      11.652  -4.481  -1.283  1.00  0.00     0.056 A 
ATOM      9  C   UNL     1      12.219  -3.812  -2.386  1.00  0.00     0.116 A 
ATOM     10  H   UNL     1       7.493  -4.909  -2.969  1.00  0.00     0.166 HD
ENDROOT
BRANCH   9  11
ATOM     11  O   UNL     1      13.563  -3.444  -2.344  1.00  0.00    -0.508 OA
ATOM     12  H   UNL     1      14.302  -4.127  -2.456  1.00  0.00     0.293 HD
ENDBRANCH   9  11
TORSDOF 1
ENDMDL
MODEL 9
REMARK VINA RESULT:    -3.465     17.046     18.161
REMARK INTER + INTRA:          -3.566
REMARK INTER:                  -3.566
REMARK INTRA:                   0.000
REMARK UNBOUND:                 0.000
REMARK SMILES Oc1ccc2[nH]ccc2c1
REMARK SMILES IDX 3 1 4 2 5 3 9 4 8 5 7 6 6 7 10 8 2 9 1 11
REMARK H PARENT 6 10 1 12
REMARK Flexibility Score: inf
ROOT
ATOM      1  C   UNL     1      18.589  11.091  -2.954  1.00  0.00     0.048 A 
ATOM      2  C   UNL     1      19.470  12.053  -2.426  1.00  0.00     0.030 A 
ATOM      3  C   UNL     1      19.525  12.192  -1.040  1.00  0.00     0.046 A 
ATOM      4  C   UNL     1      18.753  11.426  -0.208  1.00  0.00     0.003 A 
ATOM      5  C   UNL     1      19.040  11.805   1.085  1.00  0.00     0.028 A 
ATOM      6  C   UNL     1      19.996  12.809   0.966  1.00  0.00     0.083 A 
ATOM      7  N   UNL     1      20.289  13.041  -0.334  1.00  0.00    -0.361 N 
ATOM      8  C   UNL     1      17.871  10.466  -0.698  1.00  0.00     0.056 A 
ATOM      9  C   UNL     1      17.791  10.297  -2.095  1.00  0.00     0.116 A 
ATOM     10  H   UNL     1      20.971  13.739  -0.708  1.00  0.00     0.166 HD
ENDROOT
BRANCH   9  11
ATOM     11  O   UNL     1      16.919   9.345  -2.619  1.00  0.00    -0.508 OA
ATOM     12  H   UNL     1      16.036   9.611  -3.039  1.00  0.00     0.293 HD
ENDBRANCH   9  11
TORSDOF 1
ENDMDL
