MODEL 1
REMARK VINA RESULT:    -5.366      0.000      0.000
REMARK INTER + INTRA:          -6.795
REMARK INTER:                  -6.464
REMARK INTRA:                  -0.332
REMARK UNBOUND:                -0.332
REMARK SMILES O=c1c(O)c(-c2ccc(O)c(O)c2)oc2cc(O)cc(O)c12
REMARK SMILES IDX 5 1 3 2 2 3 1 4 22 5 20 6 19 7 17 8 16 9 15 10 14 11 6 12
REMARK SMILES IDX 7 13 8 14 9 15 13 16 11 17 10 18 12 20 4 22 21 24 18 26
REMARK H PARENT 10 19 12 21 4 23 21 25 18 27
REMARK Flexibility Score: inf
ROOT
ATOM      1  C   UNL     1     -12.806  27.373   9.664  1.00  0.00     0.180 A 
ATOM      2  C   UNL     1     -11.460  27.136  10.004  1.00  0.00     0.208 A 
ATOM      3  C   UNL     1     -11.050  25.820  10.272  1.00  0.00     0.238 A 
ATOM      4  O   UNL     1      -9.845  25.593  10.567  1.00  0.00    -0.285 OA
ATOM      5  C   UNL     1     -11.991  24.772  10.217  1.00  0.00     0.111 A 
ATOM      6  C   UNL     1     -11.661  23.420  10.478  1.00  0.00     0.134 A 
ATOM      7  C   UNL     1     -12.658  22.435  10.411  1.00  0.00     0.093 A 
ATOM      8  C   UNL     1     -13.974  22.774  10.091  1.00  0.00     0.123 A 
ATOM      9  C   UNL     1     -14.306  24.108   9.831  1.00  0.00     0.094 A 
ATOM     10  C   UNL     1     -13.328  25.104   9.891  1.00  0.00     0.146 A 
ATOM     11  O   UNL     1     -13.668  26.361   9.635  1.00  0.00    -0.452 OA
ENDROOT
BRANCH   1  12
ATOM     12  C   UNL     1     -13.310  28.729   9.349  1.00  0.00     0.025 A 
ATOM     13  C   UNL     1     -13.899  29.500  10.362  1.00  0.00     0.016 A 
ATOM     14  C   UNL     1     -14.402  30.773  10.084  1.00  0.00     0.051 A 
ATOM     15  C   UNL     1     -14.335  31.289   8.782  1.00  0.00     0.157 A 
ATOM     16  C   UNL     1     -13.264  29.241   8.039  1.00  0.00     0.062 A 
ATOM     17  C   UNL     1     -13.768  30.516   7.755  1.00  0.00     0.158 A 
BRANCH  15  18
ATOM     18  O   UNL     1     -14.835  32.561   8.507  1.00  0.00    -0.504 OA
ATOM     19  H   UNL     1     -14.432  33.144   7.785  1.00  0.00     0.293 HD
ENDBRANCH  15  18
BRANCH  17  20
ATOM     20  O   UNL     1     -13.700  30.996   6.447  1.00  0.00    -0.504 OA
ATOM     21  H   UNL     1     -14.169  31.846   6.161  1.00  0.00     0.293 HD
ENDBRANCH  17  20
ENDBRANCH   1  12
BRANCH   2  22
ATOM     22  O   UNL     1     -10.557  28.198  10.101  1.00  0.00    -0.502 OA
ATOM     23  H   UNL     1     -10.296  28.762   9.301  1.00  0.00     0.293 HD
ENDBRANCH   2  22
BRANCH   6  24
ATOM     24  O   UNL     1     -10.355  23.050  10.802  1.00  0.00    -0.507 OA
ATOM     25  H   UNL     1     -10.157  22.393  11.549  1.00  0.00     0.293 HD
ENDBRANCH   6  24
BRANCH   8  26
ATOM     26  O   UNL     1     -14.945  21.776  10.032  1.00  0.00    -0.508 OA
ATOM     27  H   UNL     1     -15.916  21.993   9.836  1.00  0.00     0.293 HD
ENDBRANCH   8  26
TORSDOF 6
ENDMDL
MODEL 2
REMARK VINA RESULT:    -5.175      4.638     10.080
REMARK INTER + INTRA:          -6.566
REMARK INTER:                  -6.248
REMARK INTRA:                  -0.318
REMARK UNBOUND:                -0.332
REMARK SMILES O=c1c(O)c(-c2ccc(O)c(O)c2)oc2cc(O)cc(O)c12
REMARK SMILES IDX 5 1 3 2 2 3 1 4 22 5 20 6 19 7 17 8 16 9 15 10 14 11 6 12
REMARK SMILES IDX 7 13 8 14 9 15 13 16 11 17 10 18 12 20 4 22 21 24 18 26
REMARK H PARENT 10 19 12 21 4 23 21 25 18 27
REMARK Flexibility Score: inf
ROOT
ATOM      1  C   UNL     1     -14.597  19.258   9.668  1.00  0.00     0.180 A 
ATOM      2  C   UNL     1     -15.957  19.504   9.939  1.00  0.00     0.208 A 
ATOM      3  C   UNL     1     -16.348  20.796  10.328  1.00  0.00     0.238 A 
ATOM      4  O   UNL     1     -17.564  21.032  10.564  1.00  0.00    -0.285 OA
ATOM      5  C   UNL     1     -15.375  21.808  10.459  1.00  0.00     0.111 A 
ATOM      6  C   UNL     1     -15.685  23.133  10.851  1.00  0.00     0.134 A 
ATOM      7  C   UNL     1     -14.658  24.082  10.967  1.00  0.00     0.093 A 
ATOM      8  C   UNL     1     -13.333  23.733  10.701  1.00  0.00     0.123 A 
ATOM      9  C   UNL     1     -13.020  22.426  10.313  1.00  0.00     0.094 A 
ATOM     10  C   UNL     1     -14.029  21.466  10.191  1.00  0.00     0.146 A 
ATOM     11  O   UNL     1     -13.706  20.234   9.816  1.00  0.00    -0.452 OA
ENDROOT
BRANCH   1  12
ATOM     12  C   UNL     1     -14.110  17.928   9.234  1.00  0.00     0.025 A 
ATOM     13  C   UNL     1     -13.782  16.965  10.199  1.00  0.00     0.016 A 
ATOM     14  C   UNL     1     -13.301  15.711   9.814  1.00  0.00     0.051 A 
ATOM     15  C   UNL     1     -13.125  15.409   8.457  1.00  0.00     0.157 A 
ATOM     16  C   UNL     1     -13.914  17.629   7.873  1.00  0.00     0.062 A 
ATOM     17  C   UNL     1     -13.429  16.375   7.483  1.00  0.00     0.158 A 
BRANCH  15  18
ATOM     18  O   UNL     1     -12.647  14.156   8.075  1.00  0.00    -0.504 OA
ATOM     19  H   UNL     1     -12.646  13.861   7.106  1.00  0.00     0.293 HD
ENDBRANCH  15  18
BRANCH  17  20
ATOM     20  O   UNL     1     -13.252  16.110   6.125  1.00  0.00    -0.504 OA
ATOM     21  H   UNL     1     -12.596  15.413   5.794  1.00  0.00     0.293 HD
ENDBRANCH  17  20
ENDBRANCH   1  12
BRANCH   2  22
ATOM     22  O   UNL     1     -16.894  18.472   9.850  1.00  0.00    -0.502 OA
ATOM     23  H   UNL     1     -17.350  18.227   8.980  1.00  0.00     0.293 HD
ENDBRANCH   2  22
BRANCH   6  24
ATOM     24  O   UNL     1     -16.999  23.512  11.125  1.00  0.00    -0.507 OA
ATOM     25  H   UNL     1     -17.328  23.653  12.074  1.00  0.00     0.293 HD
ENDBRANCH   6  24
BRANCH   8  26
ATOM     26  O   UNL     1     -12.331  24.695  10.825  1.00  0.00    -0.508 OA
ATOM     27  H   UNL     1     -11.354  24.436  10.890  1.00  0.00     0.293 HD
ENDBRANCH   8  26
TORSDOF 6
ENDMDL
MODEL 3
REMARK VINA RESULT:    -5.042      3.358      8.773
REMARK INTER + INTRA:          -6.406
REMARK INTER:                  -6.824
REMARK INTRA:                   0.418
REMARK UNBOUND:                -0.332
REMARK SMILES O=c1c(O)c(-c2ccc(O)c(O)c2)oc2cc(O)cc(O)c12
REMARK SMILES IDX 5 1 3 2 2 3 1 4 22 5 20 6 19 7 17 8 16 9 15 10 14 11 6 12
REMARK SMILES IDX 7 13 8 14 9 15 13 16 11 17 10 18 12 20 4 22 21 24 18 26
REMARK H PARENT 10 19 12 21 4 23 21 25 18 27
REMARK Flexibility Score: inf
ROOT
ATOM      1  C   UNL     1     -15.050  21.482  10.358  1.00  0.00     0.180 A 
ATOM      2  C   UNL     1     -16.015  22.477  10.610  1.00  0.00     0.208 A 
ATOM      3  C   UNL     1     -15.617  23.824  10.604  1.00  0.00     0.238 A 
ATOM      4  O   UNL     1     -16.474  24.724  10.818  1.00  0.00    -0.285 OA
ATOM      5  C   UNL     1     -14.266  24.150  10.369  1.00  0.00     0.111 A 
ATOM      6  C   UNL     1     -13.784  25.481  10.351  1.00  0.00     0.134 A 
ATOM      7  C   UNL     1     -12.422  25.724  10.118  1.00  0.00     0.093 A 
ATOM      8  C   UNL     1     -11.536  24.666   9.905  1.00  0.00     0.123 A 
ATOM      9  C   UNL     1     -12.007  23.349   9.921  1.00  0.00     0.094 A 
ATOM     10  C   UNL     1     -13.360  23.086  10.150  1.00  0.00     0.146 A 
ATOM     11  O   UNL     1     -13.782  21.827  10.154  1.00  0.00    -0.452 OA
ENDROOT
BRANCH   1  12
ATOM     12  C   UNL     1     -15.394  20.042  10.328  1.00  0.00     0.025 A 
ATOM     13  C   UNL     1     -14.368  19.087  10.275  1.00  0.00     0.016 A 
ATOM     14  C   UNL     1     -14.669  17.724  10.224  1.00  0.00     0.051 A 
ATOM     15  C   UNL     1     -16.003  17.297  10.211  1.00  0.00     0.157 A 
ATOM     16  C   UNL     1     -16.733  19.610  10.294  1.00  0.00     0.062 A 
ATOM     17  C   UNL     1     -17.039  18.245  10.241  1.00  0.00     0.158 A 
BRANCH  15  18
ATOM     18  O   UNL     1     -16.302  15.935  10.163  1.00  0.00    -0.504 OA
ATOM     19  H   UNL     1     -16.898  15.548   9.442  1.00  0.00     0.293 HD
ENDBRANCH  15  18
BRANCH  17  20
ATOM     20  O   UNL     1     -18.377  17.852  10.214  1.00  0.00    -0.504 OA
ATOM     21  H   UNL     1     -18.720  17.153   9.566  1.00  0.00     0.293 HD
ENDBRANCH  17  20
ENDBRANCH   1  12
BRANCH   2  22
ATOM     22  O   UNL     1     -17.338  22.124  10.890  1.00  0.00    -0.502 OA
ATOM     23  H   UNL     1     -17.586  21.514  11.659  1.00  0.00     0.293 HD
ENDBRANCH   2  22
BRANCH   6  24
ATOM     24  O   UNL     1     -14.644  26.560  10.562  1.00  0.00    -0.507 OA
ATOM     25  H   UNL     1     -14.833  27.242   9.835  1.00  0.00     0.293 HD
ENDBRANCH   6  24
BRANCH   8  26
ATOM     26  O   UNL     1     -10.187  24.936   9.677  1.00  0.00    -0.508 OA
ATOM     27  H   UNL     1      -9.715  24.606   8.843  1.00  0.00     0.293 HD
ENDBRANCH   8  26
TORSDOF 6
ENDMDL
MODEL 4
REMARK VINA RESULT:    -4.901      2.670      7.783
REMARK INTER + INTRA:          -6.236
REMARK INTER:                  -6.466
REMARK INTRA:                   0.229
REMARK UNBOUND:                -0.332
REMARK SMILES O=c1c(O)c(-c2ccc(O)c(O)c2)oc2cc(O)cc(O)c12
REMARK SMILES IDX 5 1 3 2 2 3 1 4 22 5 20 6 19 7 17 8 16 9 15 10 14 11 6 12
REMARK SMILES IDX 7 13 8 14 9 15 13 16 11 17 10 18 12 20 4 22 21 24 18 26
REMARK H PARENT 10 19 12 21 4 23 21 25 18 27
REMARK Flexibility Score: inf
ROOT
ATOM      1  C   UNL     1     -14.149  21.987  10.514  1.00  0.00     0.180 A 
ATOM      2  C   UNL     1     -12.821  21.628  10.817  1.00  0.00     0.208 A 
ATOM      3  C   UNL     1     -11.837  22.630  10.842  1.00  0.00     0.238 A 
ATOM      4  O   UNL     1     -10.646  22.323  11.123  1.00  0.00    -0.285 OA
ATOM      5  C   UNL     1     -12.191  23.962  10.545  1.00  0.00     0.111 A 
ATOM      6  C   UNL     1     -11.259  25.028  10.544  1.00  0.00     0.134 A 
ATOM      7  C   UNL     1     -11.689  26.327  10.229  1.00  0.00     0.093 A 
ATOM      8  C   UNL     1     -13.026  26.578   9.915  1.00  0.00     0.123 A 
ATOM      9  C   UNL     1     -13.951  25.529   9.915  1.00  0.00     0.094 A 
ATOM     10  C   UNL     1     -13.543  24.228  10.227  1.00  0.00     0.146 A 
ATOM     11  O   UNL     1     -14.442  23.251  10.225  1.00  0.00    -0.452 OA
ENDROOT
BRANCH   1  12
ATOM     12  C   UNL     1     -15.245  20.992  10.487  1.00  0.00     0.025 A 
ATOM     13  C   UNL     1     -16.521  21.358  10.940  1.00  0.00     0.016 A 
ATOM     14  C   UNL     1     -17.566  20.431  10.944  1.00  0.00     0.051 A 
ATOM     15  C   UNL     1     -17.344  19.117  10.509  1.00  0.00     0.157 A 
ATOM     16  C   UNL     1     -15.021  19.667  10.071  1.00  0.00     0.062 A 
ATOM     17  C   UNL     1     -16.065  18.733  10.075  1.00  0.00     0.158 A 
BRANCH  15  18
ATOM     18  O   UNL     1     -18.389  18.194  10.511  1.00  0.00    -0.504 OA
ATOM     19  H   UNL     1     -18.957  18.037  11.335  1.00  0.00     0.293 HD
ENDBRANCH  15  18
BRANCH  17  20
ATOM     20  O   UNL     1     -15.809  17.430   9.649  1.00  0.00    -0.504 OA
ATOM     21  H   UNL     1     -15.693  16.664  10.302  1.00  0.00     0.293 HD
ENDBRANCH  17  20
ENDBRANCH   1  12
BRANCH   2  22
ATOM     22  O   UNL     1     -12.487  20.293  11.059  1.00  0.00    -0.502 OA
ATOM     23  H   UNL     1     -12.976  19.727  11.741  1.00  0.00     0.293 HD
ENDBRANCH   2  22
BRANCH   6  24
ATOM     24  O   UNL     1      -9.916  24.809  10.852  1.00  0.00    -0.507 OA
ATOM     25  H   UNL     1      -9.231  24.599  10.134  1.00  0.00     0.293 HD
ENDBRANCH   6  24
BRANCH   8  26
ATOM     26  O   UNL     1     -13.425  27.877   9.604  1.00  0.00    -0.508 OA
ATOM     27  H   UNL     1     -13.163  28.316   8.730  1.00  0.00     0.293 HD
ENDBRANCH   8  26
TORSDOF 6
ENDMDL
MODEL 5
REMARK VINA RESULT:    -4.872      2.400      6.548
REMARK INTER + INTRA:          -6.201
REMARK INTER:                  -6.521
REMARK INTRA:                   0.321
REMARK UNBOUND:                -0.332
REMARK SMILES O=c1c(O)c(-c2ccc(O)c(O)c2)oc2cc(O)cc(O)c12
REMARK SMILES IDX 5 1 3 2 2 3 1 4 22 5 20 6 19 7 17 8 16 9 15 10 14 11 6 12
REMARK SMILES IDX 7 13 8 14 9 15 13 16 11 17 10 18 12 20 4 22 21 24 18 26
REMARK H PARENT 10 19 12 21 4 23 21 25 18 27
REMARK Flexibility Score: inf
ROOT
ATOM      1  C   UNL     1     -13.109  27.134  10.433  1.00  0.00     0.180 A 
ATOM      2  C   UNL     1     -13.738  28.375  10.652  1.00  0.00     0.208 A 
ATOM      3  C   UNL     1     -12.942  29.521  10.807  1.00  0.00     0.238 A 
ATOM      4  O   UNL     1     -13.495  30.639  10.993  1.00  0.00    -0.285 OA
ATOM      5  C   UNL     1     -11.538  29.406  10.761  1.00  0.00     0.111 A 
ATOM      6  C   UNL     1     -10.666  30.511  10.913  1.00  0.00     0.134 A 
ATOM      7  C   UNL     1      -9.277  30.313  10.864  1.00  0.00     0.093 A 
ATOM      8  C   UNL     1      -8.747  29.036  10.668  1.00  0.00     0.123 A 
ATOM      9  C   UNL     1      -9.604  27.941  10.516  1.00  0.00     0.094 A 
ATOM     10  C   UNL     1     -10.990  28.117  10.561  1.00  0.00     0.146 A 
ATOM     11  O   UNL     1     -11.781  27.062  10.410  1.00  0.00    -0.452 OA
ENDROOT
BRANCH   1  12
ATOM     12  C   UNL     1     -13.879  25.884  10.241  1.00  0.00     0.025 A 
ATOM     13  C   UNL     1     -13.337  24.852   9.461  1.00  0.00     0.016 A 
ATOM     14  C   UNL     1     -14.054  23.673   9.248  1.00  0.00     0.051 A 
ATOM     15  C   UNL     1     -15.332  23.514   9.801  1.00  0.00     0.157 A 
ATOM     16  C   UNL     1     -15.170  25.731  10.777  1.00  0.00     0.062 A 
ATOM     17  C   UNL     1     -15.894  24.551  10.565  1.00  0.00     0.158 A 
BRANCH  15  18
ATOM     18  O   UNL     1     -16.046  22.335   9.590  1.00  0.00    -0.504 OA
ATOM     19  H   UNL     1     -16.855  22.306   8.982  1.00  0.00     0.293 HD
ENDBRANCH  15  18
BRANCH  17  20
ATOM     20  O   UNL     1     -17.169  24.430  11.117  1.00  0.00    -0.504 OA
ATOM     21  H   UNL     1     -17.991  24.808  10.661  1.00  0.00     0.293 HD
ENDBRANCH  17  20
ENDBRANCH   1  12
BRANCH   2  22
ATOM     22  O   UNL     1     -15.131  28.455  10.743  1.00  0.00    -0.502 OA
ATOM     23  H   UNL     1     -15.641  29.302  10.527  1.00  0.00     0.293 HD
ENDBRANCH   2  22
BRANCH   6  24
ATOM     24  O   UNL     1     -11.165  31.798  11.111  1.00  0.00    -0.507 OA
ATOM     25  H   UNL     1     -12.061  31.961  11.558  1.00  0.00     0.293 HD
ENDBRANCH   6  24
BRANCH   8  26
ATOM     26  O   UNL     1      -7.364  28.867  10.624  1.00  0.00    -0.508 OA
ATOM     27  H   UNL     1      -6.903  28.136  11.155  1.00  0.00     0.293 HD
ENDBRANCH   8  26
TORSDOF 6
ENDMDL
MODEL 6
REMARK VINA RESULT:    -4.863      2.605      4.597
REMARK INTER + INTRA:          -6.190
REMARK INTER:                  -6.511
REMARK INTRA:                   0.320
REMARK UNBOUND:                -0.332
REMARK SMILES O=c1c(O)c(-c2ccc(O)c(O)c2)oc2cc(O)cc(O)c12
REMARK SMILES IDX 5 1 3 2 2 3 1 4 22 5 20 6 19 7 17 8 16 9 15 10 14 11 6 12
REMARK SMILES IDX 7 13 8 14 9 15 13 16 11 17 10 18 12 20 4 22 21 24 18 26
REMARK H PARENT 10 19 12 21 4 23 21 25 18 27
REMARK Flexibility Score: inf
ROOT
ATOM      1  C   UNL     1     -13.239  24.758  10.443  1.00  0.00     0.180 A 
ATOM      2  C   UNL     1     -14.593  25.099  10.630  1.00  0.00     0.208 A 
ATOM      3  C   UNL     1     -15.548  24.071  10.697  1.00  0.00     0.238 A 
ATOM      4  O   UNL     1     -16.761  24.363  10.875  1.00  0.00    -0.285 OA
ATOM      5  C   UNL     1     -15.138  22.730  10.554  1.00  0.00     0.111 A 
ATOM      6  C   UNL     1     -16.037  21.637  10.603  1.00  0.00     0.134 A 
ATOM      7  C   UNL     1     -15.552  20.330  10.444  1.00  0.00     0.093 A 
ATOM      8  C   UNL     1     -14.192  20.095  10.235  1.00  0.00     0.123 A 
ATOM      9  C   UNL     1     -13.299  21.170  10.186  1.00  0.00     0.094 A 
ATOM     10  C   UNL     1     -13.761  22.480  10.344  1.00  0.00     0.146 A 
ATOM     11  O   UNL     1     -12.892  23.482  10.298  1.00  0.00    -0.452 OA
ENDROOT
BRANCH   1  12
ATOM     12  C   UNL     1     -12.172  25.783  10.383  1.00  0.00     0.025 A 
ATOM     13  C   UNL     1     -10.871  25.451  10.792  1.00  0.00     0.016 A 
ATOM     14  C   UNL     1      -9.853  26.406  10.764  1.00  0.00     0.051 A 
ATOM     15  C   UNL     1     -10.125  27.714  10.340  1.00  0.00     0.157 A 
ATOM     16  C   UNL     1     -12.445  27.102   9.977  1.00  0.00     0.062 A 
ATOM     17  C   UNL     1     -11.428  28.064   9.950  1.00  0.00     0.158 A 
BRANCH  15  18
ATOM     18  O   UNL     1      -9.106  28.666  10.310  1.00  0.00    -0.504 OA
ATOM     19  H   UNL     1      -8.467  28.735   9.528  1.00  0.00     0.293 HD
ENDBRANCH  15  18
BRANCH  17  20
ATOM     20  O   UNL     1     -11.734  29.361   9.536  1.00  0.00    -0.504 OA
ATOM     21  H   UNL     1     -12.135  29.555   8.627  1.00  0.00     0.293 HD
ENDBRANCH  17  20
ENDBRANCH   1  12
BRANCH   2  22
ATOM     22  O   UNL     1     -14.979  26.439  10.720  1.00  0.00    -0.502 OA
ATOM     23  H   UNL     1     -14.561  27.163  10.149  1.00  0.00     0.293 HD
ENDBRANCH   2  22
BRANCH   6  24
ATOM     24  O   UNL     1     -17.402  21.839  10.809  1.00  0.00    -0.507 OA
ATOM     25  H   UNL     1     -18.003  22.211  10.081  1.00  0.00     0.293 HD
ENDBRANCH   6  24
BRANCH   8  26
ATOM     26  O   UNL     1     -13.737  18.787  10.078  1.00  0.00    -0.508 OA
ATOM     27  H   UNL     1     -13.231  18.498   9.249  1.00  0.00     0.293 HD
ENDBRANCH   8  26
TORSDOF 6
ENDMDL
MODEL 7
REMARK VINA RESULT:    -4.641      1.536      6.820
REMARK INTER + INTRA:          -5.923
REMARK INTER:                  -6.334
REMARK INTRA:                   0.411
REMARK UNBOUND:                -0.332
REMARK SMILES O=c1c(O)c(-c2ccc(O)c(O)c2)oc2cc(O)cc(O)c12
REMARK SMILES IDX 5 1 3 2 2 3 1 4 22 5 20 6 19 7 17 8 16 9 15 10 14 11 6 12
REMARK SMILES IDX 7 13 8 14 9 15 13 16 11 17 10 18 12 20 4 22 21 24 18 26
REMARK H PARENT 10 19 12 21 4 23 21 25 18 27
REMARK Flexibility Score: inf
ROOT
ATOM      1  C   UNL     1     -13.142  24.205  10.285  1.00  0.00     0.180 A 
ATOM      2  C   UNL     1     -11.757  24.251  10.530  1.00  0.00     0.208 A 
ATOM      3  C   UNL     1     -11.096  25.488  10.461  1.00  0.00     0.238 A 
ATOM      4  O   UNL     1      -9.857  25.544  10.690  1.00  0.00    -0.285 OA
ATOM      5  C   UNL     1     -11.824  26.649  10.129  1.00  0.00     0.111 A 
ATOM      6  C   UNL     1     -11.233  27.932  10.034  1.00  0.00     0.134 A 
ATOM      7  C   UNL     1     -12.025  29.038   9.688  1.00  0.00     0.093 A 
ATOM      8  C   UNL     1     -13.389  28.887   9.436  1.00  0.00     0.123 A 
ATOM      9  C   UNL     1     -13.979  27.622   9.529  1.00  0.00     0.094 A 
ATOM     10  C   UNL     1     -13.208  26.507   9.873  1.00  0.00     0.146 A 
ATOM     11  O   UNL     1     -13.793  25.319   9.960  1.00  0.00    -0.452 OA
ENDROOT
BRANCH   1  12
ATOM     12  C   UNL     1     -13.913  22.942  10.357  1.00  0.00     0.025 A 
ATOM     13  C   UNL     1     -13.249  21.718  10.189  1.00  0.00     0.016 A 
ATOM     14  C   UNL     1     -13.958  20.515  10.231  1.00  0.00     0.051 A 
ATOM     15  C   UNL     1     -15.346  20.521  10.429  1.00  0.00     0.157 A 
ATOM     16  C   UNL     1     -15.308  22.946  10.534  1.00  0.00     0.062 A 
ATOM     17  C   UNL     1     -16.023  21.743  10.576  1.00  0.00     0.158 A 
BRANCH  15  18
ATOM     18  O   UNL     1     -16.051  19.319  10.474  1.00  0.00    -0.504 OA
ATOM     19  H   UNL     1     -16.597  19.055  11.285  1.00  0.00     0.293 HD
ENDBRANCH  15  18
BRANCH  17  20
ATOM     20  O   UNL     1     -17.406  21.782  10.760  1.00  0.00    -0.504 OA
ATOM     21  H   UNL     1     -18.035  21.182  10.240  1.00  0.00     0.293 HD
ENDBRANCH  17  20
ENDBRANCH   1  12
BRANCH   2  22
ATOM     22  O   UNL     1     -11.049  23.079  10.809  1.00  0.00    -0.502 OA
ATOM     23  H   UNL     1     -10.814  22.403  10.093  1.00  0.00     0.293 HD
ENDBRANCH   2  22
BRANCH   6  24
ATOM     24  O   UNL     1      -9.872  28.116  10.278  1.00  0.00    -0.507 OA
ATOM     25  H   UNL     1      -9.383  28.951   9.973  1.00  0.00     0.293 HD
ENDBRANCH   6  24
BRANCH   8  26
ATOM     26  O   UNL     1     -14.152  30.002   9.094  1.00  0.00    -0.508 OA
ATOM     27  H   UNL     1     -14.990  29.917   8.530  1.00  0.00     0.293 HD
ENDBRANCH   8  26
TORSDOF 6
ENDMDL
MODEL 8
REMARK VINA RESULT:    -4.606      4.600      7.897
REMARK INTER + INTRA:          -5.881
REMARK INTER:                  -6.159
REMARK INTRA:                   0.279
REMARK UNBOUND:                -0.332
REMARK SMILES O=c1c(O)c(-c2ccc(O)c(O)c2)oc2cc(O)cc(O)c12
REMARK SMILES IDX 5 1 3 2 2 3 1 4 22 5 20 6 19 7 17 8 16 9 15 10 14 11 6 12
REMARK SMILES IDX 7 13 8 14 9 15 13 16 11 17 10 18 12 20 4 22 21 24 18 26
REMARK H PARENT 10 19 12 21 4 23 21 25 18 27
REMARK Flexibility Score: inf
ROOT
ATOM      1  C   UNL     1     -15.511  20.351  10.419  1.00  0.00     0.180 A 
ATOM      2  C   UNL     1     -14.592  19.301  10.615  1.00  0.00     0.208 A 
ATOM      3  C   UNL     1     -15.080  17.994  10.775  1.00  0.00     0.238 A 
ATOM      4  O   UNL     1     -14.267  17.045  10.940  1.00  0.00    -0.285 OA
ATOM      5  C   UNL     1     -16.470  17.763  10.759  1.00  0.00     0.111 A 
ATOM      6  C   UNL     1     -17.043  16.477  10.918  1.00  0.00     0.134 A 
ATOM      7  C   UNL     1     -18.438  16.330  10.898  1.00  0.00     0.093 A 
ATOM      8  C   UNL     1     -19.269  17.439  10.725  1.00  0.00     0.123 A 
ATOM      9  C   UNL     1     -18.709  18.711  10.566  1.00  0.00     0.094 A 
ATOM     10  C   UNL     1     -17.322  18.879  10.581  1.00  0.00     0.146 A 
ATOM     11  O   UNL     1     -16.816  20.096  10.423  1.00  0.00    -0.452 OA
ENDROOT
BRANCH   1  12
ATOM     12  C   UNL     1     -15.074  21.752  10.223  1.00  0.00     0.025 A 
ATOM     13  C   UNL     1     -15.951  22.800  10.542  1.00  0.00     0.016 A 
ATOM     14  C   UNL     1     -15.569  24.129  10.345  1.00  0.00     0.051 A 
ATOM     15  C   UNL     1     -14.308  24.429   9.812  1.00  0.00     0.157 A 
ATOM     16  C   UNL     1     -13.817  22.056   9.669  1.00  0.00     0.062 A 
ATOM     17  C   UNL     1     -13.431  23.387   9.468  1.00  0.00     0.158 A 
BRANCH  15  18
ATOM     18  O   UNL     1     -13.927  25.756   9.619  1.00  0.00    -0.504 OA
ATOM     19  H   UNL     1     -13.904  26.173   8.696  1.00  0.00     0.293 HD
ENDBRANCH  15  18
BRANCH  17  20
ATOM     20  O   UNL     1     -12.175  23.652   8.922  1.00  0.00    -0.504 OA
ATOM     21  H   UNL     1     -11.392  23.946   9.493  1.00  0.00     0.293 HD
ENDBRANCH  17  20
ENDBRANCH   1  12
BRANCH   2  22
ATOM     22  O   UNL     1     -13.221  19.564  10.677  1.00  0.00    -0.502 OA
ATOM     23  H   UNL     1     -12.525  18.882  10.403  1.00  0.00     0.293 HD
ENDBRANCH   2  22
BRANCH   6  24
ATOM     24  O   UNL     1     -16.239  15.350  11.095  1.00  0.00    -0.507 OA
ATOM     25  H   UNL     1     -16.405  14.491  10.582  1.00  0.00     0.293 HD
ENDBRANCH   6  24
BRANCH   8  26
ATOM     26  O   UNL     1     -20.652  17.265  10.711  1.00  0.00    -0.508 OA
ATOM     27  H   UNL     1     -21.125  16.854   9.914  1.00  0.00     0.293 HD
ENDBRANCH   8  26
TORSDOF 6
ENDMDL
MODEL 9
REMARK VINA RESULT:    -4.596      2.095      3.135
REMARK INTER + INTRA:          -5.868
REMARK INTER:                  -6.313
REMARK INTRA:                   0.445
REMARK UNBOUND:                -0.332
REMARK SMILES O=c1c(O)c(-c2ccc(O)c(O)c2)oc2cc(O)cc(O)c12
REMARK SMILES IDX 5 1 3 2 2 3 1 4 22 5 20 6 19 7 17 8 16 9 15 10 14 11 6 12
REMARK SMILES IDX 7 13 8 14 9 15 13 16 11 17 10 18 12 20 4 22 21 24 18 26
REMARK H PARENT 10 19 12 21 4 23 21 25 18 27
REMARK Flexibility Score: inf
ROOT
ATOM      1  C   UNL     1     -12.168  25.606  10.579  1.00  0.00     0.180 A 
ATOM      2  C   UNL     1     -11.199  24.618  10.840  1.00  0.00     0.208 A 
ATOM      3  C   UNL     1     -11.590  23.269  10.840  1.00  0.00     0.238 A 
ATOM      4  O   UNL     1     -10.729  22.374  11.062  1.00  0.00    -0.285 OA
ATOM      5  C   UNL     1     -12.938  22.934  10.602  1.00  0.00     0.111 A 
ATOM      6  C   UNL     1     -13.413  21.600  10.590  1.00  0.00     0.134 A 
ATOM      7  C   UNL     1     -14.774  21.349  10.354  1.00  0.00     0.093 A 
ATOM      8  C   UNL     1     -15.664  22.401  10.132  1.00  0.00     0.123 A 
ATOM      9  C   UNL     1     -15.200  23.720  10.141  1.00  0.00     0.094 A 
ATOM     10  C   UNL     1     -13.849  23.992  10.374  1.00  0.00     0.146 A 
ATOM     11  O   UNL     1     -13.434  25.253  10.373  1.00  0.00    -0.452 OA
ENDROOT
BRANCH   1  12
ATOM     12  C   UNL     1     -11.831  27.048  10.542  1.00  0.00     0.025 A 
ATOM     13  C   UNL     1     -12.856  27.993  10.384  1.00  0.00     0.016 A 
ATOM     14  C   UNL     1     -12.560  29.356  10.325  1.00  0.00     0.051 A 
ATOM     15  C   UNL     1     -11.232  29.794  10.408  1.00  0.00     0.157 A 
ATOM     16  C   UNL     1     -10.497  27.489  10.604  1.00  0.00     0.062 A 
ATOM     17  C   UNL     1     -10.196  28.855  10.544  1.00  0.00     0.158 A 
BRANCH  15  18
ATOM     18  O   UNL     1     -10.939  31.156  10.352  1.00  0.00    -0.504 OA
ATOM     19  H   UNL     1     -11.020  31.751  11.168  1.00  0.00     0.293 HD
ENDBRANCH  15  18
BRANCH  17  20
ATOM     20  O   UNL     1      -8.862  29.258  10.615  1.00  0.00    -0.504 OA
ATOM     21  H   UNL     1      -8.457  29.629  11.466  1.00  0.00     0.293 HD
ENDBRANCH  17  20
ENDBRANCH   1  12
BRANCH   2  22
ATOM     22  O   UNL     1      -9.879  24.979  11.122  1.00  0.00    -0.502 OA
ATOM     23  H   UNL     1      -9.555  25.160  12.064  1.00  0.00     0.293 HD
ENDBRANCH   2  22
BRANCH   6  24
ATOM     24  O   UNL     1     -12.548  20.527  10.810  1.00  0.00    -0.507 OA
ATOM     25  H   UNL     1     -11.547  20.612  10.674  1.00  0.00     0.293 HD
ENDBRANCH   6  24
BRANCH   8  26
ATOM     26  O   UNL     1     -17.011  22.123   9.901  1.00  0.00    -0.508 OA
ATOM     27  H   UNL     1     -17.744  22.606  10.405  1.00  0.00     0.293 HD
ENDBRANCH   8  26
TORSDOF 6
ENDMDL
