MODEL 1
REMARK VINA RESULT:    -3.320      0.000      0.000
REMARK INTER + INTRA:          -5.244
REMARK INTER:                  -4.873
REMARK INTRA:                  -0.371
REMARK UNBOUND:                -0.371
REMARK SMILES O=C([O-])CCCCCCCC(=O)[O-]
REMARK SMILES IDX 7 1 6 2 5 3 4 4 2 5 1 6 3 7 8 8 9 9 10 10 11 11 12 12 13 13
REMARK H PARENT
REMARK Flexibility Score: inf
ROOT
ATOM      1  C   UNL     1      -1.882  14.030  10.270  1.00  0.00     0.000 C 
ENDROOT
BRANCH   1   2
ATOM      2  C   UNL     1      -1.261  14.786  11.452  1.00  0.00     0.000 C 
BRANCH   2   3
ATOM      3  C   UNL     1      -1.127  16.284  11.137  1.00  0.00     0.006 C 
BRANCH   3   4
ATOM      4  C   UNL     1      -0.909  17.126  12.401  1.00  0.00     0.053 C 
BRANCH   4   5
ATOM      5  C   UNL     1      -2.205  17.587  12.994  1.00  0.00     0.041 C 
ATOM      6  O   UNL     1      -2.784  18.607  12.534  1.00  0.00    -0.550 OA
ATOM      7  O   UNL     1      -2.755  16.913  14.076  1.00  0.00    -0.550 OA
ENDBRANCH   4   5
ENDBRANCH   3   4
ENDBRANCH   2   3
ENDBRANCH   1   2
BRANCH   1   8
ATOM      8  C   UNL     1      -2.283  12.586  10.626  1.00  0.00     0.000 C 
BRANCH   8   9
ATOM      9  C   UNL     1      -1.123  11.569  10.636  1.00  0.00     0.006 C 
BRANCH   9  10
ATOM     10  C   UNL     1      -0.135  11.715   9.468  1.00  0.00     0.053 C 
BRANCH  10  11
ATOM     11  C   UNL     1      -0.711  11.209   8.181  1.00  0.00     0.041 C 
ATOM     12  O   UNL     1      -1.065  12.018   7.283  1.00  0.00    -0.550 OA
ATOM     13  O   UNL     1      -0.887   9.845   7.989  1.00  0.00    -0.550 OA
ENDBRANCH  10  11
ENDBRANCH   9  10
ENDBRANCH   8   9
ENDBRANCH   1   8
TORSDOF 8
ENDMDL
MODEL 2
REMARK VINA RESULT:    -3.276     12.835     13.844
REMARK INTER + INTRA:          -5.179
REMARK INTER:                  -4.695
REMARK INTRA:                  -0.484
REMARK UNBOUND:                -0.371
REMARK SMILES O=C([O-])CCCCCCCC(=O)[O-]
REMARK SMILES IDX 7 1 6 2 5 3 4 4 2 5 1 6 3 7 8 8 9 9 10 10 11 11 12 12 13 13
REMARK H PARENT
REMARK Flexibility Score: inf
ROOT
ATOM      1  C   UNL     1     -13.233   9.227   8.056  1.00  0.00     0.000 C 
ENDROOT
BRANCH   1   2
ATOM      2  C   UNL     1     -14.737   9.514   8.157  1.00  0.00     0.000 C 
BRANCH   2   3
ATOM      3  C   UNL     1     -15.180   9.614   9.624  1.00  0.00     0.006 C 
BRANCH   3   4
ATOM      4  C   UNL     1     -13.991   9.592  10.593  1.00  0.00     0.053 C 
BRANCH   4   5
ATOM      5  C   UNL     1     -14.227  10.466  11.786  1.00  0.00     0.041 C 
ATOM      6  O   UNL     1     -15.377  10.926  12.016  1.00  0.00    -0.550 OA
ATOM      7  O   UNL     1     -13.172  10.801  12.625  1.00  0.00    -0.550 OA
ENDBRANCH   4   5
ENDBRANCH   3   4
ENDBRANCH   2   3
ENDBRANCH   1   2
BRANCH   1   8
ATOM      8  C   UNL     1     -12.757   9.019   6.607  1.00  0.00     0.000 C 
BRANCH   8   9
ATOM      9  C   UNL     1     -12.174  10.274   5.924  1.00  0.00     0.006 C 
BRANCH   9  10
ATOM     10  C   UNL     1     -12.783  10.595   4.550  1.00  0.00     0.053 C 
BRANCH  10  11
ATOM     11  C   UNL     1     -14.272  10.751   4.622  1.00  0.00     0.041 C 
ATOM     12  O   UNL     1     -14.778  11.740   5.214  1.00  0.00    -0.550 OA
ATOM     13  O   UNL     1     -15.098   9.786   4.063  1.00  0.00    -0.550 OA
ENDBRANCH  10  11
ENDBRANCH   9  10
ENDBRANCH   8   9
ENDBRANCH   1   8
TORSDOF 8
ENDMDL
MODEL 3
REMARK VINA RESULT:    -3.243     13.063     14.170
REMARK INTER + INTRA:          -5.130
REMARK INTER:                  -4.557
REMARK INTRA:                  -0.573
REMARK UNBOUND:                -0.371
REMARK SMILES O=C([O-])CCCCCCCC(=O)[O-]
REMARK SMILES IDX 7 1 6 2 5 3 4 4 2 5 1 6 3 7 8 8 9 9 10 10 11 11 12 12 13 13
REMARK H PARENT
REMARK Flexibility Score: inf
ROOT
ATOM      1  C   UNL     1     -15.678  11.158   6.539  1.00  0.00     0.000 C 
ENDROOT
BRANCH   1   2
ATOM      2  C   UNL     1     -15.523   9.672   6.888  1.00  0.00     0.000 C 
BRANCH   2   3
ATOM      3  C   UNL     1     -14.848   9.496   8.257  1.00  0.00     0.006 C 
BRANCH   3   4
ATOM      4  C   UNL     1     -15.833   9.690   9.418  1.00  0.00     0.053 C 
BRANCH   4   5
ATOM      5  C   UNL     1     -15.138  10.134  10.668  1.00  0.00     0.041 C 
ATOM      6  O   UNL     1     -15.767  10.783  11.546  1.00  0.00    -0.550 OA
ATOM      7  O   UNL     1     -13.788   9.862  10.850  1.00  0.00    -0.550 OA
ENDBRANCH   4   5
ENDBRANCH   3   4
ENDBRANCH   2   3
ENDBRANCH   1   2
BRANCH   1   8
ATOM      8  C   UNL     1     -14.895  11.563   5.276  1.00  0.00     0.000 C 
BRANCH   8   9
ATOM      9  C   UNL     1     -14.353  10.386   4.437  1.00  0.00     0.006 C 
BRANCH   9  10
ATOM     10  C   UNL     1     -12.847  10.453   4.143  1.00  0.00     0.053 C 
BRANCH  10  11
ATOM     11  C   UNL     1     -12.041  10.643   5.392  1.00  0.00     0.041 C 
ATOM     12  O   UNL     1     -11.968   9.722   6.246  1.00  0.00    -0.550 OA
ATOM     13  O   UNL     1     -11.399  11.852   5.625  1.00  0.00    -0.550 OA
ENDBRANCH  10  11
ENDBRANCH   9  10
ENDBRANCH   8   9
ENDBRANCH   1   8
TORSDOF 8
ENDMDL
MODEL 4
REMARK VINA RESULT:    -3.219     12.614     14.291
REMARK INTER + INTRA:          -5.095
REMARK INTER:                  -4.765
REMARK INTRA:                  -0.331
REMARK UNBOUND:                -0.371
REMARK SMILES O=C([O-])CCCCCCCC(=O)[O-]
REMARK SMILES IDX 7 1 6 2 5 3 4 4 2 5 1 6 3 7 8 8 9 9 10 10 11 11 12 12 13 13
REMARK H PARENT
REMARK Flexibility Score: inf
ROOT
ATOM      1  C   UNL     1     -14.696   9.234   8.653  1.00  0.00     0.000 C 
ENDROOT
BRANCH   1   2
ATOM      2  C   UNL     1     -14.304   9.645   7.227  1.00  0.00     0.000 C 
BRANCH   2   3
ATOM      3  C   UNL     1     -12.777   9.684   7.067  1.00  0.00     0.006 C 
BRANCH   3   4
ATOM      4  C   UNL     1     -12.318   9.101   5.724  1.00  0.00     0.053 C 
BRANCH   4   5
ATOM      5  C   UNL     1     -12.071  10.173   4.707  1.00  0.00     0.041 C 
ATOM      6  O   UNL     1     -11.680  11.313   5.072  1.00  0.00    -0.550 OA
ATOM      7  O   UNL     1     -12.306   9.923   3.361  1.00  0.00    -0.550 OA
ENDBRANCH   4   5
ENDBRANCH   3   4
ENDBRANCH   2   3
ENDBRANCH   1   2
BRANCH   1   8
ATOM      8  C   UNL     1     -13.502   9.218   9.623  1.00  0.00     0.000 C 
BRANCH   8   9
ATOM      9  C   UNL     1     -13.874   9.241  11.121  1.00  0.00     0.006 C 
BRANCH   9  10
ATOM     10  C   UNL     1     -14.800  10.396  11.530  1.00  0.00     0.053 C 
BRANCH  10  11
ATOM     11  C   UNL     1     -14.370  11.028  12.818  1.00  0.00     0.041 C 
ATOM     12  O   UNL     1     -15.229  11.439  13.642  1.00  0.00    -0.550 OA
ATOM     13  O   UNL     1     -13.019  11.193  13.094  1.00  0.00    -0.550 OA
ENDBRANCH  10  11
ENDBRANCH   9  10
ENDBRANCH   8   9
ENDBRANCH   1   8
TORSDOF 8
ENDMDL
MODEL 5
REMARK VINA RESULT:    -3.171     12.769     13.722
REMARK INTER + INTRA:          -5.025
REMARK INTER:                  -4.801
REMARK INTRA:                  -0.225
REMARK UNBOUND:                -0.371
REMARK SMILES O=C([O-])CCCCCCCC(=O)[O-]
REMARK SMILES IDX 7 1 6 2 5 3 4 4 2 5 1 6 3 7 8 8 9 9 10 10 11 11 12 12 13 13
REMARK H PARENT
REMARK Flexibility Score: inf
ROOT
ATOM      1  C   UNL     1     -14.353   9.617   9.469  1.00  0.00     0.000 C 
ENDROOT
BRANCH   1   2
ATOM      2  C   UNL     1     -13.700   9.643  10.857  1.00  0.00     0.000 C 
BRANCH   2   3
ATOM      3  C   UNL     1     -14.576  10.406  11.862  1.00  0.00     0.006 C 
BRANCH   3   4
ATOM      4  C   UNL     1     -16.038  10.497  11.406  1.00  0.00     0.053 C 
BRANCH   4   5
ATOM      5  C   UNL     1     -16.743  11.665  12.025  1.00  0.00     0.041 C 
ATOM      6  O   UNL     1     -16.201  12.307  12.964  1.00  0.00    -0.550 OA
ATOM      7  O   UNL     1     -18.013  12.023  11.590  1.00  0.00    -0.550 OA
ENDBRANCH   4   5
ENDBRANCH   3   4
ENDBRANCH   2   3
ENDBRANCH   1   2
BRANCH   1   8
ATOM      8  C   UNL     1     -13.418   9.069   8.376  1.00  0.00     0.000 C 
BRANCH   8   9
ATOM      9  C   UNL     1     -13.451   9.841   7.039  1.00  0.00     0.006 C 
BRANCH   9  10
ATOM     10  C   UNL     1     -12.263   9.555   6.108  1.00  0.00     0.053 C 
BRANCH  10  11
ATOM     11  C   UNL     1     -12.026  10.676   5.144  1.00  0.00     0.041 C 
ATOM     12  O   UNL     1     -12.467  10.605   3.967  1.00  0.00    -0.550 OA
ATOM     13  O   UNL     1     -11.290  11.786   5.537  1.00  0.00    -0.550 OA
ENDBRANCH  10  11
ENDBRANCH   9  10
ENDBRANCH   8   9
ENDBRANCH   1   8
TORSDOF 8
ENDMDL
MODEL 6
REMARK VINA RESULT:    -3.160      1.449      6.724
REMARK INTER + INTRA:          -5.009
REMARK INTER:                  -4.545
REMARK INTRA:                  -0.464
REMARK UNBOUND:                -0.371
REMARK SMILES O=C([O-])CCCCCCCC(=O)[O-]
REMARK SMILES IDX 7 1 6 2 5 3 4 4 2 5 1 6 3 7 8 8 9 9 10 10 11 11 12 12 13 13
REMARK H PARENT
REMARK Flexibility Score: inf
ROOT
ATOM      1  C   UNL     1       0.807  14.031  11.310  1.00  0.00     0.000 C 
ENDROOT
BRANCH   1   2
ATOM      2  C   UNL     1      -0.544  13.341  11.539  1.00  0.00     0.000 C 
BRANCH   2   3
ATOM      3  C   UNL     1      -1.407  13.387  10.269  1.00  0.00     0.006 C 
BRANCH   3   4
ATOM      4  C   UNL     1      -1.601  11.997   9.648  1.00  0.00     0.053 C 
BRANCH   4   5
ATOM      5  C   UNL     1      -0.645  11.753   8.521  1.00  0.00     0.041 C 
ATOM      6  O   UNL     1      -1.044  11.811   7.328  1.00  0.00    -0.550 OA
ATOM      7  O   UNL     1       0.679  11.425   8.789  1.00  0.00    -0.550 OA
ENDBRANCH   4   5
ENDBRANCH   3   4
ENDBRANCH   2   3
ENDBRANCH   1   2
BRANCH   1   8
ATOM      8  C   UNL     1       0.676  15.548  11.081  1.00  0.00     0.000 C 
BRANCH   8   9
ATOM      9  C   UNL     1      -0.054  16.318  12.201  1.00  0.00     0.006 C 
BRANCH   9  10
ATOM     10  C   UNL     1      -1.397  16.936  11.781  1.00  0.00     0.053 C 
BRANCH  10  11
ATOM     11  C   UNL     1      -1.686  18.203  12.524  1.00  0.00     0.041 C 
ATOM     12  O   UNL     1      -2.860  18.657  12.572  1.00  0.00    -0.550 OA
ATOM     13  O   UNL     1      -0.653  18.899  13.138  1.00  0.00    -0.550 OA
ENDBRANCH  10  11
ENDBRANCH   9  10
ENDBRANCH   8   9
ENDBRANCH   1   8
TORSDOF 8
ENDMDL
MODEL 7
REMARK VINA RESULT:    -3.150     13.822     14.941
REMARK INTER + INTRA:          -4.995
REMARK INTER:                  -4.411
REMARK INTRA:                  -0.584
REMARK UNBOUND:                -0.371
REMARK SMILES O=C([O-])CCCCCCCC(=O)[O-]
REMARK SMILES IDX 7 1 6 2 5 3 4 4 2 5 1 6 3 7 8 8 9 9 10 10 11 11 12 12 13 13
REMARK H PARENT
REMARK Flexibility Score: inf
ROOT
ATOM      1  C   UNL     1     -12.526   9.081   6.247  1.00  0.00     0.000 C 
ENDROOT
BRANCH   1   2
ATOM      2  C   UNL     1     -13.113   9.589   7.571  1.00  0.00     0.000 C 
BRANCH   2   3
ATOM      3  C   UNL     1     -14.620   9.307   7.648  1.00  0.00     0.006 C 
BRANCH   3   4
ATOM      4  C   UNL     1     -15.184   9.541   9.056  1.00  0.00     0.053 C 
BRANCH   4   5
ATOM      5  C   UNL     1     -16.432  10.369   9.026  1.00  0.00     0.041 C 
ATOM      6  O   UNL     1     -17.005  10.690  10.101  1.00  0.00    -0.550 OA
ATOM      7  O   UNL     1     -16.983  10.755   7.810  1.00  0.00    -0.550 OA
ENDBRANCH   4   5
ENDBRANCH   3   4
ENDBRANCH   2   3
ENDBRANCH   1   2
BRANCH   1   8
ATOM      8  C   UNL     1     -11.991  10.215   5.354  1.00  0.00     0.000 C 
BRANCH   8   9
ATOM      9  C   UNL     1     -12.802  10.473   4.067  1.00  0.00     0.006 C 
BRANCH   9  10
ATOM     10  C   UNL     1     -14.194   9.821   4.049  1.00  0.00     0.053 C 
BRANCH  10  11
ATOM     11  C   UNL     1     -15.284  10.824   4.273  1.00  0.00     0.041 C 
ATOM     12  O   UNL     1     -16.357  10.751   3.619  1.00  0.00    -0.550 OA
ATOM     13  O   UNL     1     -15.099  11.858   5.181  1.00  0.00    -0.550 OA
ENDBRANCH  10  11
ENDBRANCH   9  10
ENDBRANCH   8   9
ENDBRANCH   1   8
TORSDOF 8
ENDMDL
MODEL 8
REMARK VINA RESULT:    -3.124     12.930     14.854
REMARK INTER + INTRA:          -4.956
REMARK INTER:                  -4.681
REMARK INTRA:                  -0.275
REMARK UNBOUND:                -0.371
REMARK SMILES O=C([O-])CCCCCCCC(=O)[O-]
REMARK SMILES IDX 7 1 6 2 5 3 4 4 2 5 1 6 3 7 8 8 9 9 10 10 11 11 12 12 13 13
REMARK H PARENT
REMARK Flexibility Score: inf
ROOT
ATOM      1  C   UNL     1     -14.580   9.674  10.172  1.00  0.00     0.000 C 
ENDROOT
BRANCH   1   2
ATOM      2  C   UNL     1     -13.478   9.287   9.176  1.00  0.00     0.000 C 
BRANCH   2   3
ATOM      3  C   UNL     1     -13.918   9.571   7.732  1.00  0.00     0.006 C 
BRANCH   3   4
ATOM      4  C   UNL     1     -12.729   9.632   6.764  1.00  0.00     0.053 C 
BRANCH   4   5
ATOM      5  C   UNL     1     -12.707  10.914   5.990  1.00  0.00     0.041 C 
ATOM      6  O   UNL     1     -13.732  11.645   5.944  1.00  0.00    -0.550 OA
ATOM      7  O   UNL     1     -11.566  11.286   5.289  1.00  0.00    -0.550 OA
ENDBRANCH   4   5
ENDBRANCH   3   4
ENDBRANCH   2   3
ENDBRANCH   1   2
BRANCH   1   8
ATOM      8  C   UNL     1     -14.028  10.084  11.549  1.00  0.00     0.000 C 
BRANCH   8   9
ATOM      9  C   UNL     1     -15.073  10.140  12.683  1.00  0.00     0.006 C 
BRANCH   9  10
ATOM     10  C   UNL     1     -15.409  11.557  13.172  1.00  0.00     0.053 C 
BRANCH  10  11
ATOM     11  C   UNL     1     -16.683  12.068  12.572  1.00  0.00     0.041 C 
ATOM     12  O   UNL     1     -17.455  11.284  11.960  1.00  0.00    -0.550 OA
ATOM     13  O   UNL     1     -17.001  13.417  12.663  1.00  0.00    -0.550 OA
ENDBRANCH  10  11
ENDBRANCH   9  10
ENDBRANCH   8   9
ENDBRANCH   1   8
TORSDOF 8
ENDMDL
MODEL 9
REMARK VINA RESULT:    -0.983     13.916     15.372
REMARK INTER + INTRA:          -1.815
REMARK INTER:                  -1.029
REMARK INTRA:                  -0.786
REMARK UNBOUND:                -0.371
REMARK SMILES O=C([O-])CCCCCCCC(=O)[O-]
REMARK SMILES IDX 7 1 6 2 5 3 4 4 2 5 1 6 3 7 8 8 9 9 10 10 11 11 12 12 13 13
REMARK H PARENT
REMARK Flexibility Score: inf
ROOT
ATOM      1  C   UNL     1     -12.833   8.906   6.260  1.00  0.00     0.000 C 
ENDROOT
BRANCH   1   2
ATOM      2  C   UNL     1     -11.941   9.759   5.346  1.00  0.00     0.000 C 
BRANCH   2   3
ATOM      3  C   UNL     1     -12.764  10.402   4.220  1.00  0.00     0.006 C 
BRANCH   3   4
ATOM      4  C   UNL     1     -14.181   9.820   4.131  1.00  0.00     0.053 C 
BRANCH   4   5
ATOM      5  C   UNL     1     -15.228  10.861   4.381  1.00  0.00     0.041 C 
ATOM      6  O   UNL     1     -16.319  10.827   3.752  1.00  0.00    -0.550 OA
ATOM      7  O   UNL     1     -14.986  11.891   5.282  1.00  0.00    -0.550 OA
ENDBRANCH   4   5
ENDBRANCH   3   4
ENDBRANCH   2   3
ENDBRANCH   1   2
BRANCH   1   8
ATOM      8  C   UNL     1     -13.136   9.586   7.607  1.00  0.00     0.000 C 
BRANCH   8   9
ATOM      9  C   UNL     1     -14.358   9.025   8.363  1.00  0.00     0.006 C 
BRANCH   9  10
ATOM     10  C   UNL     1     -15.625   8.875   7.506  1.00  0.00     0.053 C 
BRANCH  10  11
ATOM     11  C   UNL     1     -16.617   9.964   7.779  1.00  0.00     0.041 C 
ATOM     12  O   UNL     1     -16.526  10.656   8.827  1.00  0.00    -0.550 OA
ATOM     13  O   UNL     1     -17.660  10.191   6.891  1.00  0.00    -0.550 OA
ENDBRANCH  10  11
ENDBRANCH   9  10
ENDBRANCH   8   9
ENDBRANCH   1   8
TORSDOF 8
ENDMDL
