MODEL 1
REMARK VINA RESULT:    -5.095      0.000      0.000
REMARK INTER + INTRA:          -5.772
REMARK INTER:                  -5.542
REMARK INTRA:                  -0.231
REMARK UNBOUND:                -0.231
REMARK SMILES O=C([O-])c1ccccc1O
REMARK SMILES IDX 4 1 9 2 5 3 8 4 6 5 7 6 2 7 1 8 3 9 10 10
REMARK H PARENT 10 11
REMARK Flexibility Score: inf
ROOT
ATOM      1  C   UNL     1       9.165  14.787 -19.307  1.00  0.00     0.039 A 
ATOM      2  C   UNL     1       9.010  14.328 -17.978  1.00  0.00     0.124 A 
ATOM      3  C   UNL     1       8.015  15.159 -20.035  1.00  0.00     0.014 A 
ATOM      4  C   UNL     1       7.729  14.250 -17.409  1.00  0.00     0.047 A 
ATOM      5  C   UNL     1       6.747  15.077 -19.455  1.00  0.00     0.001 A 
ATOM      6  C   UNL     1       6.604  14.623 -18.144  1.00  0.00     0.004 A 
ENDROOT
BRANCH   1   7
ATOM      7  C   UNL     1      10.500  14.885 -19.951  1.00  0.00     0.075 C 
ATOM      8  O   UNL     1      11.199  13.853 -20.129  1.00  0.00    -0.545 OA
ATOM      9  O   UNL     1      11.006  16.110 -20.370  1.00  0.00    -0.545 OA
ENDBRANCH   1   7
BRANCH   2  10
ATOM     10  O   UNL     1      10.118  13.950 -17.220  1.00  0.00    -0.507 OA
ATOM     11  H   UNL     1      10.987  13.658 -17.654  1.00  0.00     0.293 HD
ENDBRANCH   2  10
TORSDOF 2
ENDMDL
MODEL 2
REMARK VINA RESULT:    -4.707      2.697      4.190
REMARK INTER + INTRA:          -5.350
REMARK INTER:                  -5.102
REMARK INTRA:                  -0.248
REMARK UNBOUND:                -0.231
REMARK SMILES O=C([O-])c1ccccc1O
REMARK SMILES IDX 4 1 9 2 5 3 8 4 6 5 7 6 2 7 1 8 3 9 10 10
REMARK H PARENT 10 11
REMARK Flexibility Score: inf
ROOT
ATOM      1  C   UNL     1       8.020  14.183 -17.863  1.00  0.00     0.039 A 
ATOM      2  C   UNL     1       7.506  15.002 -18.896  1.00  0.00     0.124 A 
ATOM      3  C   UNL     1       9.314  13.640 -18.008  1.00  0.00     0.014 A 
ATOM      4  C   UNL     1       8.282  15.259 -20.037  1.00  0.00     0.047 A 
ATOM      5  C   UNL     1      10.075  13.906 -19.149  1.00  0.00     0.001 A 
ATOM      6  C   UNL     1       9.560  14.714 -20.162  1.00  0.00     0.004 A 
ENDROOT
BRANCH   1   7
ATOM      7  C   UNL     1       7.235  13.883 -16.638  1.00  0.00     0.075 C 
ATOM      8  O   UNL     1       6.768  14.818 -15.936  1.00  0.00    -0.545 OA
ATOM      9  O   UNL     1       6.997  12.572 -16.242  1.00  0.00    -0.545 OA
ENDBRANCH   1   7
BRANCH   2  10
ATOM     10  O   UNL     1       6.232  15.560 -18.797  1.00  0.00    -0.507 OA
ATOM     11  H   UNL     1       5.762  15.662 -17.904  1.00  0.00     0.293 HD
ENDBRANCH   2  10
TORSDOF 2
ENDMDL
MODEL 3
REMARK VINA RESULT:    -4.617      1.404      2.437
REMARK INTER + INTRA:          -5.253
REMARK INTER:                  -5.053
REMARK INTRA:                  -0.200
REMARK UNBOUND:                -0.231
REMARK SMILES O=C([O-])c1ccccc1O
REMARK SMILES IDX 4 1 9 2 5 3 8 4 6 5 7 6 2 7 1 8 3 9 10 10
REMARK H PARENT 10 11
REMARK Flexibility Score: inf
ROOT
ATOM      1  C   UNL     1       9.135  14.566 -19.227  1.00  0.00     0.039 A 
ATOM      2  C   UNL     1       7.774  14.939 -19.331  1.00  0.00     0.124 A 
ATOM      3  C   UNL     1       9.554  13.837 -18.096  1.00  0.00     0.014 A 
ATOM      4  C   UNL     1       6.871  14.580 -18.316  1.00  0.00     0.047 A 
ATOM      5  C   UNL     1       8.645  13.486 -17.095  1.00  0.00     0.001 A 
ATOM      6  C   UNL     1       7.306  13.858 -17.205  1.00  0.00     0.004 A 
ENDROOT
BRANCH   1   7
ATOM      7  C   UNL     1      10.125  14.924 -20.275  1.00  0.00     0.075 C 
ATOM      8  O   UNL     1      10.480  16.122 -20.434  1.00  0.00    -0.545 OA
ATOM      9  O   UNL     1      10.681  13.952 -21.099  1.00  0.00    -0.545 OA
ENDBRANCH   1   7
BRANCH   2  10
ATOM     10  O   UNL     1       7.312  15.661 -20.430  1.00  0.00    -0.507 OA
ATOM     11  H   UNL     1       7.334  15.276 -21.368  1.00  0.00     0.293 HD
ENDBRANCH   2  10
TORSDOF 2
ENDMDL
MODEL 4
REMARK VINA RESULT:    -4.455      1.865      3.822
REMARK INTER + INTRA:          -5.076
REMARK INTER:                  -4.827
REMARK INTRA:                  -0.249
REMARK UNBOUND:                -0.231
REMARK SMILES O=C([O-])c1ccccc1O
REMARK SMILES IDX 4 1 9 2 5 3 8 4 6 5 7 6 2 7 1 8 3 9 10 10
REMARK H PARENT 10 11
REMARK Flexibility Score: inf
ROOT
ATOM      1  C   UNL     1       7.581  13.683 -17.473  1.00  0.00     0.039 A 
ATOM      2  C   UNL     1       8.931  13.948 -17.803  1.00  0.00     0.124 A 
ATOM      3  C   UNL     1       6.564  14.244 -18.273  1.00  0.00     0.014 A 
ATOM      4  C   UNL     1       9.235  14.757 -18.910  1.00  0.00     0.047 A 
ATOM      5  C   UNL     1       6.882  15.046 -19.372  1.00  0.00     0.001 A 
ATOM      6  C   UNL     1       8.215  15.302 -19.689  1.00  0.00     0.004 A 
ENDROOT
BRANCH   1   7
ATOM      7  C   UNL     1       7.212  12.834 -16.311  1.00  0.00     0.075 C 
ATOM      8  O   UNL     1       6.225  13.137 -15.589  1.00  0.00    -0.545 OA
ATOM      9  O   UNL     1       7.940  11.694 -15.995  1.00  0.00    -0.545 OA
ENDBRANCH   1   7
BRANCH   2  10
ATOM     10  O   UNL     1       9.970  13.415 -17.041  1.00  0.00    -0.507 OA
ATOM     11  H   UNL     1      10.299  12.466 -17.177  1.00  0.00     0.293 HD
ENDBRANCH   2  10
TORSDOF 2
ENDMDL
MODEL 5
REMARK VINA RESULT:    -4.095      1.876      3.498
REMARK INTER + INTRA:          -4.685
REMARK INTER:                  -4.446
REMARK INTRA:                  -0.239
REMARK UNBOUND:                -0.231
REMARK SMILES O=C([O-])c1ccccc1O
REMARK SMILES IDX 4 1 9 2 5 3 8 4 6 5 7 6 2 7 1 8 3 9 10 10
REMARK H PARENT 10 11
REMARK Flexibility Score: inf
ROOT
ATOM      1  C   UNL     1       8.628  14.677 -18.836  1.00  0.00     0.039 A 
ATOM      2  C   UNL     1       9.900  14.384 -18.291  1.00  0.00     0.124 A 
ATOM      3  C   UNL     1       8.487  14.735 -20.237  1.00  0.00     0.014 A 
ATOM      4  C   UNL     1      10.992  14.158 -19.144  1.00  0.00     0.047 A 
ATOM      5  C   UNL     1       9.582  14.507 -21.075  1.00  0.00     0.001 A 
ATOM      6  C   UNL     1      10.833  14.219 -20.528  1.00  0.00     0.004 A 
ENDROOT
BRANCH   1   7
ATOM      7  C   UNL     1       7.445  14.924 -17.972  1.00  0.00     0.075 C 
ATOM      8  O   UNL     1       6.555  15.741 -18.328  1.00  0.00    -0.545 OA
ATOM      9  O   UNL     1       7.292  14.264 -16.758  1.00  0.00    -0.545 OA
ENDBRANCH   1   7
BRANCH   2  10
ATOM     10  O   UNL     1      10.087  14.316 -16.910  1.00  0.00    -0.507 OA
ATOM     11  H   UNL     1       9.984  15.132 -16.318  1.00  0.00     0.293 HD
ENDBRANCH   2  10
TORSDOF 2
ENDMDL
MODEL 6
REMARK VINA RESULT:    -4.037      2.322      3.418
REMARK INTER + INTRA:          -4.622
REMARK INTER:                  -4.367
REMARK INTRA:                  -0.255
REMARK UNBOUND:                -0.231
REMARK SMILES O=C([O-])c1ccccc1O
REMARK SMILES IDX 4 1 9 2 5 3 8 4 6 5 7 6 2 7 1 8 3 9 10 10
REMARK H PARENT 10 11
REMARK Flexibility Score: inf
ROOT
ATOM      1  C   UNL     1       8.323  15.013 -19.248  1.00  0.00     0.039 A 
ATOM      2  C   UNL     1       8.910  14.425 -18.103  1.00  0.00     0.124 A 
ATOM      3  C   UNL     1       9.146  15.321 -20.351  1.00  0.00     0.014 A 
ATOM      4  C   UNL     1      10.289  14.160 -18.082  1.00  0.00     0.047 A 
ATOM      5  C   UNL     1      10.516  15.050 -20.316  1.00  0.00     0.001 A 
ATOM      6  C   UNL     1      11.086  14.471 -19.183  1.00  0.00     0.004 A 
ENDROOT
BRANCH   1   7
ATOM      7  C   UNL     1       6.869  15.313 -19.315  1.00  0.00     0.075 C 
ATOM      8  O   UNL     1       6.197  14.983 -20.328  1.00  0.00    -0.545 OA
ATOM      9  O   UNL     1       6.221  15.958 -18.269  1.00  0.00    -0.545 OA
ENDBRANCH   1   7
BRANCH   2  10
ATOM     10  O   UNL     1       8.136  14.105 -16.989  1.00  0.00    -0.507 OA
ATOM     11  H   UNL     1       7.196  14.465 -16.871  1.00  0.00     0.293 HD
ENDBRANCH   2  10
TORSDOF 2
ENDMDL
MODEL 7
REMARK VINA RESULT:    -3.174      2.499      3.757
REMARK INTER + INTRA:          -3.683
REMARK INTER:                  -3.434
REMARK INTRA:                  -0.249
REMARK UNBOUND:                -0.231
REMARK SMILES O=C([O-])c1ccccc1O
REMARK SMILES IDX 4 1 9 2 5 3 8 4 6 5 7 6 2 7 1 8 3 9 10 10
REMARK H PARENT 10 11
REMARK Flexibility Score: inf
ROOT
ATOM      1  C   UNL     1      10.366  14.779 -18.921  1.00  0.00     0.039 A 
ATOM      2  C   UNL     1      10.415  13.628 -19.742  1.00  0.00     0.124 A 
ATOM      3  C   UNL     1      10.732  16.023 -19.475  1.00  0.00     0.014 A 
ATOM      4  C   UNL     1      10.822  13.740 -21.081  1.00  0.00     0.047 A 
ATOM      5  C   UNL     1      11.134  16.119 -20.809  1.00  0.00     0.001 A 
ATOM      6  C   UNL     1      11.179  14.979 -21.611  1.00  0.00     0.004 A 
ENDROOT
BRANCH   1   7
ATOM      7  C   UNL     1       9.943  14.708 -17.499  1.00  0.00     0.075 C 
ATOM      8  O   UNL     1      10.675  15.186 -16.591  1.00  0.00    -0.545 OA
ATOM      9  O   UNL     1       8.737  14.120 -17.138  1.00  0.00    -0.545 OA
ENDBRANCH   1   7
BRANCH   2  10
ATOM     10  O   UNL     1      10.063  12.376 -19.237  1.00  0.00    -0.507 OA
ATOM     11  H   UNL     1       9.104  12.048 -19.247  1.00  0.00     0.293 HD
ENDBRANCH   2  10
TORSDOF 2
ENDMDL
MODEL 8
REMARK VINA RESULT:    -2.646      2.354      3.758
REMARK INTER + INTRA:          -3.109
REMARK INTER:                  -2.860
REMARK INTRA:                  -0.249
REMARK UNBOUND:                -0.231
REMARK SMILES O=C([O-])c1ccccc1O
REMARK SMILES IDX 4 1 9 2 5 3 8 4 6 5 7 6 2 7 1 8 3 9 10 10
REMARK H PARENT 10 11
REMARK Flexibility Score: inf
ROOT
ATOM      1  C   UNL     1       8.320  15.124 -18.746  1.00  0.00     0.039 A 
ATOM      2  C   UNL     1       9.464  15.499 -19.489  1.00  0.00     0.124 A 
ATOM      3  C   UNL     1       8.498  14.493 -17.498  1.00  0.00     0.014 A 
ATOM      4  C   UNL     1      10.746  15.241 -18.977  1.00  0.00     0.047 A 
ATOM      5  C   UNL     1       9.780  14.244 -17.001  1.00  0.00     0.001 A 
ATOM      6  C   UNL     1      10.902  14.617 -17.740  1.00  0.00     0.004 A 
ENDROOT
BRANCH   1   7
ATOM      7  C   UNL     1       6.945  15.376 -19.248  1.00  0.00     0.075 C 
ATOM      8  O   UNL     1       6.598  14.969 -20.388  1.00  0.00    -0.545 OA
ATOM      9  O   UNL     1       6.014  16.061 -18.476  1.00  0.00    -0.545 OA
ENDBRANCH   1   7
BRANCH   2  10
ATOM     10  O   UNL     1       9.337  16.125 -20.728  1.00  0.00    -0.507 OA
ATOM     11  H   UNL     1       8.576  15.905 -21.361  1.00  0.00     0.293 HD
ENDBRANCH   2  10
TORSDOF 2
ENDMDL
MODEL 9
REMARK VINA RESULT:    -2.527     22.648     23.855
REMARK INTER + INTRA:          -2.979
REMARK INTER:                  -2.873
REMARK INTRA:                  -0.106
REMARK UNBOUND:                -0.231
REMARK SMILES O=C([O-])c1ccccc1O
REMARK SMILES IDX 4 1 9 2 5 3 8 4 6 5 7 6 2 7 1 8 3 9 10 10
REMARK H PARENT 10 11
REMARK Flexibility Score: inf
ROOT
ATOM      1  C   UNL     1      26.029   0.456 -27.813  1.00  0.00     0.039 A 
ATOM      2  C   UNL     1      26.090   1.858 -27.995  1.00  0.00     0.124 A 
ATOM      3  C   UNL     1      26.001  -0.057 -26.500  1.00  0.00     0.014 A 
ATOM      4  C   UNL     1      26.122   2.708 -26.877  1.00  0.00     0.047 A 
ATOM      5  C   UNL     1      26.032   0.801 -25.398  1.00  0.00     0.001 A 
ATOM      6  C   UNL     1      26.092   2.181 -25.587  1.00  0.00     0.004 A 
ENDROOT
BRANCH   1   7
ATOM      7  C   UNL     1      25.995  -0.481 -28.965  1.00  0.00     0.075 C 
ATOM      8  O   UNL     1      25.855  -0.044 -30.138  1.00  0.00    -0.545 OA
ATOM      9  O   UNL     1      26.117  -1.853 -28.778  1.00  0.00    -0.545 OA
ENDBRANCH   1   7
BRANCH   2  10
ATOM     10  O   UNL     1      26.121   2.411 -29.274  1.00  0.00    -0.507 OA
ATOM     11  H   UNL     1      25.763   1.911 -30.080  1.00  0.00     0.293 HD
ENDBRANCH   2  10
TORSDOF 2
ENDMDL
