MODEL 1
REMARK VINA RESULT:    -6.360      0.000      0.000
REMARK INTER + INTRA:          -6.360
REMARK INTER:                  -6.360
REMARK INTRA:                   0.000
REMARK UNBOUND:                 0.000
REMARK SMILES C=C1CCC[C@]2(C)CC(=O)C(=C(C)C)C[C@@H]12
REMARK SMILES IDX 13 1 12 2 11 3 15 4 16 5 2 6 1 7 3 8 4 9 5 10 6 11 8 12 9 13
REMARK SMILES IDX 10 14 7 15 14 16
REMARK H PARENT
REMARK Flexibility Score: inf
ROOT
ATOM      1  C   UNL     1      49.534  18.875  19.621  1.00  0.00     0.039 C 
ATOM      2  C   UNL     1      49.222  20.151  20.370  1.00  0.00    -0.070 C 
ATOM      3  C   UNL     1      49.724  21.358  19.974  1.00  0.00    -0.006 C 
ATOM      4  C   UNL     1      49.352  22.643  20.703  1.00  0.00     0.047 C 
ATOM      5  C   UNL     1      49.354  23.882  19.773  1.00  0.00     0.025 C 
ATOM      6  C   UNL     1      49.026  25.209  20.459  1.00  0.00    -0.073 C 
ATOM      7  C   UNL     1      48.763  25.334  21.774  1.00  0.00     0.008 C 
ATOM      8  C   UNL     1      48.962  26.424  19.565  1.00  0.00     0.031 C 
ATOM      9  C   UNL     1      50.247  26.549  18.741  1.00  0.00     0.005 C 
ATOM     10  C   UNL     1      50.578  25.240  18.003  1.00  0.00     0.008 C 
ATOM     11  C   UNL     1      50.677  24.010  18.956  1.00  0.00    -0.018 C 
ATOM     12  C   UNL     1      50.846  22.741  18.086  1.00  0.00     0.088 C 
ATOM     13  C   UNL     1      50.750  21.481  18.898  1.00  0.00     0.159 C 
ATOM     14  O   UNL     1      51.559  20.545  18.657  1.00  0.00    -0.295 OA
ATOM     15  C   UNL     1      51.915  24.168  19.881  1.00  0.00     0.012 C 
ATOM     16  C   UNL     1      48.297  20.037  21.560  1.00  0.00     0.039 C 
ENDROOT
TORSDOF 0
ENDMDL
MODEL 2
REMARK VINA RESULT:    -6.157      2.245      5.489
REMARK INTER + INTRA:          -6.157
REMARK INTER:                  -6.157
REMARK INTRA:                   0.000
REMARK UNBOUND:                 0.000
REMARK SMILES C=C1CCC[C@]2(C)CC(=O)C(=C(C)C)C[C@@H]12
REMARK SMILES IDX 13 1 12 2 11 3 15 4 16 5 2 6 1 7 3 8 4 9 5 10 6 11 8 12 9 13
REMARK SMILES IDX 10 14 7 15 14 16
REMARK H PARENT
REMARK Flexibility Score: inf
ROOT
ATOM      1  C   UNL     1      51.355  27.251  15.918  1.00  0.00     0.039 C 
ATOM      2  C   UNL     1      51.740  25.826  16.249  1.00  0.00    -0.070 C 
ATOM      3  C   UNL     1      51.264  25.194  17.363  1.00  0.00    -0.006 C 
ATOM      4  C   UNL     1      51.612  23.739  17.650  1.00  0.00     0.047 C 
ATOM      5  C   UNL     1      50.495  22.998  18.427  1.00  0.00     0.025 C 
ATOM      6  C   UNL     1      50.806  21.542  18.779  1.00  0.00    -0.073 C 
ATOM      7  C   UNL     1      51.958  20.920  18.466  1.00  0.00     0.008 C 
ATOM      8  C   UNL     1      49.711  20.778  19.484  1.00  0.00     0.031 C 
ATOM      9  C   UNL     1      49.241  21.542  20.725  1.00  0.00     0.005 C 
ATOM     10  C   UNL     1      48.878  23.000  20.391  1.00  0.00     0.008 C 
ATOM     11  C   UNL     1      50.041  23.776  19.701  1.00  0.00    -0.018 C 
ATOM     12  C   UNL     1      49.504  25.162  19.269  1.00  0.00     0.088 C 
ATOM     13  C   UNL     1      50.488  25.909  18.416  1.00  0.00     0.159 C 
ATOM     14  O   UNL     1      50.649  27.143  18.622  1.00  0.00    -0.295 OA
ATOM     15  C   UNL     1      51.208  23.967  20.708  1.00  0.00     0.012 C 
ATOM     16  C   UNL     1      52.648  25.118  15.270  1.00  0.00     0.039 C 
ENDROOT
TORSDOF 0
ENDMDL
MODEL 3
REMARK VINA RESULT:    -5.914      2.206      5.624
REMARK INTER + INTRA:          -5.914
REMARK INTER:                  -5.914
REMARK INTRA:                   0.000
REMARK UNBOUND:                 0.000
REMARK SMILES C=C1CCC[C@]2(C)CC(=O)C(=C(C)C)C[C@@H]12
REMARK SMILES IDX 13 1 12 2 11 3 15 4 16 5 2 6 1 7 3 8 4 9 5 10 6 11 8 12 9 13
REMARK SMILES IDX 10 14 7 15 14 16
REMARK H PARENT
REMARK Flexibility Score: inf
ROOT
ATOM      1  C   UNL     1      49.099  28.520  18.472  1.00  0.00     0.039 C 
ATOM      2  C   UNL     1      49.892  27.262  18.193  1.00  0.00    -0.070 C 
ATOM      3  C   UNL     1      49.759  26.143  18.966  1.00  0.00    -0.006 C 
ATOM      4  C   UNL     1      50.519  24.865  18.636  1.00  0.00     0.047 C 
ATOM      5  C   UNL     1      49.759  23.587  19.069  1.00  0.00     0.025 C 
ATOM      6  C   UNL     1      50.492  22.272  18.800  1.00  0.00    -0.073 C 
ATOM      7  C   UNL     1      51.715  22.192  18.241  1.00  0.00     0.008 C 
ATOM      8  C   UNL     1      49.748  21.008  19.157  1.00  0.00     0.031 C 
ATOM      9  C   UNL     1      49.266  21.064  20.609  1.00  0.00     0.005 C 
ATOM     10  C   UNL     1      48.485  22.359  20.898  1.00  0.00     0.008 C 
ATOM     11  C   UNL     1      49.292  23.648  20.557  1.00  0.00    -0.018 C 
ATOM     12  C   UNL     1      48.350  24.864  20.730  1.00  0.00     0.088 C 
ATOM     13  C   UNL     1      48.972  26.137  20.233  1.00  0.00     0.159 C 
ATOM     14  O   UNL     1      48.824  27.187  20.915  1.00  0.00    -0.295 OA
ATOM     15  C   UNL     1      50.492  23.784  21.534  1.00  0.00     0.012 C 
ATOM     16  C   UNL     1      50.813  27.285  16.996  1.00  0.00     0.039 C 
ENDROOT
TORSDOF 0
ENDMDL
MODEL 4
REMARK VINA RESULT:    -5.770      2.031      4.844
REMARK INTER + INTRA:          -5.770
REMARK INTER:                  -5.770
REMARK INTRA:                   0.000
REMARK UNBOUND:                 0.000
REMARK SMILES C=C1CCC[C@]2(C)CC(=O)C(=C(C)C)C[C@@H]12
REMARK SMILES IDX 13 1 12 2 11 3 15 4 16 5 2 6 1 7 3 8 4 9 5 10 6 11 8 12 9 13
REMARK SMILES IDX 10 14 7 15 14 16
REMARK H PARENT
REMARK Flexibility Score: inf
ROOT
ATOM      1  C   UNL     1      50.507  27.705  21.935  1.00  0.00     0.039 C 
ATOM      2  C   UNL     1      49.638  26.478  21.769  1.00  0.00    -0.070 C 
ATOM      3  C   UNL     1      49.971  25.473  20.906  1.00  0.00    -0.006 C 
ATOM      4  C   UNL     1      49.116  24.216  20.795  1.00  0.00     0.047 C 
ATOM      5  C   UNL     1      49.941  22.963  20.414  1.00  0.00     0.025 C 
ATOM      6  C   UNL     1      49.130  21.676  20.249  1.00  0.00    -0.073 C 
ATOM      7  C   UNL     1      47.794  21.603  20.402  1.00  0.00     0.008 C 
ATOM      8  C   UNL     1      49.916  20.426  19.936  1.00  0.00     0.031 C 
ATOM      9  C   UNL     1      50.816  20.652  18.718  1.00  0.00     0.005 C 
ATOM     10  C   UNL     1      51.679  21.917  18.877  1.00  0.00     0.008 C 
ATOM     11  C   UNL     1      50.838  23.199  19.159  1.00  0.00    -0.018 C 
ATOM     12  C   UNL     1      51.816  24.359  19.462  1.00  0.00     0.088 C 
ATOM     13  C   UNL     1      51.104  25.590  19.943  1.00  0.00     0.159 C 
ATOM     14  O   UNL     1      51.476  26.712  19.506  1.00  0.00    -0.295 OA
ATOM     15  C   UNL     1      49.993  23.553  17.904  1.00  0.00     0.012 C 
ATOM     16  C   UNL     1      48.398  26.397  22.630  1.00  0.00     0.039 C 
ENDROOT
TORSDOF 0
ENDMDL
MODEL 5
REMARK VINA RESULT:    -5.651      2.587      5.872
REMARK INTER + INTRA:          -5.651
REMARK INTER:                  -5.651
REMARK INTRA:                   0.000
REMARK UNBOUND:                 0.000
REMARK SMILES C=C1CCC[C@]2(C)CC(=O)C(=C(C)C)C[C@@H]12
REMARK SMILES IDX 13 1 12 2 11 3 15 4 16 5 2 6 1 7 3 8 4 9 5 10 6 11 8 12 9 13
REMARK SMILES IDX 10 14 7 15 14 16
REMARK H PARENT
REMARK Flexibility Score: inf
ROOT
ATOM      1  C   UNL     1      48.771  29.539  21.040  1.00  0.00     0.039 C 
ATOM      2  C   UNL     1      49.177  28.639  19.894  1.00  0.00    -0.070 C 
ATOM      3  C   UNL     1      49.600  27.357  20.102  1.00  0.00    -0.006 C 
ATOM      4  C   UNL     1      49.947  26.443  18.933  1.00  0.00     0.047 C 
ATOM      5  C   UNL     1      49.676  24.950  19.240  1.00  0.00     0.025 C 
ATOM      6  C   UNL     1      50.044  23.979  18.115  1.00  0.00    -0.073 C 
ATOM      7  C   UNL     1      50.578  24.357  16.938  1.00  0.00     0.008 C 
ATOM      8  C   UNL     1      49.734  22.523  18.363  1.00  0.00     0.031 C 
ATOM      9  C   UNL     1      50.348  22.065  19.689  1.00  0.00     0.005 C 
ATOM     10  C   UNL     1      49.957  22.999  20.848  1.00  0.00     0.008 C 
ATOM     11  C   UNL     1      50.325  24.490  20.582  1.00  0.00    -0.018 C 
ATOM     12  C   UNL     1      49.738  25.343  21.733  1.00  0.00     0.088 C 
ATOM     13  C   UNL     1      49.863  26.815  21.467  1.00  0.00     0.159 C 
ATOM     14  O   UNL     1      50.207  27.572  22.415  1.00  0.00    -0.295 OA
ATOM     15  C   UNL     1      51.870  24.649  20.561  1.00  0.00     0.012 C 
ATOM     16  C   UNL     1      49.059  29.212  18.500  1.00  0.00     0.039 C 
ENDROOT
TORSDOF 0
ENDMDL
MODEL 6
REMARK VINA RESULT:    -5.374      2.344      3.894
REMARK INTER + INTRA:          -5.374
REMARK INTER:                  -5.374
REMARK INTRA:                   0.000
REMARK UNBOUND:                 0.000
REMARK SMILES C=C1CCC[C@]2(C)CC(=O)C(=C(C)C)C[C@@H]12
REMARK SMILES IDX 13 1 12 2 11 3 15 4 16 5 2 6 1 7 3 8 4 9 5 10 6 11 8 12 9 13
REMARK SMILES IDX 10 14 7 15 14 16
REMARK H PARENT
REMARK Flexibility Score: inf
ROOT
ATOM      1  C   UNL     1      49.760  21.087  19.740  1.00  0.00     0.039 C 
ATOM      2  C   UNL     1      50.600  22.257  19.279  1.00  0.00    -0.070 C 
ATOM      3  C   UNL     1      50.485  23.493  19.848  1.00  0.00    -0.006 C 
ATOM      4  C   UNL     1      51.381  24.646  19.413  1.00  0.00     0.047 C 
ATOM      5  C   UNL     1      51.658  25.653  20.556  1.00  0.00     0.025 C 
ATOM      6  C   UNL     1      52.521  26.856  20.168  1.00  0.00    -0.073 C 
ATOM      7  C   UNL     1      53.010  27.064  18.931  1.00  0.00     0.008 C 
ATOM      8  C   UNL     1      52.857  27.822  21.278  1.00  0.00     0.031 C 
ATOM      9  C   UNL     1      51.581  28.285  21.987  1.00  0.00     0.005 C 
ATOM     10  C   UNL     1      50.714  27.094  22.430  1.00  0.00     0.008 C 
ATOM     11  C   UNL     1      50.349  26.134  21.257  1.00  0.00    -0.018 C 
ATOM     12  C   UNL     1      49.625  24.902  21.851  1.00  0.00     0.088 C 
ATOM     13  C   UNL     1      49.410  23.824  20.828  1.00  0.00     0.159 C 
ATOM     14  O   UNL     1      48.303  23.221  20.811  1.00  0.00    -0.295 OA
ATOM     15  C   UNL     1      49.398  26.861  20.267  1.00  0.00     0.012 C 
ATOM     16  C   UNL     1      51.602  21.988  18.180  1.00  0.00     0.039 C 
ENDROOT
TORSDOF 0
ENDMDL
MODEL 7
REMARK VINA RESULT:    -5.150      7.204      8.943
REMARK INTER + INTRA:          -5.150
REMARK INTER:                  -5.150
REMARK INTRA:                   0.000
REMARK UNBOUND:                 0.000
REMARK SMILES C=C1CCC[C@]2(C)CC(=O)C(=C(C)C)C[C@@H]12
REMARK SMILES IDX 13 1 12 2 11 3 15 4 16 5 2 6 1 7 3 8 4 9 5 10 6 11 8 12 9 13
REMARK SMILES IDX 10 14 7 15 14 16
REMARK H PARENT
REMARK Flexibility Score: inf
ROOT
ATOM      1  C   UNL     1      45.614  21.387  20.091  1.00  0.00     0.039 C 
ATOM      2  C   UNL     1      44.867  21.147  21.384  1.00  0.00    -0.070 C 
ATOM      3  C   UNL     1      43.735  21.843  21.699  1.00  0.00    -0.006 C 
ATOM      4  C   UNL     1      42.960  21.548  22.977  1.00  0.00     0.047 C 
ATOM      5  C   UNL     1      41.443  21.822  22.835  1.00  0.00     0.025 C 
ATOM      6  C   UNL     1      40.617  21.580  24.100  1.00  0.00    -0.073 C 
ATOM      7  C   UNL     1      41.138  21.173  25.273  1.00  0.00     0.008 C 
ATOM      8  C   UNL     1      39.126  21.782  23.973  1.00  0.00     0.031 C 
ATOM      9  C   UNL     1      38.823  23.165  23.390  1.00  0.00     0.005 C 
ATOM     10  C   UNL     1      39.606  23.418  22.090  1.00  0.00     0.008 C 
ATOM     11  C   UNL     1      41.146  23.242  22.261  1.00  0.00    -0.018 C 
ATOM     12  C   UNL     1      41.800  23.357  20.863  1.00  0.00     0.088 C 
ATOM     13  C   UNL     1      43.259  23.002  20.890  1.00  0.00     0.159 C 
ATOM     14  O   UNL     1      44.064  23.711  20.228  1.00  0.00    -0.295 OA
ATOM     15  C   UNL     1      41.698  24.365  23.181  1.00  0.00     0.012 C 
ATOM     16  C   UNL     1      45.411  20.074  22.299  1.00  0.00     0.039 C 
ENDROOT
TORSDOF 0
ENDMDL
MODEL 8
REMARK VINA RESULT:    -5.137      3.320      5.889
REMARK INTER + INTRA:          -5.137
REMARK INTER:                  -5.137
REMARK INTRA:                   0.000
REMARK UNBOUND:                 0.000
REMARK SMILES C=C1CCC[C@]2(C)CC(=O)C(=C(C)C)C[C@@H]12
REMARK SMILES IDX 13 1 12 2 11 3 15 4 16 5 2 6 1 7 3 8 4 9 5 10 6 11 8 12 9 13
REMARK SMILES IDX 10 14 7 15 14 16
REMARK H PARENT
REMARK Flexibility Score: inf
ROOT
ATOM      1  C   UNL     1      52.468  29.647  22.904  1.00  0.00     0.039 C 
ATOM      2  C   UNL     1      51.233  28.803  22.679  1.00  0.00    -0.070 C 
ATOM      3  C   UNL     1      51.232  27.746  21.814  1.00  0.00    -0.006 C 
ATOM      4  C   UNL     1      49.999  26.868  21.645  1.00  0.00     0.047 C 
ATOM      5  C   UNL     1      50.350  25.406  21.277  1.00  0.00     0.025 C 
ATOM      6  C   UNL     1      49.148  24.485  21.055  1.00  0.00    -0.073 C 
ATOM      7  C   UNL     1      47.865  24.885  21.149  1.00  0.00     0.008 C 
ATOM      8  C   UNL     1      49.461  23.039  20.754  1.00  0.00     0.031 C 
ATOM      9  C   UNL     1      50.439  22.938  19.580  1.00  0.00     0.005 C 
ATOM     10  C   UNL     1      51.681  23.820  19.797  1.00  0.00     0.008 C 
ATOM     11  C   UNL     1      51.329  25.315  20.066  1.00  0.00    -0.018 C 
ATOM     12  C   UNL     1      52.637  26.059  20.431  1.00  0.00     0.088 C 
ATOM     13  C   UNL     1      52.378  27.460  20.903  1.00  0.00     0.159 C 
ATOM     14  O   UNL     1      53.139  28.382  20.502  1.00  0.00    -0.295 OA
ATOM     15  C   UNL     1      50.720  25.944  18.782  1.00  0.00     0.012 C 
ATOM     16  C   UNL     1      50.005  29.160  23.485  1.00  0.00     0.039 C 
ENDROOT
TORSDOF 0
ENDMDL
MODEL 9
REMARK VINA RESULT:    -5.014      1.567      2.520
REMARK INTER + INTRA:          -5.014
REMARK INTER:                  -5.014
REMARK INTRA:                   0.000
REMARK UNBOUND:                 0.000
REMARK SMILES C=C1CCC[C@]2(C)CC(=O)C(=C(C)C)C[C@@H]12
REMARK SMILES IDX 13 1 12 2 11 3 15 4 16 5 2 6 1 7 3 8 4 9 5 10 6 11 8 12 9 13
REMARK SMILES IDX 10 14 7 15 14 16
REMARK H PARENT
REMARK Flexibility Score: inf
ROOT
ATOM      1  C   UNL     1      50.608  21.331  18.873  1.00  0.00     0.039 C 
ATOM      2  C   UNL     1      49.795  22.211  19.796  1.00  0.00    -0.070 C 
ATOM      3  C   UNL     1      49.872  23.574  19.743  1.00  0.00    -0.006 C 
ATOM      4  C   UNL     1      49.001  24.447  20.638  1.00  0.00     0.047 C 
ATOM      5  C   UNL     1      48.652  25.809  19.990  1.00  0.00     0.025 C 
ATOM      6  C   UNL     1      47.812  26.746  20.860  1.00  0.00    -0.073 C 
ATOM      7  C   UNL     1      47.399  26.449  22.106  1.00  0.00     0.008 C 
ATOM      8  C   UNL     1      47.406  28.057  20.230  1.00  0.00     0.031 C 
ATOM      9  C   UNL     1      48.636  28.790  19.684  1.00  0.00     0.005 C 
ATOM     10  C   UNL     1      49.477  27.884  18.768  1.00  0.00     0.008 C 
ATOM     11  C   UNL     1      49.915  26.556  19.458  1.00  0.00    -0.018 C 
ATOM     12  C   UNL     1      50.604  25.667  18.395  1.00  0.00     0.088 C 
ATOM     13  C   UNL     1      50.884  24.284  18.909  1.00  0.00     0.159 C 
ATOM     14  O   UNL     1      51.991  23.750  18.630  1.00  0.00    -0.295 OA
ATOM     15  C   UNL     1      50.923  26.870  20.597  1.00  0.00     0.012 C 
ATOM     16  C   UNL     1      48.862  21.514  20.760  1.00  0.00     0.039 C 
ENDROOT
TORSDOF 0
ENDMDL
