MODEL 1
REMARK VINA RESULT:    -4.501      0.000      0.000
REMARK INTER + INTRA:          -5.409
REMARK INTER:                  -5.159
REMARK INTRA:                  -0.251
REMARK UNBOUND:                -0.251
REMARK SMILES O=C([O-])C=Cc1ccc(O)cc1
REMARK SMILES IDX 6 1 7 2 12 3 8 4 11 5 9 6 5 7 4 8 2 9 1 10 3 11 10 12
REMARK H PARENT 10 13
REMARK Flexibility Score: inf
ROOT
ATOM      1  C   UNL     1       0.030  -7.590 -32.321  1.00  0.00    -0.025 A 
ATOM      2  C   UNL     1      -1.061  -6.703 -32.324  1.00  0.00     0.012 A 
ATOM      3  C   UNL     1       0.714  -7.830 -31.120  1.00  0.00     0.012 A 
ATOM      4  C   UNL     1      -1.424  -6.026 -31.155  1.00  0.00     0.047 A 
ATOM      5  C   UNL     1       0.350  -7.154 -29.951  1.00  0.00     0.047 A 
ATOM      6  C   UNL     1      -0.716  -6.248 -29.966  1.00  0.00     0.115 A 
ENDROOT
BRANCH   1   7
ATOM      7  C   UNL     1       0.399  -8.356 -33.529  1.00  0.00     0.010 C 
ATOM      8  C   UNL     1       1.368  -8.021 -34.394  1.00  0.00     0.025 C 
BRANCH   8   9
ATOM      9  C   UNL     1       2.357  -6.945 -34.196  1.00  0.00     0.064 C 
ATOM     10  O   UNL     1       2.258  -5.887 -34.871  1.00  0.00    -0.545 OA
ATOM     11  O   UNL     1       3.438  -7.102 -33.338  1.00  0.00    -0.545 OA
ENDBRANCH   8   9
ENDBRANCH   1   7
BRANCH   6  12
ATOM     12  O   UNL     1      -1.067  -5.580 -28.795  1.00  0.00    -0.508 OA
ATOM     13  H   UNL     1      -0.392  -5.416 -28.057  1.00  0.00     0.293 HD
ENDBRANCH   6  12
TORSDOF 3
ENDMDL
MODEL 2
REMARK VINA RESULT:    -4.434      0.560      1.690
REMARK INTER + INTRA:          -5.332
REMARK INTER:                  -5.115
REMARK INTRA:                  -0.217
REMARK UNBOUND:                -0.251
REMARK SMILES O=C([O-])C=Cc1ccc(O)cc1
REMARK SMILES IDX 6 1 7 2 12 3 8 4 11 5 9 6 5 7 4 8 2 9 1 10 3 11 10 12
REMARK H PARENT 10 13
REMARK Flexibility Score: inf
ROOT
ATOM      1  C   UNL     1       0.099  -7.795 -32.043  1.00  0.00    -0.025 A 
ATOM      2  C   UNL     1       0.949  -7.726 -30.925  1.00  0.00     0.012 A 
ATOM      3  C   UNL     1      -1.102  -7.070 -32.036  1.00  0.00     0.012 A 
ATOM      4  C   UNL     1       0.575  -6.987 -29.799  1.00  0.00     0.047 A 
ATOM      5  C   UNL     1      -1.475  -6.331 -30.910  1.00  0.00     0.047 A 
ATOM      6  C   UNL     1      -0.641  -6.290 -29.788  1.00  0.00     0.115 A 
ENDROOT
BRANCH   1   7
ATOM      7  C   UNL     1       0.497  -8.525 -33.264  1.00  0.00     0.010 C 
ATOM      8  C   UNL     1       1.224  -8.017 -34.270  1.00  0.00     0.025 C 
BRANCH   8   9
ATOM      9  C   UNL     1       1.913  -6.712 -34.254  1.00  0.00     0.064 C 
ATOM     10  O   UNL     1       3.169  -6.682 -34.181  1.00  0.00    -0.545 OA
ATOM     11  O   UNL     1       1.205  -5.517 -34.242  1.00  0.00    -0.545 OA
ENDBRANCH   8   9
ENDBRANCH   1   7
BRANCH   6  12
ATOM     12  O   UNL     1      -1.026  -5.550 -28.672  1.00  0.00    -0.508 OA
ATOM     13  H   UNL     1      -1.125  -4.542 -28.714  1.00  0.00     0.293 HD
ENDBRANCH   6  12
TORSDOF 3
ENDMDL
MODEL 3
REMARK VINA RESULT:    -4.423      1.892      5.210
REMARK INTER + INTRA:          -5.320
REMARK INTER:                  -5.088
REMARK INTRA:                  -0.233
REMARK UNBOUND:                -0.251
REMARK SMILES O=C([O-])C=Cc1ccc(O)cc1
REMARK SMILES IDX 6 1 7 2 12 3 8 4 11 5 9 6 5 7 4 8 2 9 1 10 3 11 10 12
REMARK H PARENT 10 13
REMARK Flexibility Score: inf
ROOT
ATOM      1  C   UNL     1      -0.963  -7.866 -30.937  1.00  0.00    -0.025 A 
ATOM      2  C   UNL     1       0.433  -7.708 -30.999  1.00  0.00     0.012 A 
ATOM      3  C   UNL     1      -1.768  -7.235 -31.897  1.00  0.00     0.012 A 
ATOM      4  C   UNL     1       1.007  -6.888 -31.975  1.00  0.00     0.047 A 
ATOM      5  C   UNL     1      -1.192  -6.415 -32.873  1.00  0.00     0.047 A 
ATOM      6  C   UNL     1       0.194  -6.236 -32.913  1.00  0.00     0.115 A 
ENDROOT
BRANCH   1   7
ATOM      7  C   UNL     1      -1.589  -8.769 -29.950  1.00  0.00     0.010 C 
ATOM      8  C   UNL     1      -2.089  -8.394 -28.762  1.00  0.00     0.025 C 
BRANCH   8   9
ATOM      9  C   UNL     1      -2.278  -7.001 -28.315  1.00  0.00     0.064 C 
ATOM     10  O   UNL     1      -1.291  -6.359 -27.871  1.00  0.00    -0.545 OA
ATOM     11  O   UNL     1      -3.533  -6.406 -28.303  1.00  0.00    -0.545 OA
ENDBRANCH   8   9
ENDBRANCH   1   7
BRANCH   6  12
ATOM     12  O   UNL     1       0.754  -5.416 -33.890  1.00  0.00    -0.508 OA
ATOM     13  H   UNL     1       1.052  -5.787 -34.785  1.00  0.00     0.293 HD
ENDBRANCH   6  12
TORSDOF 3
ENDMDL
MODEL 4
REMARK VINA RESULT:    -4.415     11.660     12.711
REMARK INTER + INTRA:          -5.311
REMARK INTER:                  -5.331
REMARK INTRA:                   0.020
REMARK UNBOUND:                -0.251
REMARK SMILES O=C([O-])C=Cc1ccc(O)cc1
REMARK SMILES IDX 6 1 7 2 12 3 8 4 11 5 9 6 5 7 4 8 2 9 1 10 3 11 10 12
REMARK H PARENT 10 13
REMARK Flexibility Score: inf
ROOT
ATOM      1  C   UNL     1      -9.062  -1.329 -39.454  1.00  0.00    -0.025 A 
ATOM      2  C   UNL     1      -8.239  -0.397 -38.798  1.00  0.00     0.012 A 
ATOM      3  C   UNL     1     -10.376  -1.520 -39.001  1.00  0.00     0.012 A 
ATOM      4  C   UNL     1      -8.708   0.292 -37.675  1.00  0.00     0.047 A 
ATOM      5  C   UNL     1     -10.844  -0.831 -37.879  1.00  0.00     0.047 A 
ATOM      6  C   UNL     1     -10.012   0.073 -37.210  1.00  0.00     0.115 A 
ENDROOT
BRANCH   1   7
ATOM      7  C   UNL     1      -8.607  -2.027 -40.673  1.00  0.00     0.010 C 
ATOM      8  C   UNL     1      -7.480  -2.746 -40.782  1.00  0.00     0.025 C 
BRANCH   8   9
ATOM      9  C   UNL     1      -6.595  -3.124 -39.663  1.00  0.00     0.064 C 
ATOM     10  O   UNL     1      -5.363  -2.884 -39.745  1.00  0.00    -0.545 OA
ATOM     11  O   UNL     1      -7.080  -3.806 -38.553  1.00  0.00    -0.545 OA
ENDBRANCH   8   9
ENDBRANCH   1   7
BRANCH   6  12
ATOM     12  O   UNL     1     -10.491   0.752 -36.092  1.00  0.00    -0.508 OA
ATOM     13  H   UNL     1     -11.484   0.817 -35.898  1.00  0.00     0.293 HD
ENDBRANCH   6  12
TORSDOF 3
ENDMDL
MODEL 5
REMARK VINA RESULT:    -4.390      7.392      9.428
REMARK INTER + INTRA:          -5.283
REMARK INTER:                  -5.139
REMARK INTRA:                  -0.143
REMARK UNBOUND:                -0.251
REMARK SMILES O=C([O-])C=Cc1ccc(O)cc1
REMARK SMILES IDX 6 1 7 2 12 3 8 4 11 5 9 6 5 7 4 8 2 9 1 10 3 11 10 12
REMARK H PARENT 10 13
REMARK Flexibility Score: inf
ROOT
ATOM      1  C   UNL     1       4.976  -3.128 -39.424  1.00  0.00    -0.025 A 
ATOM      2  C   UNL     1       5.727  -1.976 -39.130  1.00  0.00     0.012 A 
ATOM      3  C   UNL     1       3.615  -2.997 -39.736  1.00  0.00     0.012 A 
ATOM      4  C   UNL     1       5.111  -0.722 -39.096  1.00  0.00     0.047 A 
ATOM      5  C   UNL     1       3.000  -1.742 -39.703  1.00  0.00     0.047 A 
ATOM      6  C   UNL     1       3.743  -0.603 -39.380  1.00  0.00     0.115 A 
ENDROOT
BRANCH   1   7
ATOM      7  C   UNL     1       5.615  -4.456 -39.518  1.00  0.00     0.010 C 
ATOM      8  C   UNL     1       5.838  -5.285 -38.487  1.00  0.00     0.025 C 
BRANCH   8   9
ATOM      9  C   UNL     1       5.319  -5.106 -37.117  1.00  0.00     0.064 C 
ATOM     10  O   UNL     1       6.105  -5.225 -36.142  1.00  0.00    -0.545 OA
ATOM     11  O   UNL     1       3.970  -4.883 -36.876  1.00  0.00    -0.545 OA
ENDBRANCH   8   9
ENDBRANCH   1   7
BRANCH   6  12
ATOM     12  O   UNL     1       3.117   0.642 -39.349  1.00  0.00    -0.508 OA
ATOM     13  H   UNL     1       3.091   1.200 -38.503  1.00  0.00     0.293 HD
ENDBRANCH   6  12
TORSDOF 3
ENDMDL
MODEL 6
REMARK VINA RESULT:    -4.388      1.879      4.825
REMARK INTER + INTRA:          -5.280
REMARK INTER:                  -5.020
REMARK INTRA:                  -0.260
REMARK UNBOUND:                -0.251
REMARK SMILES O=C([O-])C=Cc1ccc(O)cc1
REMARK SMILES IDX 6 1 7 2 12 3 8 4 11 5 9 6 5 7 4 8 2 9 1 10 3 11 10 12
REMARK H PARENT 10 13
REMARK Flexibility Score: inf
ROOT
ATOM      1  C   UNL     1      -0.685  -7.945 -30.873  1.00  0.00    -0.025 A 
ATOM      2  C   UNL     1      -1.601  -7.242 -31.674  1.00  0.00     0.012 A 
ATOM      3  C   UNL     1       0.690  -7.751 -31.072  1.00  0.00     0.012 A 
ATOM      4  C   UNL     1      -1.146  -6.400 -32.693  1.00  0.00     0.047 A 
ATOM      5  C   UNL     1       1.144  -6.908 -32.090  1.00  0.00     0.047 A 
ATOM      6  C   UNL     1       0.230  -6.234 -32.906  1.00  0.00     0.115 A 
ENDROOT
BRANCH   1   7
ATOM      7  C   UNL     1      -1.141  -8.798 -29.756  1.00  0.00     0.010 C 
ATOM      8  C   UNL     1      -1.449  -8.365 -28.524  1.00  0.00     0.025 C 
BRANCH   8   9
ATOM      9  C   UNL     1      -1.572  -6.951 -28.120  1.00  0.00     0.064 C 
ATOM     10  O   UNL     1      -2.713  -6.420 -28.082  1.00  0.00    -0.545 OA
ATOM     11  O   UNL     1      -0.454  -6.173 -27.852  1.00  0.00    -0.545 OA
ENDBRANCH   8   9
ENDBRANCH   1   7
BRANCH   6  12
ATOM     12  O   UNL     1       0.696  -5.398 -33.918  1.00  0.00    -0.508 OA
ATOM     13  H   UNL     1       1.524  -5.631 -34.456  1.00  0.00     0.293 HD
ENDBRANCH   6  12
TORSDOF 3
ENDMDL
MODEL 7
REMARK VINA RESULT:    -4.302     14.837     16.472
REMARK INTER + INTRA:          -5.181
REMARK INTER:                  -4.901
REMARK INTRA:                  -0.281
REMARK UNBOUND:                -0.251
REMARK SMILES O=C([O-])C=Cc1ccc(O)cc1
REMARK SMILES IDX 6 1 7 2 12 3 8 4 11 5 9 6 5 7 4 8 2 9 1 10 3 11 10 12
REMARK H PARENT 10 13
REMARK Flexibility Score: inf
ROOT
ATOM      1  C   UNL     1     -11.152   5.049 -32.021  1.00  0.00    -0.025 A 
ATOM      2  C   UNL     1     -10.283   5.127 -33.123  1.00  0.00     0.012 A 
ATOM      3  C   UNL     1     -11.685   3.804 -31.656  1.00  0.00     0.012 A 
ATOM      4  C   UNL     1      -9.997   3.986 -33.879  1.00  0.00     0.047 A 
ATOM      5  C   UNL     1     -11.398   2.663 -32.411  1.00  0.00     0.047 A 
ATOM      6  C   UNL     1     -10.558   2.751 -33.526  1.00  0.00     0.115 A 
ENDROOT
BRANCH   1   7
ATOM      7  C   UNL     1     -11.427   6.229 -31.176  1.00  0.00     0.010 C 
ATOM      8  C   UNL     1     -10.687   6.623 -30.128  1.00  0.00     0.025 C 
BRANCH   8   9
ATOM      9  C   UNL     1      -9.373   6.067 -29.751  1.00  0.00     0.064 C 
ATOM     10  O   UNL     1      -8.326   6.642 -30.148  1.00  0.00    -0.545 OA
ATOM     11  O   UNL     1      -9.264   4.884 -29.032  1.00  0.00    -0.545 OA
ENDBRANCH   8   9
ENDBRANCH   1   7
BRANCH   6  12
ATOM     12  O   UNL     1     -10.281   1.607 -34.271  1.00  0.00    -0.508 OA
ATOM     13  H   UNL     1     -10.540   1.537 -35.249  1.00  0.00     0.293 HD
ENDBRANCH   6  12
TORSDOF 3
ENDMDL
MODEL 8
REMARK VINA RESULT:    -4.260     10.038     11.504
REMARK INTER + INTRA:          -5.133
REMARK INTER:                  -4.875
REMARK INTRA:                  -0.258
REMARK UNBOUND:                -0.251
REMARK SMILES O=C([O-])C=Cc1ccc(O)cc1
REMARK SMILES IDX 6 1 7 2 12 3 8 4 11 5 9 6 5 7 4 8 2 9 1 10 3 11 10 12
REMARK H PARENT 10 13
REMARK Flexibility Score: inf
ROOT
ATOM      1  C   UNL     1      -6.604  -4.505 -40.127  1.00  0.00    -0.025 A 
ATOM      2  C   UNL     1      -6.165  -4.710 -38.808  1.00  0.00     0.012 A 
ATOM      3  C   UNL     1      -5.676  -4.572 -41.177  1.00  0.00     0.012 A 
ATOM      4  C   UNL     1      -4.809  -4.924 -38.541  1.00  0.00     0.047 A 
ATOM      5  C   UNL     1      -4.321  -4.787 -40.909  1.00  0.00     0.047 A 
ATOM      6  C   UNL     1      -3.883  -4.959 -39.592  1.00  0.00     0.115 A 
ENDROOT
BRANCH   1   7
ATOM      7  C   UNL     1      -8.037  -4.331 -40.439  1.00  0.00     0.010 C 
ATOM      8  C   UNL     1      -8.722  -3.182 -40.330  1.00  0.00     0.025 C 
BRANCH   8   9
ATOM      9  C   UNL     1      -8.131  -1.856 -40.065  1.00  0.00     0.064 C 
ATOM     10  O   UNL     1      -7.967  -1.054 -41.021  1.00  0.00    -0.545 OA
ATOM     11  O   UNL     1      -7.684  -1.501 -38.799  1.00  0.00    -0.545 OA
ENDBRANCH   8   9
ENDBRANCH   1   7
BRANCH   6  12
ATOM     12  O   UNL     1      -2.529  -5.171 -39.339  1.00  0.00    -0.508 OA
ATOM     13  H   UNL     1      -1.825  -4.505 -39.636  1.00  0.00     0.293 HD
ENDBRANCH   6  12
TORSDOF 3
ENDMDL
MODEL 9
REMARK VINA RESULT:    -4.159      2.127      2.985
REMARK INTER + INTRA:          -5.017
REMARK INTER:                  -4.735
REMARK INTRA:                  -0.282
REMARK UNBOUND:                -0.251
REMARK SMILES O=C([O-])C=Cc1ccc(O)cc1
REMARK SMILES IDX 6 1 7 2 12 3 8 4 11 5 9 6 5 7 4 8 2 9 1 10 3 11 10 12
REMARK H PARENT 10 13
REMARK Flexibility Score: inf
ROOT
ATOM      1  C   UNL     1       2.647  -7.521 -34.090  1.00  0.00    -0.025 A 
ATOM      2  C   UNL     1       1.328  -7.037 -34.114  1.00  0.00     0.012 A 
ATOM      3  C   UNL     1       3.305  -7.658 -32.859  1.00  0.00     0.012 A 
ATOM      4  C   UNL     1       0.698  -6.646 -32.929  1.00  0.00     0.047 A 
ATOM      5  C   UNL     1       2.674  -7.267 -31.674  1.00  0.00     0.047 A 
ATOM      6  C   UNL     1       1.372  -6.757 -31.705  1.00  0.00     0.115 A 
ENDROOT
BRANCH   1   7
ATOM      7  C   UNL     1       3.314  -7.991 -35.322  1.00  0.00     0.010 C 
ATOM      8  C   UNL     1       4.056  -7.231 -36.141  1.00  0.00     0.025 C 
BRANCH   8   9
ATOM      9  C   UNL     1       4.496  -5.850 -35.863  1.00  0.00     0.064 C 
ATOM     10  O   UNL     1       3.985  -4.900 -36.510  1.00  0.00    -0.545 OA
ATOM     11  O   UNL     1       5.513  -5.582 -34.956  1.00  0.00    -0.545 OA
ENDBRANCH   8   9
ENDBRANCH   1   7
BRANCH   6  12
ATOM     12  O   UNL     1       0.756  -6.370 -30.517  1.00  0.00    -0.508 OA
ATOM     13  H   UNL     1       0.281  -7.041 -29.925  1.00  0.00     0.293 HD
ENDBRANCH   6  12
TORSDOF 3
ENDMDL
