MODEL 1
REMARK VINA RESULT:    -4.417      0.000      0.000
REMARK INTER + INTRA:          -4.819
REMARK INTER:                  -4.804
REMARK INTRA:                  -0.015
REMARK UNBOUND:                -0.015
REMARK SMILES OCc1ccccc1
REMARK SMILES IDX 2 1 3 2 6 3 5 4 7 5 4 6 8 7 1 8
REMARK H PARENT 1 9
REMARK Flexibility Score: inf
ROOT
ATOM      1  C   UNL     1      39.676  16.872  22.380  1.00  0.00     0.191 C 
ENDROOT
BRANCH   1   2
ATOM      2  C   UNL     1      40.145  18.259  22.722  1.00  0.00    -0.023 A 
ATOM      3  C   UNL     1      40.973  20.848  23.424  1.00  0.00     0.000 A 
ATOM      4  C   UNL     1      41.659  19.735  23.920  1.00  0.00     0.000 A 
ATOM      5  C   UNL     1      39.867  20.669  22.586  1.00  0.00     0.000 A 
ATOM      6  C   UNL     1      41.245  18.445  23.576  1.00  0.00     0.006 A 
ATOM      7  C   UNL     1      39.450  19.381  22.240  1.00  0.00     0.006 A 
ENDBRANCH   1   2
BRANCH   1   8
ATOM      8  O   UNL     1      40.775  16.033  22.159  1.00  0.00    -0.392 OA
ATOM      9  H   UNL     1      41.132  16.265  21.262  1.00  0.00     0.211 HD
ENDBRANCH   1   8
TORSDOF 2
ENDMDL
MODEL 2
REMARK VINA RESULT:    -4.322     13.265     13.673
REMARK INTER + INTRA:          -4.716
REMARK INTER:                  -4.697
REMARK INTRA:                  -0.020
REMARK UNBOUND:                -0.015
REMARK SMILES OCc1ccccc1
REMARK SMILES IDX 2 1 3 2 6 3 5 4 7 5 4 6 8 7 1 8
REMARK H PARENT 1 9
REMARK Flexibility Score: inf
ROOT
ATOM      1  C   UNL     1      27.623  19.125  30.000  1.00  0.00     0.191 C 
ENDROOT
BRANCH   1   2
ATOM      2  C   UNL     1      28.245  20.315  29.324  1.00  0.00    -0.023 A 
ATOM      3  C   UNL     1      29.360  22.585  28.106  1.00  0.00     0.000 A 
ATOM      4  C   UNL     1      29.954  22.042  29.250  1.00  0.00     0.000 A 
ATOM      5  C   UNL     1      28.205  22.003  27.575  1.00  0.00     0.000 A 
ATOM      6  C   UNL     1      29.396  20.915  29.861  1.00  0.00     0.006 A 
ATOM      7  C   UNL     1      27.645  20.875  28.184  1.00  0.00     0.006 A 
ENDBRANCH   1   2
BRANCH   1   8
ATOM      8  O   UNL     1      28.375  18.763  31.125  1.00  0.00    -0.392 OA
ATOM      9  H   UNL     1      29.327  18.925  30.894  1.00  0.00     0.211 HD
ENDBRANCH   1   8
TORSDOF 2
ENDMDL
MODEL 3
REMARK VINA RESULT:    -4.268     13.318     14.072
REMARK INTER + INTRA:          -4.658
REMARK INTER:                  -4.640
REMARK INTRA:                  -0.017
REMARK UNBOUND:                -0.015
REMARK SMILES OCc1ccccc1
REMARK SMILES IDX 2 1 3 2 6 3 5 4 7 5 4 6 8 7 1 8
REMARK H PARENT 1 9
REMARK Flexibility Score: inf
ROOT
ATOM      1  C   UNL     1      25.023  20.591  24.152  1.00  0.00     0.191 C 
ENDROOT
BRANCH   1   2
ATOM      2  C   UNL     1      26.367  21.264  24.126  1.00  0.00    -0.023 A 
ATOM      3  C   UNL     1      28.843  22.583  24.039  1.00  0.00     0.000 A 
ATOM      4  C   UNL     1      27.986  22.776  25.127  1.00  0.00     0.000 A 
ATOM      5  C   UNL     1      28.462  21.741  22.990  1.00  0.00     0.000 A 
ATOM      6  C   UNL     1      26.749  22.124  25.169  1.00  0.00     0.006 A 
ATOM      7  C   UNL     1      27.226  21.088  23.028  1.00  0.00     0.006 A 
ENDBRANCH   1   2
BRANCH   1   8
ATOM      8  O   UNL     1      24.578  20.455  25.473  1.00  0.00    -0.392 OA
ATOM      9  H   UNL     1      25.390  20.373  26.038  1.00  0.00     0.211 HD
ENDBRANCH   1   8
TORSDOF 2
ENDMDL
MODEL 4
REMARK VINA RESULT:    -4.245     13.459     14.448
REMARK INTER + INTRA:          -4.632
REMARK INTER:                  -4.613
REMARK INTRA:                  -0.020
REMARK UNBOUND:                -0.015
REMARK SMILES OCc1ccccc1
REMARK SMILES IDX 2 1 3 2 6 3 5 4 7 5 4 6 8 7 1 8
REMARK H PARENT 1 9
REMARK Flexibility Score: inf
ROOT
ATOM      1  C   UNL     1      28.717  11.207  23.377  1.00  0.00     0.191 C 
ENDROOT
BRANCH   1   2
ATOM      2  C   UNL     1      29.439  10.046  24.004  1.00  0.00    -0.023 A 
ATOM      3  C   UNL     1      30.757   7.832  25.116  1.00  0.00     0.000 A 
ATOM      4  C   UNL     1      31.396   8.613  24.148  1.00  0.00     0.000 A 
ATOM      5  C   UNL     1      29.457   8.150  25.523  1.00  0.00     0.000 A 
ATOM      6  C   UNL     1      30.739   9.713  23.589  1.00  0.00     0.006 A 
ATOM      7  C   UNL     1      28.797   9.249  24.966  1.00  0.00     0.006 A 
ENDBRANCH   1   2
BRANCH   1   8
ATOM      8  O   UNL     1      29.552  11.853  22.456  1.00  0.00    -0.392 OA
ATOM      9  H   UNL     1      28.965  12.420  21.891  1.00  0.00     0.211 HD
ENDBRANCH   1   8
TORSDOF 2
ENDMDL
MODEL 5
REMARK VINA RESULT:    -4.190      2.259      3.280
REMARK INTER + INTRA:          -4.573
REMARK INTER:                  -4.555
REMARK INTRA:                  -0.018
REMARK UNBOUND:                -0.015
REMARK SMILES OCc1ccccc1
REMARK SMILES IDX 2 1 3 2 6 3 5 4 7 5 4 6 8 7 1 8
REMARK H PARENT 1 9
REMARK Flexibility Score: inf
ROOT
ATOM      1  C   UNL     1      40.057  21.323  23.352  1.00  0.00     0.191 C 
ENDROOT
BRANCH   1   2
ATOM      2  C   UNL     1      40.368  19.857  23.229  1.00  0.00    -0.023 A 
ATOM      3  C   UNL     1      40.989  17.136  22.933  1.00  0.00     0.000 A 
ATOM      4  C   UNL     1      41.834  17.970  23.671  1.00  0.00     0.000 A 
ATOM      5  C   UNL     1      39.839  17.661  22.334  1.00  0.00     0.000 A 
ATOM      6  C   UNL     1      41.529  19.327  23.815  1.00  0.00     0.006 A 
ATOM      7  C   UNL     1      39.531  19.017  22.475  1.00  0.00     0.006 A 
ENDBRANCH   1   2
BRANCH   1   8
ATOM      8  O   UNL     1      39.321  21.754  22.241  1.00  0.00    -0.392 OA
ATOM      9  H   UNL     1      38.370  21.546  22.433  1.00  0.00     0.211 HD
ENDBRANCH   1   8
TORSDOF 2
ENDMDL
MODEL 6
REMARK VINA RESULT:    -4.180     10.093     11.417
REMARK INTER + INTRA:          -4.561
REMARK INTER:                  -4.551
REMARK INTRA:                  -0.011
REMARK UNBOUND:                -0.015
REMARK SMILES OCc1ccccc1
REMARK SMILES IDX 2 1 3 2 6 3 5 4 7 5 4 6 8 7 1 8
REMARK H PARENT 1 9
REMARK Flexibility Score: inf
ROOT
ATOM      1  C   UNL     1      38.934   6.297  24.302  1.00  0.00     0.191 C 
ENDROOT
BRANCH   1   2
ATOM      2  C   UNL     1      38.565   7.480  25.153  1.00  0.00    -0.023 A 
ATOM      3  C   UNL     1      37.801   9.681  26.718  1.00  0.00     0.000 A 
ATOM      4  C   UNL     1      37.808   8.397  27.272  1.00  0.00     0.000 A 
ATOM      5  C   UNL     1      38.166   9.867  25.381  1.00  0.00     0.000 A 
ATOM      6  C   UNL     1      38.182   7.299  26.492  1.00  0.00     0.006 A 
ATOM      7  C   UNL     1      38.541   8.771  24.598  1.00  0.00     0.006 A 
ENDBRANCH   1   2
BRANCH   1   8
ATOM      8  O   UNL     1      40.130   5.730  24.759  1.00  0.00    -0.392 OA
ATOM      9  H   UNL     1      39.878   4.951  25.321  1.00  0.00     0.211 HD
ENDBRANCH   1   8
TORSDOF 2
ENDMDL
MODEL 7
REMARK VINA RESULT:    -4.173     13.013     13.581
REMARK INTER + INTRA:          -4.553
REMARK INTER:                  -4.535
REMARK INTRA:                  -0.019
REMARK UNBOUND:                -0.015
REMARK SMILES OCc1ccccc1
REMARK SMILES IDX 2 1 3 2 6 3 5 4 7 5 4 6 8 7 1 8
REMARK H PARENT 1 9
REMARK Flexibility Score: inf
ROOT
ATOM      1  C   UNL     1      29.615  22.932  27.793  1.00  0.00     0.191 C 
ENDROOT
BRANCH   1   2
ATOM      2  C   UNL     1      29.126  21.753  28.587  1.00  0.00    -0.023 A 
ATOM      3  C   UNL     1      28.257  19.503  30.023  1.00  0.00     0.000 A 
ATOM      4  C   UNL     1      29.409  20.187  30.424  1.00  0.00     0.000 A 
ATOM      5  C   UNL     1      27.543  19.935  28.900  1.00  0.00     0.000 A 
ATOM      6  C   UNL     1      29.846  21.304  29.706  1.00  0.00     0.006 A 
ATOM      7  C   UNL     1      27.978  21.052  28.180  1.00  0.00     0.006 A 
ENDBRANCH   1   2
BRANCH   1   8
ATOM      8  O   UNL     1      30.563  23.650  28.532  1.00  0.00    -0.392 OA
ATOM      9  H   UNL     1      30.066  24.115  29.255  1.00  0.00     0.211 HD
ENDBRANCH   1   8
TORSDOF 2
ENDMDL
MODEL 8
REMARK VINA RESULT:    -4.145      2.374      3.737
REMARK INTER + INTRA:          -4.523
REMARK INTER:                  -4.511
REMARK INTRA:                  -0.012
REMARK UNBOUND:                -0.015
REMARK SMILES OCc1ccccc1
REMARK SMILES IDX 2 1 3 2 6 3 5 4 7 5 4 6 8 7 1 8
REMARK H PARENT 1 9
REMARK Flexibility Score: inf
ROOT
ATOM      1  C   UNL     1      42.533  20.545  24.907  1.00  0.00     0.191 C 
ENDROOT
BRANCH   1   2
ATOM      2  C   UNL     1      41.622  19.833  23.946  1.00  0.00    -0.023 A 
ATOM      3  C   UNL     1      39.871  18.489  22.212  1.00  0.00     0.000 A 
ATOM      4  C   UNL     1      39.739  19.867  22.410  1.00  0.00     0.000 A 
ATOM      5  C   UNL     1      40.870  17.779  22.885  1.00  0.00     0.000 A 
ATOM      6  C   UNL     1      40.606  20.537  23.278  1.00  0.00     0.006 A 
ATOM      7  C   UNL     1      41.740  18.446  23.754  1.00  0.00     0.006 A 
ENDBRANCH   1   2
BRANCH   1   8
ATOM      8  O   UNL     1      41.804  21.002  26.012  1.00  0.00    -0.392 OA
ATOM      9  H   UNL     1      41.493  20.195  26.500  1.00  0.00     0.211 HD
ENDBRANCH   1   8
TORSDOF 2
ENDMDL
MODEL 9
REMARK VINA RESULT:    -4.086     13.187     14.455
REMARK INTER + INTRA:          -4.460
REMARK INTER:                  -4.450
REMARK INTRA:                  -0.010
REMARK UNBOUND:                -0.015
REMARK SMILES OCc1ccccc1
REMARK SMILES IDX 2 1 3 2 6 3 5 4 7 5 4 6 8 7 1 8
REMARK H PARENT 1 9
REMARK Flexibility Score: inf
ROOT
ATOM      1  C   UNL     1      28.127   8.608  25.528  1.00  0.00     0.191 C 
ENDROOT
BRANCH   1   2
ATOM      2  C   UNL     1      29.403   8.996  24.834  1.00  0.00    -0.023 A 
ATOM      3  C   UNL     1      31.803   9.767  23.600  1.00  0.00     0.000 A 
ATOM      4  C   UNL     1      31.774   8.646  24.434  1.00  0.00     0.000 A 
ATOM      5  C   UNL     1      30.637  10.510  23.389  1.00  0.00     0.000 A 
ATOM      6  C   UNL     1      30.581   8.263  25.054  1.00  0.00     0.006 A 
ATOM      7  C   UNL     1      29.442  10.131  24.007  1.00  0.00     0.006 A 
ENDBRANCH   1   2
BRANCH   1   8
ATOM      8  O   UNL     1      27.964   9.366  26.695  1.00  0.00    -0.392 OA
ATOM      9  H   UNL     1      28.115  10.313  26.440  1.00  0.00     0.211 HD
ENDBRANCH   1   8
TORSDOF 2
ENDMDL
