MODEL 1
REMARK VINA RESULT:    -4.000      0.000      0.000
REMARK INTER + INTRA:          -6.136
REMARK INTER:                  -6.104
REMARK INTRA:                  -0.032
REMARK UNBOUND:                -0.032
REMARK SMILES CC1=CCC[C@H](C)C(=O)C[C@@H](C(C)C)C(=O)C1
REMARK SMILES IDX 8 1 9 2 6 3 7 4 5 5 4 6 3 7 2 8 1 9 10 11 11 12 15 13 16 14
REMARK SMILES IDX 17 15 12 17 13 18 14 19
REMARK H PARENT
REMARK Flexibility Score: 70.00
ROOT
ATOM      1  C   UNL     1      -6.529   3.111  15.809  1.00  0.00     0.136 C 
ATOM      2  O   UNL     1      -6.898   2.499  16.802  1.00  0.00    -0.299 OA
ENDROOT
BRANCH   1   3
ATOM      3  C   UNL     1      -7.271   4.367  15.391  1.00  0.00     0.053 C 
ATOM      4  C   UNL     1      -8.634   4.008  14.783  1.00  0.00     0.016 C 
BRANCH   3   5
ATOM      5  C   UNL     1      -7.439   5.323  16.595  1.00  0.00     0.015 C 
BRANCH   5   6
ATOM      6  C   UNL     1      -6.080   5.855  17.090  1.00  0.00     0.028 C 
BRANCH   6   7
ATOM      7  C   UNL     1      -5.518   6.956  16.225  1.00  0.00    -0.028 C 
ATOM      8  C   UNL     1      -4.363   6.891  15.517  1.00  0.00    -0.070 CG0
ATOM      9  C   UNL     1      -4.022   8.061  14.627  1.00  0.00     0.039 C 
ATOM     10  G   UNL     1      -3.376   5.735  15.614  1.00  0.00     0.000 G0
ENDBRANCH   6   7
ENDBRANCH   5   6
ENDBRANCH   3   5
ENDBRANCH   1   3
BRANCH   1  11
ATOM     11  C   UNL     1      -5.348   2.589  15.021  1.00  0.00     0.087 C 
BRANCH  11  12
ATOM     12  C   UNL     1      -4.009   3.201  15.507  1.00  0.00     0.066 C 
BRANCH  12  13
ATOM     13  C   UNL     1      -3.715   4.515  14.795  1.00  0.00     0.140 C 
ATOM     14  O   UNL     1      -3.747   4.584  13.576  1.00  0.00    -0.299 OA
BRANCH  13  15
ATOM     15  C   UNL     1      -3.352   5.738  15.603  1.00  0.00     0.106 CG0
ATOM     16  G   UNL     1      -4.366   6.870  15.505  1.00  0.00     0.000 G0
ENDBRANCH  13  15
ENDBRANCH  12  13
BRANCH  12  17
ATOM     17  C   UNL     1      -2.835   2.173  15.462  1.00  0.00    -0.006 C 
ATOM     18  C   UNL     1      -2.498   1.644  14.056  1.00  0.00     0.008 C 
ATOM     19  C   UNL     1      -1.572   2.727  16.142  1.00  0.00     0.008 C 
ENDBRANCH  12  17
ENDBRANCH  11  12
ENDBRANCH   1  11
TORSDOF 1
ENDMDL
MODEL 2
REMARK VINA RESULT:    -3.679      1.659      3.812
REMARK INTER + INTRA:          -5.647
REMARK INTER:                  -5.380
REMARK INTRA:                  -0.266
REMARK UNBOUND:                -0.032
REMARK SMILES CC1=CCC[C@H](C)C(=O)C[C@@H](C(C)C)C(=O)C1
REMARK SMILES IDX 8 1 9 2 6 3 7 4 5 5 4 6 3 7 2 8 1 9 10 11 11 12 15 13 16 14
REMARK SMILES IDX 17 15 12 17 13 18 14 19
REMARK H PARENT
REMARK Flexibility Score: 70.00
ROOT
ATOM      1  C   UNL     1      -2.721   4.602  15.050  1.00  0.00     0.136 C 
ATOM      2  O   UNL     1      -1.652   4.348  14.513  1.00  0.00    -0.299 OA
ENDROOT
BRANCH   1   3
ATOM      3  C   UNL     1      -3.258   6.022  15.004  1.00  0.00     0.053 C 
ATOM      4  C   UNL     1      -2.156   7.023  15.376  1.00  0.00     0.016 C 
BRANCH   3   5
ATOM      5  C   UNL     1      -3.841   6.336  13.608  1.00  0.00     0.015 C 
BRANCH   5   6
ATOM      6  C   UNL     1      -5.379   6.427  13.643  1.00  0.00     0.028 C 
BRANCH   6   7
ATOM      7  C   UNL     1      -5.931   6.683  15.024  1.00  0.00    -0.028 C 
ATOM      8  C   UNL     1      -6.563   5.771  15.803  1.00  0.00    -0.070 CG0
ATOM      9  C   UNL     1      -6.950   6.192  17.199  1.00  0.00     0.039 C 
ATOM     10  G   UNL     1      -6.945   4.374  15.328  1.00  0.00     0.000 G0
ENDBRANCH   6   7
ENDBRANCH   5   6
ENDBRANCH   3   5
ENDBRANCH   1   3
BRANCH   1  11
ATOM     11  C   UNL     1      -3.472   3.494  15.753  1.00  0.00     0.087 C 
BRANCH  11  12
ATOM     12  C   UNL     1      -4.718   3.035  14.952  1.00  0.00     0.066 C 
BRANCH  12  13
ATOM     13  C   UNL     1      -5.997   3.263  15.746  1.00  0.00     0.140 C 
ATOM     14  O   UNL     1      -6.268   2.556  16.705  1.00  0.00    -0.299 OA
BRANCH  13  15
ATOM     15  C   UNL     1      -6.953   4.353  15.327  1.00  0.00     0.106 CG0
ATOM     16  G   UNL     1      -6.551   5.745  15.798  1.00  0.00     0.000 G0
ENDBRANCH  13  15
ENDBRANCH  12  13
BRANCH  12  17
ATOM     17  C   UNL     1      -4.563   1.587  14.390  1.00  0.00    -0.006 C 
ATOM     18  C   UNL     1      -5.162   1.375  12.987  1.00  0.00     0.008 C 
ATOM     19  C   UNL     1      -3.099   1.121  14.422  1.00  0.00     0.008 C 
ENDBRANCH  12  17
ENDBRANCH  11  12
ENDBRANCH   1  11
TORSDOF 1
ENDMDL
MODEL 3
REMARK VINA RESULT:    -3.669      1.783      4.090
REMARK INTER + INTRA:          -5.632
REMARK INTER:                  -5.321
REMARK INTRA:                  -0.311
REMARK UNBOUND:                -0.032
REMARK SMILES CC1=CCC[C@H](C)C(=O)C[C@@H](C(C)C)C(=O)C1
REMARK SMILES IDX 8 1 9 2 6 3 7 4 5 5 4 6 3 7 2 8 1 9 10 11 11 12 15 13 16 14
REMARK SMILES IDX 17 15 12 17 13 18 14 19
REMARK H PARENT
REMARK Flexibility Score: 70.00
ROOT
ATOM      1  C   UNL     1      -6.609   5.255  16.660  1.00  0.00     0.136 C 
ATOM      2  O   UNL     1      -7.315   6.162  17.078  1.00  0.00    -0.299 OA
ENDROOT
BRANCH   1   3
ATOM      3  C   UNL     1      -7.230   3.899  16.375  1.00  0.00     0.053 C 
ATOM      4  C   UNL     1      -8.147   3.978  15.147  1.00  0.00     0.016 C 
BRANCH   3   5
ATOM      5  C   UNL     1      -6.131   2.831  16.176  1.00  0.00     0.015 C 
BRANCH   5   6
ATOM      6  C   UNL     1      -5.900   2.527  14.682  1.00  0.00     0.028 C 
BRANCH   6   7
ATOM      7  C   UNL     1      -4.499   2.054  14.379  1.00  0.00    -0.028 C 
ATOM      8  C   UNL     1      -3.498   2.820  13.880  1.00  0.00    -0.070 CG0
ATOM      9  C   UNL     1      -2.135   2.187  13.744  1.00  0.00     0.039 C 
ATOM     10  G   UNL     1      -3.688   4.255  13.407  1.00  0.00     0.000 G0
ENDBRANCH   6   7
ENDBRANCH   5   6
ENDBRANCH   3   5
ENDBRANCH   1   3
BRANCH   1  11
ATOM     11  C   UNL     1      -5.133   5.509  16.450  1.00  0.00     0.087 C 
BRANCH  11  12
ATOM     12  C   UNL     1      -4.821   5.969  15.003  1.00  0.00     0.066 C 
BRANCH  12  13
ATOM     13  C   UNL     1      -3.557   5.304  14.475  1.00  0.00     0.140 C 
ATOM     14  O   UNL     1      -2.459   5.623  14.907  1.00  0.00    -0.299 OA
BRANCH  13  15
ATOM     15  C   UNL     1      -3.658   4.262  13.387  1.00  0.00     0.106 CG0
ATOM     16  G   UNL     1      -3.519   2.829  13.886  1.00  0.00     0.000 G0
ENDBRANCH  13  15
ENDBRANCH  12  13
BRANCH  12  17
ATOM     17  C   UNL     1      -4.835   7.523  14.856  1.00  0.00    -0.006 C 
ATOM     18  C   UNL     1      -6.173   8.110  14.371  1.00  0.00     0.008 C 
ATOM     19  C   UNL     1      -4.385   8.218  16.152  1.00  0.00     0.008 C 
ENDBRANCH  12  17
ENDBRANCH  11  12
ENDBRANCH   1  11
TORSDOF 1
ENDMDL
MODEL 4
REMARK VINA RESULT:    -3.656      7.046      9.505
REMARK INTER + INTRA:          -5.611
REMARK INTER:                  -5.287
REMARK INTRA:                  -0.324
REMARK UNBOUND:                -0.032
REMARK SMILES CC1=CCC[C@H](C)C(=O)C[C@@H](C(C)C)C(=O)C1
REMARK SMILES IDX 8 1 9 2 6 3 7 4 5 5 4 6 3 7 2 8 1 9 10 11 11 12 15 13 16 14
REMARK SMILES IDX 17 15 12 17 13 18 14 19
REMARK H PARENT
REMARK Flexibility Score: 70.00
ROOT
ATOM      1  C   UNL     1      -3.838  -1.824   9.762  1.00  0.00     0.136 C 
ATOM      2  O   UNL     1      -4.668  -1.595   8.893  1.00  0.00    -0.299 OA
ENDROOT
BRANCH   1   3
ATOM      3  C   UNL     1      -3.156  -3.180   9.801  1.00  0.00     0.053 C 
ATOM      4  C   UNL     1      -4.190  -4.293  10.026  1.00  0.00     0.016 C 
BRANCH   3   5
ATOM      5  C   UNL     1      -2.359  -3.423   8.500  1.00  0.00     0.015 C 
BRANCH   5   6
ATOM      6  C   UNL     1      -0.867  -3.075   8.675  1.00  0.00     0.028 C 
BRANCH   6   7
ATOM      7  C   UNL     1      -0.296  -3.543   9.991  1.00  0.00    -0.028 C 
ATOM      8  C   UNL     1       0.085  -2.741  11.016  1.00  0.00    -0.070 CG0
ATOM      9  C   UNL     1       0.536  -3.405  12.293  1.00  0.00     0.039 C 
ATOM     10  G   UNL     1       0.131  -1.221  10.927  1.00  0.00     0.000 G0
ENDBRANCH   6   7
ENDBRANCH   5   6
ENDBRANCH   3   5
ENDBRANCH   1   3
BRANCH   1  11
ATOM     11  C   UNL     1      -3.523  -0.750  10.779  1.00  0.00     0.087 C 
BRANCH  11  12
ATOM     12  C   UNL     1      -2.169  -0.052  10.489  1.00  0.00     0.066 C 
BRANCH  12  13
ATOM     13  C   UNL     1      -1.094  -0.512  11.465  1.00  0.00     0.140 C 
ATOM     14  O   UNL     1      -1.210  -0.302  12.663  1.00  0.00    -0.299 OA
BRANCH  13  15
ATOM     15  C   UNL     1       0.141  -1.207  10.944  1.00  0.00     0.106 CG0
ATOM     16  G   UNL     1       0.076  -2.727  11.023  1.00  0.00     0.000 G0
ENDBRANCH  13  15
ENDBRANCH  12  13
BRANCH  12  17
ATOM     17  C   UNL     1      -2.311   1.498  10.377  1.00  0.00    -0.006 C 
ATOM     18  C   UNL     1      -1.327   2.164   9.398  1.00  0.00     0.008 C 
ATOM     19  C   UNL     1      -3.754   1.912  10.049  1.00  0.00     0.008 C 
ENDBRANCH  12  17
ENDBRANCH  11  12
ENDBRANCH   1  11
TORSDOF 1
ENDMDL
MODEL 5
REMARK VINA RESULT:    -3.583      2.402      4.726
REMARK INTER + INTRA:          -5.499
REMARK INTER:                  -5.469
REMARK INTRA:                  -0.031
REMARK UNBOUND:                -0.032
REMARK SMILES CC1=CCC[C@H](C)C(=O)C[C@@H](C(C)C)C(=O)C1
REMARK SMILES IDX 8 1 9 2 6 3 7 4 5 5 4 6 3 7 2 8 1 9 10 11 11 12 15 13 16 14
REMARK SMILES IDX 17 15 12 17 13 18 14 19
REMARK H PARENT
REMARK Flexibility Score: 70.00
ROOT
ATOM      1  C   UNL     1      -4.607   1.252  13.242  1.00  0.00     0.136 C 
ATOM      2  O   UNL     1      -5.435   0.402  12.947  1.00  0.00    -0.299 OA
ENDROOT
BRANCH   1   3
ATOM      3  C   UNL     1      -3.399   1.456  12.345  1.00  0.00     0.053 C 
ATOM      4  C   UNL     1      -2.659   0.128  12.132  1.00  0.00     0.016 C 
BRANCH   3   5
ATOM      5  C   UNL     1      -3.826   2.073  10.994  1.00  0.00     0.015 C 
BRANCH   5   6
ATOM      6  C   UNL     1      -3.474   3.572  10.918  1.00  0.00     0.028 C 
BRANCH   6   7
ATOM      7  C   UNL     1      -2.392   3.981  11.889  1.00  0.00    -0.028 C 
ATOM      8  C   UNL     1      -2.582   4.691  13.028  1.00  0.00    -0.070 CG0
ATOM      9  C   UNL     1      -1.386   4.912  13.921  1.00  0.00     0.039 C 
ATOM     10  G   UNL     1      -3.914   5.316  13.422  1.00  0.00     0.000 G0
ENDBRANCH   6   7
ENDBRANCH   5   6
ENDBRANCH   3   5
ENDBRANCH   1   3
BRANCH   1  11
ATOM     11  C   UNL     1      -4.806   2.068  14.500  1.00  0.00     0.087 C 
BRANCH  11  12
ATOM     12  C   UNL     1      -5.522   3.413  14.213  1.00  0.00     0.066 C 
BRANCH  12  13
ATOM     13  C   UNL     1      -4.623   4.596  14.546  1.00  0.00     0.140 C 
ATOM     14  O   UNL     1      -4.492   4.973  15.701  1.00  0.00    -0.299 OA
BRANCH  13  15
ATOM     15  C   UNL     1      -3.909   5.329  13.435  1.00  0.00     0.106 CG0
ATOM     16  G   UNL     1      -2.588   4.693  13.023  1.00  0.00     0.000 G0
ENDBRANCH  13  15
ENDBRANCH  12  13
BRANCH  12  17
ATOM     17  C   UNL     1      -6.939   3.483  14.865  1.00  0.00    -0.006 C 
ATOM     18  C   UNL     1      -6.985   3.070  16.348  1.00  0.00     0.008 C 
ATOM     19  C   UNL     1      -7.581   4.867  14.676  1.00  0.00     0.008 C 
ENDBRANCH  12  17
ENDBRANCH  11  12
ENDBRANCH   1  11
TORSDOF 1
ENDMDL
MODEL 6
REMARK VINA RESULT:    -3.578      2.383      4.552
REMARK INTER + INTRA:          -5.493
REMARK INTER:                  -5.404
REMARK INTRA:                  -0.089
REMARK UNBOUND:                -0.032
REMARK SMILES CC1=CCC[C@H](C)C(=O)C[C@@H](C(C)C)C(=O)C1
REMARK SMILES IDX 8 1 9 2 6 3 7 4 5 5 4 6 3 7 2 8 1 9 10 11 11 12 15 13 16 14
REMARK SMILES IDX 17 15 12 17 13 18 14 19
REMARK H PARENT
REMARK Flexibility Score: 70.00
ROOT
ATOM      1  C   UNL     1      -5.140   4.377  15.956  1.00  0.00     0.136 C 
ATOM      2  O   UNL     1      -5.619   5.204  16.720  1.00  0.00    -0.299 OA
ENDROOT
BRANCH   1   3
ATOM      3  C   UNL     1      -5.681   2.959  15.959  1.00  0.00     0.053 C 
ATOM      4  C   UNL     1      -7.004   2.893  16.736  1.00  0.00     0.016 C 
BRANCH   3   5
ATOM      5  C   UNL     1      -5.864   2.446  14.513  1.00  0.00     0.015 C 
BRANCH   5   6
ATOM      6  C   UNL     1      -4.762   1.441  14.125  1.00  0.00     0.028 C 
BRANCH   6   7
ATOM      7  C   UNL     1      -4.458   1.429  12.646  1.00  0.00    -0.028 C 
ATOM      8  C   UNL     1      -3.613   2.276  12.008  1.00  0.00    -0.070 CG0
ATOM      9  C   UNL     1      -3.362   2.038  10.539  1.00  0.00     0.039 C 
ATOM     10  G   UNL     1      -2.953   3.475  12.677  1.00  0.00     0.000 G0
ENDBRANCH   6   7
ENDBRANCH   5   6
ENDBRANCH   3   5
ENDBRANCH   1   3
BRANCH   1  11
ATOM     11  C   UNL     1      -4.013   4.793  15.037  1.00  0.00     0.087 C 
BRANCH  11  12
ATOM     12  C   UNL     1      -4.536   5.331  13.681  1.00  0.00     0.066 C 
BRANCH  12  13
ATOM     13  C   UNL     1      -3.707   4.797  12.521  1.00  0.00     0.140 C 
ATOM     14  O   UNL     1      -3.667   5.395  11.456  1.00  0.00    -0.299 OA
BRANCH  13  15
ATOM     15  C   UNL     1      -2.950   3.499  12.677  1.00  0.00     0.106 CG0
ATOM     16  G   UNL     1      -3.626   2.304  12.016  1.00  0.00     0.000 G0
ENDBRANCH  13  15
ENDBRANCH  12  13
BRANCH  12  17
ATOM     17  C   UNL     1      -4.708   6.883  13.683  1.00  0.00    -0.006 C 
ATOM     18  C   UNL     1      -6.129   7.371  14.019  1.00  0.00     0.008 C 
ATOM     19  C   UNL     1      -3.678   7.565  14.597  1.00  0.00     0.008 C 
ENDBRANCH  12  17
ENDBRANCH  11  12
ENDBRANCH   1  11
TORSDOF 1
ENDMDL
MODEL 7
REMARK VINA RESULT:    -3.508      6.310      7.900
REMARK INTER + INTRA:          -5.386
REMARK INTER:                  -5.036
REMARK INTRA:                  -0.350
REMARK UNBOUND:                -0.032
REMARK SMILES CC1=CCC[C@H](C)C(=O)C[C@@H](C(C)C)C(=O)C1
REMARK SMILES IDX 8 1 9 2 6 3 7 4 5 5 4 6 3 7 2 8 1 9 10 11 11 12 15 13 16 14
REMARK SMILES IDX 17 15 12 17 13 18 14 19
REMARK H PARENT
REMARK Flexibility Score: 70.00
ROOT
ATOM      1  C   UNL     1      -3.533  -0.384   9.580  1.00  0.00     0.136 C 
ATOM      2  O   UNL     1      -4.372  -0.900   8.854  1.00  0.00    -0.299 OA
ENDROOT
BRANCH   1   3
ATOM      3  C   UNL     1      -3.861   0.919  10.286  1.00  0.00     0.053 C 
ATOM      4  C   UNL     1      -4.185   0.661  11.765  1.00  0.00     0.016 C 
BRANCH   3   5
ATOM      5  C   UNL     1      -2.693   1.921  10.144  1.00  0.00     0.015 C 
BRANCH   5   6
ATOM      6  C   UNL     1      -1.996   2.176  11.495  1.00  0.00     0.028 C 
BRANCH   6   7
ATOM      7  C   UNL     1      -0.508   1.926  11.456  1.00  0.00    -0.028 C 
ATOM      8  C   UNL     1       0.114   0.794  11.868  1.00  0.00    -0.070 CG0
ATOM      9  C   UNL     1       1.603   0.696  11.650  1.00  0.00     0.039 C 
ATOM     10  G   UNL     1      -0.598  -0.349  12.581  1.00  0.00     0.000 G0
ENDBRANCH   6   7
ENDBRANCH   5   6
ENDBRANCH   3   5
ENDBRANCH   1   3
BRANCH   1  11
ATOM     11  C   UNL     1      -2.189  -1.057   9.743  1.00  0.00     0.087 C 
BRANCH  11  12
ATOM     12  C   UNL     1      -2.095  -1.856  11.069  1.00  0.00     0.066 C 
BRANCH  12  13
ATOM     13  C   UNL     1      -0.768  -1.601  11.771  1.00  0.00     0.140 C 
ATOM     14  O   UNL     1       0.145  -2.409  11.690  1.00  0.00    -0.299 OA
BRANCH  13  15
ATOM     15  C   UNL     1      -0.589  -0.352  12.601  1.00  0.00     0.106 CG0
ATOM     16  G   UNL     1       0.109   0.786  11.866  1.00  0.00     0.000 G0
ENDBRANCH  13  15
ENDBRANCH  12  13
BRANCH  12  17
ATOM     17  C   UNL     1      -2.437  -3.367  10.878  1.00  0.00    -0.006 C 
ATOM     18  C   UNL     1      -3.845  -3.771  11.351  1.00  0.00     0.008 C 
ATOM     19  C   UNL     1      -2.211  -3.819   9.426  1.00  0.00     0.008 C 
ENDBRANCH  12  17
ENDBRANCH  11  12
ENDBRANCH   1  11
TORSDOF 1
ENDMDL
MODEL 8
REMARK VINA RESULT:    -3.507      1.767      3.919
REMARK INTER + INTRA:          -5.384
REMARK INTER:                  -5.029
REMARK INTRA:                  -0.355
REMARK UNBOUND:                -0.032
REMARK SMILES CC1=CCC[C@H](C)C(=O)C[C@@H](C(C)C)C(=O)C1
REMARK SMILES IDX 8 1 9 2 6 3 7 4 5 5 4 6 3 7 2 8 1 9 10 11 11 12 15 13 16 14
REMARK SMILES IDX 17 15 12 17 13 18 14 19
REMARK H PARENT
REMARK Flexibility Score: 70.00
ROOT
ATOM      1  C   UNL     1      -4.764   3.208  14.239  1.00  0.00     0.136 C 
ATOM      2  O   UNL     1      -5.387   2.264  13.775  1.00  0.00    -0.299 OA
ENDROOT
BRANCH   1   3
ATOM      3  C   UNL     1      -3.570   3.758  13.481  1.00  0.00     0.053 C 
ATOM      4  C   UNL     1      -4.036   4.576  12.268  1.00  0.00     0.016 C 
BRANCH   3   5
ATOM      5  C   UNL     1      -2.681   4.610  14.414  1.00  0.00     0.015 C 
BRANCH   5   6
ATOM      6  C   UNL     1      -2.870   6.118  14.156  1.00  0.00     0.028 C 
BRANCH   6   7
ATOM      7  C   UNL     1      -2.800   6.952  15.412  1.00  0.00    -0.028 C 
ATOM      8  C   UNL     1      -3.865   7.410  16.116  1.00  0.00    -0.070 CG0
ATOM      9  C   UNL     1      -3.588   8.141  17.406  1.00  0.00     0.039 C 
ATOM     10  G   UNL     1      -5.309   7.271  15.650  1.00  0.00     0.000 G0
ENDBRANCH   6   7
ENDBRANCH   5   6
ENDBRANCH   3   5
ENDBRANCH   1   3
BRANCH   1  11
ATOM     11  C   UNL     1      -5.199   3.794  15.564  1.00  0.00     0.087 C 
BRANCH  11  12
ATOM     12  C   UNL     1      -6.320   4.851  15.393  1.00  0.00     0.066 C 
BRANCH  12  13
ATOM     13  C   UNL     1      -6.047   6.085  16.244  1.00  0.00     0.140 C 
ATOM     14  O   UNL     1      -6.438   6.144  17.400  1.00  0.00    -0.299 OA
BRANCH  13  15
ATOM     15  C   UNL     1      -5.310   7.259  15.643  1.00  0.00     0.106 CG0
ATOM     16  G   UNL     1      -3.874   7.404  16.130  1.00  0.00     0.000 G0
ENDBRANCH  13  15
ENDBRANCH  12  13
BRANCH  12  17
ATOM     17  C   UNL     1      -7.745   4.244  15.588  1.00  0.00    -0.006 C 
ATOM     18  C   UNL     1      -8.534   4.025  14.283  1.00  0.00     0.008 C 
ATOM     19  C   UNL     1      -7.699   2.945  16.408  1.00  0.00     0.008 C 
ENDBRANCH  12  17
ENDBRANCH  11  12
ENDBRANCH   1  11
TORSDOF 1
ENDMDL
MODEL 9
REMARK VINA RESULT:    -3.443      6.402      8.888
REMARK INTER + INTRA:          -5.286
REMARK INTER:                  -5.013
REMARK INTRA:                  -0.274
REMARK UNBOUND:                -0.032
REMARK SMILES CC1=CCC[C@H](C)C(=O)C[C@@H](C(C)C)C(=O)C1
REMARK SMILES IDX 8 1 9 2 6 3 7 4 5 5 4 6 3 7 2 8 1 9 10 11 11 12 15 13 16 14
REMARK SMILES IDX 17 15 12 17 13 18 14 19
REMARK H PARENT
REMARK Flexibility Score: 70.00
ROOT
ATOM      1  C   UNL     1      -2.212   0.361  12.001  1.00  0.00     0.136 C 
ATOM      2  O   UNL     1      -1.821   1.519  12.041  1.00  0.00    -0.299 OA
ENDROOT
BRANCH   1   3
ATOM      3  C   UNL     1      -3.598   0.063  11.459  1.00  0.00     0.053 C 
ATOM      4  C   UNL     1      -4.671   0.714  12.342  1.00  0.00     0.016 C 
BRANCH   3   5
ATOM      5  C   UNL     1      -3.722   0.543   9.995  1.00  0.00     0.015 C 
BRANCH   5   6
ATOM      6  C   UNL     1      -3.490  -0.610   8.998  1.00  0.00     0.028 C 
BRANCH   6   7
ATOM      7  C   UNL     1      -4.054  -1.929   9.468  1.00  0.00    -0.028 C 
ATOM      8  C   UNL     1      -3.327  -2.998   9.874  1.00  0.00    -0.070 CG0
ATOM      9  C   UNL     1      -4.078  -4.193  10.407  1.00  0.00     0.039 C 
ATOM     10  G   UNL     1      -1.809  -3.076   9.772  1.00  0.00     0.000 G0
ENDBRANCH   6   7
ENDBRANCH   5   6
ENDBRANCH   3   5
ENDBRANCH   1   3
BRANCH   1  11
ATOM     11  C   UNL     1      -1.305  -0.739  12.504  1.00  0.00     0.087 C 
BRANCH  11  12
ATOM     12  C   UNL     1      -0.526  -1.424  11.352  1.00  0.00     0.066 C 
BRANCH  12  13
ATOM     13  C   UNL     1      -1.079  -2.815  11.067  1.00  0.00     0.140 C 
ATOM     14  O   UNL     1      -0.916  -3.725  11.866  1.00  0.00    -0.299 OA
BRANCH  13  15
ATOM     15  C   UNL     1      -1.809  -3.079   9.772  1.00  0.00     0.106 CG0
ATOM     16  G   UNL     1      -3.326  -2.995   9.887  1.00  0.00     0.000 G0
ENDBRANCH  13  15
ENDBRANCH  12  13
BRANCH  12  17
ATOM     17  C   UNL     1       1.019  -1.382  11.569  1.00  0.00    -0.006 C 
ATOM     18  C   UNL     1       1.840  -1.126  10.292  1.00  0.00     0.008 C 
ATOM     19  C   UNL     1       1.408  -0.378  12.666  1.00  0.00     0.008 C 
ENDBRANCH  12  17
ENDBRANCH  11  12
ENDBRANCH   1  11
TORSDOF 1
ENDMDL
