MODEL 1
REMARK VINA RESULT:    -4.667      0.000      0.000
REMARK INTER + INTRA:          -8.709
REMARK INTER:                  -6.850
REMARK INTRA:                  -1.860
REMARK UNBOUND:                -1.860
REMARK SMILES O=c1c(O[C@H]2O[C@@H](CO)[C@H](O)[C@@H](O)[C@@H]2O)c(-c2ccc(O)c(O)c2)oc2cc(O)cc(O)c12
REMARK SMILES IDX 4 1 3 2 16 3 25 4 2 5 26 6 1 7 33 8 27 9 31 10 28 11 30 12
REMARK SMILES IDX 17 13 18 14 19 15 20 16 24 17 22 18 21 19 23 21 32 23 29 25
REMARK SMILES IDX 5 27 14 28 6 29 12 30 7 31 10 32 15 33 13 35 8 37 9 38 11 40
REMARK H PARENT 21 20 23 22 32 24 29 26 15 34 13 36 9 39 11 41
REMARK Flexibility Score: inf
ROOT
ATOM      1  O   UNL     1      30.952 176.193 171.449  1.00  0.00    -0.454 OA
ENDROOT
BRANCH   1   2
ATOM      2  C   UNL     1      32.236 175.624 171.555  1.00  0.00     0.214 A 
ATOM      3  C   UNL     1      33.321 176.461 171.887  1.00  0.00     0.180 A 
ATOM      4  O   UNL     1      34.554 175.971 171.940  1.00  0.00    -0.452 OA
ATOM      5  C   UNL     1      32.497 174.254 171.324  1.00  0.00     0.239 A 
ATOM      6  C   UNL     1      34.842 174.696 171.718  1.00  0.00     0.146 A 
ATOM      7  O   UNL     1      31.552 173.465 171.061  1.00  0.00    -0.285 OA
ATOM      8  C   UNL     1      33.821 173.772 171.402  1.00  0.00     0.111 A 
ATOM      9  C   UNL     1      36.173 174.277 171.801  1.00  0.00     0.094 A 
ATOM     10  C   UNL     1      34.166 172.416 171.179  1.00  0.00     0.134 A 
ATOM     11  C   UNL     1      36.508 172.937 171.577  1.00  0.00     0.123 A 
ATOM     12  C   UNL     1      35.506 172.014 171.269  1.00  0.00     0.093 A 
BRANCH   3  13
ATOM     13  C   UNL     1      33.139 177.906 172.140  1.00  0.00     0.025 A 
ATOM     14  C   UNL     1      32.945 178.398 173.440  1.00  0.00     0.016 A 
ATOM     15  C   UNL     1      32.781 179.768 173.660  1.00  0.00     0.051 A 
ATOM     16  C   UNL     1      32.826 180.665 172.585  1.00  0.00     0.157 A 
ATOM     17  C   UNL     1      33.207 178.810 171.068  1.00  0.00     0.062 A 
ATOM     18  C   UNL     1      33.044 180.186 171.287  1.00  0.00     0.158 A 
BRANCH  16  19
ATOM     19  O   UNL     1      32.661 182.032 172.800  1.00  0.00    -0.504 OA
ATOM     20  H   UNL     1      31.786 182.499 172.593  1.00  0.00     0.293 HD
ENDBRANCH  16  19
BRANCH  18  21
ATOM     21  O   UNL     1      33.096 181.081 170.221  1.00  0.00    -0.504 OA
ATOM     22  H   UNL     1      32.461 181.007 169.434  1.00  0.00     0.293 HD
ENDBRANCH  18  21
ENDBRANCH   3  13
BRANCH  10  23
ATOM     23  O   UNL     1      33.189 171.467 170.869  1.00  0.00    -0.507 OA
ATOM     24  H   UNL     1      32.865 170.794 171.553  1.00  0.00     0.293 HD
ENDBRANCH  10  23
BRANCH  11  25
ATOM     25  O   UNL     1      37.832 172.513 171.659  1.00  0.00    -0.508 OA
ATOM     26  H   UNL     1      38.425 172.774 172.438  1.00  0.00     0.293 HD
ENDBRANCH  11  25
ENDBRANCH   1   2
BRANCH   1  27
ATOM     27  C   UNL     1      30.263 176.493 170.232  1.00  0.00     0.339 C 
ATOM     28  C   UNL     1      30.023 178.005 170.109  1.00  0.00     0.214 C 
ATOM     29  O   UNL     1      29.068 175.736 170.091  1.00  0.00    -0.332 OA
ATOM     30  C   UNL     1      28.954 178.478 171.109  1.00  0.00     0.180 C 
ATOM     31  C   UNL     1      28.031 176.089 171.000  1.00  0.00     0.179 C 
ATOM     32  C   UNL     1      27.695 177.604 171.006  1.00  0.00     0.177 C 
BRANCH  28  33
ATOM     33  O   UNL     1      29.625 178.301 168.794  1.00  0.00    -0.384 OA
ATOM     34  H   UNL     1      28.749 177.856 168.652  1.00  0.00     0.211 HD
ENDBRANCH  28  33
BRANCH  30  35
ATOM     35  O   UNL     1      29.454 178.445 172.421  1.00  0.00    -0.387 OA
ATOM     36  H   UNL     1      30.369 178.829 172.392  1.00  0.00     0.211 HD
ENDBRANCH  30  35
BRANCH  31  37
ATOM     37  C   UNL     1      28.240 175.497 172.409  1.00  0.00     0.191 C 
BRANCH  37  38
ATOM     38  O   UNL     1      28.876 174.250 172.335  1.00  0.00    -0.394 OA
ATOM     39  H   UNL     1      29.823 174.398 172.595  1.00  0.00     0.210 HD
ENDBRANCH  37  38
ENDBRANCH  31  37
BRANCH  32  40
ATOM     40  O   UNL     1      27.006 177.937 169.826  1.00  0.00    -0.387 OA
ATOM     41  H   UNL     1      26.209 178.465 170.094  1.00  0.00     0.211 HD
ENDBRANCH  32  40
ENDBRANCH   1  27
TORSDOF 12
ENDMDL
MODEL 2
REMARK VINA RESULT:    -4.667      1.816      6.585
REMARK INTER + INTRA:          -8.709
REMARK INTER:                  -6.832
REMARK INTRA:                  -1.876
REMARK UNBOUND:                -1.860
REMARK SMILES O=c1c(O[C@H]2O[C@@H](CO)[C@H](O)[C@@H](O)[C@@H]2O)c(-c2ccc(O)c(O)c2)oc2cc(O)cc(O)c12
REMARK SMILES IDX 4 1 3 2 16 3 25 4 2 5 26 6 1 7 33 8 27 9 31 10 28 11 30 12
REMARK SMILES IDX 17 13 18 14 19 15 20 16 24 17 22 18 21 19 23 21 32 23 29 25
REMARK SMILES IDX 5 27 14 28 6 29 12 30 7 31 10 32 15 33 13 35 8 37 9 38 11 40
REMARK H PARENT 21 20 23 22 32 24 29 26 15 34 13 36 9 39 11 41
REMARK Flexibility Score: inf
ROOT
ATOM      1  O   UNL     1      32.456 174.159 171.198  1.00  0.00    -0.454 OA
ENDROOT
BRANCH   1   2
ATOM      2  C   UNL     1      32.666 175.537 171.400  1.00  0.00     0.214 A 
ATOM      3  C   UNL     1      33.909 175.963 171.911  1.00  0.00     0.180 A 
ATOM      4  O   UNL     1      34.123 177.248 172.169  1.00  0.00    -0.452 OA
ATOM      5  C   UNL     1      31.683 176.516 171.134  1.00  0.00     0.239 A 
ATOM      6  C   UNL     1      33.223 178.196 171.946  1.00  0.00     0.146 A 
ATOM      7  O   UNL     1      30.573 176.183 170.643  1.00  0.00    -0.285 OA
ATOM      8  C   UNL     1      31.956 177.873 171.410  1.00  0.00     0.111 A 
ATOM      9  C   UNL     1      33.546 179.522 172.247  1.00  0.00     0.094 A 
ATOM     10  C   UNL     1      31.023 178.914 171.178  1.00  0.00     0.134 A 
ATOM     11  C   UNL     1      32.619 180.545 172.018  1.00  0.00     0.123 A 
ATOM     12  C   UNL     1      31.365 180.239 171.485  1.00  0.00     0.093 A 
BRANCH   3  13
ATOM     13  C   UNL     1      34.991 175.005 172.222  1.00  0.00     0.025 A 
ATOM     14  C   UNL     1      35.261 174.616 173.543  1.00  0.00     0.016 A 
ATOM     15  C   UNL     1      36.283 173.704 173.817  1.00  0.00     0.051 A 
ATOM     16  C   UNL     1      37.038 173.157 172.771  1.00  0.00     0.157 A 
ATOM     17  C   UNL     1      35.734 174.436 171.175  1.00  0.00     0.062 A 
ATOM     18  C   UNL     1      36.760 173.520 171.447  1.00  0.00     0.158 A 
BRANCH  16  19
ATOM     19  O   UNL     1      38.061 172.248 173.040  1.00  0.00    -0.504 OA
ATOM     20  H   UNL     1      38.878 172.180 172.445  1.00  0.00     0.293 HD
ENDBRANCH  16  19
BRANCH  18  21
ATOM     21  O   UNL     1      37.507 172.967 170.409  1.00  0.00    -0.504 OA
ATOM     22  H   UNL     1      38.110 173.538 169.828  1.00  0.00     0.293 HD
ENDBRANCH  18  21
ENDBRANCH   3  13
BRANCH  10  23
ATOM     23  O   UNL     1      29.760 178.643 170.647  1.00  0.00    -0.507 OA
ATOM     24  H   UNL     1      29.591 177.832 170.063  1.00  0.00     0.293 HD
ENDBRANCH  10  23
BRANCH  11  25
ATOM     25  O   UNL     1      32.935 181.868 172.316  1.00  0.00    -0.508 OA
ATOM     26  H   UNL     1      33.800 182.291 171.998  1.00  0.00     0.293 HD
ENDBRANCH  11  25
ENDBRANCH   1   2
BRANCH   1  27
ATOM     27  C   UNL     1      31.874 173.250 172.137  1.00  0.00     0.339 C 
ATOM     28  C   UNL     1      32.849 172.106 172.452  1.00  0.00     0.214 C 
ATOM     29  O   UNL     1      30.600 172.783 171.712  1.00  0.00    -0.332 OA
ATOM     30  C   UNL     1      32.986 171.151 171.253  1.00  0.00     0.180 C 
ATOM     31  C   UNL     1      30.632 171.913 170.586  1.00  0.00     0.179 C 
ATOM     32  C   UNL     1      31.603 170.714 170.750  1.00  0.00     0.177 C 
BRANCH  28  33
ATOM     33  O   UNL     1      32.387 171.407 173.580  1.00  0.00    -0.384 OA
ATOM     34  H   UNL     1      33.074 170.724 173.796  1.00  0.00     0.211 HD
ENDBRANCH  28  33
BRANCH  30  35
ATOM     35  O   UNL     1      33.702 171.764 170.212  1.00  0.00    -0.387 OA
ATOM     36  H   UNL     1      33.636 172.745 170.353  1.00  0.00     0.211 HD
ENDBRANCH  30  35
BRANCH  31  37
ATOM     37  C   UNL     1      30.800 172.666 169.251  1.00  0.00     0.191 C 
BRANCH  37  38
ATOM     38  O   UNL     1      30.025 173.834 169.237  1.00  0.00    -0.394 OA
ATOM     39  H   UNL     1      30.367 174.411 169.969  1.00  0.00     0.210 HD
ENDBRANCH  37  38
ENDBRANCH  31  37
BRANCH  32  40
ATOM     40  O   UNL     1      31.060 169.790 171.662  1.00  0.00    -0.387 OA
ATOM     41  H   UNL     1      30.072 169.878 171.610  1.00  0.00     0.211 HD
ENDBRANCH  32  40
ENDBRANCH   1  27
TORSDOF 12
ENDMDL
MODEL 3
REMARK VINA RESULT:    -4.645     10.756     12.953
REMARK INTER + INTRA:          -8.676
REMARK INTER:                  -6.879
REMARK INTRA:                  -1.797
REMARK UNBOUND:                -1.860
REMARK SMILES O=c1c(O[C@H]2O[C@@H](CO)[C@H](O)[C@@H](O)[C@@H]2O)c(-c2ccc(O)c(O)c2)oc2cc(O)cc(O)c12
REMARK SMILES IDX 4 1 3 2 16 3 25 4 2 5 26 6 1 7 33 8 27 9 31 10 28 11 30 12
REMARK SMILES IDX 17 13 18 14 19 15 20 16 24 17 22 18 21 19 23 21 32 23 29 25
REMARK SMILES IDX 5 27 14 28 6 29 12 30 7 31 10 32 15 33 13 35 8 37 9 38 11 40
REMARK H PARENT 21 20 23 22 32 24 29 26 15 34 13 36 9 39 11 41
REMARK Flexibility Score: inf
ROOT
ATOM      1  O   UNL     1      31.049 169.964 162.331  1.00  0.00    -0.454 OA
ENDROOT
BRANCH   1   2
ATOM      2  C   UNL     1      31.192 169.919 160.930  1.00  0.00     0.214 A 
ATOM      3  C   UNL     1      30.225 170.563 160.131  1.00  0.00     0.180 A 
ATOM      4  O   UNL     1      30.295 170.493 158.807  1.00  0.00    -0.452 OA
ATOM      5  C   UNL     1      32.249 169.241 160.281  1.00  0.00     0.239 A 
ATOM      6  C   UNL     1      31.262 169.857 158.160  1.00  0.00     0.146 A 
ATOM      7  O   UNL     1      33.153 168.683 160.957  1.00  0.00    -0.285 OA
ATOM      8  C   UNL     1      32.292 169.201 158.871  1.00  0.00     0.111 A 
ATOM      9  C   UNL     1      31.249 169.844 156.762  1.00  0.00     0.094 A 
ATOM     10  C   UNL     1      33.313 168.538 158.146  1.00  0.00     0.134 A 
ATOM     11  C   UNL     1      32.258 169.186 156.053  1.00  0.00     0.123 A 
ATOM     12  C   UNL     1      33.284 168.538 156.744  1.00  0.00     0.093 A 
BRANCH   3  13
ATOM     13  C   UNL     1      29.085 171.291 160.727  1.00  0.00     0.025 A 
ATOM     14  C   UNL     1      27.817 170.698 160.829  1.00  0.00     0.016 A 
ATOM     15  C   UNL     1      26.753 171.399 161.402  1.00  0.00     0.051 A 
ATOM     16  C   UNL     1      26.946 172.695 161.895  1.00  0.00     0.157 A 
ATOM     17  C   UNL     1      29.281 172.581 161.244  1.00  0.00     0.062 A 
ATOM     18  C   UNL     1      28.214 173.287 161.820  1.00  0.00     0.158 A 
BRANCH  16  19
ATOM     19  O   UNL     1      25.887 173.399 162.465  1.00  0.00    -0.504 OA
ATOM     20  H   UNL     1      25.219 172.947 163.077  1.00  0.00     0.293 HD
ENDBRANCH  16  19
BRANCH  18  21
ATOM     21  O   UNL     1      28.406 174.574 162.318  1.00  0.00    -0.504 OA
ATOM     22  H   UNL     1      29.113 175.190 161.937  1.00  0.00     0.293 HD
ENDBRANCH  18  21
ENDBRANCH   3  13
BRANCH  10  23
ATOM     23  O   UNL     1      34.353 167.881 158.806  1.00  0.00    -0.507 OA
ATOM     24  H   UNL     1      35.180 168.374 159.120  1.00  0.00     0.293 HD
ENDBRANCH  10  23
BRANCH  11  25
ATOM     25  O   UNL     1      32.252 169.170 154.660  1.00  0.00    -0.508 OA
ATOM     26  H   UNL     1      31.989 168.340 154.141  1.00  0.00     0.293 HD
ENDBRANCH  11  25
ENDBRANCH   1   2
BRANCH   1  27
ATOM     27  C   UNL     1      30.302 169.042 163.129  1.00  0.00     0.339 C 
ATOM     28  C   UNL     1      29.220 169.782 163.931  1.00  0.00     0.214 C 
ATOM     29  O   UNL     1      31.141 168.242 163.952  1.00  0.00    -0.332 OA
ATOM     30  C   UNL     1      29.845 170.621 165.059  1.00  0.00     0.180 C 
ATOM     31  C   UNL     1      31.784 168.946 165.008  1.00  0.00     0.179 C 
ATOM     32  C   UNL     1      30.811 169.768 165.894  1.00  0.00     0.177 C 
BRANCH  28  33
ATOM     33  O   UNL     1      28.321 168.842 164.464  1.00  0.00    -0.384 OA
ATOM     34  H   UNL     1      27.512 168.860 163.889  1.00  0.00     0.211 HD
ENDBRANCH  28  33
BRANCH  30  35
ATOM     35  O   UNL     1      30.521 171.733 164.532  1.00  0.00    -0.387 OA
ATOM     36  H   UNL     1      31.392 171.794 165.005  1.00  0.00     0.211 HD
ENDBRANCH  30  35
BRANCH  31  37
ATOM     37  C   UNL     1      33.014 169.747 164.534  1.00  0.00     0.191 C 
BRANCH  37  38
ATOM     38  O   UNL     1      33.745 169.020 163.583  1.00  0.00    -0.394 OA
ATOM     39  H   UNL     1      33.360 168.104 163.569  1.00  0.00     0.210 HD
ENDBRANCH  37  38
ENDBRANCH  31  37
BRANCH  32  40
ATOM     40  O   UNL     1      30.063 168.896 166.705  1.00  0.00    -0.387 OA
ATOM     41  H   UNL     1      30.619 168.087 166.851  1.00  0.00     0.211 HD
ENDBRANCH  32  40
ENDBRANCH   1  27
TORSDOF 12
ENDMDL
MODEL 4
REMARK VINA RESULT:    -4.527      1.502      1.936
REMARK INTER + INTRA:          -8.504
REMARK INTER:                  -6.568
REMARK INTRA:                  -1.936
REMARK UNBOUND:                -1.860
REMARK SMILES O=c1c(O[C@H]2O[C@@H](CO)[C@H](O)[C@@H](O)[C@@H]2O)c(-c2ccc(O)c(O)c2)oc2cc(O)cc(O)c12
REMARK SMILES IDX 4 1 3 2 16 3 25 4 2 5 26 6 1 7 33 8 27 9 31 10 28 11 30 12
REMARK SMILES IDX 17 13 18 14 19 15 20 16 24 17 22 18 21 19 23 21 32 23 29 25
REMARK SMILES IDX 5 27 14 28 6 29 12 30 7 31 10 32 15 33 13 35 8 37 9 38 11 40
REMARK H PARENT 21 20 23 22 32 24 29 26 15 34 13 36 9 39 11 41
REMARK Flexibility Score: inf
ROOT
ATOM      1  O   UNL     1      30.615 178.146 171.796  1.00  0.00    -0.454 OA
ENDROOT
BRANCH   1   2
ATOM      2  C   UNL     1      31.720 177.272 171.827  1.00  0.00     0.214 A 
ATOM      3  C   UNL     1      32.990 177.799 172.138  1.00  0.00     0.180 A 
ATOM      4  O   UNL     1      34.063 177.017 172.120  1.00  0.00    -0.452 OA
ATOM      5  C   UNL     1      31.622 175.892 171.540  1.00  0.00     0.239 A 
ATOM      6  C   UNL     1      34.016 175.721 171.844  1.00  0.00     0.146 A 
ATOM      7  O   UNL     1      30.501 175.374 171.293  1.00  0.00    -0.285 OA
ATOM      8  C   UNL     1      32.786 175.093 171.544  1.00  0.00     0.111 A 
ATOM      9  C   UNL     1      35.202 174.981 171.854  1.00  0.00     0.094 A 
ATOM     10  C   UNL     1      32.774 173.705 171.261  1.00  0.00     0.134 A 
ATOM     11  C   UNL     1      35.184 173.612 171.572  1.00  0.00     0.123 A 
ATOM     12  C   UNL     1      33.974 172.979 171.278  1.00  0.00     0.093 A 
BRANCH   3  13
ATOM     13  C   UNL     1      33.183 179.232 172.445  1.00  0.00     0.025 A 
ATOM     14  C   UNL     1      33.041 179.720 173.753  1.00  0.00     0.016 A 
ATOM     15  C   UNL     1      33.234 181.077 174.026  1.00  0.00     0.051 A 
ATOM     16  C   UNL     1      33.587 181.959 172.997  1.00  0.00     0.157 A 
ATOM     17  C   UNL     1      33.560 180.115 171.421  1.00  0.00     0.062 A 
ATOM     18  C   UNL     1      33.755 181.477 171.692  1.00  0.00     0.158 A 
BRANCH  16  19
ATOM     19  O   UNL     1      33.778 183.314 173.264  1.00  0.00    -0.504 OA
ATOM     20  H   UNL     1      33.518 183.721 174.155  1.00  0.00     0.293 HD
ENDBRANCH  16  19
BRANCH  18  21
ATOM     21  O   UNL     1      34.115 182.356 170.673  1.00  0.00    -0.504 OA
ATOM     22  H   UNL     1      34.921 182.184 170.084  1.00  0.00     0.293 HD
ENDBRANCH  18  21
ENDBRANCH   3  13
BRANCH  10  23
ATOM     23  O   UNL     1      31.581 173.042 170.964  1.00  0.00    -0.507 OA
ATOM     24  H   UNL     1      31.105 172.470 171.651  1.00  0.00     0.293 HD
ENDBRANCH  10  23
BRANCH  11  25
ATOM     25  O   UNL     1      36.362 172.869 171.581  1.00  0.00    -0.508 OA
ATOM     26  H   UNL     1      36.909 172.753 172.427  1.00  0.00     0.293 HD
ENDBRANCH  11  25
ENDBRANCH   1   2
BRANCH   1  27
ATOM     27  C   UNL     1      30.003 178.686 170.621  1.00  0.00     0.339 C 
ATOM     28  C   UNL     1      30.007 180.221 170.671  1.00  0.00     0.214 C 
ATOM     29  O   UNL     1      28.705 178.149 170.398  1.00  0.00    -0.332 OA
ATOM     30  C   UNL     1      29.009 180.743 171.720  1.00  0.00     0.180 C 
ATOM     31  C   UNL     1      27.723 178.559 171.343  1.00  0.00     0.179 C 
ATOM     32  C   UNL     1      27.630 180.098 171.521  1.00  0.00     0.177 C 
BRANCH  28  33
ATOM     33  O   UNL     1      29.682 180.723 169.399  1.00  0.00    -0.384 OA
ATOM     34  H   UNL     1      30.001 180.055 168.737  1.00  0.00     0.211 HD
ENDBRANCH  28  33
BRANCH  30  35
ATOM     35  O   UNL     1      29.476 180.484 173.019  1.00  0.00    -0.387 OA
ATOM     36  H   UNL     1      30.437 180.734 173.036  1.00  0.00     0.211 HD
ENDBRANCH  30  35
BRANCH  31  37
ATOM     37  C   UNL     1      27.812 177.787 172.674  1.00  0.00     0.191 C 
BRANCH  37  38
ATOM     38  O   UNL     1      28.136 176.442 172.449  1.00  0.00    -0.394 OA
ATOM     39  H   UNL     1      28.771 176.178 173.167  1.00  0.00     0.210 HD
ENDBRANCH  37  38
ENDBRANCH  31  37
BRANCH  32  40
ATOM     40  O   UNL     1      27.022 180.666 170.387  1.00  0.00    -0.387 OA
ATOM     41  H   UNL     1      26.116 180.963 170.662  1.00  0.00     0.211 HD
ENDBRANCH  32  40
ENDBRANCH   1  27
TORSDOF 12
ENDMDL
MODEL 5
REMARK VINA RESULT:    -4.417      1.875      6.322
REMARK INTER + INTRA:          -8.342
REMARK INTER:                  -6.641
REMARK INTRA:                  -1.701
REMARK UNBOUND:                -1.860
REMARK SMILES O=c1c(O[C@H]2O[C@@H](CO)[C@H](O)[C@@H](O)[C@@H]2O)c(-c2ccc(O)c(O)c2)oc2cc(O)cc(O)c12
REMARK SMILES IDX 4 1 3 2 16 3 25 4 2 5 26 6 1 7 33 8 27 9 31 10 28 11 30 12
REMARK SMILES IDX 17 13 18 14 19 15 20 16 24 17 22 18 21 19 23 21 32 23 29 25
REMARK SMILES IDX 5 27 14 28 6 29 12 30 7 31 10 32 15 33 13 35 8 37 9 38 11 40
REMARK H PARENT 21 20 23 22 32 24 29 26 15 34 13 36 9 39 11 41
REMARK Flexibility Score: inf
ROOT
ATOM      1  O   UNL     1      32.333 173.988 171.894  1.00  0.00    -0.454 OA
ENDROOT
BRANCH   1   2
ATOM      2  C   UNL     1      32.608 175.370 171.864  1.00  0.00     0.214 A 
ATOM      3  C   UNL     1      33.932 175.801 172.086  1.00  0.00     0.180 A 
ATOM      4  O   UNL     1      34.217 177.097 172.122  1.00  0.00    -0.452 OA
ATOM      5  C   UNL     1      31.615 176.350 171.642  1.00  0.00     0.239 A 
ATOM      6  C   UNL     1      33.313 178.048 171.932  1.00  0.00     0.146 A 
ATOM      7  O   UNL     1      30.427 176.007 171.403  1.00  0.00    -0.285 OA
ATOM      8  C   UNL     1      31.963 177.718 171.677  1.00  0.00     0.111 A 
ATOM      9  C   UNL     1      33.714 179.387 171.986  1.00  0.00     0.094 A 
ATOM     10  C   UNL     1      31.027 178.761 171.471  1.00  0.00     0.134 A 
ATOM     11  C   UNL     1      32.785 180.412 171.785  1.00  0.00     0.123 A 
ATOM     12  C   UNL     1      31.449 180.097 171.527  1.00  0.00     0.093 A 
BRANCH   3  13
ATOM     13  C   UNL     1      35.030 174.843 172.331  1.00  0.00     0.025 A 
ATOM     14  C   UNL     1      35.342 174.411 173.630  1.00  0.00     0.016 A 
ATOM     15  C   UNL     1      36.380 173.500 173.841  1.00  0.00     0.051 A 
ATOM     16  C   UNL     1      37.107 172.995 172.756  1.00  0.00     0.157 A 
ATOM     17  C   UNL     1      35.745 174.316 171.244  1.00  0.00     0.062 A 
ATOM     18  C   UNL     1      36.786 173.400 171.453  1.00  0.00     0.158 A 
BRANCH  16  19
ATOM     19  O   UNL     1      38.145 172.087 172.962  1.00  0.00    -0.504 OA
ATOM     20  H   UNL     1      39.076 172.396 173.213  1.00  0.00     0.293 HD
ENDBRANCH  16  19
BRANCH  18  21
ATOM     21  O   UNL     1      37.506 172.890 170.375  1.00  0.00    -0.504 OA
ATOM     22  H   UNL     1      37.184 172.081 169.857  1.00  0.00     0.293 HD
ENDBRANCH  18  21
ENDBRANCH   3  13
BRANCH  10  23
ATOM     23  O   UNL     1      29.684 178.481 171.211  1.00  0.00    -0.507 OA
ATOM     24  H   UNL     1      29.141 179.034 170.559  1.00  0.00     0.293 HD
ENDBRANCH  10  23
BRANCH  11  25
ATOM     25  O   UNL     1      33.179 181.747 171.837  1.00  0.00    -0.508 OA
ATOM     26  H   UNL     1      33.531 182.163 172.692  1.00  0.00     0.293 HD
ENDBRANCH  11  25
ENDBRANCH   1   2
BRANCH   1  27
ATOM     27  C   UNL     1      32.413 173.090 170.783  1.00  0.00     0.339 C 
ATOM     28  C   UNL     1      31.073 173.042 170.034  1.00  0.00     0.214 C 
ATOM     29  O   UNL     1      32.872 171.801 171.167  1.00  0.00    -0.332 OA
ATOM     30  C   UNL     1      30.005 172.303 170.860  1.00  0.00     0.180 C 
ATOM     31  C   UNL     1      31.955 171.056 171.961  1.00  0.00     0.179 C 
ATOM     32  C   UNL     1      30.538 170.945 171.338  1.00  0.00     0.177 C 
BRANCH  28  33
ATOM     33  O   UNL     1      31.261 172.402 168.797  1.00  0.00    -0.384 OA
ATOM     34  H   UNL     1      32.234 172.430 168.604  1.00  0.00     0.211 HD
ENDBRANCH  28  33
BRANCH  30  35
ATOM     35  O   UNL     1      29.609 173.077 171.962  1.00  0.00    -0.387 OA
ATOM     36  H   UNL     1      29.165 173.889 171.601  1.00  0.00     0.211 HD
ENDBRANCH  30  35
BRANCH  31  37
ATOM     37  C   UNL     1      31.947 171.494 173.439  1.00  0.00     0.191 C 
BRANCH  37  38
ATOM     38  O   UNL     1      30.714 171.201 174.038  1.00  0.00    -0.394 OA
ATOM     39  H   UNL     1      30.126 171.985 173.876  1.00  0.00     0.210 HD
ENDBRANCH  37  38
ENDBRANCH  31  37
BRANCH  32  40
ATOM     40  O   UNL     1      30.573 170.060 170.245  1.00  0.00    -0.387 OA
ATOM     41  H   UNL     1      29.795 170.279 169.669  1.00  0.00     0.211 HD
ENDBRANCH  32  40
ENDBRANCH   1  27
TORSDOF 12
ENDMDL
MODEL 6
REMARK VINA RESULT:    -4.415      1.384      1.735
REMARK INTER + INTRA:          -8.339
REMARK INTER:                  -6.480
REMARK INTRA:                  -1.859
REMARK UNBOUND:                -1.860
REMARK SMILES O=c1c(O[C@H]2O[C@@H](CO)[C@H](O)[C@@H](O)[C@@H]2O)c(-c2ccc(O)c(O)c2)oc2cc(O)cc(O)c12
REMARK SMILES IDX 4 1 3 2 16 3 25 4 2 5 26 6 1 7 33 8 27 9 31 10 28 11 30 12
REMARK SMILES IDX 17 13 18 14 19 15 20 16 24 17 22 18 21 19 23 21 32 23 29 25
REMARK SMILES IDX 5 27 14 28 6 29 12 30 7 31 10 32 15 33 13 35 8 37 9 38 11 40
REMARK H PARENT 21 20 23 22 32 24 29 26 15 34 13 36 9 39 11 41
REMARK Flexibility Score: inf
ROOT
ATOM      1  O   UNL     1      31.413 174.490 171.464  1.00  0.00    -0.454 OA
ENDROOT
BRANCH   1   2
ATOM      2  C   UNL     1      32.788 174.181 171.488  1.00  0.00     0.214 A 
ATOM      3  C   UNL     1      33.701 175.189 171.860  1.00  0.00     0.180 A 
ATOM      4  O   UNL     1      35.007 174.951 171.838  1.00  0.00    -0.452 OA
ATOM      5  C   UNL     1      33.301 172.912 171.135  1.00  0.00     0.239 A 
ATOM      6  C   UNL     1      35.530 173.780 171.502  1.00  0.00     0.146 A 
ATOM      7  O   UNL     1      32.519 171.974 170.831  1.00  0.00    -0.285 OA
ATOM      8  C   UNL     1      34.696 172.699 171.137  1.00  0.00     0.111 A 
ATOM      9  C   UNL     1      36.919 173.629 171.513  1.00  0.00     0.094 A 
ATOM     10  C   UNL     1      35.291 171.460 170.791  1.00  0.00     0.134 A 
ATOM     11  C   UNL     1      37.500 172.404 171.168  1.00  0.00     0.123 A 
ATOM     12  C   UNL     1      36.687 171.327 170.810  1.00  0.00     0.093 A 
BRANCH   3  13
ATOM     13  C   UNL     1      33.250 176.544 172.239  1.00  0.00     0.025 A 
ATOM     14  C   UNL     1      33.027 176.888 173.582  1.00  0.00     0.016 A 
ATOM     15  C   UNL     1      32.607 178.177 173.921  1.00  0.00     0.051 A 
ATOM     16  C   UNL     1      32.421 179.143 172.924  1.00  0.00     0.157 A 
ATOM     17  C   UNL     1      33.085 177.522 171.245  1.00  0.00     0.062 A 
ATOM     18  C   UNL     1      32.665 178.817 171.584  1.00  0.00     0.158 A 
BRANCH  16  19
ATOM     19  O   UNL     1      32.000 180.429 173.258  1.00  0.00    -0.504 OA
ATOM     20  H   UNL     1      32.539 181.247 172.999  1.00  0.00     0.293 HD
ENDBRANCH  16  19
BRANCH  18  21
ATOM     21  O   UNL     1      32.487 179.783 170.595  1.00  0.00    -0.504 OA
ATOM     22  H   UNL     1      32.131 179.543 169.678  1.00  0.00     0.293 HD
ENDBRANCH  18  21
ENDBRANCH   3  13
BRANCH  10  23
ATOM     23  O   UNL     1      34.507 170.363 170.428  1.00  0.00    -0.507 OA
ATOM     24  H   UNL     1      34.587 169.471 170.902  1.00  0.00     0.293 HD
ENDBRANCH  10  23
BRANCH  11  25
ATOM     25  O   UNL     1      38.884 172.247 171.178  1.00  0.00    -0.508 OA
ATOM     26  H   UNL     1      39.319 171.366 170.929  1.00  0.00     0.293 HD
ENDBRANCH  11  25
ENDBRANCH   1   2
BRANCH   1  27
ATOM     27  C   UNL     1      30.615 174.685 170.294  1.00  0.00     0.339 C 
ATOM     28  C   UNL     1      30.085 176.126 170.240  1.00  0.00     0.214 C 
ATOM     29  O   UNL     1      29.581 173.717 170.182  1.00  0.00    -0.332 OA
ATOM     30  C   UNL     1      29.001 176.356 171.308  1.00  0.00     0.180 C 
ATOM     31  C   UNL     1      28.546 173.838 171.152  1.00  0.00     0.179 C 
ATOM     32  C   UNL     1      27.928 175.259 171.232  1.00  0.00     0.177 C 
BRANCH  28  33
ATOM     33  O   UNL     1      29.567 176.377 168.958  1.00  0.00    -0.384 OA
ATOM     34  H   UNL     1      29.687 177.347 168.785  1.00  0.00     0.211 HD
ENDBRANCH  28  33
BRANCH  30  35
ATOM     35  O   UNL     1      29.568 176.382 172.592  1.00  0.00    -0.387 OA
ATOM     36  H   UNL     1      28.817 176.352 173.241  1.00  0.00     0.211 HD
ENDBRANCH  30  35
BRANCH  31  37
ATOM     37  C   UNL     1      28.940 173.258 172.525  1.00  0.00     0.191 C 
BRANCH  37  38
ATOM     38  O   UNL     1      29.808 172.167 172.374  1.00  0.00    -0.394 OA
ATOM     39  H   UNL     1      29.324 171.370 172.715  1.00  0.00     0.210 HD
ENDBRANCH  37  38
ENDBRANCH  31  37
BRANCH  32  40
ATOM     40  O   UNL     1      27.125 175.487 170.099  1.00  0.00    -0.387 OA
ATOM     41  H   UNL     1      26.877 174.597 169.736  1.00  0.00     0.211 HD
ENDBRANCH  32  40
ENDBRANCH   1  27
TORSDOF 12
ENDMDL
MODEL 7
REMARK VINA RESULT:    -4.398      0.844      2.090
REMARK INTER + INTRA:          -8.315
REMARK INTER:                  -6.584
REMARK INTRA:                  -1.731
REMARK UNBOUND:                -1.860
REMARK SMILES O=c1c(O[C@H]2O[C@@H](CO)[C@H](O)[C@@H](O)[C@@H]2O)c(-c2ccc(O)c(O)c2)oc2cc(O)cc(O)c12
REMARK SMILES IDX 4 1 3 2 16 3 25 4 2 5 26 6 1 7 33 8 27 9 31 10 28 11 30 12
REMARK SMILES IDX 17 13 18 14 19 15 20 16 24 17 22 18 21 19 23 21 32 23 29 25
REMARK SMILES IDX 5 27 14 28 6 29 12 30 7 31 10 32 15 33 13 35 8 37 9 38 11 40
REMARK H PARENT 21 20 23 22 32 24 29 26 15 34 13 36 9 39 11 41
REMARK Flexibility Score: inf
ROOT
ATOM      1  O   UNL     1      31.076 176.193 171.111  1.00  0.00    -0.454 OA
ENDROOT
BRANCH   1   2
ATOM      2  C   UNL     1      32.340 175.621 171.358  1.00  0.00     0.214 A 
ATOM      3  C   UNL     1      33.379 176.454 171.821  1.00  0.00     0.180 A 
ATOM      4  O   UNL     1      34.599 175.962 172.009  1.00  0.00    -0.452 OA
ATOM      5  C   UNL     1      32.626 174.254 171.142  1.00  0.00     0.239 A 
ATOM      6  C   UNL     1      34.911 174.690 171.807  1.00  0.00     0.146 A 
ATOM      7  O   UNL     1      31.718 173.469 170.763  1.00  0.00    -0.285 OA
ATOM      8  C   UNL     1      33.933 173.770 171.366  1.00  0.00     0.111 A 
ATOM      9  C   UNL     1      36.224 174.268 172.037  1.00  0.00     0.094 A 
ATOM     10  C   UNL     1      34.302 172.416 171.168  1.00  0.00     0.134 A 
ATOM     11  C   UNL     1      36.582 172.931 171.838  1.00  0.00     0.123 A 
ATOM     12  C   UNL     1      35.623 172.012 171.406  1.00  0.00     0.093 A 
BRANCH   3  13
ATOM     13  C   UNL     1      33.169 177.895 172.068  1.00  0.00     0.025 A 
ATOM     14  C   UNL     1      33.025 178.397 173.371  1.00  0.00     0.016 A 
ATOM     15  C   UNL     1      32.833 179.764 173.585  1.00  0.00     0.051 A 
ATOM     16  C   UNL     1      32.799 180.650 172.500  1.00  0.00     0.157 A 
ATOM     17  C   UNL     1      33.158 178.789 170.985  1.00  0.00     0.062 A 
ATOM     18  C   UNL     1      32.967 180.162 171.198  1.00  0.00     0.158 A 
BRANCH  16  19
ATOM     19  O   UNL     1      32.606 182.014 172.709  1.00  0.00    -0.504 OA
ATOM     20  H   UNL     1      32.960 182.705 172.058  1.00  0.00     0.293 HD
ENDBRANCH  16  19
BRANCH  18  21
ATOM     21  O   UNL     1      32.941 181.046 170.121  1.00  0.00    -0.504 OA
ATOM     22  H   UNL     1      33.790 181.462 169.756  1.00  0.00     0.293 HD
ENDBRANCH  18  21
ENDBRANCH   3  13
BRANCH  10  23
ATOM     23  O   UNL     1      33.368 171.472 170.737  1.00  0.00    -0.507 OA
ATOM     24  H   UNL     1      33.172 171.327 169.754  1.00  0.00     0.293 HD
ENDBRANCH  10  23
BRANCH  11  25
ATOM     25  O   UNL     1      37.889 172.505 172.066  1.00  0.00    -0.508 OA
ATOM     26  H   UNL     1      38.555 173.082 172.565  1.00  0.00     0.293 HD
ENDBRANCH  11  25
ENDBRANCH   1   2
BRANCH   1  27
ATOM     27  C   UNL     1      30.096 176.525 172.099  1.00  0.00     0.339 C 
ATOM     28  C   UNL     1      29.259 175.289 172.461  1.00  0.00     0.214 C 
ATOM     29  O   UNL     1      29.296 177.633 171.709  1.00  0.00    -0.332 OA
ATOM     30  C   UNL     1      28.314 174.905 171.308  1.00  0.00     0.180 C 
ATOM     31  C   UNL     1      28.409 177.373 170.626  1.00  0.00     0.179 C 
ATOM     32  C   UNL     1      27.510 176.127 170.840  1.00  0.00     0.177 C 
BRANCH  28  33
ATOM     33  O   UNL     1      28.521 175.559 173.626  1.00  0.00    -0.384 OA
ATOM     34  H   UNL     1      27.708 174.991 173.590  1.00  0.00     0.211 HD
ENDBRANCH  28  33
BRANCH  30  35
ATOM     35  O   UNL     1      29.038 174.367 170.233  1.00  0.00    -0.387 OA
ATOM     36  H   UNL     1      28.870 174.952 169.449  1.00  0.00     0.211 HD
ENDBRANCH  30  35
BRANCH  31  37
ATOM     37  C   UNL     1      29.113 177.399 169.255  1.00  0.00     0.191 C 
BRANCH  37  38
ATOM     38  O   UNL     1      30.132 178.362 169.236  1.00  0.00    -0.394 OA
ATOM     39  H   UNL     1      30.823 178.033 168.603  1.00  0.00     0.210 HD
ENDBRANCH  37  38
ENDBRANCH  31  37
BRANCH  32  40
ATOM     40  O   UNL     1      26.524 176.417 171.800  1.00  0.00    -0.387 OA
ATOM     41  H   UNL     1      26.270 175.557 172.225  1.00  0.00     0.211 HD
ENDBRANCH  32  40
ENDBRANCH   1  27
TORSDOF 12
ENDMDL
MODEL 8
REMARK VINA RESULT:    -4.398      1.854      3.426
REMARK INTER + INTRA:          -8.314
REMARK INTER:                  -6.593
REMARK INTRA:                  -1.721
REMARK UNBOUND:                -1.860
REMARK SMILES O=c1c(O[C@H]2O[C@@H](CO)[C@H](O)[C@@H](O)[C@@H]2O)c(-c2ccc(O)c(O)c2)oc2cc(O)cc(O)c12
REMARK SMILES IDX 4 1 3 2 16 3 25 4 2 5 26 6 1 7 33 8 27 9 31 10 28 11 30 12
REMARK SMILES IDX 17 13 18 14 19 15 20 16 24 17 22 18 21 19 23 21 32 23 29 25
REMARK SMILES IDX 5 27 14 28 6 29 12 30 7 31 10 32 15 33 13 35 8 37 9 38 11 40
REMARK H PARENT 21 20 23 22 32 24 29 26 15 34 13 36 9 39 11 41
REMARK Flexibility Score: inf
ROOT
ATOM      1  O   UNL     1      31.679 173.850 171.337  1.00  0.00    -0.454 OA
ENDROOT
BRANCH   1   2
ATOM      2  C   UNL     1      33.076 173.676 171.395  1.00  0.00     0.214 A 
ATOM      3  C   UNL     1      33.880 174.781 171.739  1.00  0.00     0.180 A 
ATOM      4  O   UNL     1      35.204 174.670 171.748  1.00  0.00    -0.452 OA
ATOM      5  C   UNL     1      33.715 172.450 171.104  1.00  0.00     0.239 A 
ATOM      6  C   UNL     1      35.842 173.542 171.469  1.00  0.00     0.146 A 
ATOM      7  O   UNL     1      33.032 171.429 170.828  1.00  0.00    -0.285 OA
ATOM      8  C   UNL     1      35.124 172.371 171.137  1.00  0.00     0.111 A 
ATOM      9  C   UNL     1      37.240 173.526 171.508  1.00  0.00     0.094 A 
ATOM     10  C   UNL     1      35.840 171.183 170.852  1.00  0.00     0.134 A 
ATOM     11  C   UNL     1      37.941 172.350 171.224  1.00  0.00     0.123 A 
ATOM     12  C   UNL     1      37.242 171.185 170.899  1.00  0.00     0.093 A 
BRANCH   3  13
ATOM     13  C   UNL     1      33.295 176.101 172.053  1.00  0.00     0.025 A 
ATOM     14  C   UNL     1      33.265 176.589 173.369  1.00  0.00     0.016 A 
ATOM     15  C   UNL     1      32.713 177.842 173.646  1.00  0.00     0.051 A 
ATOM     16  C   UNL     1      32.199 178.631 172.609  1.00  0.00     0.157 A 
ATOM     17  C   UNL     1      32.800 176.905 171.014  1.00  0.00     0.062 A 
ATOM     18  C   UNL     1      32.247 178.164 171.289  1.00  0.00     0.158 A 
BRANCH  16  19
ATOM     19  O   UNL     1      31.645 179.881 172.880  1.00  0.00    -0.504 OA
ATOM     20  H   UNL     1      30.763 180.169 172.475  1.00  0.00     0.293 HD
ENDBRANCH  16  19
BRANCH  18  21
ATOM     21  O   UNL     1      31.742 178.954 170.258  1.00  0.00    -0.504 OA
ATOM     22  H   UNL     1      31.400 179.892 170.428  1.00  0.00     0.293 HD
ENDBRANCH  18  21
ENDBRANCH   3  13
BRANCH  10  23
ATOM     23  O   UNL     1      35.172 170.001 170.524  1.00  0.00    -0.507 OA
ATOM     24  H   UNL     1      34.512 169.959 169.757  1.00  0.00     0.293 HD
ENDBRANCH  10  23
BRANCH  11  25
ATOM     25  O   UNL     1      39.333 172.327 171.262  1.00  0.00    -0.508 OA
ATOM     26  H   UNL     1      39.845 171.468 171.427  1.00  0.00     0.293 HD
ENDBRANCH  11  25
ENDBRANCH   1   2
BRANCH   1  27
ATOM     27  C   UNL     1      30.784 173.849 172.454  1.00  0.00     0.339 C 
ATOM     28  C   UNL     1      30.382 172.413 172.819  1.00  0.00     0.214 C 
ATOM     29  O   UNL     1      29.661 174.695 172.241  1.00  0.00    -0.332 OA
ATOM     30  C   UNL     1      29.439 171.816 171.759  1.00  0.00     0.180 C 
ATOM     31  C   UNL     1      28.748 174.231 171.252  1.00  0.00     0.179 C 
ATOM     32  C   UNL     1      28.271 172.772 171.478  1.00  0.00     0.177 C 
BRANCH  28  33
ATOM     33  O   UNL     1      29.758 172.417 174.078  1.00  0.00    -0.384 OA
ATOM     34  H   UNL     1      30.112 171.635 174.577  1.00  0.00     0.211 HD
ENDBRANCH  28  33
BRANCH  30  35
ATOM     35  O   UNL     1      30.137 171.549 170.571  1.00  0.00    -0.387 OA
ATOM     36  H   UNL     1      30.134 170.563 170.449  1.00  0.00     0.211 HD
ENDBRANCH  30  35
BRANCH  31  37
ATOM     37  C   UNL     1      29.229 174.509 169.814  1.00  0.00     0.191 C 
BRANCH  37  38
ATOM     38  O   UNL     1      29.842 175.767 169.728  1.00  0.00    -0.394 OA
ATOM     39  H   UNL     1      29.166 176.387 169.346  1.00  0.00     0.210 HD
ENDBRANCH  37  38
ENDBRANCH  31  37
BRANCH  32  40
ATOM     40  O   UNL     1      27.378 172.731 172.564  1.00  0.00    -0.387 OA
ATOM     41  H   UNL     1      26.483 172.514 172.196  1.00  0.00     0.211 HD
ENDBRANCH  32  40
ENDBRANCH   1  27
TORSDOF 12
ENDMDL
MODEL 9
REMARK VINA RESULT:    -4.360      2.226      5.211
REMARK INTER + INTRA:          -8.258
REMARK INTER:                  -6.495
REMARK INTRA:                  -1.764
REMARK UNBOUND:                -1.860
REMARK SMILES O=c1c(O[C@H]2O[C@@H](CO)[C@H](O)[C@@H](O)[C@@H]2O)c(-c2ccc(O)c(O)c2)oc2cc(O)cc(O)c12
REMARK SMILES IDX 4 1 3 2 16 3 25 4 2 5 26 6 1 7 33 8 27 9 31 10 28 11 30 12
REMARK SMILES IDX 17 13 18 14 19 15 20 16 24 17 22 18 21 19 23 21 32 23 29 25
REMARK SMILES IDX 5 27 14 28 6 29 12 30 7 31 10 32 15 33 13 35 8 37 9 38 11 40
REMARK H PARENT 21 20 23 22 32 24 29 26 15 34 13 36 9 39 11 41
REMARK Flexibility Score: inf
ROOT
ATOM      1  O   UNL     1      31.925 175.086 171.784  1.00  0.00    -0.454 OA
ENDROOT
BRANCH   1   2
ATOM      2  C   UNL     1      32.903 174.114 171.495  1.00  0.00     0.214 A 
ATOM      3  C   UNL     1      32.497 172.903 170.898  1.00  0.00     0.180 A 
ATOM      4  O   UNL     1      33.382 171.941 170.664  1.00  0.00    -0.452 OA
ATOM      5  C   UNL     1      34.274 174.284 171.795  1.00  0.00     0.239 A 
ATOM      6  C   UNL     1      34.673 172.055 170.942  1.00  0.00     0.146 A 
ATOM      7  O   UNL     1      34.684 175.364 172.295  1.00  0.00    -0.285 OA
ATOM      8  C   UNL     1      35.183 173.240 171.519  1.00  0.00     0.111 A 
ATOM      9  C   UNL     1      35.526 170.986 170.654  1.00  0.00     0.094 A 
ATOM     10  C   UNL     1      36.570 173.329 171.794  1.00  0.00     0.134 A 
ATOM     11  C   UNL     1      36.894 171.078 170.931  1.00  0.00     0.123 A 
ATOM     12  C   UNL     1      37.410 172.246 171.497  1.00  0.00     0.093 A 
BRANCH   3  13
ATOM     13  C   UNL     1      31.083 172.641 170.556  1.00  0.00     0.025 A 
ATOM     14  C   UNL     1      30.597 172.856 169.257  1.00  0.00     0.016 A 
ATOM     15  C   UNL     1      29.259 172.596 168.951  1.00  0.00     0.051 A 
ATOM     16  C   UNL     1      28.393 172.103 169.935  1.00  0.00     0.157 A 
ATOM     17  C   UNL     1      30.218 172.124 171.534  1.00  0.00     0.062 A 
ATOM     18  C   UNL     1      28.875 171.861 171.229  1.00  0.00     0.158 A 
BRANCH  16  19
ATOM     19  O   UNL     1      27.057 171.844 169.635  1.00  0.00    -0.504 OA
ATOM     20  H   UNL     1      26.608 172.250 168.822  1.00  0.00     0.293 HD
ENDBRANCH  16  19
BRANCH  18  21
ATOM     21  O   UNL     1      28.014 171.363 172.204  1.00  0.00    -0.504 OA
ATOM     22  H   UNL     1      27.042 171.644 172.248  1.00  0.00     0.293 HD
ENDBRANCH  18  21
ENDBRANCH   3  13
BRANCH  10  23
ATOM     23  O   UNL     1      37.119 174.481 172.360  1.00  0.00    -0.507 OA
ATOM     24  H   UNL     1      37.239 174.578 173.361  1.00  0.00     0.293 HD
ENDBRANCH  10  23
BRANCH  11  25
ATOM     25  O   UNL     1      37.749 170.016 170.647  1.00  0.00    -0.508 OA
ATOM     26  H   UNL     1      38.451 169.708 171.310  1.00  0.00     0.293 HD
ENDBRANCH  11  25
ENDBRANCH   1   2
BRANCH   1  27
ATOM     27  C   UNL     1      31.413 176.061 170.870  1.00  0.00     0.339 C 
ATOM     28  C   UNL     1      32.340 177.284 170.815  1.00  0.00     0.214 C 
ATOM     29  O   UNL     1      30.064 176.408 171.158  1.00  0.00    -0.332 OA
ATOM     30  C   UNL     1      32.250 178.105 172.113  1.00  0.00     0.180 C 
ATOM     31  C   UNL     1      29.885 177.148 172.361  1.00  0.00     0.179 C 
ATOM     32  C   UNL     1      30.784 178.409 172.459  1.00  0.00     0.177 C 
BRANCH  28  33
ATOM     33  O   UNL     1      31.986 178.078 169.711  1.00  0.00    -0.384 OA
ATOM     34  H   UNL     1      31.748 177.457 168.974  1.00  0.00     0.211 HD
ENDBRANCH  28  33
BRANCH  30  35
ATOM     35  O   UNL     1      32.861 177.420 173.175  1.00  0.00    -0.387 OA
ATOM     36  H   UNL     1      33.115 176.523 172.833  1.00  0.00     0.211 HD
ENDBRANCH  30  35
BRANCH  31  37
ATOM     37  C   UNL     1      29.925 176.261 173.622  1.00  0.00     0.191 C 
BRANCH  37  38
ATOM     38  O   UNL     1      29.337 175.013 173.371  1.00  0.00    -0.394 OA
ATOM     39  H   UNL     1      28.395 175.190 173.109  1.00  0.00     0.210 HD
ENDBRANCH  37  38
ENDBRANCH  31  37
BRANCH  32  40
ATOM     40  O   UNL     1      30.305 179.397 171.580  1.00  0.00    -0.387 OA
ATOM     41  H   UNL     1      30.381 180.267 172.052  1.00  0.00     0.211 HD
ENDBRANCH  32  40
ENDBRANCH   1  27
TORSDOF 12
ENDMDL
