MODEL 1
REMARK VINA RESULT:    -0.515      0.000      0.000
REMARK INTER + INTRA:          -0.530
REMARK INTER:                  -0.530
REMARK INTRA:                   0.000
REMARK UNBOUND:                 0.000
REMARK SMILES Cc1ccccc1O
REMARK SMILES IDX 1 1 2 2 3 3 4 4 5 5 6 6 7 7 8 8
REMARK H PARENT 8 9
REMARK Flexibility Score: inf
ROOT
ATOM      1  C   UNL     1      -3.112  58.100  25.350  1.00  0.00     0.048 C 
ATOM      2  C   UNL     1      -3.111  58.864  24.055  1.00  0.00    -0.009 A 
ATOM      3  C   UNL     1      -3.125  58.165  22.835  1.00  0.00     0.007 A 
ATOM      4  C   UNL     1      -3.125  58.857  21.622  1.00  0.00     0.001 A 
ATOM      5  C   UNL     1      -3.111  60.252  21.613  1.00  0.00     0.004 A 
ATOM      6  C   UNL     1      -3.099  60.959  22.816  1.00  0.00     0.046 A 
ATOM      7  C   UNL     1      -3.098  60.279  24.039  1.00  0.00     0.118 A 
ENDROOT
BRANCH   7   8
ATOM      8  O   UNL     1      -3.086  61.031  25.216  1.00  0.00    -0.508 OA
ATOM      9  H   UNL     1      -3.879  61.091  25.842  1.00  0.00     0.293 HD
ENDBRANCH   7   8
TORSDOF 1
ENDMDL
MODEL 2
REMARK VINA RESULT:     0.078      1.892      3.580
REMARK INTER + INTRA:           0.080
REMARK INTER:                   0.080
REMARK INTRA:                   0.000
REMARK UNBOUND:                 0.000
REMARK SMILES Cc1ccccc1O
REMARK SMILES IDX 1 1 2 2 3 3 4 4 5 5 6 6 7 7 8 8
REMARK H PARENT 8 9
REMARK Flexibility Score: inf
ROOT
ATOM      1  C   UNL     1      -3.098  61.098  21.006  1.00  0.00     0.048 C 
ATOM      2  C   UNL     1      -3.108  60.368  22.320  1.00  0.00    -0.009 A 
ATOM      3  C   UNL     1      -3.109  61.097  23.521  1.00  0.00     0.007 A 
ATOM      4  C   UNL     1      -3.117  60.437  24.752  1.00  0.00     0.001 A 
ATOM      5  C   UNL     1      -3.125  59.043  24.798  1.00  0.00     0.004 A 
ATOM      6  C   UNL     1      -3.125  58.305  23.613  1.00  0.00     0.046 A 
ATOM      7  C   UNL     1      -3.116  58.953  22.372  1.00  0.00     0.118 A 
ENDROOT
BRANCH   7   8
ATOM      8  O   UNL     1      -3.116  58.171  21.215  1.00  0.00    -0.508 OA
ATOM      9  H   UNL     1      -2.287  57.713  20.858  1.00  0.00     0.293 HD
ENDBRANCH   7   8
TORSDOF 1
ENDMDL
MODEL 3
REMARK VINA RESULT:     0.455      1.601      2.703
REMARK INTER + INTRA:           0.468
REMARK INTER:                   0.468
REMARK INTRA:                   0.000
REMARK UNBOUND:                 0.000
REMARK SMILES Cc1ccccc1O
REMARK SMILES IDX 1 1 2 2 3 3 4 4 5 5 6 6 7 7 8 8
REMARK H PARENT 8 9
REMARK Flexibility Score: inf
ROOT
ATOM      1  C   UNL     1      -2.935  57.457  21.229  1.00  0.00     0.048 C 
ATOM      2  C   UNL     1      -3.001  58.677  22.105  1.00  0.00    -0.009 A 
ATOM      3  C   UNL     1      -3.004  59.955  21.519  1.00  0.00     0.007 A 
ATOM      4  C   UNL     1      -3.064  61.100  22.316  1.00  0.00     0.001 A 
ATOM      5  C   UNL     1      -3.123  60.983  23.705  1.00  0.00     0.004 A 
ATOM      6  C   UNL     1      -3.122  59.721  24.301  1.00  0.00     0.046 A 
ATOM      7  C   UNL     1      -3.061  58.565  23.514  1.00  0.00     0.118 A 
ENDROOT
BRANCH   7   8
ATOM      8  O   UNL     1      -3.063  57.325  24.157  1.00  0.00    -0.508 OA
ATOM      9  H   UNL     1      -2.909  57.219  25.152  1.00  0.00     0.293 HD
ENDBRANCH   7   8
TORSDOF 1
ENDMDL
MODEL 4
REMARK VINA RESULT:     0.656     18.624     19.715
REMARK INTER + INTRA:           0.675
REMARK INTER:                   0.675
REMARK INTRA:                   0.000
REMARK UNBOUND:                 0.000
REMARK SMILES Cc1ccccc1O
REMARK SMILES IDX 1 1 2 2 3 3 4 4 5 5 6 6 7 7 8 8
REMARK H PARENT 8 9
REMARK Flexibility Score: inf
ROOT
ATOM      1  C   UNL     1       6.597  44.645  23.522  1.00  0.00     0.048 C 
ATOM      2  C   UNL     1       6.129  43.326  24.072  1.00  0.00    -0.009 A 
ATOM      3  C   UNL     1       4.779  43.160  24.429  1.00  0.00     0.007 A 
ATOM      4  C   UNL     1       4.326  41.943  24.942  1.00  0.00     0.001 A 
ATOM      5  C   UNL     1       5.212  40.878  25.103  1.00  0.00     0.004 A 
ATOM      6  C   UNL     1       6.555  41.028  24.752  1.00  0.00     0.046 A 
ATOM      7  C   UNL     1       7.024  42.242  24.238  1.00  0.00     0.118 A 
ENDROOT
BRANCH   7   8
ATOM      8  O   UNL     1       8.376  42.342  23.901  1.00  0.00    -0.508 OA
ATOM      9  H   UNL     1       8.825  41.729  23.234  1.00  0.00     0.293 HD
ENDBRANCH   7   8
TORSDOF 1
ENDMDL
MODEL 5
REMARK VINA RESULT:     0.831     18.714     19.740
REMARK INTER + INTRA:           0.855
REMARK INTER:                   0.855
REMARK INTRA:                   0.000
REMARK UNBOUND:                 0.000
REMARK SMILES Cc1ccccc1O
REMARK SMILES IDX 1 1 2 2 3 3 4 4 5 5 6 6 7 7 8 8
REMARK H PARENT 8 9
REMARK Flexibility Score: inf
ROOT
ATOM      1  C   UNL     1       8.505  42.002  23.994  1.00  0.00     0.048 C 
ATOM      2  C   UNL     1       7.032  42.023  24.290  1.00  0.00    -0.009 A 
ATOM      3  C   UNL     1       6.411  40.876  24.814  1.00  0.00     0.007 A 
ATOM      4  C   UNL     1       5.043  40.875  25.095  1.00  0.00     0.001 A 
ATOM      5  C   UNL     1       4.280  42.019  24.858  1.00  0.00     0.004 A 
ATOM      6  C   UNL     1       4.883  43.166  24.340  1.00  0.00     0.046 A 
ATOM      7  C   UNL     1       6.253  43.180  24.052  1.00  0.00     0.118 A 
ENDROOT
BRANCH   7   8
ATOM      8  O   UNL     1       6.809  44.352  23.534  1.00  0.00    -0.508 OA
ATOM      9  H   UNL     1       6.944  44.508  22.544  1.00  0.00     0.293 HD
ENDBRANCH   7   8
TORSDOF 1
ENDMDL
MODEL 6
REMARK VINA RESULT:     0.869     18.622     19.639
REMARK INTER + INTRA:           0.895
REMARK INTER:                   0.895
REMARK INTRA:                   0.000
REMARK UNBOUND:                 0.000
REMARK SMILES Cc1ccccc1O
REMARK SMILES IDX 1 1 2 2 3 3 4 4 5 5 6 6 7 7 8 8
REMARK H PARENT 8 9
REMARK Flexibility Score: inf
ROOT
ATOM      1  C   UNL     1       3.899  42.750  24.622  1.00  0.00     0.048 C 
ATOM      2  C   UNL     1       5.364  42.424  24.536  1.00  0.00    -0.009 A 
ATOM      3  C   UNL     1       5.834  41.196  25.035  1.00  0.00     0.007 A 
ATOM      4  C   UNL     1       7.191  40.875  24.965  1.00  0.00     0.001 A 
ATOM      5  C   UNL     1       8.094  41.774  24.395  1.00  0.00     0.004 A 
ATOM      6  C   UNL     1       7.641  42.996  23.894  1.00  0.00     0.046 A 
ATOM      7  C   UNL     1       6.284  43.331  23.959  1.00  0.00     0.118 A 
ENDROOT
BRANCH   7   8
ATOM      8  O   UNL     1       5.881  44.566  23.445  1.00  0.00    -0.508 OA
ATOM      9  H   UNL     1       5.150  44.663  22.752  1.00  0.00     0.293 HD
ENDBRANCH   7   8
TORSDOF 1
ENDMDL
