MODEL 1
REMARK VINA RESULT:    -1.067      0.000      0.000
REMARK INTER + INTRA:          -1.079
REMARK INTER:                  -1.628
REMARK INTRA:                   0.549
REMARK UNBOUND:                 0.549
REMARK SMILES CC1=CCC[C@H](C)C(=O)C[C@@H](C(C)C)C(=O)C1
REMARK SMILES IDX 8 1 9 2 6 3 7 4 5 5 4 6 3 7 2 8 1 9 10 11 11 12 15 13 16 14
REMARK SMILES IDX 17 15 12 17 13 18 14 19
REMARK H PARENT
REMARK Flexibility Score: 70.00
ROOT
ATOM      1  C   UNL     1       9.673  22.614  21.188  1.00  0.00     0.136 C 
ATOM      2  O   UNL     1       8.592  22.559  20.620  1.00  0.00    -0.299 OA
ENDROOT
BRANCH   1   3
ATOM      3  C   UNL     1      10.927  22.828  20.324  1.00  0.00     0.053 C 
ATOM      4  C   UNL     1      11.090  21.692  19.313  1.00  0.00     0.016 C 
BRANCH   3   5
ATOM      5  C   UNL     1      10.785  24.167  19.633  1.00  0.00     0.015 C 
BRANCH   5   6
ATOM      6  C   UNL     1      10.174  25.392  20.268  1.00  0.00     0.028 C 
BRANCH   6   7
ATOM      7  C   UNL     1      10.816  25.604  21.638  1.00  0.00    -0.028 C 
ATOM      8  C   UNL     1      10.206  25.862  22.845  1.00  0.00    -0.070 CG0
ATOM      9  C   UNL     1      11.125  26.120  24.017  1.00  0.00     0.039 C 
ATOM     10  G   UNL     1       8.688  25.906  23.121  1.00  0.00     0.000 G0
ENDBRANCH   6   7
ENDBRANCH   5   6
ENDBRANCH   3   5
ENDBRANCH   1   3
BRANCH   1  11
ATOM     11  C   UNL     1       9.694  22.537  22.730  1.00  0.00     0.087 C 
BRANCH  11  12
ATOM     12  C   UNL     1       8.553  23.205  23.605  1.00  0.00     0.066 C 
BRANCH  12  13
ATOM     13  C   UNL     1       7.980  24.541  23.061  1.00  0.00     0.140 C 
ATOM     14  O   UNL     1       6.868  24.512  22.550  1.00  0.00    -0.299 OA
BRANCH  13  15
ATOM     15  C   UNL     1       8.682  25.902  23.145  1.00  0.00     0.106 CG0
ATOM     16  G   UNL     1      10.196  25.839  22.846  1.00  0.00     0.000 G0
ENDBRANCH  13  15
ENDBRANCH  12  13
BRANCH  12  17
ATOM     17  C   UNL     1       8.674  23.090  25.169  1.00  0.00    -0.006 C 
ATOM     18  C   UNL     1       9.996  23.567  25.799  1.00  0.00     0.008 C 
ATOM     19  C   UNL     1       8.401  21.649  25.640  1.00  0.00     0.008 C 
ENDBRANCH  12  17
ENDBRANCH  11  12
ENDBRANCH   1  11
TORSDOF 1
ENDMDL
MODEL 2
REMARK VINA RESULT:     0.527      1.810      3.673
REMARK INTER + INTRA:           1.354
REMARK INTER:                  -1.621
REMARK INTRA:                   2.975
REMARK UNBOUND:                 0.549
REMARK SMILES CC1=CCC[C@H](C)C(=O)C[C@@H](C(C)C)C(=O)C1
REMARK SMILES IDX 8 1 9 2 6 3 7 4 5 5 4 6 3 7 2 8 1 9 10 11 11 12 15 13 16 14
REMARK SMILES IDX 17 15 12 17 13 18 14 19
REMARK H PARENT
REMARK Flexibility Score: 70.00
ROOT
ATOM      1  C   UNL     1       7.276  23.962  21.047  1.00  0.00     0.136 C 
ATOM      2  O   UNL     1       6.143  23.586  20.783  1.00  0.00    -0.299 OA
ENDROOT
BRANCH   1   3
ATOM      3  C   UNL     1       7.612  25.444  20.812  1.00  0.00     0.053 C 
ATOM      4  C   UNL     1       6.577  26.097  19.895  1.00  0.00     0.016 C 
BRANCH   3   5
ATOM      5  C   UNL     1       7.660  26.123  22.164  1.00  0.00     0.015 C 
BRANCH   5   6
ATOM      6  C   UNL     1       7.120  25.523  23.438  1.00  0.00     0.028 C 
BRANCH   6   7
ATOM      7  C   UNL     1       8.293  25.207  24.365  1.00  0.00    -0.028 C 
ATOM      8  C   UNL     1       9.642  25.252  24.095  1.00  0.00    -0.070 CG0
ATOM      9  C   UNL     1      10.561  24.788  25.201  1.00  0.00     0.039 C 
ATOM     10  G   UNL     1      10.306  25.734  22.787  1.00  0.00     0.000 G0
ENDBRANCH   6   7
ENDBRANCH   5   6
ENDBRANCH   3   5
ENDBRANCH   1   3
BRANCH   1  11
ATOM     11  C   UNL     1       8.260  22.943  21.660  1.00  0.00     0.087 C 
BRANCH  11  12
ATOM     12  C   UNL     1       9.814  23.244  21.745  1.00  0.00     0.066 C 
BRANCH  12  13
ATOM     13  C   UNL     1      10.220  24.737  21.621  1.00  0.00     0.140 C 
ATOM     14  O   UNL     1      10.429  25.174  20.497  1.00  0.00    -0.299 OA
BRANCH  13  15
ATOM     15  C   UNL     1      10.344  25.718  22.794  1.00  0.00     0.106 CG0
ATOM     16  G   UNL     1       9.629  25.245  24.077  1.00  0.00     0.000 G0
ENDBRANCH  13  15
ENDBRANCH  12  13
BRANCH  12  17
ATOM     17  C   UNL     1      10.794  22.203  21.088  1.00  0.00    -0.006 C 
ATOM     18  C   UNL     1      10.469  21.757  19.650  1.00  0.00     0.008 C 
ATOM     19  C   UNL     1      10.936  20.947  21.968  1.00  0.00     0.008 C 
ENDBRANCH  12  17
ENDBRANCH  11  12
ENDBRANCH   1  11
TORSDOF 1
ENDMDL
