MODEL 1
REMARK VINA RESULT:    -2.347      0.000      0.000
REMARK INTER + INTRA:          -2.628
REMARK INTER:                  -2.553
REMARK INTRA:                  -0.075
REMARK UNBOUND:                -0.075
REMARK SMILES CCc1cccc(O)c1
REMARK SMILES IDX 3 1 9 2 7 3 6 4 5 5 4 6 2 7 1 8 8 9
REMARK H PARENT 8 10
REMARK Flexibility Score: inf
ROOT
ATOM      1  C   UNL     1      -0.679   5.851 -10.413  1.00  0.00    -0.045 A 
ATOM      2  C   UNL     1      -1.166   6.444  -9.236  1.00  0.00     0.049 A 
ATOM      3  C   UNL     1      -0.365   6.500  -8.086  1.00  0.00     0.115 A 
ATOM      4  C   UNL     1       0.929   5.970  -8.115  1.00  0.00     0.046 A 
ATOM      5  C   UNL     1       1.425   5.390  -9.287  1.00  0.00     0.004 A 
ATOM      6  C   UNL     1       0.628   5.335 -10.433  1.00  0.00     0.004 A 
ENDROOT
BRANCH   1   7
ATOM      7  C   UNL     1      -1.527   5.822 -11.656  1.00  0.00     0.032 C 
ATOM      8  C   UNL     1      -0.682   5.474 -12.877  1.00  0.00     0.009 C 
ENDBRANCH   1   7
BRANCH   3   9
ATOM      9  O   UNL     1      -0.844   7.080  -6.914  1.00  0.00    -0.508 OA
ATOM     10  H   UNL     1      -1.633   7.715  -6.922  1.00  0.00     0.293 HD
ENDBRANCH   3   9
TORSDOF 2
ENDMDL
MODEL 2
REMARK VINA RESULT:    -1.351      1.935      3.559
REMARK INTER + INTRA:          -1.545
REMARK INTER:                  -1.496
REMARK INTRA:                  -0.048
REMARK UNBOUND:                -0.075
REMARK SMILES CCc1cccc(O)c1
REMARK SMILES IDX 3 1 9 2 7 3 6 4 5 5 4 6 2 7 1 8 8 9
REMARK H PARENT 8 10
REMARK Flexibility Score: inf
ROOT
ATOM      1  C   UNL     1       0.007   6.256  -8.463  1.00  0.00    -0.045 A 
ATOM      2  C   UNL     1      -0.904   6.482  -9.507  1.00  0.00     0.049 A 
ATOM      3  C   UNL     1      -0.699   5.896 -10.765  1.00  0.00     0.115 A 
ATOM      4  C   UNL     1       0.414   5.076 -10.977  1.00  0.00     0.046 A 
ATOM      5  C   UNL     1       1.317   4.837  -9.937  1.00  0.00     0.004 A 
ATOM      6  C   UNL     1       1.114   5.419  -8.683  1.00  0.00     0.004 A 
ENDROOT
BRANCH   1   7
ATOM      7  C   UNL     1      -0.231   6.858  -7.103  1.00  0.00     0.032 C 
ATOM      8  C   UNL     1      -0.900   8.222  -7.227  1.00  0.00     0.009 C 
ENDBRANCH   1   7
BRANCH   3   9
ATOM      9  O   UNL     1      -1.594   6.122 -11.808  1.00  0.00    -0.508 OA
ATOM     10  H   UNL     1      -1.779   5.416 -12.510  1.00  0.00     0.293 HD
ENDBRANCH   3   9
TORSDOF 2
ENDMDL
MODEL 3
REMARK VINA RESULT:    -0.068      2.139      3.956
REMARK INTER + INTRA:          -0.149
REMARK INTER:                  -0.074
REMARK INTRA:                  -0.075
REMARK UNBOUND:                -0.075
REMARK SMILES CCc1cccc(O)c1
REMARK SMILES IDX 3 1 9 2 7 3 6 4 5 5 4 6 2 7 1 8 8 9
REMARK H PARENT 8 10
REMARK Flexibility Score: inf
ROOT
ATOM      1  C   UNL     1       0.261   6.230  -8.468  1.00  0.00    -0.045 A 
ATOM      2  C   UNL     1       1.118   5.157  -8.763  1.00  0.00     0.049 A 
ATOM      3  C   UNL     1       1.033   4.501 -10.000  1.00  0.00     0.115 A 
ATOM      4  C   UNL     1       0.096   4.924 -10.948  1.00  0.00     0.046 A 
ATOM      5  C   UNL     1      -0.751   6.000 -10.666  1.00  0.00     0.004 A 
ATOM      6  C   UNL     1      -0.667   6.654  -9.434  1.00  0.00     0.004 A 
ENDROOT
BRANCH   1   7
ATOM      7  C   UNL     1       0.374   6.955  -7.154  1.00  0.00     0.032 C 
ATOM      8  C   UNL     1      -0.750   7.973  -7.000  1.00  0.00     0.009 C 
ENDBRANCH   1   7
BRANCH   3   9
ATOM      9  O   UNL     1       1.875   3.432 -10.296  1.00  0.00    -0.508 OA
ATOM     10  H   UNL     1       2.844   3.576 -10.555  1.00  0.00     0.293 HD
ENDBRANCH   3   9
TORSDOF 2
ENDMDL
MODEL 4
REMARK VINA RESULT:    -0.057     10.322     11.815
REMARK INTER + INTRA:          -0.137
REMARK INTER:                  -0.065
REMARK INTRA:                  -0.072
REMARK UNBOUND:                -0.075
REMARK SMILES CCc1cccc(O)c1
REMARK SMILES IDX 3 1 9 2 7 3 6 4 5 5 4 6 2 7 1 8 8 9
REMARK H PARENT 8 10
REMARK Flexibility Score: inf
ROOT
ATOM      1  C   UNL     1       9.946   7.936  -6.875  1.00  0.00    -0.045 A 
ATOM      2  C   UNL     1      10.584   8.235  -8.091  1.00  0.00     0.049 A 
ATOM      3  C   UNL     1      11.924   7.875  -8.295  1.00  0.00     0.115 A 
ATOM      4  C   UNL     1      12.626   7.207  -7.287  1.00  0.00     0.046 A 
ATOM      5  C   UNL     1      11.993   6.895  -6.080  1.00  0.00     0.004 A 
ATOM      6  C   UNL     1      10.657   7.252  -5.875  1.00  0.00     0.004 A 
ENDROOT
BRANCH   1   7
ATOM      7  C   UNL     1       8.498   8.293  -6.669  1.00  0.00     0.032 C 
ATOM      8  C   UNL     1       7.783   7.205  -5.875  1.00  0.00     0.009 C 
ENDBRANCH   1   7
BRANCH   3   9
ATOM      9  O   UNL     1      12.564   8.174  -9.495  1.00  0.00    -0.508 OA
ATOM     10  H   UNL     1      12.625   9.125  -9.841  1.00  0.00     0.293 HD
ENDBRANCH   3   9
TORSDOF 2
ENDMDL
MODEL 5
REMARK VINA RESULT:     0.278      1.547      2.232
REMARK INTER + INTRA:           0.227
REMARK INTER:                   0.279
REMARK INTRA:                  -0.051
REMARK UNBOUND:                -0.075
REMARK SMILES CCc1cccc(O)c1
REMARK SMILES IDX 3 1 9 2 7 3 6 4 5 5 4 6 2 7 1 8 8 9
REMARK H PARENT 8 10
REMARK Flexibility Score: inf
ROOT
ATOM      1  C   UNL     1      -0.969   5.966 -10.556  1.00  0.00    -0.045 A 
ATOM      2  C   UNL     1       0.380   5.572 -10.557  1.00  0.00     0.049 A 
ATOM      3  C   UNL     1       1.134   5.628  -9.375  1.00  0.00     0.115 A 
ATOM      4  C   UNL     1       0.538   6.069  -8.190  1.00  0.00     0.046 A 
ATOM      5  C   UNL     1      -0.808   6.449  -8.180  1.00  0.00     0.004 A 
ATOM      6  C   UNL     1      -1.561   6.394  -9.356  1.00  0.00     0.004 A 
ENDROOT
BRANCH   1   7
ATOM      7  C   UNL     1      -1.787   5.874 -11.816  1.00  0.00     0.032 C 
ATOM      8  C   UNL     1      -0.946   5.337 -12.969  1.00  0.00     0.009 C 
ENDBRANCH   1   7
BRANCH   3   9
ATOM      9  O   UNL     1       2.474   5.246  -9.370  1.00  0.00    -0.508 OA
ATOM     10  H   UNL     1       3.219   5.924  -9.476  1.00  0.00     0.293 HD
ENDBRANCH   3   9
TORSDOF 2
ENDMDL
