MODEL 1
REMARK VINA RESULT:    -3.960      0.000      0.000
REMARK INTER + INTRA:          -4.414
REMARK INTER:                  -4.192
REMARK INTRA:                  -0.222
REMARK UNBOUND:                -0.222
REMARK SMILES C=C(C)[C@@H]1CC=C(C)C(=O)C1
REMARK SMILES IDX 8 1 7 2 6 3 5 4 4 5 11 6 9 7 10 8 2 9 1 10 3 11
REMARK H PARENT
REMARK Flexibility Score: inf
ROOT
ATOM      1  C   UNL     1     148.034 150.395 169.824  1.00  0.00     0.048 C 
ATOM      2  C   UNL     1     148.694 151.394 168.915  1.00  0.00    -0.012 C 
ATOM      3  C   UNL     1     149.988 151.245 168.591  1.00  0.00    -0.019 C 
ATOM      4  C   UNL     1     150.720 152.225 167.713  1.00  0.00     0.036 C 
ATOM      5  C   UNL     1     149.811 152.934 166.688  1.00  0.00     0.025 C 
ATOM      6  C   UNL     1     148.509 153.451 167.337  1.00  0.00     0.089 C 
ATOM      7  C   UNL     1     147.881 152.447 168.262  1.00  0.00     0.158 C 
ATOM      8  O   UNL     1     146.647 152.532 168.506  1.00  0.00    -0.295 OA
ENDROOT
BRANCH   5   9
ATOM      9  C   UNL     1     149.562 152.094 165.434  1.00  0.00    -0.077 C 
ATOM     10  C   UNL     1     148.443 152.217 164.699  1.00  0.00     0.008 C 
ATOM     11  C   UNL     1     150.594 151.088 164.988  1.00  0.00     0.039 C 
ENDBRANCH   5   9
TORSDOF 1
ENDMDL
MODEL 2
REMARK VINA RESULT:    -3.615      4.852      6.463
REMARK INTER + INTRA:          -4.048
REMARK INTER:                  -3.828
REMARK INTRA:                  -0.220
REMARK UNBOUND:                -0.222
REMARK SMILES C=C(C)[C@@H]1CC=C(C)C(=O)C1
REMARK SMILES IDX 8 1 7 2 6 3 5 4 4 5 11 6 9 7 10 8 2 9 1 10 3 11
REMARK H PARENT
REMARK Flexibility Score: inf
ROOT
ATOM      1  C   UNL     1     153.211 149.822 163.705  1.00  0.00     0.048 C 
ATOM      2  C   UNL     1     151.872 149.796 163.018  1.00  0.00    -0.012 C 
ATOM      3  C   UNL     1     151.808 149.596 161.693  1.00  0.00    -0.019 C 
ATOM      4  C   UNL     1     150.507 149.591 160.938  1.00  0.00     0.036 C 
ATOM      5  C   UNL     1     149.305 149.121 161.783  1.00  0.00     0.025 C 
ATOM      6  C   UNL     1     149.278 149.799 163.169  1.00  0.00     0.089 C 
ATOM      7  C   UNL     1     150.630 149.838 163.825  1.00  0.00     0.158 C 
ATOM      8  O   UNL     1     150.695 149.943 165.079  1.00  0.00    -0.295 OA
ENDROOT
BRANCH   5   9
ATOM      9  C   UNL     1     149.192 147.597 161.860  1.00  0.00    -0.077 C 
ATOM     10  C   UNL     1     148.684 146.969 162.933  1.00  0.00     0.008 C 
ATOM     11  C   UNL     1     149.662 146.751 160.702  1.00  0.00     0.039 C 
ENDBRANCH   5   9
TORSDOF 1
ENDMDL
MODEL 3
REMARK VINA RESULT:    -3.457      2.072      4.085
REMARK INTER + INTRA:          -3.881
REMARK INTER:                  -3.753
REMARK INTRA:                  -0.128
REMARK UNBOUND:                -0.222
REMARK SMILES C=C(C)[C@@H]1CC=C(C)C(=O)C1
REMARK SMILES IDX 8 1 7 2 6 3 5 4 4 5 11 6 9 7 10 8 2 9 1 10 3 11
REMARK H PARENT
REMARK Flexibility Score: inf
ROOT
ATOM      1  C   UNL     1     150.264 156.009 165.261  1.00  0.00     0.048 C 
ATOM      2  C   UNL     1     150.262 154.519 165.469  1.00  0.00    -0.012 C 
ATOM      3  C   UNL     1     151.346 153.917 165.983  1.00  0.00    -0.019 C 
ATOM      4  C   UNL     1     151.424 152.429 166.186  1.00  0.00     0.036 C 
ATOM      5  C   UNL     1     150.056 151.769 166.454  1.00  0.00     0.025 C 
ATOM      6  C   UNL     1     148.979 152.259 165.462  1.00  0.00     0.089 C 
ATOM      7  C   UNL     1     149.017 153.746 165.249  1.00  0.00     0.158 C 
ATOM      8  O   UNL     1     147.975 154.329 164.844  1.00  0.00    -0.295 OA
ENDROOT
BRANCH   5   9
ATOM      9  C   UNL     1     149.618 151.881 167.916  1.00  0.00    -0.077 C 
ATOM     10  C   UNL     1     150.410 151.503 168.933  1.00  0.00     0.008 C 
ATOM     11  C   UNL     1     148.254 152.432 168.249  1.00  0.00     0.039 C 
ENDBRANCH   5   9
TORSDOF 1
ENDMDL
MODEL 4
REMARK VINA RESULT:    -3.437      1.940      3.873
REMARK INTER + INTRA:          -3.860
REMARK INTER:                  -3.639
REMARK INTRA:                  -0.222
REMARK UNBOUND:                -0.222
REMARK SMILES C=C(C)[C@@H]1CC=C(C)C(=O)C1
REMARK SMILES IDX 8 1 7 2 6 3 5 4 4 5 11 6 9 7 10 8 2 9 1 10 3 11
REMARK H PARENT
REMARK Flexibility Score: inf
ROOT
ATOM      1  C   UNL     1     146.393 151.595 164.437  1.00  0.00     0.048 C 
ATOM      2  C   UNL     1     146.843 152.252 165.714  1.00  0.00    -0.012 C 
ATOM      3  C   UNL     1     146.243 151.934 166.872  1.00  0.00    -0.019 C 
ATOM      4  C   UNL     1     146.620 152.576 168.179  1.00  0.00     0.036 C 
ATOM      5  C   UNL     1     148.094 153.023 168.245  1.00  0.00     0.025 C 
ATOM      6  C   UNL     1     148.520 153.786 166.972  1.00  0.00     0.089 C 
ATOM      7  C   UNL     1     148.038 153.127 165.710  1.00  0.00     0.158 C 
ATOM      8  O   UNL     1     148.649 153.357 164.632  1.00  0.00    -0.295 OA
ENDROOT
BRANCH   5   9
ATOM      9  C   UNL     1     149.046 151.881 168.606  1.00  0.00    -0.077 C 
ATOM     10  C   UNL     1     150.327 151.859 168.198  1.00  0.00     0.008 C 
ATOM     11  C   UNL     1     148.552 150.731 169.447  1.00  0.00     0.039 C 
ENDBRANCH   5   9
TORSDOF 1
ENDMDL
MODEL 5
REMARK VINA RESULT:    -3.434      1.546      2.317
REMARK INTER + INTRA:          -3.857
REMARK INTER:                  -3.641
REMARK INTRA:                  -0.216
REMARK UNBOUND:                -0.222
REMARK SMILES C=C(C)[C@@H]1CC=C(C)C(=O)C1
REMARK SMILES IDX 8 1 7 2 6 3 5 4 4 5 11 6 9 7 10 8 2 9 1 10 3 11
REMARK H PARENT
REMARK Flexibility Score: inf
ROOT
ATOM      1  C   UNL     1     148.719 150.755 169.498  1.00  0.00     0.048 C 
ATOM      2  C   UNL     1     148.150 151.851 168.639  1.00  0.00    -0.012 C 
ATOM      3  C   UNL     1     148.977 152.675 167.977  1.00  0.00    -0.019 C 
ATOM      4  C   UNL     1     148.476 153.811 167.127  1.00  0.00     0.036 C 
ATOM      5  C   UNL     1     147.088 153.553 166.506  1.00  0.00     0.025 C 
ATOM      6  C   UNL     1     146.090 152.996 167.544  1.00  0.00     0.089 C 
ATOM      7  C   UNL     1     146.688 151.921 168.408  1.00  0.00     0.158 C 
ATOM      8  O   UNL     1     145.920 151.093 168.968  1.00  0.00    -0.295 OA
ENDROOT
BRANCH   5   9
ATOM      9  C   UNL     1     147.155 152.713 165.229  1.00  0.00    -0.077 C 
ATOM     10  C   UNL     1     148.189 152.789 164.374  1.00  0.00     0.008 C 
ATOM     11  C   UNL     1     146.033 151.760 164.899  1.00  0.00     0.039 C 
ENDBRANCH   5   9
TORSDOF 1
ENDMDL
MODEL 6
REMARK VINA RESULT:    -3.419      5.927      7.540
REMARK INTER + INTRA:          -3.841
REMARK INTER:                  -3.656
REMARK INTRA:                  -0.185
REMARK UNBOUND:                -0.222
REMARK SMILES C=C(C)[C@@H]1CC=C(C)C(=O)C1
REMARK SMILES IDX 8 1 7 2 6 3 5 4 4 5 11 6 9 7 10 8 2 9 1 10 3 11
REMARK H PARENT
REMARK Flexibility Score: inf
ROOT
ATOM      1  C   UNL     1     146.705 160.177 163.693  1.00  0.00     0.048 C 
ATOM      2  C   UNL     1     147.470 159.020 163.110  1.00  0.00    -0.012 C 
ATOM      3  C   UNL     1     148.810 159.006 163.179  1.00  0.00    -0.019 C 
ATOM      4  C   UNL     1     149.638 157.898 162.588  1.00  0.00     0.036 C 
ATOM      5  C   UNL     1     148.918 156.534 162.565  1.00  0.00     0.025 C 
ATOM      6  C   UNL     1     147.475 156.657 162.028  1.00  0.00     0.089 C 
ATOM      7  C   UNL     1     146.739 157.835 162.603  1.00  0.00     0.158 C 
ATOM      8  O   UNL     1     145.478 157.817 162.616  1.00  0.00    -0.295 OA
ENDROOT
BRANCH   5   9
ATOM      9  C   UNL     1     148.998 155.795 163.902  1.00  0.00    -0.077 C 
ATOM     10  C   UNL     1     148.183 154.771 164.206  1.00  0.00     0.008 C 
ATOM     11  C   UNL     1     150.020 156.214 164.929  1.00  0.00     0.039 C 
ENDBRANCH   5   9
TORSDOF 1
ENDMDL
MODEL 7
REMARK VINA RESULT:    -3.391      6.196      7.826
REMARK INTER + INTRA:          -3.811
REMARK INTER:                  -3.597
REMARK INTRA:                  -0.214
REMARK UNBOUND:                -0.222
REMARK SMILES C=C(C)[C@@H]1CC=C(C)C(=O)C1
REMARK SMILES IDX 8 1 7 2 6 3 5 4 4 5 11 6 9 7 10 8 2 9 1 10 3 11
REMARK H PARENT
REMARK Flexibility Score: inf
ROOT
ATOM      1  C   UNL     1     148.223 154.721 163.985  1.00  0.00     0.048 C 
ATOM      2  C   UNL     1     148.308 156.028 163.245  1.00  0.00    -0.012 C 
ATOM      3  C   UNL     1     147.489 156.259 162.207  1.00  0.00    -0.019 C 
ATOM      4  C   UNL     1     147.543 157.529 161.402  1.00  0.00     0.036 C 
ATOM      5  C   UNL     1     148.023 158.752 162.211  1.00  0.00     0.025 C 
ATOM      6  C   UNL     1     149.280 158.429 163.046  1.00  0.00     0.089 C 
ATOM      7  C   UNL     1     149.184 157.108 163.756  1.00  0.00     0.158 C 
ATOM      8  O   UNL     1     149.892 156.915 164.781  1.00  0.00    -0.295 OA
ENDROOT
BRANCH   5   9
ATOM      9  C   UNL     1     146.906 159.397 163.034  1.00  0.00    -0.077 C 
ATOM     10  C   UNL     1     147.157 160.144 164.122  1.00  0.00     0.008 C 
ATOM     11  C   UNL     1     145.467 159.201 162.628  1.00  0.00     0.039 C 
ENDBRANCH   5   9
TORSDOF 1
ENDMDL
MODEL 8
REMARK VINA RESULT:    -3.375      2.739      3.736
REMARK INTER + INTRA:          -3.795
REMARK INTER:                  -3.844
REMARK INTRA:                   0.050
REMARK UNBOUND:                -0.222
REMARK SMILES C=C(C)[C@@H]1CC=C(C)C(=O)C1
REMARK SMILES IDX 8 1 7 2 6 3 5 4 4 5 11 6 9 7 10 8 2 9 1 10 3 11
REMARK H PARENT
REMARK Flexibility Score: inf
ROOT
ATOM      1  C   UNL     1     150.335 151.900 168.200  1.00  0.00     0.048 C 
ATOM      2  C   UNL     1     149.759 152.549 166.972  1.00  0.00    -0.012 C 
ATOM      3  C   UNL     1     148.754 153.430 167.094  1.00  0.00    -0.019 C 
ATOM      4  C   UNL     1     148.110 154.092 165.906  1.00  0.00     0.036 C 
ATOM      5  C   UNL     1     149.062 154.267 164.706  1.00  0.00     0.025 C 
ATOM      6  C   UNL     1     149.857 152.977 164.411  1.00  0.00     0.089 C 
ATOM      7  C   UNL     1     150.401 152.331 165.654  1.00  0.00     0.158 C 
ATOM      8  O   UNL     1     151.397 151.565 165.556  1.00  0.00    -0.295 OA
ENDROOT
BRANCH   5   9
ATOM      9  C   UNL     1     149.954 155.504 164.830  1.00  0.00    -0.077 C 
ATOM     10  C   UNL     1     149.522 156.735 164.506  1.00  0.00     0.008 C 
ATOM     11  C   UNL     1     151.370 155.361 165.330  1.00  0.00     0.039 C 
ENDBRANCH   5   9
TORSDOF 1
ENDMDL
MODEL 9
REMARK VINA RESULT:    -3.323      3.034      4.851
REMARK INTER + INTRA:          -3.739
REMARK INTER:                  -3.527
REMARK INTRA:                  -0.212
REMARK UNBOUND:                -0.222
REMARK SMILES C=C(C)[C@@H]1CC=C(C)C(=O)C1
REMARK SMILES IDX 8 1 7 2 6 3 5 4 4 5 11 6 9 7 10 8 2 9 1 10 3 11
REMARK H PARENT
REMARK Flexibility Score: inf
ROOT
ATOM      1  C   UNL     1     150.376 156.077 162.774  1.00  0.00     0.048 C 
ATOM      2  C   UNL     1     149.825 155.019 163.690  1.00  0.00    -0.012 C 
ATOM      3  C   UNL     1     149.493 153.817 163.194  1.00  0.00    -0.019 C 
ATOM      4  C   UNL     1     148.906 152.724 164.047  1.00  0.00     0.036 C 
ATOM      5  C   UNL     1     149.359 152.782 165.521  1.00  0.00     0.025 C 
ATOM      6  C   UNL     1     149.262 154.211 166.095  1.00  0.00     0.089 C 
ATOM      7  C   UNL     1     149.794 155.255 165.153  1.00  0.00     0.158 C 
ATOM      8  O   UNL     1     150.184 156.357 165.623  1.00  0.00    -0.295 OA
ENDROOT
BRANCH   5   9
ATOM      9  C   UNL     1     150.727 152.136 165.748  1.00  0.00    -0.077 C 
ATOM     10  C   UNL     1     151.599 152.604 166.658  1.00  0.00     0.008 C 
ATOM     11  C   UNL     1     151.132 150.932 164.935  1.00  0.00     0.039 C 
ENDBRANCH   5   9
TORSDOF 1
ENDMDL
