MODEL 1
REMARK VINA RESULT:    -5.011      0.000      0.000
REMARK INTER + INTRA:          -6.837
REMARK INTER:                  -6.329
REMARK INTRA:                  -0.508
REMARK UNBOUND:                -0.508
REMARK SMILES CC(C)=CCCC(C)=CCO
REMARK SMILES IDX 7 1 9 2 8 3 6 4 5 5 4 6 1 7 2 8 3 9 10 10 11 11
REMARK H PARENT 11 12
REMARK Flexibility Score: inf
ROOT
ATOM      1  C   UNL     1      42.078  -9.523  11.537  1.00  0.00    -0.075 C 
ATOM      2  C   UNL     1      41.291 -10.415  10.897  1.00  0.00    -0.000 C 
ATOM      3  C   UNL     1      41.489  -8.441  12.411  1.00  0.00     0.039 C 
ENDROOT
BRANCH   1   4
ATOM      4  C   UNL     1      43.580  -9.607  11.374  1.00  0.00     0.034 C 
BRANCH   4   5
ATOM      5  C   UNL     1      44.242 -10.094  12.668  1.00  0.00     0.032 C 
BRANCH   5   6
ATOM      6  C   UNL     1      43.781 -11.488  13.013  1.00  0.00    -0.028 C 
ATOM      7  C   UNL     1      42.477 -10.735  15.014  1.00  0.00     0.039 C 
ATOM      8  C   UNL     1      43.009 -11.796  14.077  1.00  0.00    -0.080 C 
ATOM      9  C   UNL     1      42.660 -13.242  14.319  1.00  0.00     0.039 C 
ENDBRANCH   5   6
ENDBRANCH   4   5
ENDBRANCH   1   4
BRANCH   2  10
ATOM     10  C   UNL     1      39.788 -10.412  10.998  1.00  0.00     0.183 C 
BRANCH  10  11
ATOM     11  O   UNL     1      39.373 -11.167  12.104  1.00  0.00    -0.392 OA
ATOM     12  H   UNL     1      38.798 -11.896  11.751  1.00  0.00     0.210 HD
ENDBRANCH  10  11
ENDBRANCH   2  10
TORSDOF 5
ENDMDL
MODEL 2
REMARK VINA RESULT:    -4.976      2.006      3.934
REMARK INTER + INTRA:          -6.794
REMARK INTER:                  -6.116
REMARK INTRA:                  -0.677
REMARK UNBOUND:                -0.508
REMARK SMILES CC(C)=CCCC(C)=CCO
REMARK SMILES IDX 7 1 9 2 8 3 6 4 5 5 4 6 1 7 2 8 3 9 10 10 11 11
REMARK H PARENT 11 12
REMARK Flexibility Score: inf
ROOT
ATOM      1  C   UNL     1      43.000 -10.922  12.492  1.00  0.00    -0.075 C 
ATOM      2  C   UNL     1      42.195 -11.705  13.243  1.00  0.00    -0.000 C 
ATOM      3  C   UNL     1      44.480 -10.818  12.773  1.00  0.00     0.039 C 
ENDROOT
BRANCH   1   4
ATOM      4  C   UNL     1      42.405 -10.131  11.347  1.00  0.00     0.034 C 
BRANCH   4   5
ATOM      5  C   UNL     1      41.417  -9.081  11.866  1.00  0.00     0.032 C 
BRANCH   5   6
ATOM      6  C   UNL     1      42.149  -7.921  12.495  1.00  0.00    -0.028 C 
ATOM      7  C   UNL     1      41.326  -8.444  14.802  1.00  0.00     0.039 C 
ATOM      8  C   UNL     1      42.098  -7.607  13.808  1.00  0.00    -0.080 C 
ATOM      9  C   UNL     1      42.852  -6.393  14.287  1.00  0.00     0.039 C 
ENDBRANCH   5   6
ENDBRANCH   4   5
ENDBRANCH   1   4
BRANCH   2  10
ATOM     10  C   UNL     1      42.692 -12.530  14.402  1.00  0.00     0.183 C 
BRANCH  10  11
ATOM     11  O   UNL     1      42.268 -13.859  14.271  1.00  0.00    -0.392 OA
ATOM     12  H   UNL     1      41.308 -13.878  14.527  1.00  0.00     0.210 HD
ENDBRANCH  10  11
ENDBRANCH   2  10
TORSDOF 5
ENDMDL
MODEL 3
REMARK VINA RESULT:    -4.971      6.829      8.829
REMARK INTER + INTRA:          -6.786
REMARK INTER:                  -6.403
REMARK INTRA:                  -0.383
REMARK UNBOUND:                -0.508
REMARK SMILES CC(C)=CCCC(C)=CCO
REMARK SMILES IDX 7 1 9 2 8 3 6 4 5 5 4 6 1 7 2 8 3 9 10 10 11 11
REMARK H PARENT 11 12
REMARK Flexibility Score: inf
ROOT
ATOM      1  C   UNL     1      41.510  -3.699  11.260  1.00  0.00    -0.075 C 
ATOM      2  C   UNL     1      42.294  -2.600  11.192  1.00  0.00    -0.000 C 
ATOM      3  C   UNL     1      41.947  -5.013  10.658  1.00  0.00     0.039 C 
ENDROOT
BRANCH   1   4
ATOM      4  C   UNL     1      40.167  -3.609  11.951  1.00  0.00     0.034 C 
BRANCH   4   5
ATOM      5  C   UNL     1      40.043  -2.296  12.732  1.00  0.00     0.032 C 
BRANCH   5   6
ATOM      6  C   UNL     1      40.502  -2.477  14.157  1.00  0.00    -0.028 C 
ATOM      7  C   UNL     1      42.084  -0.538  14.063  1.00  0.00     0.039 C 
ATOM      8  C   UNL     1      41.436  -1.711  14.762  1.00  0.00    -0.080 C 
ATOM      9  C   UNL     1      41.824  -2.037  16.182  1.00  0.00     0.039 C 
ENDBRANCH   5   6
ENDBRANCH   4   5
ENDBRANCH   1   4
BRANCH   2  10
ATOM     10  C   UNL     1      43.645  -2.589  10.526  1.00  0.00     0.183 C 
BRANCH  10  11
ATOM     11  O   UNL     1      44.614  -2.077  11.400  1.00  0.00    -0.392 OA
ATOM     12  H   UNL     1      45.036  -2.856  11.847  1.00  0.00     0.210 HD
ENDBRANCH  10  11
ENDBRANCH   2  10
TORSDOF 5
ENDMDL
MODEL 4
REMARK VINA RESULT:    -4.803      3.693      5.195
REMARK INTER + INTRA:          -6.575
REMARK INTER:                  -6.248
REMARK INTRA:                  -0.327
REMARK UNBOUND:                -0.508
REMARK SMILES CC(C)=CCCC(C)=CCO
REMARK SMILES IDX 7 1 9 2 8 3 6 4 5 5 4 6 1 7 2 8 3 9 10 10 11 11
REMARK H PARENT 11 12
REMARK Flexibility Score: inf
ROOT
ATOM      1  C   UNL     1      42.922  -8.307  16.847  1.00  0.00    -0.075 C 
ATOM      2  C   UNL     1      42.411  -7.172  16.322  1.00  0.00    -0.000 C 
ATOM      3  C   UNL     1      43.802  -8.278  18.075  1.00  0.00     0.039 C 
ENDROOT
BRANCH   1   4
ATOM      4  C   UNL     1      42.608  -9.634  16.191  1.00  0.00     0.034 C 
BRANCH   4   5
ATOM      5  C   UNL     1      41.848  -9.425  14.877  1.00  0.00     0.032 C 
BRANCH   5   6
ATOM      6  C   UNL     1      42.661  -9.915  13.705  1.00  0.00    -0.028 C 
ATOM      7  C   UNL     1      41.712 -12.230  13.809  1.00  0.00     0.039 C 
ATOM      8  C   UNL     1      42.630 -11.179  13.229  1.00  0.00    -0.080 C 
ATOM      9  C   UNL     1      43.531 -11.534  12.074  1.00  0.00     0.039 C 
ENDBRANCH   5   6
ENDBRANCH   4   5
ENDBRANCH   1   4
BRANCH   2  10
ATOM     10  C   UNL     1      42.666  -5.805  16.903  1.00  0.00     0.183 C 
BRANCH  10  11
ATOM     11  O   UNL     1      41.614  -5.432  17.750  1.00  0.00    -0.392 OA
ATOM     12  H   UNL     1      40.782  -5.478  17.208  1.00  0.00     0.210 HD
ENDBRANCH  10  11
ENDBRANCH   2  10
TORSDOF 5
ENDMDL
MODEL 5
REMARK VINA RESULT:    -4.800      1.964      3.944
REMARK INTER + INTRA:          -6.571
REMARK INTER:                  -5.907
REMARK INTRA:                  -0.664
REMARK UNBOUND:                -0.508
REMARK SMILES CC(C)=CCCC(C)=CCO
REMARK SMILES IDX 7 1 9 2 8 3 6 4 5 5 4 6 1 7 2 8 3 9 10 10 11 11
REMARK H PARENT 11 12
REMARK Flexibility Score: inf
ROOT
ATOM      1  C   UNL     1      42.992  -9.921  14.184  1.00  0.00    -0.075 C 
ATOM      2  C   UNL     1      42.853  -8.580  14.270  1.00  0.00    -0.000 C 
ATOM      3  C   UNL     1      42.246 -10.850  15.112  1.00  0.00     0.039 C 
ENDROOT
BRANCH   1   4
ATOM      4  C   UNL     1      43.916 -10.504  13.137  1.00  0.00     0.034 C 
BRANCH   4   5
ATOM      5  C   UNL     1      43.129 -11.340  12.121  1.00  0.00     0.032 C 
BRANCH   5   6
ATOM      6  C   UNL     1      42.460 -10.451  11.101  1.00  0.00    -0.028 C 
ATOM      7  C   UNL     1      40.152 -10.983  11.913  1.00  0.00     0.039 C 
ATOM      8  C   UNL     1      41.124 -10.300  10.979  1.00  0.00    -0.080 C 
ATOM      9  C   UNL     1      40.598  -9.407   9.884  1.00  0.00     0.039 C 
ENDBRANCH   5   6
ENDBRANCH   4   5
ENDBRANCH   1   4
BRANCH   2  10
ATOM     10  C   UNL     1      41.958  -7.906  15.278  1.00  0.00     0.183 C 
BRANCH  10  11
ATOM     11  O   UNL     1      40.660  -7.776  14.765  1.00  0.00    -0.392 OA
ATOM     12  H   UNL     1      40.320  -8.697  14.614  1.00  0.00     0.210 HD
ENDBRANCH  10  11
ENDBRANCH   2  10
TORSDOF 5
ENDMDL
MODEL 6
REMARK VINA RESULT:    -4.731      1.536      2.387
REMARK INTER + INTRA:          -6.484
REMARK INTER:                  -5.941
REMARK INTRA:                  -0.543
REMARK UNBOUND:                -0.508
REMARK SMILES CC(C)=CCCC(C)=CCO
REMARK SMILES IDX 7 1 9 2 8 3 6 4 5 5 4 6 1 7 2 8 3 9 10 10 11 11
REMARK H PARENT 11 12
REMARK Flexibility Score: inf
ROOT
ATOM      1  C   UNL     1      42.014  -9.390  10.778  1.00  0.00    -0.075 C 
ATOM      2  C   UNL     1      41.349 -10.468  11.249  1.00  0.00    -0.000 C 
ATOM      3  C   UNL     1      41.321  -8.346   9.935  1.00  0.00     0.039 C 
ENDROOT
BRANCH   1   4
ATOM      4  C   UNL     1      43.483  -9.228  11.099  1.00  0.00     0.034 C 
BRANCH   4   5
ATOM      5  C   UNL     1      43.762  -9.579  12.565  1.00  0.00     0.032 C 
BRANCH   5   6
ATOM      6  C   UNL     1      43.254  -8.494  13.481  1.00  0.00    -0.028 C 
ATOM      7  C   UNL     1      41.868 -10.071  14.846  1.00  0.00     0.039 C 
ATOM      8  C   UNL     1      42.383  -8.694  14.494  1.00  0.00    -0.080 C 
ATOM      9  C   UNL     1      41.932  -7.504  15.301  1.00  0.00     0.039 C 
ENDBRANCH   5   6
ENDBRANCH   4   5
ENDBRANCH   1   4
BRANCH   2  10
ATOM     10  C   UNL     1      39.886 -10.717  10.983  1.00  0.00     0.183 C 
BRANCH  10  11
ATOM     11  O   UNL     1      39.231 -11.078  12.168  1.00  0.00    -0.392 OA
ATOM     12  H   UNL     1      39.090 -10.241  12.683  1.00  0.00     0.210 HD
ENDBRANCH  10  11
ENDBRANCH   2  10
TORSDOF 5
ENDMDL
MODEL 7
REMARK VINA RESULT:    -4.731      2.521      3.502
REMARK INTER + INTRA:          -6.483
REMARK INTER:                  -6.190
REMARK INTRA:                  -0.294
REMARK UNBOUND:                -0.508
REMARK SMILES CC(C)=CCCC(C)=CCO
REMARK SMILES IDX 7 1 9 2 8 3 6 4 5 5 4 6 1 7 2 8 3 9 10 10 11 11
REMARK H PARENT 11 12
REMARK Flexibility Score: inf
ROOT
ATOM      1  C   UNL     1      42.378  -9.897  12.763  1.00  0.00    -0.075 C 
ATOM      2  C   UNL     1      41.082  -9.748  12.412  1.00  0.00    -0.000 C 
ATOM      3  C   UNL     1      43.202 -11.055  12.253  1.00  0.00     0.039 C 
ENDROOT
BRANCH   1   4
ATOM      4  C   UNL     1      43.016  -8.883  13.687  1.00  0.00     0.034 C 
BRANCH   4   5
ATOM      5  C   UNL     1      42.091  -8.565  14.867  1.00  0.00     0.032 C 
BRANCH   5   6
ATOM      6  C   UNL     1      42.744  -8.940  16.175  1.00  0.00    -0.028 C 
ATOM      7  C   UNL     1      42.618  -6.612  17.090  1.00  0.00     0.039 C 
ATOM      8  C   UNL     1      43.010  -8.070  17.173  1.00  0.00    -0.080 C 
ATOM      9  C   UNL     1      43.705  -8.583  18.408  1.00  0.00     0.039 C 
ENDBRANCH   5   6
ENDBRANCH   4   5
ENDBRANCH   1   4
BRANCH   2  10
ATOM     10  C   UNL     1      40.359 -10.703  11.497  1.00  0.00     0.183 C 
BRANCH  10  11
ATOM     11  O   UNL     1      39.232 -11.234  12.141  1.00  0.00    -0.392 OA
ATOM     12  H   UNL     1      38.538 -11.360  11.442  1.00  0.00     0.210 HD
ENDBRANCH  10  11
ENDBRANCH   2  10
TORSDOF 5
ENDMDL
MODEL 8
REMARK VINA RESULT:    -4.666      2.735      4.349
REMARK INTER + INTRA:          -6.402
REMARK INTER:                  -5.939
REMARK INTRA:                  -0.463
REMARK UNBOUND:                -0.508
REMARK SMILES CC(C)=CCCC(C)=CCO
REMARK SMILES IDX 7 1 9 2 8 3 6 4 5 5 4 6 1 7 2 8 3 9 10 10 11 11
REMARK H PARENT 11 12
REMARK Flexibility Score: inf
ROOT
ATOM      1  C   UNL     1      43.014 -10.469  13.357  1.00  0.00    -0.075 C 
ATOM      2  C   UNL     1      42.550 -11.195  14.397  1.00  0.00    -0.000 C 
ATOM      3  C   UNL     1      43.667 -11.129  12.166  1.00  0.00     0.039 C 
ENDROOT
BRANCH   1   4
ATOM      4  C   UNL     1      42.880  -8.962  13.387  1.00  0.00     0.034 C 
BRANCH   4   5
ATOM      5  C   UNL     1      41.691  -8.539  14.258  1.00  0.00     0.032 C 
BRANCH   5   6
ATOM      6  C   UNL     1      41.993  -7.252  14.986  1.00  0.00    -0.028 C 
ATOM      7  C   UNL     1      42.941  -8.420  16.988  1.00  0.00     0.039 C 
ATOM      8  C   UNL     1      42.531  -7.183  16.223  1.00  0.00    -0.080 C 
ATOM      9  C   UNL     1      42.738  -5.824  16.842  1.00  0.00     0.039 C 
ENDBRANCH   5   6
ENDBRANCH   4   5
ENDBRANCH   1   4
BRANCH   2  10
ATOM     10  C   UNL     1      42.638 -12.699  14.459  1.00  0.00     0.183 C 
BRANCH  10  11
ATOM     11  O   UNL     1      41.393 -13.271  14.164  1.00  0.00    -0.392 OA
ATOM     12  H   UNL     1      40.741 -12.880  14.803  1.00  0.00     0.210 HD
ENDBRANCH  10  11
ENDBRANCH   2  10
TORSDOF 5
ENDMDL
MODEL 9
REMARK VINA RESULT:    -4.599      3.455      5.193
REMARK INTER + INTRA:          -6.317
REMARK INTER:                  -6.068
REMARK INTRA:                  -0.249
REMARK UNBOUND:                -0.508
REMARK SMILES CC(C)=CCCC(C)=CCO
REMARK SMILES IDX 7 1 9 2 8 3 6 4 5 5 4 6 1 7 2 8 3 9 10 10 11 11
REMARK H PARENT 11 12
REMARK Flexibility Score: inf
ROOT
ATOM      1  C   UNL     1      42.640  -7.835  16.335  1.00  0.00    -0.075 C 
ATOM      2  C   UNL     1      42.988  -8.886  17.108  1.00  0.00    -0.000 C 
ATOM      3  C   UNL     1      42.249  -6.508  16.942  1.00  0.00     0.039 C 
ENDROOT
BRANCH   1   4
ATOM      4  C   UNL     1      42.641  -7.990  14.830  1.00  0.00     0.034 C 
BRANCH   4   5
ATOM      5  C   UNL     1      42.455  -9.459  14.433  1.00  0.00     0.032 C 
BRANCH   5   6
ATOM      6  C   UNL     1      41.722  -9.570  13.120  1.00  0.00    -0.028 C 
ATOM      7  C   UNL     1      43.416 -11.121  12.122  1.00  0.00     0.039 C 
ATOM      8  C   UNL     1      42.154 -10.293  12.063  1.00  0.00    -0.080 C 
ATOM      9  C   UNL     1      41.334 -10.277  10.798  1.00  0.00     0.039 C 
ENDBRANCH   5   6
ENDBRANCH   4   5
ENDBRANCH   1   4
BRANCH   2  10
ATOM     10  C   UNL     1      43.018  -8.830  18.614  1.00  0.00     0.183 C 
BRANCH  10  11
ATOM     11  O   UNL     1      42.609 -10.057  19.155  1.00  0.00    -0.392 OA
ATOM     12  H   UNL     1      42.778 -10.745  18.459  1.00  0.00     0.210 HD
ENDBRANCH  10  11
ENDBRANCH   2  10
TORSDOF 5
ENDMDL
