MODEL 1
REMARK VINA RESULT:    -3.088      0.000      0.000
REMARK INTER + INTRA:         -10.539
REMARK INTER:                  -6.697
REMARK INTRA:                  -3.842
REMARK UNBOUND:                -3.842
REMARK SMILES CCCCCCCCCCCCCCCCCCCCCC(=O)[O-]
REMARK SMILES IDX 12 1 11 2 10 3 9 4 8 5 7 6 6 7 5 8 4 9 3 10 2 11 1 12 13 13
REMARK SMILES IDX 14 14 15 15 16 16 17 17 18 18 19 19 20 20 21 21 22 22 23 23
REMARK SMILES IDX 24 24
REMARK H PARENT
REMARK Flexibility Score: inf
ROOT
ATOM      1  C   UNL     1      58.037  29.573  50.403  1.00  0.00     0.000 C 
ENDROOT
BRANCH   1   2
ATOM      2  C   UNL     1      58.858  29.608  51.706  1.00  0.00     0.000 C 
BRANCH   2   3
ATOM      3  C   UNL     1      58.160  28.900  52.875  1.00  0.00     0.000 C 
BRANCH   3   4
ATOM      4  C   UNL     1      56.650  29.182  52.868  1.00  0.00    -0.000 C 
BRANCH   4   5
ATOM      5  C   UNL     1      55.822  27.992  53.383  1.00  0.00    -0.000 C 
BRANCH   5   6
ATOM      6  C   UNL     1      56.554  26.635  53.357  1.00  0.00    -0.000 C 
BRANCH   6   7
ATOM      7  C   UNL     1      56.099  25.704  52.212  1.00  0.00    -0.000 C 
BRANCH   7   8
ATOM      8  C   UNL     1      56.866  25.971  50.904  1.00  0.00    -0.000 C 
BRANCH   8   9
ATOM      9  C   UNL     1      56.001  26.659  49.832  1.00  0.00    -0.000 C 
BRANCH   9  10
ATOM     10  C   UNL     1      54.547  26.154  49.750  1.00  0.00    -0.000 C 
BRANCH  10  11
ATOM     11  C   UNL     1      53.516  27.291  49.789  1.00  0.00    -0.003 C 
ATOM     12  C   UNL     1      54.182  28.626  50.118  1.00  0.00     0.004 C 
ENDBRANCH  10  11
ENDBRANCH   9  10
ENDBRANCH   8   9
ENDBRANCH   7   8
ENDBRANCH   6   7
ENDBRANCH   5   6
ENDBRANCH   4   5
ENDBRANCH   3   4
ENDBRANCH   2   3
ENDBRANCH   1   2
BRANCH   1  13
ATOM     13  C   UNL     1      58.828  29.183  49.139  1.00  0.00     0.000 C 
BRANCH  13  14
ATOM     14  C   UNL     1      59.642  27.890  49.315  1.00  0.00     0.000 C 
BRANCH  14  15
ATOM     15  C   UNL     1      61.160  28.121  49.204  1.00  0.00     0.000 C 
BRANCH  15  16
ATOM     16  C   UNL     1      61.953  27.935  50.514  1.00  0.00     0.000 C 
BRANCH  16  17
ATOM     17  C   UNL     1      62.466  26.508  50.773  1.00  0.00     0.000 C 
BRANCH  17  18
ATOM     18  C   UNL     1      62.056  25.970  52.154  1.00  0.00     0.000 C 
BRANCH  18  19
ATOM     19  C   UNL     1      60.529  25.892  52.327  1.00  0.00     0.000 C 
BRANCH  19  20
ATOM     20  C   UNL     1      59.963  24.510  51.952  1.00  0.00     0.006 C 
BRANCH  20  21
ATOM     21  C   UNL     1      60.065  24.231  50.446  1.00  0.00     0.053 C 
BRANCH  21  22
ATOM     22  C   UNL     1      60.815  22.967  50.163  1.00  0.00     0.041 C 
ATOM     23  O   UNL     1      61.934  22.757  50.707  1.00  0.00    -0.550 OA
ATOM     24  O   UNL     1      60.293  22.031  49.277  1.00  0.00    -0.550 OA
ENDBRANCH  21  22
ENDBRANCH  20  21
ENDBRANCH  19  20
ENDBRANCH  18  19
ENDBRANCH  17  18
ENDBRANCH  16  17
ENDBRANCH  15  16
ENDBRANCH  14  15
ENDBRANCH  13  14
ENDBRANCH   1  13
TORSDOF 20
ENDMDL
MODEL 2
REMARK VINA RESULT:    -3.081      9.826     12.135
REMARK INTER + INTRA:         -10.525
REMARK INTER:                  -6.706
REMARK INTRA:                  -3.818
REMARK UNBOUND:                -3.842
REMARK SMILES CCCCCCCCCCCCCCCCCCCCCC(=O)[O-]
REMARK SMILES IDX 12 1 11 2 10 3 9 4 8 5 7 6 6 7 5 8 4 9 3 10 2 11 1 12 13 13
REMARK SMILES IDX 14 14 15 15 16 16 17 17 18 18 19 19 20 20 21 21 22 22 23 23
REMARK SMILES IDX 24 24
REMARK H PARENT
REMARK Flexibility Score: inf
ROOT
ATOM      1  C   UNL     1      60.697  34.261  58.678  1.00  0.00     0.000 C 
ENDROOT
BRANCH   1   2
ATOM      2  C   UNL     1      61.249  35.614  59.162  1.00  0.00     0.000 C 
BRANCH   2   3
ATOM      3  C   UNL     1      61.459  35.669  60.682  1.00  0.00     0.000 C 
BRANCH   3   4
ATOM      4  C   UNL     1      62.744  36.433  61.034  1.00  0.00    -0.000 C 
BRANCH   4   5
ATOM      5  C   UNL     1      63.860  35.511  61.554  1.00  0.00    -0.000 C 
BRANCH   5   6
ATOM      6  C   UNL     1      64.398  34.501  60.521  1.00  0.00    -0.000 C 
BRANCH   6   7
ATOM      7  C   UNL     1      64.108  33.028  60.881  1.00  0.00    -0.000 C 
BRANCH   7   8
ATOM      8  C   UNL     1      64.415  32.071  59.714  1.00  0.00    -0.000 C 
BRANCH   8   9
ATOM      9  C   UNL     1      64.107  32.687  58.337  1.00  0.00    -0.000 C 
BRANCH   9  10
ATOM     10  C   UNL     1      63.633  31.683  57.269  1.00  0.00    -0.000 C 
BRANCH  10  11
ATOM     11  C   UNL     1      63.314  30.297  57.848  1.00  0.00    -0.003 C 
ATOM     12  C   UNL     1      64.169  29.216  57.188  1.00  0.00     0.004 C 
ENDBRANCH  10  11
ENDBRANCH   9  10
ENDBRANCH   8   9
ENDBRANCH   7   8
ENDBRANCH   6   7
ENDBRANCH   5   6
ENDBRANCH   4   5
ENDBRANCH   3   4
ENDBRANCH   2   3
ENDBRANCH   1   2
BRANCH   1  13
ATOM     13  C   UNL     1      60.741  33.124  59.718  1.00  0.00     0.000 C 
BRANCH  13  14
ATOM     14  C   UNL     1      59.975  31.868  59.267  1.00  0.00     0.000 C 
BRANCH  14  15
ATOM     15  C   UNL     1      60.414  30.600  60.022  1.00  0.00     0.000 C 
BRANCH  15  16
ATOM     16  C   UNL     1      61.085  30.844  61.389  1.00  0.00     0.000 C 
BRANCH  16  17
ATOM     17  C   UNL     1      62.076  29.755  61.836  1.00  0.00     0.000 C 
BRANCH  17  18
ATOM     18  C   UNL     1      62.189  28.601  60.825  1.00  0.00     0.000 C 
BRANCH  18  19
ATOM     19  C   UNL     1      63.481  27.787  61.000  1.00  0.00     0.000 C 
BRANCH  19  20
ATOM     20  C   UNL     1      64.744  28.668  60.961  1.00  0.00     0.006 C 
BRANCH  20  21
ATOM     21  C   UNL     1      65.945  27.932  60.349  1.00  0.00     0.053 C 
BRANCH  21  22
ATOM     22  C   UNL     1      67.245  28.556  60.753  1.00  0.00     0.041 C 
ATOM     23  O   UNL     1      68.057  28.956  59.876  1.00  0.00    -0.550 OA
ATOM     24  O   UNL     1      67.573  28.672  62.100  1.00  0.00    -0.550 OA
ENDBRANCH  21  22
ENDBRANCH  20  21
ENDBRANCH  19  20
ENDBRANCH  18  19
ENDBRANCH  17  18
ENDBRANCH  16  17
ENDBRANCH  15  16
ENDBRANCH  14  15
ENDBRANCH  13  14
ENDBRANCH   1  13
TORSDOF 20
ENDMDL
MODEL 3
REMARK VINA RESULT:    -3.060      2.217      5.259
REMARK INTER + INTRA:         -10.481
REMARK INTER:                  -6.432
REMARK INTRA:                  -4.049
REMARK UNBOUND:                -3.842
REMARK SMILES CCCCCCCCCCCCCCCCCCCCCC(=O)[O-]
REMARK SMILES IDX 12 1 11 2 10 3 9 4 8 5 7 6 6 7 5 8 4 9 3 10 2 11 1 12 13 13
REMARK SMILES IDX 14 14 15 15 16 16 17 17 18 18 19 19 20 20 21 21 22 22 23 23
REMARK SMILES IDX 24 24
REMARK H PARENT
REMARK Flexibility Score: inf
ROOT
ATOM      1  C   UNL     1      54.171  28.610  50.394  1.00  0.00     0.000 C 
ENDROOT
BRANCH   1   2
ATOM      2  C   UNL     1      53.761  27.316  49.667  1.00  0.00     0.000 C 
BRANCH   2   3
ATOM      3  C   UNL     1      54.895  26.284  49.593  1.00  0.00     0.000 C 
BRANCH   3   4
ATOM      4  C   UNL     1      56.198  26.853  50.173  1.00  0.00    -0.000 C 
BRANCH   4   5
ATOM      5  C   UNL     1      57.342  25.824  50.185  1.00  0.00    -0.000 C 
BRANCH   5   6
ATOM      6  C   UNL     1      57.903  25.498  51.584  1.00  0.00    -0.000 C 
BRANCH   6   7
ATOM      7  C   UNL     1      57.652  26.606  52.629  1.00  0.00    -0.000 C 
BRANCH   7   8
ATOM      8  C   UNL     1      56.677  26.156  53.732  1.00  0.00    -0.000 C 
BRANCH   8   9
ATOM      9  C   UNL     1      55.433  27.058  53.837  1.00  0.00    -0.000 C 
BRANCH   9  10
ATOM     10  C   UNL     1      54.122  26.414  53.344  1.00  0.00    -0.000 C 
BRANCH  10  11
ATOM     11  C   UNL     1      54.263  24.913  53.057  1.00  0.00    -0.003 C 
ATOM     12  C   UNL     1      53.077  24.396  52.243  1.00  0.00     0.004 C 
ENDBRANCH  10  11
ENDBRANCH   9  10
ENDBRANCH   8   9
ENDBRANCH   7   8
ENDBRANCH   6   7
ENDBRANCH   5   6
ENDBRANCH   4   5
ENDBRANCH   3   4
ENDBRANCH   2   3
ENDBRANCH   1   2
BRANCH   1  13
ATOM     13  C   UNL     1      53.092  29.709  50.436  1.00  0.00     0.000 C 
BRANCH  13  14
ATOM     14  C   UNL     1      53.403  30.818  51.455  1.00  0.00     0.000 C 
BRANCH  14  15
ATOM     15  C   UNL     1      54.272  30.324  52.627  1.00  0.00     0.000 C 
BRANCH  15  16
ATOM     16  C   UNL     1      55.547  31.148  52.895  1.00  0.00     0.000 C 
BRANCH  16  17
ATOM     17  C   UNL     1      56.871  30.384  52.718  1.00  0.00     0.000 C 
BRANCH  17  18
ATOM     18  C   UNL     1      57.112  29.943  51.264  1.00  0.00     0.000 C 
BRANCH  18  19
ATOM     19  C   UNL     1      58.605  29.758  50.944  1.00  0.00     0.000 C 
BRANCH  19  20
ATOM     20  C   UNL     1      58.868  29.582  49.436  1.00  0.00     0.006 C 
BRANCH  20  21
ATOM     21  C   UNL     1      59.617  28.278  49.127  1.00  0.00     0.053 C 
BRANCH  21  22
ATOM     22  C   UNL     1      60.864  28.144  49.944  1.00  0.00     0.041 C 
ATOM     23  O   UNL     1      61.814  28.959  49.791  1.00  0.00    -0.550 OA
ATOM     24  O   UNL     1      60.989  27.102  50.858  1.00  0.00    -0.550 OA
ENDBRANCH  21  22
ENDBRANCH  20  21
ENDBRANCH  19  20
ENDBRANCH  18  19
ENDBRANCH  17  18
ENDBRANCH  16  17
ENDBRANCH  15  16
ENDBRANCH  14  15
ENDBRANCH  13  14
ENDBRANCH   1  13
TORSDOF 20
ENDMDL
MODEL 4
REMARK VINA RESULT:    -2.985     10.439     12.603
REMARK INTER + INTRA:         -10.317
REMARK INTER:                  -6.980
REMARK INTRA:                  -3.336
REMARK UNBOUND:                -3.842
REMARK SMILES CCCCCCCCCCCCCCCCCCCCCC(=O)[O-]
REMARK SMILES IDX 12 1 11 2 10 3 9 4 8 5 7 6 6 7 5 8 4 9 3 10 2 11 1 12 13 13
REMARK SMILES IDX 14 14 15 15 16 16 17 17 18 18 19 19 20 20 21 21 22 22 23 23
REMARK SMILES IDX 24 24
REMARK H PARENT
REMARK Flexibility Score: inf
ROOT
ATOM      1  C   UNL     1      63.918  30.224  57.682  1.00  0.00     0.000 C 
ENDROOT
BRANCH   1   2
ATOM      2  C   UNL     1      64.054  31.511  58.516  1.00  0.00     0.000 C 
BRANCH   2   3
ATOM      3  C   UNL     1      64.888  31.316  59.790  1.00  0.00     0.000 C 
BRANCH   3   4
ATOM      4  C   UNL     1      64.062  31.637  61.044  1.00  0.00    -0.000 C 
BRANCH   4   5
ATOM      5  C   UNL     1      63.336  30.404  61.610  1.00  0.00    -0.000 C 
BRANCH   5   6
ATOM      6  C   UNL     1      61.805  30.418  61.434  1.00  0.00    -0.000 C 
BRANCH   6   7
ATOM      7  C   UNL     1      61.195  31.835  61.399  1.00  0.00    -0.000 C 
BRANCH   7   8
ATOM      8  C   UNL     1      60.705  32.225  59.992  1.00  0.00    -0.000 C 
BRANCH   8   9
ATOM      9  C   UNL     1      61.091  33.663  59.600  1.00  0.00    -0.000 C 
BRANCH   9  10
ATOM     10  C   UNL     1      61.949  34.410  60.640  1.00  0.00    -0.000 C 
BRANCH  10  11
ATOM     11  C   UNL     1      61.573  35.893  60.772  1.00  0.00    -0.003 C 
ATOM     12  C   UNL     1      60.346  36.226  59.924  1.00  0.00     0.004 C 
ENDBRANCH  10  11
ENDBRANCH   9  10
ENDBRANCH   8   9
ENDBRANCH   7   8
ENDBRANCH   6   7
ENDBRANCH   5   6
ENDBRANCH   4   5
ENDBRANCH   3   4
ENDBRANCH   2   3
ENDBRANCH   1   2
BRANCH   1  13
ATOM     13  C   UNL     1      62.630  29.415  57.929  1.00  0.00     0.000 C 
BRANCH  13  14
ATOM     14  C   UNL     1      62.870  28.145  58.763  1.00  0.00     0.000 C 
BRANCH  14  15
ATOM     15  C   UNL     1      64.331  27.662  58.709  1.00  0.00     0.000 C 
BRANCH  15  16
ATOM     16  C   UNL     1      65.019  27.488  60.078  1.00  0.00     0.000 C 
BRANCH  16  17
ATOM     17  C   UNL     1      66.490  27.938  60.135  1.00  0.00     0.000 C 
BRANCH  17  18
ATOM     18  C   UNL     1      66.810  28.767  61.390  1.00  0.00     0.000 C 
BRANCH  18  19
ATOM     19  C   UNL     1      68.322  28.891  61.645  1.00  0.00     0.000 C 
BRANCH  19  20
ATOM     20  C   UNL     1      69.155  28.687  60.366  1.00  0.00     0.006 C 
BRANCH  20  21
ATOM     21  C   UNL     1      69.839  29.983  59.907  1.00  0.00     0.053 C 
BRANCH  21  22
ATOM     22  C   UNL     1      70.986  30.353  60.797  1.00  0.00     0.041 C 
ATOM     23  O   UNL     1      71.089  31.527  61.243  1.00  0.00    -0.550 OA
ATOM     24  O   UNL     1      71.955  29.407  61.113  1.00  0.00    -0.550 OA
ENDBRANCH  21  22
ENDBRANCH  20  21
ENDBRANCH  19  20
ENDBRANCH  18  19
ENDBRANCH  17  18
ENDBRANCH  16  17
ENDBRANCH  15  16
ENDBRANCH  14  15
ENDBRANCH  13  14
ENDBRANCH   1  13
TORSDOF 20
ENDMDL
MODEL 5
REMARK VINA RESULT:    -2.967     10.143     12.489
REMARK INTER + INTRA:         -10.279
REMARK INTER:                  -6.893
REMARK INTRA:                  -3.386
REMARK UNBOUND:                -3.842
REMARK SMILES CCCCCCCCCCCCCCCCCCCCCC(=O)[O-]
REMARK SMILES IDX 12 1 11 2 10 3 9 4 8 5 7 6 6 7 5 8 4 9 3 10 2 11 1 12 13 13
REMARK SMILES IDX 14 14 15 15 16 16 17 17 18 18 19 19 20 20 21 21 22 22 23 23
REMARK SMILES IDX 24 24
REMARK H PARENT
REMARK Flexibility Score: inf
ROOT
ATOM      1  C   UNL     1      61.342  32.303  60.653  1.00  0.00     0.000 C 
ENDROOT
BRANCH   1   2
ATOM      2  C   UNL     1      62.409  31.996  59.585  1.00  0.00     0.000 C 
BRANCH   2   3
ATOM      3  C   UNL     1      63.522  33.052  59.527  1.00  0.00     0.000 C 
BRANCH   3   4
ATOM      4  C   UNL     1      64.100  33.321  60.923  1.00  0.00    -0.000 C 
BRANCH   4   5
ATOM      5  C   UNL     1      64.407  34.810  61.162  1.00  0.00    -0.000 C 
BRANCH   5   6
ATOM      6  C   UNL     1      64.166  35.723  59.943  1.00  0.00    -0.000 C 
BRANCH   6   7
ATOM      7  C   UNL     1      63.023  36.741  60.144  1.00  0.00    -0.000 C 
BRANCH   7   8
ATOM      8  C   UNL     1      61.935  36.216  61.098  1.00  0.00    -0.000 C 
BRANCH   8   9
ATOM      9  C   UNL     1      60.537  36.187  60.454  1.00  0.00    -0.000 C 
BRANCH   9  10
ATOM     10  C   UNL     1      60.424  36.942  59.115  1.00  0.00    -0.000 C 
BRANCH  10  11
ATOM     11  C   UNL     1      59.850  36.074  57.985  1.00  0.00    -0.003 C 
ATOM     12  C   UNL     1      60.391  34.647  58.060  1.00  0.00     0.004 C 
ENDBRANCH  10  11
ENDBRANCH   9  10
ENDBRANCH   8   9
ENDBRANCH   7   8
ENDBRANCH   6   7
ENDBRANCH   5   6
ENDBRANCH   4   5
ENDBRANCH   3   4
ENDBRANCH   2   3
ENDBRANCH   1   2
BRANCH   1  13
ATOM     13  C   UNL     1      61.114  31.188  61.691  1.00  0.00     0.000 C 
BRANCH  13  14
ATOM     14  C   UNL     1      62.299  30.214  61.798  1.00  0.00     0.000 C 
BRANCH  14  15
ATOM     15  C   UNL     1      61.909  28.760  61.474  1.00  0.00     0.000 C 
BRANCH  15  16
ATOM     16  C   UNL     1      61.413  28.515  60.035  1.00  0.00     0.000 C 
BRANCH  16  17
ATOM     17  C   UNL     1      62.356  27.682  59.149  1.00  0.00     0.000 C 
BRANCH  17  18
ATOM     18  C   UNL     1      63.840  27.909  59.483  1.00  0.00     0.000 C 
BRANCH  18  19
ATOM     19  C   UNL     1      64.412  29.165  58.804  1.00  0.00     0.000 C 
BRANCH  19  20
ATOM     20  C   UNL     1      65.524  29.831  59.635  1.00  0.00     0.006 C 
BRANCH  20  21
ATOM     21  C   UNL     1      65.871  29.021  60.893  1.00  0.00     0.053 C 
BRANCH  21  22
ATOM     22  C   UNL     1      67.350  28.954  61.121  1.00  0.00     0.041 C 
ATOM     23  O   UNL     1      67.804  28.671  62.263  1.00  0.00    -0.550 OA
ATOM     24  O   UNL     1      68.228  29.229  60.078  1.00  0.00    -0.550 OA
ENDBRANCH  21  22
ENDBRANCH  20  21
ENDBRANCH  19  20
ENDBRANCH  18  19
ENDBRANCH  17  18
ENDBRANCH  16  17
ENDBRANCH  15  16
ENDBRANCH  14  15
ENDBRANCH  13  14
ENDBRANCH   1  13
TORSDOF 20
ENDMDL
MODEL 6
REMARK VINA RESULT:    -2.899      2.494      3.851
REMARK INTER + INTRA:         -10.131
REMARK INTER:                  -6.080
REMARK INTRA:                  -4.050
REMARK UNBOUND:                -3.842
REMARK SMILES CCCCCCCCCCCCCCCCCCCCCC(=O)[O-]
REMARK SMILES IDX 12 1 11 2 10 3 9 4 8 5 7 6 6 7 5 8 4 9 3 10 2 11 1 12 13 13
REMARK SMILES IDX 14 14 15 15 16 16 17 17 18 18 19 19 20 20 21 21 22 22 23 23
REMARK SMILES IDX 24 24
REMARK H PARENT
REMARK Flexibility Score: inf
ROOT
ATOM      1  C   UNL     1      57.535  29.446  51.980  1.00  0.00     0.000 C 
ENDROOT
BRANCH   1   2
ATOM      2  C   UNL     1      57.412  30.866  52.562  1.00  0.00     0.000 C 
BRANCH   2   3
ATOM      3  C   UNL     1      56.026  31.153  53.157  1.00  0.00     0.000 C 
BRANCH   3   4
ATOM      4  C   UNL     1      55.338  29.855  53.603  1.00  0.00    -0.000 C 
BRANCH   4   5
ATOM      5  C   UNL     1      53.937  29.685  52.990  1.00  0.00    -0.000 C 
BRANCH   5   6
ATOM      6  C   UNL     1      53.693  30.492  51.700  1.00  0.00    -0.000 C 
BRANCH   6   7
ATOM      7  C   UNL     1      53.778  29.646  50.411  1.00  0.00    -0.000 C 
BRANCH   7   8
ATOM      8  C   UNL     1      53.633  28.139  50.692  1.00  0.00    -0.000 C 
BRANCH   8   9
ATOM      9  C   UNL     1      54.414  27.266  49.693  1.00  0.00    -0.000 C 
BRANCH   9  10
ATOM     10  C   UNL     1      55.347  26.221  50.336  1.00  0.00    -0.000 C 
BRANCH  10  11
ATOM     11  C   UNL     1      55.235  26.179  51.867  1.00  0.00    -0.003 C 
ATOM     12  C   UNL     1      56.614  26.055  52.514  1.00  0.00     0.004 C 
ENDBRANCH  10  11
ENDBRANCH   9  10
ENDBRANCH   8   9
ENDBRANCH   7   8
ENDBRANCH   6   7
ENDBRANCH   5   6
ENDBRANCH   4   5
ENDBRANCH   3   4
ENDBRANCH   2   3
ENDBRANCH   1   2
BRANCH   1  13
ATOM     13  C   UNL     1      57.420  29.352  50.447  1.00  0.00     0.000 C 
BRANCH  13  14
ATOM     14  C   UNL     1      58.754  29.611  49.727  1.00  0.00     0.000 C 
BRANCH  14  15
ATOM     15  C   UNL     1      59.330  28.347  49.063  1.00  0.00     0.000 C 
BRANCH  15  16
ATOM     16  C   UNL     1      58.985  27.018  49.765  1.00  0.00     0.000 C 
BRANCH  16  17
ATOM     17  C   UNL     1      60.139  26.002  49.849  1.00  0.00     0.000 C 
BRANCH  17  18
ATOM     18  C   UNL     1      60.929  26.108  51.165  1.00  0.00     0.000 C 
BRANCH  18  19
ATOM     19  C   UNL     1      60.238  27.015  52.196  1.00  0.00     0.000 C 
BRANCH  19  20
ATOM     20  C   UNL     1      61.230  27.940  52.927  1.00  0.00     0.006 C 
BRANCH  20  21
ATOM     21  C   UNL     1      61.286  29.340  52.301  1.00  0.00     0.053 C 
BRANCH  21  22
ATOM     22  C   UNL     1      62.362  29.445  51.264  1.00  0.00     0.041 C 
ATOM     23  O   UNL     1      63.444  28.813  51.407  1.00  0.00    -0.550 OA
ATOM     24  O   UNL     1      62.181  30.261  50.153  1.00  0.00    -0.550 OA
ENDBRANCH  21  22
ENDBRANCH  20  21
ENDBRANCH  19  20
ENDBRANCH  18  19
ENDBRANCH  17  18
ENDBRANCH  16  17
ENDBRANCH  15  16
ENDBRANCH  14  15
ENDBRANCH  13  14
ENDBRANCH   1  13
TORSDOF 20
ENDMDL
MODEL 7
REMARK VINA RESULT:    -2.897      9.378     11.743
REMARK INTER + INTRA:         -10.127
REMARK INTER:                  -6.609
REMARK INTRA:                  -3.518
REMARK UNBOUND:                -3.842
REMARK SMILES CCCCCCCCCCCCCCCCCCCCCC(=O)[O-]
REMARK SMILES IDX 12 1 11 2 10 3 9 4 8 5 7 6 6 7 5 8 4 9 3 10 2 11 1 12 13 13
REMARK SMILES IDX 14 14 15 15 16 16 17 17 18 18 19 19 20 20 21 21 22 22 23 23
REMARK SMILES IDX 24 24
REMARK H PARENT
REMARK Flexibility Score: inf
ROOT
ATOM      1  C   UNL     1      64.050  30.647  58.601  1.00  0.00     0.000 C 
ENDROOT
BRANCH   1   2
ATOM      2  C   UNL     1      63.745  32.155  58.661  1.00  0.00     0.000 C 
BRANCH   2   3
ATOM      3  C   UNL     1      64.611  32.903  59.684  1.00  0.00     0.000 C 
BRANCH   3   4
ATOM      4  C   UNL     1      63.755  33.453  60.834  1.00  0.00    -0.000 C 
BRANCH   4   5
ATOM      5  C   UNL     1      64.133  34.894  61.219  1.00  0.00    -0.000 C 
BRANCH   5   6
ATOM      6  C   UNL     1      62.957  35.891  61.228  1.00  0.00    -0.000 C 
BRANCH   6   7
ATOM      7  C   UNL     1      61.638  35.302  60.682  1.00  0.00    -0.000 C 
BRANCH   7   8
ATOM      8  C   UNL     1      60.626  36.396  60.297  1.00  0.00    -0.000 C 
BRANCH   8   9
ATOM      9  C   UNL     1      59.708  35.981  59.132  1.00  0.00    -0.000 C 
BRANCH   9  10
ATOM     10  C   UNL     1      60.230  34.805  58.283  1.00  0.00    -0.000 C 
BRANCH  10  11
ATOM     11  C   UNL     1      59.130  33.799  57.913  1.00  0.00    -0.003 C 
ATOM     12  C   UNL     1      59.416  33.146  56.562  1.00  0.00     0.004 C 
ENDBRANCH  10  11
ENDBRANCH   9  10
ENDBRANCH   8   9
ENDBRANCH   7   8
ENDBRANCH   6   7
ENDBRANCH   5   6
ENDBRANCH   4   5
ENDBRANCH   3   4
ENDBRANCH   2   3
ENDBRANCH   1   2
BRANCH   1  13
ATOM     13  C   UNL     1      65.000  30.125  59.696  1.00  0.00     0.000 C 
BRANCH  13  14
ATOM     14  C   UNL     1      64.294  29.226  60.725  1.00  0.00     0.000 C 
BRANCH  14  15
ATOM     15  C   UNL     1      63.442  30.023  61.729  1.00  0.00     0.000 C 
BRANCH  15  16
ATOM     16  C   UNL     1      61.917  29.836  61.596  1.00  0.00     0.000 C 
BRANCH  16  17
ATOM     17  C   UNL     1      61.078  31.106  61.826  1.00  0.00     0.000 C 
BRANCH  17  18
ATOM     18  C   UNL     1      60.462  31.654  60.527  1.00  0.00     0.000 C 
BRANCH  18  19
ATOM     19  C   UNL     1      60.551  30.652  59.363  1.00  0.00     0.000 C 
BRANCH  19  20
ATOM     20  C   UNL     1      59.192  30.007  59.035  1.00  0.00     0.006 C 
BRANCH  20  21
ATOM     21  C   UNL     1      59.290  28.480  58.911  1.00  0.00     0.053 C 
BRANCH  21  22
ATOM     22  C   UNL     1      59.107  27.801  60.234  1.00  0.00     0.041 C 
ATOM     23  O   UNL     1      59.472  26.604  60.389  1.00  0.00    -0.550 OA
ATOM     24  O   UNL     1      58.509  28.483  61.289  1.00  0.00    -0.550 OA
ENDBRANCH  21  22
ENDBRANCH  20  21
ENDBRANCH  19  20
ENDBRANCH  18  19
ENDBRANCH  17  18
ENDBRANCH  16  17
ENDBRANCH  15  16
ENDBRANCH  14  15
ENDBRANCH  13  14
ENDBRANCH   1  13
TORSDOF 20
ENDMDL
MODEL 8
REMARK VINA RESULT:    -2.818      9.977     12.444
REMARK INTER + INTRA:          -9.954
REMARK INTER:                  -6.091
REMARK INTRA:                  -3.863
REMARK UNBOUND:                -3.842
REMARK SMILES CCCCCCCCCCCCCCCCCCCCCC(=O)[O-]
REMARK SMILES IDX 12 1 11 2 10 3 9 4 8 5 7 6 6 7 5 8 4 9 3 10 2 11 1 12 13 13
REMARK SMILES IDX 14 14 15 15 16 16 17 17 18 18 19 19 20 20 21 21 22 22 23 23
REMARK SMILES IDX 24 24
REMARK H PARENT
REMARK Flexibility Score: inf
ROOT
ATOM      1  C   UNL     1      60.540  30.891  58.847  1.00  0.00     0.000 C 
ENDROOT
BRANCH   1   2
ATOM      2  C   UNL     1      60.394  29.801  59.924  1.00  0.00     0.000 C 
BRANCH   2   3
ATOM      3  C   UNL     1      60.439  30.358  61.354  1.00  0.00     0.000 C 
BRANCH   3   4
ATOM      4  C   UNL     1      61.690  31.221  61.570  1.00  0.00    -0.000 C 
BRANCH   4   5
ATOM      5  C   UNL     1      62.970  30.383  61.731  1.00  0.00    -0.000 C 
BRANCH   5   6
ATOM      6  C   UNL     1      64.051  30.642  60.663  1.00  0.00    -0.000 C 
BRANCH   6   7
ATOM      7  C   UNL     1      64.357  29.414  59.778  1.00  0.00    -0.000 C 
BRANCH   7   8
ATOM      8  C   UNL     1      64.431  28.111  60.593  1.00  0.00    -0.000 C 
BRANCH   8   9
ATOM      9  C   UNL     1      63.878  26.894  59.828  1.00  0.00    -0.000 C 
BRANCH   9  10
ATOM     10  C   UNL     1      62.493  26.406  60.300  1.00  0.00    -0.000 C 
BRANCH  10  11
ATOM     11  C   UNL     1      62.123  26.917  61.699  1.00  0.00    -0.003 C 
ATOM     12  C   UNL     1      60.742  26.414  62.119  1.00  0.00     0.004 C 
ENDBRANCH  10  11
ENDBRANCH   9  10
ENDBRANCH   8   9
ENDBRANCH   7   8
ENDBRANCH   6   7
ENDBRANCH   5   6
ENDBRANCH   4   5
ENDBRANCH   3   4
ENDBRANCH   2   3
ENDBRANCH   1   2
BRANCH   1  13
ATOM     13  C   UNL     1      61.429  30.513  57.646  1.00  0.00     0.000 C 
BRANCH  13  14
ATOM     14  C   UNL     1      62.469  31.593  57.305  1.00  0.00     0.000 C 
BRANCH  14  15
ATOM     15  C   UNL     1      62.428  32.789  58.273  1.00  0.00     0.000 C 
BRANCH  15  16
ATOM     16  C   UNL     1      63.615  33.767  58.166  1.00  0.00     0.000 C 
BRANCH  16  17
ATOM     17  C   UNL     1      64.317  34.096  59.496  1.00  0.00     0.000 C 
BRANCH  17  18
ATOM     18  C   UNL     1      63.326  34.319  60.651  1.00  0.00     0.000 C 
BRANCH  18  19
ATOM     19  C   UNL     1      63.341  35.768  61.168  1.00  0.00     0.000 C 
BRANCH  19  20
ATOM     20  C   UNL     1      61.953  36.432  61.103  1.00  0.00     0.006 C 
BRANCH  20  21
ATOM     21  C   UNL     1      60.900  35.512  60.467  1.00  0.00     0.053 C 
BRANCH  21  22
ATOM     22  C   UNL     1      60.337  36.097  59.208  1.00  0.00     0.041 C 
ATOM     23  O   UNL     1      59.109  36.369  59.129  1.00  0.00    -0.550 OA
ATOM     24  O   UNL     1      61.165  36.316  58.112  1.00  0.00    -0.550 OA
ENDBRANCH  21  22
ENDBRANCH  20  21
ENDBRANCH  19  20
ENDBRANCH  18  19
ENDBRANCH  17  18
ENDBRANCH  16  17
ENDBRANCH  15  16
ENDBRANCH  14  15
ENDBRANCH  13  14
ENDBRANCH   1  13
TORSDOF 20
ENDMDL
MODEL 9
REMARK VINA RESULT:    -2.817      9.359     11.682
REMARK INTER + INTRA:          -9.952
REMARK INTER:                  -6.130
REMARK INTRA:                  -3.822
REMARK UNBOUND:                -3.842
REMARK SMILES CCCCCCCCCCCCCCCCCCCCCC(=O)[O-]
REMARK SMILES IDX 12 1 11 2 10 3 9 4 8 5 7 6 6 7 5 8 4 9 3 10 2 11 1 12 13 13
REMARK SMILES IDX 14 14 15 15 16 16 17 17 18 18 19 19 20 20 21 21 22 22 23 23
REMARK SMILES IDX 24 24
REMARK H PARENT
REMARK Flexibility Score: inf
ROOT
ATOM      1  C   UNL     1      64.146  33.302  60.514  1.00  0.00     0.000 C 
ENDROOT
BRANCH   1   2
ATOM      2  C   UNL     1      63.895  34.583  61.331  1.00  0.00     0.000 C 
BRANCH   2   3
ATOM      3  C   UNL     1      63.524  35.790  60.459  1.00  0.00     0.000 C 
BRANCH   3   4
ATOM      4  C   UNL     1      62.217  36.437  60.940  1.00  0.00    -0.000 C 
BRANCH   4   5
ATOM      5  C   UNL     1      60.971  35.630  60.537  1.00  0.00    -0.000 C 
BRANCH   5   6
ATOM      6  C   UNL     1      60.014  36.358  59.572  1.00  0.00    -0.000 C 
BRANCH   6   7
ATOM      7  C   UNL     1      59.721  35.573  58.276  1.00  0.00    -0.000 C 
BRANCH   7   8
ATOM      8  C   UNL     1      59.947  34.059  58.446  1.00  0.00    -0.000 C 
BRANCH   8   9
ATOM      9  C   UNL     1      60.672  33.423  57.246  1.00  0.00    -0.000 C 
BRANCH   9  10
ATOM     10  C   UNL     1      62.172  33.146  57.467  1.00  0.00    -0.000 C 
BRANCH  10  11
ATOM     11  C   UNL     1      63.061  34.344  57.108  1.00  0.00    -0.003 C 
ATOM     12  C   UNL     1      64.336  33.889  56.398  1.00  0.00     0.004 C 
ENDBRANCH  10  11
ENDBRANCH   9  10
ENDBRANCH   8   9
ENDBRANCH   7   8
ENDBRANCH   6   7
ENDBRANCH   5   6
ENDBRANCH   4   5
ENDBRANCH   3   4
ENDBRANCH   2   3
ENDBRANCH   1   2
BRANCH   1  13
ATOM     13  C   UNL     1      63.385  32.054  60.999  1.00  0.00     0.000 C 
BRANCH  13  14
ATOM     14  C   UNL     1      61.858  32.238  60.985  1.00  0.00     0.000 C 
BRANCH  14  15
ATOM     15  C   UNL     1      61.118  31.146  61.779  1.00  0.00     0.000 C 
BRANCH  15  16
ATOM     16  C   UNL     1      60.201  30.230  60.943  1.00  0.00     0.000 C 
BRANCH  16  17
ATOM     17  C   UNL     1      60.344  30.375  59.417  1.00  0.00     0.000 C 
BRANCH  17  18
ATOM     18  C   UNL     1      61.053  29.172  58.770  1.00  0.00     0.000 C 
BRANCH  18  19
ATOM     19  C   UNL     1      62.531  29.458  58.457  1.00  0.00     0.000 C 
BRANCH  19  20
ATOM     20  C   UNL     1      63.478  28.413  59.074  1.00  0.00     0.006 C 
BRANCH  20  21
ATOM     21  C   UNL     1      63.476  28.464  60.609  1.00  0.00     0.053 C 
BRANCH  21  22
ATOM     22  C   UNL     1      62.885  27.224  61.206  1.00  0.00     0.041 C 
ATOM     23  O   UNL     1      61.865  27.298  61.944  1.00  0.00    -0.550 OA
ATOM     24  O   UNL     1      63.477  25.987  60.970  1.00  0.00    -0.550 OA
ENDBRANCH  21  22
ENDBRANCH  20  21
ENDBRANCH  19  20
ENDBRANCH  18  19
ENDBRANCH  17  18
ENDBRANCH  16  17
ENDBRANCH  15  16
ENDBRANCH  14  15
ENDBRANCH  13  14
ENDBRANCH   1  13
TORSDOF 20
ENDMDL
