MODEL 1
REMARK VINA RESULT:    -3.510      0.000      0.000
REMARK INTER + INTRA:          -3.612
REMARK INTER:                  -3.612
REMARK INTRA:                   0.000
REMARK UNBOUND:                 0.000
REMARK SMILES CC1(C)[C@@H]2CC[C@@](C)(C2)[C@@H]1O
REMARK SMILES IDX 1 1 2 2 4 3 5 4 6 5 7 6 9 7 10 8 8 9 3 10 11 11
REMARK H PARENT 11 12
REMARK Flexibility Score: inf
ROOT
ATOM      1  C   UNL     1     139.693 146.110 145.463  1.00  0.00     0.014 C 
ATOM      2  C   UNL     1     138.463 146.412 144.573  1.00  0.00    -0.006 C 
ATOM      3  C   UNL     1     137.152 146.365 145.432  1.00  0.00    -0.002 C 
ATOM      4  C   UNL     1     135.894 146.399 144.538  1.00  0.00     0.005 C 
ATOM      5  C   UNL     1     135.930 147.820 143.952  1.00  0.00     0.010 C 
ATOM      6  C   UNL     1     137.144 148.455 144.673  1.00  0.00    -0.006 C 
ATOM      7  C   UNL     1     137.091 147.766 146.019  1.00  0.00     0.013 C 
ATOM      8  C   UNL     1     138.471 147.900 144.089  1.00  0.00     0.126 C 
ATOM      9  C   UNL     1     137.084 149.983 144.758  1.00  0.00     0.014 C 
ATOM     10  C   UNL     1     138.472 145.383 143.412  1.00  0.00     0.014 C 
ENDROOT
BRANCH   8  11
ATOM     11  O   UNL     1     138.522 148.020 142.689  1.00  0.00    -0.392 OA
ATOM     12  H   UNL     1     138.934 148.901 142.492  1.00  0.00     0.211 HD
ENDBRANCH   8  11
TORSDOF 1
ENDMDL
MODEL 2
REMARK VINA RESULT:    -3.463     13.404     15.475
REMARK INTER + INTRA:          -3.564
REMARK INTER:                  -3.564
REMARK INTRA:                   0.000
REMARK UNBOUND:                 0.000
REMARK SMILES CC1(C)[C@@H]2CC[C@@](C)(C2)[C@@H]1O
REMARK SMILES IDX 1 1 2 2 4 3 5 4 6 5 7 6 9 7 10 8 8 9 3 10 11 11
REMARK H PARENT 11 12
REMARK Flexibility Score: inf
ROOT
ATOM      1  C   UNL     1     141.925 134.516 145.621  1.00  0.00     0.014 C 
ATOM      2  C   UNL     1     143.161 134.459 144.690  1.00  0.00    -0.006 C 
ATOM      3  C   UNL     1     144.470 134.700 145.518  1.00  0.00    -0.002 C 
ATOM      4  C   UNL     1     145.688 134.911 144.593  1.00  0.00     0.005 C 
ATOM      5  C   UNL     1     145.875 133.525 143.954  1.00  0.00     0.010 C 
ATOM      6  C   UNL     1     144.810 132.669 144.679  1.00  0.00    -0.006 C 
ATOM      7  C   UNL     1     144.785 133.311 146.049  1.00  0.00     0.013 C 
ATOM      8  C   UNL     1     143.390 133.008 144.150  1.00  0.00     0.126 C 
ATOM      9  C   UNL     1     145.130 131.171 144.704  1.00  0.00     0.014 C 
ATOM     10  C   UNL     1     142.942 135.510 143.570  1.00  0.00     0.014 C 
ENDROOT
BRANCH   8  11
ATOM     11  O   UNL     1     143.318 132.928 142.748  1.00  0.00    -0.392 OA
ATOM     12  H   UNL     1     144.099 132.394 142.451  1.00  0.00     0.211 HD
ENDBRANCH   8  11
TORSDOF 1
ENDMDL
MODEL 3
REMARK VINA RESULT:    -3.461      9.688     11.080
REMARK INTER + INTRA:          -3.562
REMARK INTER:                  -3.562
REMARK INTRA:                   0.000
REMARK UNBOUND:                 0.000
REMARK SMILES CC1(C)[C@@H]2CC[C@@](C)(C2)[C@@H]1O
REMARK SMILES IDX 1 1 2 2 4 3 5 4 6 5 7 6 9 7 10 8 8 9 3 10 11 11
REMARK H PARENT 11 12
REMARK Flexibility Score: inf
ROOT
ATOM      1  C   UNL     1     134.298 139.583 145.692  1.00  0.00     0.014 C 
ATOM      2  C   UNL     1     134.314 138.356 144.747  1.00  0.00    -0.006 C 
ATOM      3  C   UNL     1     134.600 137.050 145.566  1.00  0.00    -0.002 C 
ATOM      4  C   UNL     1     134.882 135.854 144.632  1.00  0.00     0.005 C 
ATOM      5  C   UNL     1     133.518 135.611 143.966  1.00  0.00     0.010 C 
ATOM      6  C   UNL     1     132.601 136.628 144.688  1.00  0.00    -0.006 C 
ATOM      7  C   UNL     1     133.219 136.666 146.069  1.00  0.00     0.013 C 
ATOM      8  C   UNL     1     132.884 138.067 144.179  1.00  0.00     0.126 C 
ATOM      9  C   UNL     1     131.119 136.239 144.683  1.00  0.00     0.014 C 
ATOM     10  C   UNL     1     135.372 138.635 143.649  1.00  0.00     0.014 C 
ENDROOT
BRANCH   8  11
ATOM     11  O   UNL     1     132.825 138.152 142.777  1.00  0.00    -0.392 OA
ATOM     12  H   UNL     1     132.297 137.373 142.465  1.00  0.00     0.211 HD
ENDBRANCH   8  11
TORSDOF 1
ENDMDL
MODEL 4
REMARK VINA RESULT:    -3.433      1.503      3.400
REMARK INTER + INTRA:          -3.534
REMARK INTER:                  -3.534
REMARK INTRA:                   0.000
REMARK UNBOUND:                 0.000
REMARK SMILES CC1(C)[C@@H]2CC[C@@](C)(C2)[C@@H]1O
REMARK SMILES IDX 1 1 2 2 4 3 5 4 6 5 7 6 9 7 10 8 8 9 3 10 11 11
REMARK H PARENT 11 12
REMARK Flexibility Score: inf
ROOT
ATOM      1  C   UNL     1     135.559 147.786 146.696  1.00  0.00     0.014 C 
ATOM      2  C   UNL     1     136.161 148.233 145.341  1.00  0.00    -0.006 C 
ATOM      3  C   UNL     1     137.668 148.626 145.525  1.00  0.00    -0.002 C 
ATOM      4  C   UNL     1     138.224 149.321 144.265  1.00  0.00     0.005 C 
ATOM      5  C   UNL     1     138.237 148.187 143.227  1.00  0.00     0.010 C 
ATOM      6  C   UNL     1     137.791 146.960 144.058  1.00  0.00    -0.006 C 
ATOM      7  C   UNL     1     138.375 147.286 145.416  1.00  0.00     0.013 C 
ATOM      8  C   UNL     1     136.268 147.028 144.348  1.00  0.00     0.126 C 
ATOM      9  C   UNL     1     138.264 145.619 143.488  1.00  0.00     0.014 C 
ATOM     10  C   UNL     1     135.285 149.397 144.810  1.00  0.00     0.014 C 
ENDROOT
BRANCH   8  11
ATOM     11  O   UNL     1     135.516 147.216 143.175  1.00  0.00    -0.392 OA
ATOM     12  H   UNL     1     134.617 147.525 143.459  1.00  0.00     0.211 HD
ENDBRANCH   8  11
TORSDOF 1
ENDMDL
MODEL 5
REMARK VINA RESULT:    -3.430      9.912     11.156
REMARK INTER + INTRA:          -3.530
REMARK INTER:                  -3.530
REMARK INTRA:                   0.000
REMARK UNBOUND:                 0.000
REMARK SMILES CC1(C)[C@@H]2CC[C@@](C)(C2)[C@@H]1O
REMARK SMILES IDX 1 1 2 2 4 3 5 4 6 5 7 6 9 7 10 8 8 9 3 10 11 11
REMARK H PARENT 11 12
REMARK Flexibility Score: inf
ROOT
ATOM      1  C   UNL     1     133.832 135.613 146.747  1.00  0.00     0.014 C 
ATOM      2  C   UNL     1     133.388 136.192 145.381  1.00  0.00    -0.006 C 
ATOM      3  C   UNL     1     132.988 137.700 145.541  1.00  0.00    -0.002 C 
ATOM      4  C   UNL     1     132.295 138.234 144.269  1.00  0.00     0.005 C 
ATOM      5  C   UNL     1     133.433 138.235 143.235  1.00  0.00     0.010 C 
ATOM      6  C   UNL     1     134.659 137.807 144.078  1.00  0.00    -0.006 C 
ATOM      7  C   UNL     1     134.326 138.411 145.425  1.00  0.00     0.013 C 
ATOM      8  C   UNL     1     134.596 136.288 144.391  1.00  0.00     0.126 C 
ATOM      9  C   UNL     1     136.000 138.276 143.504  1.00  0.00     0.014 C 
ATOM     10  C   UNL     1     132.228 135.303 144.860  1.00  0.00     0.014 C 
ENDROOT
BRANCH   8  11
ATOM     11  O   UNL     1     134.414 135.517 143.230  1.00  0.00    -0.392 OA
ATOM     12  H   UNL     1     135.231 134.965 143.123  1.00  0.00     0.211 HD
ENDBRANCH   8  11
TORSDOF 1
ENDMDL
MODEL 6
REMARK VINA RESULT:    -3.425      9.202     10.865
REMARK INTER + INTRA:          -3.525
REMARK INTER:                  -3.525
REMARK INTRA:                   0.000
REMARK UNBOUND:                 0.000
REMARK SMILES CC1(C)[C@@H]2CC[C@@](C)(C2)[C@@H]1O
REMARK SMILES IDX 1 1 2 2 4 3 5 4 6 5 7 6 9 7 10 8 8 9 3 10 11 11
REMARK H PARENT 11 12
REMARK Flexibility Score: inf
ROOT
ATOM      1  C   UNL     1     147.746 146.040 146.749  1.00  0.00     0.014 C 
ATOM      2  C   UNL     1     148.195 145.438 145.395  1.00  0.00    -0.006 C 
ATOM      3  C   UNL     1     148.597 143.934 145.582  1.00  0.00    -0.002 C 
ATOM      4  C   UNL     1     149.294 143.379 144.322  1.00  0.00     0.005 C 
ATOM      5  C   UNL     1     148.159 143.357 143.286  1.00  0.00     0.010 C 
ATOM      6  C   UNL     1     146.930 143.797 144.118  1.00  0.00    -0.006 C 
ATOM      7  C   UNL     1     147.261 143.218 145.476  1.00  0.00     0.013 C 
ATOM      8  C   UNL     1     146.989 145.322 144.405  1.00  0.00     0.126 C 
ATOM      9  C   UNL     1     145.591 143.315 143.549  1.00  0.00     0.014 C 
ATOM     10  C   UNL     1     149.353 146.320 144.861  1.00  0.00     0.014 C 
ENDROOT
BRANCH   8  11
ATOM     11  O   UNL     1     147.171 146.073 143.230  1.00  0.00    -0.392 OA
ATOM     12  H   UNL     1     146.509 146.811 143.257  1.00  0.00     0.211 HD
ENDBRANCH   8  11
TORSDOF 1
ENDMDL
MODEL 7
REMARK VINA RESULT:    -3.424      1.252      2.647
REMARK INTER + INTRA:          -3.524
REMARK INTER:                  -3.524
REMARK INTRA:                   0.000
REMARK UNBOUND:                 0.000
REMARK SMILES CC1(C)[C@@H]2CC[C@@](C)(C2)[C@@H]1O
REMARK SMILES IDX 1 1 2 2 4 3 5 4 6 5 7 6 9 7 10 8 8 9 3 10 11 11
REMARK H PARENT 11 12
REMARK Flexibility Score: inf
ROOT
ATOM      1  C   UNL     1     136.481 145.416 143.640  1.00  0.00     0.014 C 
ATOM      2  C   UNL     1     136.841 146.820 144.183  1.00  0.00    -0.006 C 
ATOM      3  C   UNL     1     136.940 146.783 145.747  1.00  0.00    -0.002 C 
ATOM      4  C   UNL     1     137.036 148.207 146.337  1.00  0.00     0.005 C 
ATOM      5  C   UNL     1     138.421 148.679 145.865  1.00  0.00     0.010 C 
ATOM      6  C   UNL     1     138.987 147.423 145.160  1.00  0.00    -0.006 C 
ATOM      7  C   UNL     1     138.366 146.311 145.977  1.00  0.00     0.013 C 
ATOM      8  C   UNL     1     138.300 147.220 143.782  1.00  0.00     0.126 C 
ATOM      9  C   UNL     1     140.518 147.375 145.112  1.00  0.00     0.014 C 
ATOM     10  C   UNL     1     135.763 147.806 143.661  1.00  0.00     0.014 C 
ENDROOT
BRANCH   8  11
ATOM     11  O   UNL     1     138.352 148.381 142.991  1.00  0.00    -0.392 OA
ATOM     12  H   UNL     1     137.993 148.136 142.100  1.00  0.00     0.211 HD
ENDBRANCH   8  11
TORSDOF 1
ENDMDL
MODEL 8
REMARK VINA RESULT:    -3.416      9.018     10.160
REMARK INTER + INTRA:          -3.515
REMARK INTER:                  -3.515
REMARK INTRA:                   0.000
REMARK UNBOUND:                 0.000
REMARK SMILES CC1(C)[C@@H]2CC[C@@](C)(C2)[C@@H]1O
REMARK SMILES IDX 1 1 2 2 4 3 5 4 6 5 7 6 9 7 10 8 8 9 3 10 11 11
REMARK H PARENT 11 12
REMARK Flexibility Score: inf
ROOT
ATOM      1  C   UNL     1     136.210 136.502 143.639  1.00  0.00     0.014 C 
ATOM      2  C   UNL     1     134.797 136.858 144.165  1.00  0.00    -0.006 C 
ATOM      3  C   UNL     1     134.816 136.957 145.730  1.00  0.00    -0.002 C 
ATOM      4  C   UNL     1     133.385 137.047 146.302  1.00  0.00     0.005 C 
ATOM      5  C   UNL     1     132.913 138.431 145.825  1.00  0.00     0.010 C 
ATOM      6  C   UNL     1     134.175 139.001 145.135  1.00  0.00    -0.006 C 
ATOM      7  C   UNL     1     135.280 138.384 145.965  1.00  0.00     0.013 C 
ATOM      8  C   UNL     1     134.397 138.315 143.760  1.00  0.00     0.126 C 
ATOM      9  C   UNL     1     134.218 140.532 145.088  1.00  0.00     0.014 C 
ATOM     10  C   UNL     1     133.822 135.776 143.631  1.00  0.00     0.014 C 
ENDROOT
BRANCH   8  11
ATOM     11  O   UNL     1     133.245 138.363 142.955  1.00  0.00    -0.392 OA
ATOM     12  H   UNL     1     133.324 137.623 142.300  1.00  0.00     0.211 HD
ENDBRANCH   8  11
TORSDOF 1
ENDMDL
MODEL 9
REMARK VINA RESULT:    -3.414     13.398     15.176
REMARK INTER + INTRA:          -3.514
REMARK INTER:                  -3.514
REMARK INTRA:                   0.000
REMARK UNBOUND:                 0.000
REMARK SMILES CC1(C)[C@@H]2CC[C@@](C)(C2)[C@@H]1O
REMARK SMILES IDX 1 1 2 2 4 3 5 4 6 5 7 6 9 7 10 8 8 9 3 10 11 11
REMARK H PARENT 11 12
REMARK Flexibility Score: inf
ROOT
ATOM      1  C   UNL     1     145.951 133.807 146.736  1.00  0.00     0.014 C 
ATOM      2  C   UNL     1     145.367 133.386 145.365  1.00  0.00    -0.006 C 
ATOM      3  C   UNL     1     143.857 132.993 145.521  1.00  0.00    -0.002 C 
ATOM      4  C   UNL     1     143.316 132.323 144.240  1.00  0.00     0.005 C 
ATOM      5  C   UNL     1     143.320 133.476 143.224  1.00  0.00     0.010 C 
ATOM      6  C   UNL     1     143.757 134.686 144.084  1.00  0.00    -0.006 C 
ATOM      7  C   UNL     1     143.154 134.337 145.427  1.00  0.00     0.013 C 
ATOM      8  C   UNL     1     145.276 134.610 144.394  1.00  0.00     0.126 C 
ATOM      9  C   UNL     1     143.295 136.039 143.532  1.00  0.00     0.014 C 
ATOM     10  C   UNL     1     146.248 132.230 144.824  1.00  0.00     0.014 C 
ENDROOT
BRANCH   8  11
ATOM     11  O   UNL     1     146.044 134.442 143.228  1.00  0.00    -0.392 OA
ATOM     12  H   UNL     1     146.885 133.994 143.502  1.00  0.00     0.211 HD
ENDBRANCH   8  11
TORSDOF 1
ENDMDL
