MODEL 1
REMARK VINA RESULT:    -5.468      0.000      0.000
REMARK INTER + INTRA:          -8.234
REMARK INTER:                  -8.345
REMARK INTRA:                   0.111
REMARK UNBOUND:                 0.111
REMARK SMILES CC1=CCC[C@H](C)C(=O)C[C@H](C(C)C)C(=O)C1
REMARK SMILES IDX 8 1 9 2 6 3 7 4 5 5 4 6 3 7 2 8 1 9 10 11 11 12 15 13 16 14
REMARK SMILES IDX 17 15 12 17 13 18 14 19
REMARK H PARENT
REMARK Flexibility Score: 70.00
ROOT
ATOM      1  C   UNL     1      27.584  13.352  82.897  1.00  0.00     0.136 C 
ATOM      2  O   UNL     1      27.808  14.134  83.810  1.00  0.00    -0.299 OA
ENDROOT
BRANCH   1   3
ATOM      3  C   UNL     1      28.302  12.005  82.918  1.00  0.00     0.053 C 
ATOM      4  C   UNL     1      28.464  11.374  84.311  1.00  0.00     0.016 C 
BRANCH   3   5
ATOM      5  C   UNL     1      27.696  10.995  81.908  1.00  0.00     0.015 C 
BRANCH   5   6
ATOM      6  C   UNL     1      28.665  10.489  80.821  1.00  0.00     0.028 C 
BRANCH   6   7
ATOM      7  C   UNL     1      29.536  11.607  80.296  1.00  0.00    -0.028 C 
ATOM      8  C   UNL     1      29.106  12.661  79.567  1.00  0.00    -0.070 CG0
ATOM      9  C   UNL     1      30.129  13.679  79.125  1.00  0.00     0.039 C 
ATOM     10  G   UNL     1      27.655  12.860  79.172  1.00  0.00     0.000 G0
ENDBRANCH   6   7
ENDBRANCH   5   6
ENDBRANCH   3   5
ENDBRANCH   1   3
BRANCH   1  11
ATOM     11  C   UNL     1      26.553  13.760  81.860  1.00  0.00     0.087 C 
BRANCH  11  12
ATOM     12  C   UNL     1      27.109  14.810  80.867  1.00  0.00     0.066 C 
BRANCH  12  13
ATOM     13  C   UNL     1      27.136  14.250  79.453  1.00  0.00     0.140 C 
ATOM     14  O   UNL     1      26.782  14.951  78.517  1.00  0.00    -0.299 OA
BRANCH  13  15
ATOM     15  C   UNL     1      27.655  12.864  79.159  1.00  0.00     0.106 CG0
ATOM     16  G   UNL     1      29.101  12.677  79.579  1.00  0.00     0.000 G0
ENDBRANCH  13  15
ENDBRANCH  12  13
BRANCH  12  17
ATOM     17  C   UNL     1      26.352  16.177  80.908  1.00  0.00    -0.006 C 
ATOM     18  C   UNL     1      24.861  16.059  81.273  1.00  0.00     0.008 C 
ATOM     19  C   UNL     1      27.042  17.177  81.849  1.00  0.00     0.008 C 
ENDBRANCH  12  17
ENDBRANCH  11  12
ENDBRANCH   1  11
TORSDOF 1
ENDMDL
MODEL 2
REMARK VINA RESULT:    -5.465      1.725      3.947
REMARK INTER + INTRA:          -8.230
REMARK INTER:                  -8.019
REMARK INTRA:                  -0.211
REMARK UNBOUND:                 0.111
REMARK SMILES CC1=CCC[C@H](C)C(=O)C[C@H](C(C)C)C(=O)C1
REMARK SMILES IDX 8 1 9 2 6 3 7 4 5 5 4 6 3 7 2 8 1 9 10 11 11 12 15 13 16 14
REMARK SMILES IDX 17 15 12 17 13 18 14 19
REMARK H PARENT
REMARK Flexibility Score: 70.00
ROOT
ATOM      1  C   UNL     1      27.435  15.868  81.396  1.00  0.00     0.136 C 
ATOM      2  O   UNL     1      27.431  17.091  81.379  1.00  0.00    -0.299 OA
ENDROOT
BRANCH   1   3
ATOM      3  C   UNL     1      26.213  15.143  80.839  1.00  0.00     0.053 C 
ATOM      4  C   UNL     1      24.898  15.408  81.591  1.00  0.00     0.016 C 
BRANCH   3   5
ATOM      5  C   UNL     1      26.043  15.356  79.312  1.00  0.00     0.015 C 
BRANCH   5   6
ATOM      6  C   UNL     1      27.217  14.864  78.442  1.00  0.00     0.028 C 
BRANCH   6   7
ATOM      7  C   UNL     1      27.284  13.354  78.413  1.00  0.00    -0.028 C 
ATOM      8  C   UNL     1      28.359  12.608  78.753  1.00  0.00    -0.070 CG0
ATOM      9  C   UNL     1      28.239  11.108  78.654  1.00  0.00     0.039 C 
ATOM     10  G   UNL     1      29.670  13.211  79.221  1.00  0.00     0.000 G0
ENDBRANCH   6   7
ENDBRANCH   5   6
ENDBRANCH   3   5
ENDBRANCH   1   3
BRANCH   1  11
ATOM     11  C   UNL     1      28.689  15.176  81.901  1.00  0.00     0.087 C 
BRANCH  11  12
ATOM     12  C   UNL     1      28.667  13.653  81.619  1.00  0.00     0.066 C 
BRANCH  12  13
ATOM     13  C   UNL     1      29.825  13.259  80.716  1.00  0.00     0.140 C 
ATOM     14  O   UNL     1      30.887  12.909  81.209  1.00  0.00    -0.299 OA
BRANCH  13  15
ATOM     15  C   UNL     1      29.681  13.218  79.214  1.00  0.00     0.106 CG0
ATOM     16  G   UNL     1      28.372  12.598  78.765  1.00  0.00     0.000 G0
ENDBRANCH  13  15
ENDBRANCH  12  13
BRANCH  12  17
ATOM     17  C   UNL     1      28.648  12.775  82.912  1.00  0.00    -0.006 C 
ATOM     18  C   UNL     1      27.881  13.406  84.088  1.00  0.00     0.008 C 
ATOM     19  C   UNL     1      28.102  11.366  82.629  1.00  0.00     0.008 C 
ENDBRANCH  12  17
ENDBRANCH  11  12
ENDBRANCH   1  11
TORSDOF 1
ENDMDL
MODEL 3
REMARK VINA RESULT:    -5.452      1.645      4.076
REMARK INTER + INTRA:          -8.210
REMARK INTER:                  -7.996
REMARK INTRA:                  -0.214
REMARK UNBOUND:                 0.111
REMARK SMILES CC1=CCC[C@H](C)C(=O)C[C@H](C(C)C)C(=O)C1
REMARK SMILES IDX 8 1 9 2 6 3 7 4 5 5 4 6 3 7 2 8 1 9 10 11 11 12 15 13 16 14
REMARK SMILES IDX 17 15 12 17 13 18 14 19
REMARK H PARENT
REMARK Flexibility Score: 70.00
ROOT
ATOM      1  C   UNL     1      26.982  15.026  82.994  1.00  0.00     0.136 C 
ATOM      2  O   UNL     1      26.220  14.716  83.899  1.00  0.00    -0.299 OA
ENDROOT
BRANCH   1   3
ATOM      3  C   UNL     1      26.545  16.135  82.041  1.00  0.00     0.053 C 
ATOM      4  C   UNL     1      27.673  17.064  81.559  1.00  0.00     0.016 C 
BRANCH   3   5
ATOM      5  C   UNL     1      25.709  15.598  80.850  1.00  0.00     0.015 C 
BRANCH   5   6
ATOM      6  C   UNL     1      26.374  15.726  79.465  1.00  0.00     0.028 C 
BRANCH   6   7
ATOM      7  C   UNL     1      26.634  14.369  78.853  1.00  0.00    -0.028 C 
ATOM      8  C   UNL     1      27.820  13.721  78.854  1.00  0.00    -0.070 CG0
ATOM      9  C   UNL     1      27.889  12.370  78.185  1.00  0.00     0.039 C 
ATOM     10  G   UNL     1      29.075  14.290  79.488  1.00  0.00     0.000 G0
ENDBRANCH   6   7
ENDBRANCH   5   6
ENDBRANCH   3   5
ENDBRANCH   1   3
BRANCH   1  11
ATOM     11  C   UNL     1      28.331  14.330  82.941  1.00  0.00     0.087 C 
BRANCH  11  12
ATOM     12  C   UNL     1      28.390  13.256  81.827  1.00  0.00     0.066 C 
BRANCH  12  13
ATOM     13  C   UNL     1      29.442  13.617  80.790  1.00  0.00     0.140 C 
ATOM     14  O   UNL     1      30.610  13.315  80.982  1.00  0.00    -0.299 OA
BRANCH  13  15
ATOM     15  C   UNL     1      29.075  14.283  79.486  1.00  0.00     0.106 CG0
ATOM     16  G   UNL     1      27.817  13.706  78.865  1.00  0.00     0.000 G0
ENDBRANCH  13  15
ENDBRANCH  12  13
BRANCH  12  17
ATOM     17  C   UNL     1      28.614  11.805  82.362  1.00  0.00    -0.006 C 
ATOM     18  C   UNL     1      28.325  11.640  83.865  1.00  0.00     0.008 C 
ATOM     19  C   UNL     1      27.803  10.775  81.559  1.00  0.00     0.008 C 
ENDBRANCH  12  17
ENDBRANCH  11  12
ENDBRANCH   1  11
TORSDOF 1
ENDMDL
MODEL 4
REMARK VINA RESULT:    -5.389      1.343      3.763
REMARK INTER + INTRA:          -8.114
REMARK INTER:                  -7.959
REMARK INTRA:                  -0.155
REMARK UNBOUND:                 0.111
REMARK SMILES CC1=CCC[C@H](C)C(=O)C[C@H](C(C)C)C(=O)C1
REMARK SMILES IDX 8 1 9 2 6 3 7 4 5 5 4 6 3 7 2 8 1 9 10 11 11 12 15 13 16 14
REMARK SMILES IDX 17 15 12 17 13 18 14 19
REMARK H PARENT
REMARK Flexibility Score: 70.00
ROOT
ATOM      1  C   UNL     1      28.007  14.494  79.140  1.00  0.00     0.136 C 
ATOM      2  O   UNL     1      27.521  15.201  78.268  1.00  0.00    -0.299 OA
ENDROOT
BRANCH   1   3
ATOM      3  C   UNL     1      28.287  13.032  78.800  1.00  0.00     0.053 C 
ATOM      4  C   UNL     1      27.478  12.471  77.618  1.00  0.00     0.016 C 
BRANCH   3   5
ATOM      5  C   UNL     1      29.801  12.741  78.637  1.00  0.00     0.015 C 
BRANCH   5   6
ATOM      6  C   UNL     1      30.543  12.359  79.934  1.00  0.00     0.028 C 
BRANCH   6   7
ATOM      7  C   UNL     1      29.662  11.544  80.852  1.00  0.00    -0.028 C 
ATOM      8  C   UNL     1      29.131  11.975  82.018  1.00  0.00    -0.070 CG0
ATOM      9  C   UNL     1      28.277  11.011  82.805  1.00  0.00     0.039 C 
ATOM     10  G   UNL     1      29.359  13.370  82.567  1.00  0.00     0.000 G0
ENDBRANCH   6   7
ENDBRANCH   5   6
ENDBRANCH   3   5
ENDBRANCH   1   3
BRANCH   1  11
ATOM     11  C   UNL     1      28.360  15.151  80.463  1.00  0.00     0.087 C 
BRANCH  11  12
ATOM     12  C   UNL     1      27.359  14.778  81.585  1.00  0.00     0.066 C 
BRANCH  12  13
ATOM     13  C   UNL     1      28.086  14.151  82.764  1.00  0.00     0.140 C 
ATOM     14  O   UNL     1      27.602  14.228  83.884  1.00  0.00    -0.299 OA
BRANCH  13  15
ATOM     15  C   UNL     1      29.364  13.369  82.584  1.00  0.00     0.106 CG0
ATOM     16  G   UNL     1      29.131  11.986  82.007  1.00  0.00     0.000 G0
ENDBRANCH  13  15
ENDBRANCH  12  13
BRANCH  12  17
ATOM     17  C   UNL     1      26.466  15.971  82.054  1.00  0.00    -0.006 C 
ATOM     18  C   UNL     1      27.123  17.353  81.881  1.00  0.00     0.008 C 
ATOM     19  C   UNL     1      25.093  15.956  81.361  1.00  0.00     0.008 C 
ENDBRANCH  12  17
ENDBRANCH  11  12
ENDBRANCH   1  11
TORSDOF 1
ENDMDL
MODEL 5
REMARK VINA RESULT:    -5.361      1.723      3.492
REMARK INTER + INTRA:          -8.071
REMARK INTER:                  -8.094
REMARK INTRA:                   0.023
REMARK UNBOUND:                 0.111
REMARK SMILES CC1=CCC[C@H](C)C(=O)C[C@H](C(C)C)C(=O)C1
REMARK SMILES IDX 8 1 9 2 6 3 7 4 5 5 4 6 3 7 2 8 1 9 10 11 11 12 15 13 16 14
REMARK SMILES IDX 17 15 12 17 13 18 14 19
REMARK H PARENT
REMARK Flexibility Score: 70.00
ROOT
ATOM      1  C   UNL     1      29.502  14.109  79.487  1.00  0.00     0.136 C 
ATOM      2  O   UNL     1      29.334  14.104  78.276  1.00  0.00    -0.299 OA
ENDROOT
BRANCH   1   3
ATOM      3  C   UNL     1      30.766  13.452  80.035  1.00  0.00     0.053 C 
ATOM      4  C   UNL     1      31.179  13.906  81.445  1.00  0.00     0.016 C 
BRANCH   3   5
ATOM      5  C   UNL     1      30.722  11.905  79.931  1.00  0.00     0.015 C 
BRANCH   5   6
ATOM      6  C   UNL     1      29.436  11.244  80.467  1.00  0.00     0.028 C 
BRANCH   6   7
ATOM      7  C   UNL     1      29.308  11.422  81.962  1.00  0.00    -0.028 C 
ATOM      8  C   UNL     1      28.188  11.809  82.614  1.00  0.00    -0.070 CG0
ATOM      9  C   UNL     1      28.253  11.938  84.116  1.00  0.00     0.039 C 
ATOM     10  G   UNL     1      26.884  12.121  81.907  1.00  0.00     0.000 G0
ENDBRANCH   6   7
ENDBRANCH   5   6
ENDBRANCH   3   5
ENDBRANCH   1   3
BRANCH   1  11
ATOM     11  C   UNL     1      28.474  14.835  80.337  1.00  0.00     0.087 C 
BRANCH  11  12
ATOM     12  C   UNL     1      27.078  14.169  80.259  1.00  0.00     0.066 C 
BRANCH  12  13
ATOM     13  C   UNL     1      26.686  13.586  81.607  1.00  0.00     0.140 C 
ATOM     14  O   UNL     1      26.161  14.302  82.447  1.00  0.00    -0.299 OA
BRANCH  13  15
ATOM     15  C   UNL     1      26.863  12.121  81.920  1.00  0.00     0.106 CG0
ATOM     16  G   UNL     1      28.182  11.821  82.607  1.00  0.00     0.000 G0
ENDBRANCH  13  15
ENDBRANCH  12  13
BRANCH  12  17
ATOM     17  C   UNL     1      25.959  15.115  79.717  1.00  0.00    -0.006 C 
ATOM     18  C   UNL     1      26.194  16.606  80.023  1.00  0.00     0.008 C 
ATOM     19  C   UNL     1      25.737  14.922  78.208  1.00  0.00     0.008 C 
ENDBRANCH  12  17
ENDBRANCH  11  12
ENDBRANCH   1  11
TORSDOF 1
ENDMDL
MODEL 6
REMARK VINA RESULT:    -5.347      2.074      5.323
REMARK INTER + INTRA:          -8.050
REMARK INTER:                  -7.789
REMARK INTRA:                  -0.261
REMARK UNBOUND:                 0.111
REMARK SMILES CC1=CCC[C@H](C)C(=O)C[C@H](C(C)C)C(=O)C1
REMARK SMILES IDX 8 1 9 2 6 3 7 4 5 5 4 6 3 7 2 8 1 9 10 11 11 12 15 13 16 14
REMARK SMILES IDX 17 15 12 17 13 18 14 19
REMARK H PARENT
REMARK Flexibility Score: 70.00
ROOT
ATOM      1  C   UNL     1      27.254  12.945  78.623  1.00  0.00     0.136 C 
ATOM      2  O   UNL     1      27.275  12.200  77.653  1.00  0.00    -0.299 OA
ENDROOT
BRANCH   1   3
ATOM      3  C   UNL     1      26.756  14.372  78.416  1.00  0.00     0.053 C 
ATOM      4  C   UNL     1      25.979  14.608  77.110  1.00  0.00     0.016 C 
BRANCH   3   5
ATOM      5  C   UNL     1      25.975  14.911  79.642  1.00  0.00     0.015 C 
BRANCH   5   6
ATOM      6  C   UNL     1      26.800  15.761  80.629  1.00  0.00     0.028 C 
BRANCH   6   7
ATOM      7  C   UNL     1      26.549  15.341  82.059  1.00  0.00    -0.028 C 
ATOM      8  C   UNL     1      27.460  14.775  82.883  1.00  0.00    -0.070 CG0
ATOM      9  C   UNL     1      27.022  14.417  84.282  1.00  0.00     0.039 C 
ATOM     10  G   UNL     1      28.888  14.483  82.464  1.00  0.00     0.000 G0
ENDBRANCH   6   7
ENDBRANCH   5   6
ENDBRANCH   3   5
ENDBRANCH   1   3
BRANCH   1  11
ATOM     11  C   UNL     1      27.656  12.362  79.966  1.00  0.00     0.087 C 
BRANCH  11  12
ATOM     12  C   UNL     1      29.060  12.839  80.412  1.00  0.00     0.066 C 
BRANCH  12  13
ATOM     13  C   UNL     1      29.087  13.101  81.910  1.00  0.00     0.140 C 
ATOM     14  O   UNL     1      29.323  12.183  82.682  1.00  0.00    -0.299 OA
BRANCH  13  15
ATOM     15  C   UNL     1      28.897  14.486  82.477  1.00  0.00     0.106 CG0
ATOM     16  G   UNL     1      27.464  14.759  82.895  1.00  0.00     0.000 G0
ENDBRANCH  13  15
ENDBRANCH  12  13
BRANCH  12  17
ATOM     17  C   UNL     1      30.215  11.871  79.998  1.00  0.00    -0.006 C 
ATOM     18  C   UNL     1      29.751  10.434  79.694  1.00  0.00     0.008 C 
ATOM     19  C   UNL     1      31.016  12.423  78.808  1.00  0.00     0.008 C 
ENDBRANCH  12  17
ENDBRANCH  11  12
ENDBRANCH   1  11
TORSDOF 1
ENDMDL
MODEL 7
REMARK VINA RESULT:    -5.344      1.582      3.650
REMARK INTER + INTRA:          -8.045
REMARK INTER:                  -7.727
REMARK INTRA:                  -0.318
REMARK UNBOUND:                 0.111
REMARK SMILES CC1=CCC[C@H](C)C(=O)C[C@H](C(C)C)C(=O)C1
REMARK SMILES IDX 8 1 9 2 6 3 7 4 5 5 4 6 3 7 2 8 1 9 10 11 11 12 15 13 16 14
REMARK SMILES IDX 17 15 12 17 13 18 14 19
REMARK H PARENT
REMARK Flexibility Score: 70.00
ROOT
ATOM      1  C   UNL     1      27.872  14.685  78.913  1.00  0.00     0.136 C 
ATOM      2  O   UNL     1      28.969  14.742  78.375  1.00  0.00    -0.299 OA
ENDROOT
BRANCH   1   3
ATOM      3  C   UNL     1      26.820  13.771  78.292  1.00  0.00     0.053 C 
ATOM      4  C   UNL     1      26.042  14.377  77.112  1.00  0.00     0.016 C 
BRANCH   3   5
ATOM      5  C   UNL     1      27.387  12.372  77.936  1.00  0.00     0.015 C 
BRANCH   5   6
ATOM      6  C   UNL     1      27.354  11.336  79.077  1.00  0.00     0.028 C 
BRANCH   6   7
ATOM      7  C   UNL     1      28.504  11.540  80.037  1.00  0.00    -0.028 C 
ATOM      8  C   UNL     1      28.403  12.051  81.286  1.00  0.00    -0.070 CG0
ATOM      9  C   UNL     1      29.667  12.186  82.098  1.00  0.00     0.039 C 
ATOM     10  G   UNL     1      27.087  12.494  81.896  1.00  0.00     0.000 G0
ENDBRANCH   6   7
ENDBRANCH   5   6
ENDBRANCH   3   5
ENDBRANCH   1   3
BRANCH   1  11
ATOM     11  C   UNL     1      27.676  15.474  80.195  1.00  0.00     0.087 C 
BRANCH  11  12
ATOM     12  C   UNL     1      26.498  14.929  81.041  1.00  0.00     0.066 C 
BRANCH  12  13
ATOM     13  C   UNL     1      27.006  13.991  82.124  1.00  0.00     0.140 C 
ATOM     14  O   UNL     1      27.309  14.439  83.220  1.00  0.00    -0.299 OA
BRANCH  13  15
ATOM     15  C   UNL     1      27.084  12.499  81.910  1.00  0.00     0.106 CG0
ATOM     16  G   UNL     1      28.395  12.063  81.285  1.00  0.00     0.000 G0
ENDBRANCH  13  15
ENDBRANCH  12  13
BRANCH  12  17
ATOM     17  C   UNL     1      25.593  16.047  81.653  1.00  0.00    -0.006 C 
ATOM     18  C   UNL     1      25.471  17.306  80.776  1.00  0.00     0.008 C 
ATOM     19  C   UNL     1      24.193  15.514  81.998  1.00  0.00     0.008 C 
ENDBRANCH  12  17
ENDBRANCH  11  12
ENDBRANCH   1  11
TORSDOF 1
ENDMDL
MODEL 8
REMARK VINA RESULT:    -5.343      1.700      3.985
REMARK INTER + INTRA:          -8.044
REMARK INTER:                  -8.247
REMARK INTRA:                   0.203
REMARK UNBOUND:                 0.111
REMARK SMILES CC1=CCC[C@H](C)C(=O)C[C@H](C(C)C)C(=O)C1
REMARK SMILES IDX 8 1 9 2 6 3 7 4 5 5 4 6 3 7 2 8 1 9 10 11 11 12 15 13 16 14
REMARK SMILES IDX 17 15 12 17 13 18 14 19
REMARK H PARENT
REMARK Flexibility Score: 70.00
ROOT
ATOM      1  C   UNL     1      27.177  15.428  80.407  1.00  0.00     0.136 C 
ATOM      2  O   UNL     1      26.345  16.300  80.610  1.00  0.00    -0.299 OA
ENDROOT
BRANCH   1   3
ATOM      3  C   UNL     1      27.061  14.615  79.120  1.00  0.00     0.053 C 
ATOM      4  C   UNL     1      26.033  15.144  78.106  1.00  0.00     0.016 C 
BRANCH   3   5
ATOM      5  C   UNL     1      28.437  14.364  78.451  1.00  0.00     0.015 C 
BRANCH   5   6
ATOM      6  C   UNL     1      28.876  12.888  78.379  1.00  0.00     0.028 C 
BRANCH   6   7
ATOM      7  C   UNL     1      27.946  11.998  79.171  1.00  0.00    -0.028 C 
ATOM      8  C   UNL     1      28.206  11.479  80.393  1.00  0.00    -0.070 CG0
ATOM      9  C   UNL     1      27.154  10.604  81.028  1.00  0.00     0.039 C 
ATOM     10  G   UNL     1      29.501  11.732  81.141  1.00  0.00     0.000 G0
ENDBRANCH   6   7
ENDBRANCH   5   6
ENDBRANCH   3   5
ENDBRANCH   1   3
BRANCH   1  11
ATOM     11  C   UNL     1      28.300  15.279  81.418  1.00  0.00     0.087 C 
BRANCH  11  12
ATOM     12  C   UNL     1      28.280  13.893  82.111  1.00  0.00     0.066 C 
BRANCH  12  13
ATOM     13  C   UNL     1      29.545  13.114  81.788  1.00  0.00     0.140 C 
ATOM     14  O   UNL     1      30.635  13.575  82.092  1.00  0.00    -0.299 OA
BRANCH  13  15
ATOM     15  C   UNL     1      29.493  11.744  81.158  1.00  0.00     0.106 CG0
ATOM     16  G   UNL     1      28.197  11.488  80.413  1.00  0.00     0.000 G0
ENDBRANCH  13  15
ENDBRANCH  12  13
BRANCH  12  17
ATOM     17  C   UNL     1      28.053  13.966  83.656  1.00  0.00    -0.006 C 
ATOM     18  C   UNL     1      26.805  14.768  84.070  1.00  0.00     0.008 C 
ATOM     19  C   UNL     1      28.005  12.565  84.286  1.00  0.00     0.008 C 
ENDBRANCH  12  17
ENDBRANCH  11  12
ENDBRANCH   1  11
TORSDOF 1
ENDMDL
MODEL 9
REMARK VINA RESULT:    -5.336      2.046      3.691
REMARK INTER + INTRA:          -8.033
REMARK INTER:                  -7.742
REMARK INTRA:                  -0.291
REMARK UNBOUND:                 0.111
REMARK SMILES CC1=CCC[C@H](C)C(=O)C[C@H](C(C)C)C(=O)C1
REMARK SMILES IDX 8 1 9 2 6 3 7 4 5 5 4 6 3 7 2 8 1 9 10 11 11 12 15 13 16 14
REMARK SMILES IDX 17 15 12 17 13 18 14 19
REMARK H PARENT
REMARK Flexibility Score: 70.00
ROOT
ATOM      1  C   UNL     1      29.016  12.993  78.842  1.00  0.00     0.136 C 
ATOM      2  O   UNL     1      30.022  12.673  78.224  1.00  0.00    -0.299 OA
ENDROOT
BRANCH   1   3
ATOM      3  C   UNL     1      28.159  11.879  79.435  1.00  0.00     0.053 C 
ATOM      4  C   UNL     1      27.325  11.084  78.416  1.00  0.00     0.016 C 
BRANCH   3   5
ATOM      5  C   UNL     1      28.971  10.934  80.360  1.00  0.00     0.015 C 
BRANCH   5   6
ATOM      6  C   UNL     1      29.723  11.626  81.514  1.00  0.00     0.028 C 
BRANCH   6   7
ATOM      7  C   UNL     1      28.768  12.105  82.583  1.00  0.00    -0.028 C 
ATOM      8  C   UNL     1      28.573  13.394  82.942  1.00  0.00    -0.070 CG0
ATOM      9  C   UNL     1      27.579  13.680  84.040  1.00  0.00     0.039 C 
ATOM     10  G   UNL     1      29.307  14.554  82.297  1.00  0.00     0.000 G0
ENDBRANCH   6   7
ENDBRANCH   5   6
ENDBRANCH   3   5
ENDBRANCH   1   3
BRANCH   1  11
ATOM     11  C   UNL     1      28.749  14.476  79.030  1.00  0.00     0.087 C 
BRANCH  11  12
ATOM     12  C   UNL     1      27.744  14.746  80.177  1.00  0.00     0.066 C 
BRANCH  12  13
ATOM     13  C   UNL     1      28.447  15.381  81.367  1.00  0.00     0.140 C 
ATOM     14  O   UNL     1      28.276  16.567  81.609  1.00  0.00    -0.299 OA
BRANCH  13  15
ATOM     15  C   UNL     1      29.303  14.570  82.308  1.00  0.00     0.106 CG0
ATOM     16  G   UNL     1      28.554  13.408  82.931  1.00  0.00     0.000 G0
ENDBRANCH  13  15
ENDBRANCH  12  13
BRANCH  12  17
ATOM     17  C   UNL     1      26.508  15.598  79.743  1.00  0.00    -0.006 C 
ATOM     18  C   UNL     1      26.019  15.312  78.312  1.00  0.00     0.008 C 
ATOM     19  C   UNL     1      25.341  15.446  80.733  1.00  0.00     0.008 C 
ENDBRANCH  12  17
ENDBRANCH  11  12
ENDBRANCH   1  11
TORSDOF 1
ENDMDL
