MODEL 1
REMARK VINA RESULT:    -4.635      0.000      0.000
REMARK INTER + INTRA:          -7.795
REMARK INTER:                  -7.073
REMARK INTRA:                  -0.721
REMARK UNBOUND:                -0.721
REMARK SMILES O=C([O-])CCCCCCCCC(=O)[O-]
REMARK SMILES IDX 7 1 6 2 5 3 4 4 2 5 1 6 3 7 8 8 9 9 10 10 11 11 12 12 13 13
REMARK SMILES IDX 14 14
REMARK H PARENT
REMARK Flexibility Score: inf
ROOT
ATOM      1  C   UNL     1     -19.645  -1.686  29.673  1.00  0.00     0.000 C 
ENDROOT
BRANCH   1   2
ATOM      2  C   UNL     1     -19.859  -0.189  29.941  1.00  0.00     0.000 C 
BRANCH   2   3
ATOM      3  C   UNL     1     -20.736   0.444  28.852  1.00  0.00     0.006 C 
BRANCH   3   4
ATOM      4  C   UNL     1     -20.026   1.596  28.129  1.00  0.00     0.053 C 
BRANCH   4   5
ATOM      5  C   UNL     1     -18.838   1.115  27.353  1.00  0.00     0.041 C 
ATOM      6  O   UNL     1     -18.964   0.183  26.514  1.00  0.00    -0.550 OA
ATOM      7  O   UNL     1     -17.587   1.673  27.579  1.00  0.00    -0.550 OA
ENDBRANCH   4   5
ENDBRANCH   3   4
ENDBRANCH   2   3
ENDBRANCH   1   2
BRANCH   1   8
ATOM      8  C   UNL     1     -18.196  -2.024  29.277  1.00  0.00     0.000 C 
BRANCH   8   9
ATOM      9  C   UNL     1     -17.335  -2.623  30.404  1.00  0.00     0.000 C 
BRANCH   9  10
ATOM     10  C   UNL     1     -16.587  -1.554  31.220  1.00  0.00     0.006 C 
BRANCH  10  11
ATOM     11  C   UNL     1     -17.225  -1.325  32.596  1.00  0.00     0.053 C 
BRANCH  11  12
ATOM     12  C   UNL     1     -17.390  -2.608  33.352  1.00  0.00     0.041 C 
ATOM     13  O   UNL     1     -16.380  -3.244  33.751  1.00  0.00    -0.550 OA
ATOM     14  O   UNL     1     -18.662  -3.086  33.640  1.00  0.00    -0.550 OA
ENDBRANCH  11  12
ENDBRANCH  10  11
ENDBRANCH   9  10
ENDBRANCH   8   9
ENDBRANCH   1   8
TORSDOF 9
ENDMDL
MODEL 2
REMARK VINA RESULT:    -4.542      2.257      6.070
REMARK INTER + INTRA:          -7.653
REMARK INTER:                  -6.973
REMARK INTRA:                  -0.680
REMARK UNBOUND:                -0.721
REMARK SMILES O=C([O-])CCCCCCCCC(=O)[O-]
REMARK SMILES IDX 7 1 6 2 5 3 4 4 2 5 1 6 3 7 8 8 9 9 10 10 11 11 12 12 13 13
REMARK SMILES IDX 14 14
REMARK H PARENT
REMARK Flexibility Score: inf
ROOT
ATOM      1  C   UNL     1     -19.417  -0.464  29.591  1.00  0.00     0.000 C 
ENDROOT
BRANCH   1   2
ATOM      2  C   UNL     1     -19.237  -1.980  29.761  1.00  0.00     0.000 C 
BRANCH   2   3
ATOM      3  C   UNL     1     -17.761  -2.378  29.614  1.00  0.00     0.006 C 
BRANCH   3   4
ATOM      4  C   UNL     1     -17.104  -2.687  30.965  1.00  0.00     0.053 C 
BRANCH   4   5
ATOM      5  C   UNL     1     -16.649  -1.440  31.659  1.00  0.00     0.041 C 
ATOM      6  O   UNL     1     -15.638  -0.816  31.243  1.00  0.00    -0.550 OA
ATOM      7  O   UNL     1     -17.323  -0.986  32.786  1.00  0.00    -0.550 OA
ENDBRANCH   4   5
ENDBRANCH   3   4
ENDBRANCH   2   3
ENDBRANCH   1   2
BRANCH   1   8
ATOM      8  C   UNL     1     -18.406   0.154  28.609  1.00  0.00     0.000 C 
BRANCH   8   9
ATOM      9  C   UNL     1     -18.837   0.134  27.131  1.00  0.00     0.000 C 
BRANCH   9  10
ATOM     10  C   UNL     1     -19.942   1.156  26.814  1.00  0.00     0.006 C 
BRANCH  10  11
ATOM     11  C   UNL     1     -21.070   0.547  25.972  1.00  0.00     0.053 C 
BRANCH  11  12
ATOM     12  C   UNL     1     -22.199   0.057  26.826  1.00  0.00     0.041 C 
ATOM     13  O   UNL     1     -22.903  -0.917  26.450  1.00  0.00    -0.550 OA
ATOM     14  O   UNL     1     -22.457   0.660  28.050  1.00  0.00    -0.550 OA
ENDBRANCH  11  12
ENDBRANCH  10  11
ENDBRANCH   9  10
ENDBRANCH   8   9
ENDBRANCH   1   8
TORSDOF 9
ENDMDL
MODEL 3
REMARK VINA RESULT:    -4.533      2.364      3.220
REMARK INTER + INTRA:          -7.640
REMARK INTER:                  -7.111
REMARK INTRA:                  -0.529
REMARK UNBOUND:                -0.721
REMARK SMILES O=C([O-])CCCCCCCCC(=O)[O-]
REMARK SMILES IDX 7 1 6 2 5 3 4 4 2 5 1 6 3 7 8 8 9 9 10 10 11 11 12 12 13 13
REMARK SMILES IDX 14 14
REMARK H PARENT
REMARK Flexibility Score: inf
ROOT
ATOM      1  C   UNL     1     -18.438   0.166  28.293  1.00  0.00     0.000 C 
ENDROOT
BRANCH   1   2
ATOM      2  C   UNL     1     -19.043   1.349  27.522  1.00  0.00     0.000 C 
BRANCH   2   3
ATOM      3  C   UNL     1     -20.543   1.134  27.275  1.00  0.00     0.006 C 
BRANCH   3   4
ATOM      4  C   UNL     1     -20.810   0.253  26.049  1.00  0.00     0.053 C 
BRANCH   4   5
ATOM      5  C   UNL     1     -22.266  -0.066  25.900  1.00  0.00     0.041 C 
ATOM      6  O   UNL     1     -22.962   0.535  25.039  1.00  0.00    -0.550 OA
ATOM      7  O   UNL     1     -22.862  -1.001  26.736  1.00  0.00    -0.550 OA
ENDBRANCH   4   5
ENDBRANCH   3   4
ENDBRANCH   2   3
ENDBRANCH   1   2
BRANCH   1   8
ATOM      8  C   UNL     1     -19.324  -0.306  29.460  1.00  0.00     0.000 C 
BRANCH   8   9
ATOM      9  C   UNL     1     -19.218  -1.806  29.793  1.00  0.00     0.000 C 
BRANCH   9  10
ATOM     10  C   UNL     1     -17.789  -2.355  29.640  1.00  0.00     0.006 C 
BRANCH  10  11
ATOM     11  C   UNL     1     -17.136  -2.653  30.996  1.00  0.00     0.053 C 
BRANCH  11  12
ATOM     12  C   UNL     1     -16.678  -1.401  31.680  1.00  0.00     0.041 C 
ATOM     13  O   UNL     1     -17.249  -1.007  32.731  1.00  0.00    -0.550 OA
ATOM     14  O   UNL     1     -15.603  -0.684  31.171  1.00  0.00    -0.550 OA
ENDBRANCH  11  12
ENDBRANCH  10  11
ENDBRANCH   9  10
ENDBRANCH   8   9
ENDBRANCH   1   8
TORSDOF 9
ENDMDL
MODEL 4
REMARK VINA RESULT:    -4.531      1.809      2.333
REMARK INTER + INTRA:          -7.637
REMARK INTER:                  -7.182
REMARK INTRA:                  -0.454
REMARK UNBOUND:                -0.721
REMARK SMILES O=C([O-])CCCCCCCCC(=O)[O-]
REMARK SMILES IDX 7 1 6 2 5 3 4 4 2 5 1 6 3 7 8 8 9 9 10 10 11 11 12 12 13 13
REMARK SMILES IDX 14 14
REMARK H PARENT
REMARK Flexibility Score: inf
ROOT
ATOM      1  C   UNL     1     -18.586  -0.617  28.192  1.00  0.00     0.000 C 
ENDROOT
BRANCH   1   2
ATOM      2  C   UNL     1     -18.528   0.894  27.929  1.00  0.00     0.000 C 
BRANCH   2   3
ATOM      3  C   UNL     1     -19.912   1.438  27.543  1.00  0.00     0.006 C 
BRANCH   3   4
ATOM      4  C   UNL     1     -20.454   0.792  26.262  1.00  0.00     0.053 C 
BRANCH   4   5
ATOM      5  C   UNL     1     -21.833   0.240  26.459  1.00  0.00     0.041 C 
ATOM      6  O   UNL     1     -22.114  -0.406  27.503  1.00  0.00    -0.550 OA
ATOM      7  O   UNL     1     -22.798   0.411  25.475  1.00  0.00    -0.550 OA
ENDBRANCH   4   5
ENDBRANCH   3   4
ENDBRANCH   2   3
ENDBRANCH   1   2
BRANCH   1   8
ATOM      8  C   UNL     1     -18.620  -0.965  29.691  1.00  0.00     0.000 C 
BRANCH   8   9
ATOM      9  C   UNL     1     -17.586  -2.015  30.140  1.00  0.00     0.000 C 
BRANCH   9  10
ATOM     10  C   UNL     1     -16.581  -1.467  31.167  1.00  0.00     0.006 C 
BRANCH  10  11
ATOM     11  C   UNL     1     -17.209  -1.290  32.555  1.00  0.00     0.053 C 
BRANCH  11  12
ATOM     12  C   UNL     1     -17.422  -2.605  33.240  1.00  0.00     0.041 C 
ATOM     13  O   UNL     1     -16.445  -3.234  33.726  1.00  0.00    -0.550 OA
ATOM     14  O   UNL     1     -18.705  -3.124  33.366  1.00  0.00    -0.550 OA
ENDBRANCH  11  12
ENDBRANCH  10  11
ENDBRANCH   9  10
ENDBRANCH   8   9
ENDBRANCH   1   8
TORSDOF 9
ENDMDL
MODEL 5
REMARK VINA RESULT:    -4.434      2.183      6.437
REMARK INTER + INTRA:          -7.488
REMARK INTER:                  -7.030
REMARK INTRA:                  -0.458
REMARK UNBOUND:                -0.721
REMARK SMILES O=C([O-])CCCCCCCCC(=O)[O-]
REMARK SMILES IDX 7 1 6 2 5 3 4 4 2 5 1 6 3 7 8 8 9 9 10 10 11 11 12 12 13 13
REMARK SMILES IDX 14 14
REMARK H PARENT
REMARK Flexibility Score: inf
ROOT
ATOM      1  C   UNL     1     -18.180  -1.185  29.057  1.00  0.00     0.000 C 
ENDROOT
BRANCH   1   2
ATOM      2  C   UNL     1     -19.182  -2.117  29.752  1.00  0.00     0.000 C 
BRANCH   2   3
ATOM      3  C   UNL     1     -18.456  -3.234  30.516  1.00  0.00     0.006 C 
BRANCH   3   4
ATOM      4  C   UNL     1     -17.148  -2.747  31.153  1.00  0.00     0.053 C 
BRANCH   4   5
ATOM      5  C   UNL     1     -17.392  -2.042  32.451  1.00  0.00     0.041 C 
ATOM      6  O   UNL     1     -17.037  -0.842  32.598  1.00  0.00    -0.550 OA
ATOM      7  O   UNL     1     -17.980  -2.719  33.511  1.00  0.00    -0.550 OA
ENDBRANCH   4   5
ENDBRANCH   3   4
ENDBRANCH   2   3
ENDBRANCH   1   2
BRANCH   1   8
ATOM      8  C   UNL     1     -18.819   0.129  28.571  1.00  0.00     0.000 C 
BRANCH   8   9
ATOM      9  C   UNL     1     -18.811   0.332  27.045  1.00  0.00     0.000 C 
BRANCH   9  10
ATOM     10  C   UNL     1     -19.988   1.188  26.547  1.00  0.00     0.006 C 
BRANCH  10  11
ATOM     11  C   UNL     1     -21.103   0.334  25.930  1.00  0.00     0.053 C 
BRANCH  11  12
ATOM     12  C   UNL     1     -22.349   0.360  26.763  1.00  0.00     0.041 C 
ATOM     13  O   UNL     1     -22.297   0.711  27.971  1.00  0.00    -0.550 OA
ATOM     14  O   UNL     1     -23.571   0.023  26.196  1.00  0.00    -0.550 OA
ENDBRANCH  11  12
ENDBRANCH  10  11
ENDBRANCH   9  10
ENDBRANCH   8   9
ENDBRANCH   1   8
TORSDOF 9
ENDMDL
MODEL 6
REMARK VINA RESULT:    -4.417      2.512      5.790
REMARK INTER + INTRA:          -7.462
REMARK INTER:                  -6.766
REMARK INTRA:                  -0.696
REMARK UNBOUND:                -0.721
REMARK SMILES O=C([O-])CCCCCCCCC(=O)[O-]
REMARK SMILES IDX 7 1 6 2 5 3 4 4 2 5 1 6 3 7 8 8 9 9 10 10 11 11 12 12 13 13
REMARK SMILES IDX 14 14
REMARK H PARENT
REMARK Flexibility Score: inf
ROOT
ATOM      1  C   UNL     1     -18.393   0.814  27.872  1.00  0.00     0.000 C 
ENDROOT
BRANCH   1   2
ATOM      2  C   UNL     1     -18.590  -0.624  28.372  1.00  0.00     0.000 C 
BRANCH   2   3
ATOM      3  C   UNL     1     -18.605  -0.675  29.907  1.00  0.00     0.006 C 
BRANCH   3   4
ATOM      4  C   UNL     1     -17.771  -1.838  30.458  1.00  0.00     0.053 C 
BRANCH   4   5
ATOM      5  C   UNL     1     -16.834  -1.387  31.537  1.00  0.00     0.041 C 
ATOM      6  O   UNL     1     -15.789  -0.747  31.242  1.00  0.00    -0.550 OA
ATOM      7  O   UNL     1     -17.097  -1.701  32.863  1.00  0.00    -0.550 OA
ENDBRANCH   4   5
ENDBRANCH   3   4
ENDBRANCH   2   3
ENDBRANCH   1   2
BRANCH   1   8
ATOM      8  C   UNL     1     -19.511   1.278  26.920  1.00  0.00     0.000 C 
BRANCH   8   9
ATOM      9  C   UNL     1     -20.332   0.145  26.278  1.00  0.00     0.000 C 
BRANCH   9  10
ATOM     10  C   UNL     1     -21.850   0.364  26.395  1.00  0.00     0.006 C 
BRANCH  10  11
ATOM     11  C   UNL     1     -22.297   0.555  27.849  1.00  0.00     0.053 C 
BRANCH  11  12
ATOM     12  C   UNL     1     -22.541  -0.756  28.533  1.00  0.00     0.041 C 
ATOM     13  O   UNL     1     -23.110  -1.696  27.918  1.00  0.00    -0.550 OA
ATOM     14  O   UNL     1     -22.115  -0.948  29.841  1.00  0.00    -0.550 OA
ENDBRANCH  11  12
ENDBRANCH  10  11
ENDBRANCH   9  10
ENDBRANCH   8   9
ENDBRANCH   1   8
TORSDOF 9
ENDMDL
MODEL 7
REMARK VINA RESULT:    -4.340      2.575      3.681
REMARK INTER + INTRA:          -7.344
REMARK INTER:                  -6.523
REMARK INTRA:                  -0.821
REMARK UNBOUND:                -0.721
REMARK SMILES O=C([O-])CCCCCCCCC(=O)[O-]
REMARK SMILES IDX 7 1 6 2 5 3 4 4 2 5 1 6 3 7 8 8 9 9 10 10 11 11 12 12 13 13
REMARK SMILES IDX 14 14
REMARK H PARENT
REMARK Flexibility Score: inf
ROOT
ATOM      1  C   UNL     1     -20.055   1.172  26.398  1.00  0.00     0.000 C 
ENDROOT
BRANCH   1   2
ATOM      2  C   UNL     1     -21.384   0.500  26.024  1.00  0.00     0.000 C 
BRANCH   2   3
ATOM      3  C   UNL     1     -22.346   0.481  27.222  1.00  0.00     0.006 C 
BRANCH   3   4
ATOM      4  C   UNL     1     -22.525  -0.928  27.801  1.00  0.00     0.053 C 
BRANCH   4   5
ATOM      5  C   UNL     1     -21.991  -1.026  29.197  1.00  0.00     0.041 C 
ATOM      6  O   UNL     1     -21.873  -2.149  29.754  1.00  0.00    -0.550 OA
ATOM      7  O   UNL     1     -21.655   0.127  29.896  1.00  0.00    -0.550 OA
ENDBRANCH   4   5
ENDBRANCH   3   4
ENDBRANCH   2   3
ENDBRANCH   1   2
BRANCH   1   8
ATOM      8  C   UNL     1     -18.974   0.164  26.832  1.00  0.00     0.000 C 
BRANCH   8   9
ATOM      9  C   UNL     1     -18.525   0.282  28.299  1.00  0.00     0.000 C 
BRANCH   9  10
ATOM     10  C   UNL     1     -18.369  -1.083  28.991  1.00  0.00     0.006 C 
BRANCH  10  11
ATOM     11  C   UNL     1     -18.333  -0.957  30.519  1.00  0.00     0.053 C 
BRANCH  11  12
ATOM     12  C   UNL     1     -17.122  -1.618  31.103  1.00  0.00     0.041 C 
ATOM     13  O   UNL     1     -16.805  -2.785  30.753  1.00  0.00    -0.550 OA
ATOM     14  O   UNL     1     -16.328  -0.933  32.014  1.00  0.00    -0.550 OA
ENDBRANCH  11  12
ENDBRANCH  10  11
ENDBRANCH   9  10
ENDBRANCH   8   9
ENDBRANCH   1   8
TORSDOF 9
ENDMDL
MODEL 8
REMARK VINA RESULT:    -4.332     13.354     15.576
REMARK INTER + INTRA:          -7.332
REMARK INTER:                  -6.650
REMARK INTRA:                  -0.682
REMARK UNBOUND:                -0.721
REMARK SMILES O=C([O-])CCCCCCCCC(=O)[O-]
REMARK SMILES IDX 7 1 6 2 5 3 4 4 2 5 1 6 3 7 8 8 9 9 10 10 11 11 12 12 13 13
REMARK SMILES IDX 14 14
REMARK H PARENT
REMARK Flexibility Score: inf
ROOT
ATOM      1  C   UNL     1      -4.537   7.659  29.229  1.00  0.00     0.000 C 
ENDROOT
BRANCH   1   2
ATOM      2  C   UNL     1      -4.775   6.453  30.149  1.00  0.00     0.000 C 
BRANCH   2   3
ATOM      3  C   UNL     1      -6.215   5.935  30.014  1.00  0.00     0.006 C 
BRANCH   3   4
ATOM      4  C   UNL     1      -7.221   7.069  29.780  1.00  0.00     0.053 C 
BRANCH   4   5
ATOM      5  C   UNL     1      -8.252   6.695  28.759  1.00  0.00     0.041 C 
ATOM      6  O   UNL     1      -7.992   5.826  27.885  1.00  0.00    -0.550 OA
ATOM      7  O   UNL     1      -9.487   7.330  28.752  1.00  0.00    -0.550 OA
ENDBRANCH   4   5
ENDBRANCH   3   4
ENDBRANCH   2   3
ENDBRANCH   1   2
BRANCH   1   8
ATOM      8  C   UNL     1      -4.331   7.259  27.756  1.00  0.00     0.000 C 
BRANCH   8   9
ATOM      9  C   UNL     1      -4.775   8.314  26.726  1.00  0.00     0.000 C 
BRANCH   9  10
ATOM     10  C   UNL     1      -6.070   7.926  25.991  1.00  0.00     0.006 C 
BRANCH  10  11
ATOM     11  C   UNL     1      -6.684   9.112  25.237  1.00  0.00     0.053 C 
BRANCH  11  12
ATOM     12  C   UNL     1      -8.049   8.789  24.711  1.00  0.00     0.041 C 
ATOM     13  O   UNL     1      -8.297   8.896  23.481  1.00  0.00    -0.550 OA
ATOM     14  O   UNL     1      -9.041   8.344  25.576  1.00  0.00    -0.550 OA
ENDBRANCH  11  12
ENDBRANCH  10  11
ENDBRANCH   9  10
ENDBRANCH   8   9
ENDBRANCH   1   8
TORSDOF 9
ENDMDL
MODEL 9
REMARK VINA RESULT:    -4.307     13.951     15.829
REMARK INTER + INTRA:          -7.294
REMARK INTER:                  -6.620
REMARK INTRA:                  -0.674
REMARK UNBOUND:                -0.721
REMARK SMILES O=C([O-])CCCCCCCCC(=O)[O-]
REMARK SMILES IDX 7 1 6 2 5 3 4 4 2 5 1 6 3 7 8 8 9 9 10 10 11 11 12 12 13 13
REMARK SMILES IDX 14 14
REMARK H PARENT
REMARK Flexibility Score: inf
ROOT
ATOM      1  C   UNL     1      -6.710   6.782  29.426  1.00  0.00     0.000 C 
ENDROOT
BRANCH   1   2
ATOM      2  C   UNL     1      -5.774   7.652  30.279  1.00  0.00     0.000 C 
BRANCH   2   3
ATOM      3  C   UNL     1      -5.373   6.924  31.571  1.00  0.00     0.006 C 
BRANCH   3   4
ATOM      4  C   UNL     1      -4.405   5.764  31.308  1.00  0.00     0.053 C 
BRANCH   4   5
ATOM      5  C   UNL     1      -4.996   4.447  31.710  1.00  0.00     0.041 C 
ATOM      6  O   UNL     1      -5.727   3.808  30.907  1.00  0.00    -0.550 OA
ATOM      7  O   UNL     1      -4.766   3.941  32.982  1.00  0.00    -0.550 OA
ENDBRANCH   4   5
ENDBRANCH   3   4
ENDBRANCH   2   3
ENDBRANCH   1   2
BRANCH   1   8
ATOM      8  C   UNL     1      -6.107   6.415  28.058  1.00  0.00     0.000 C 
BRANCH   8   9
ATOM      9  C   UNL     1      -5.017   7.375  27.547  1.00  0.00     0.000 C 
BRANCH   9  10
ATOM     10  C   UNL     1      -5.517   8.314  26.436  1.00  0.00     0.006 C 
BRANCH  10  11
ATOM     11  C   UNL     1      -6.625   7.673  25.591  1.00  0.00     0.053 C 
BRANCH  11  12
ATOM     12  C   UNL     1      -7.873   8.501  25.590  1.00  0.00     0.041 C 
ATOM     13  O   UNL     1      -7.963   9.513  24.846  1.00  0.00    -0.550 OA
ATOM     14  O   UNL     1      -8.948   8.139  26.392  1.00  0.00    -0.550 OA
ENDBRANCH  11  12
ENDBRANCH  10  11
ENDBRANCH   9  10
ENDBRANCH   8   9
ENDBRANCH   1   8
TORSDOF 9
ENDMDL
