MODEL 1
REMARK VINA RESULT:    -5.716      0.000      0.000
REMARK INTER + INTRA:          -7.008
REMARK INTER:                  -6.886
REMARK INTRA:                  -0.122
REMARK UNBOUND:                -0.122
REMARK SMILES O=c1c(O)c(-c2ccc(O)c(O)c2)oc2cc(O)cc(O)c12
REMARK SMILES IDX 5 1 3 2 2 3 1 4 22 5 20 6 19 7 17 8 16 9 15 10 14 11 6 12
REMARK SMILES IDX 7 13 8 14 9 15 13 16 11 17 10 18 12 20 4 22 21 24 18 26
REMARK H PARENT 10 19 12 21 4 23 21 25 18 27
REMARK Flexibility Score: inf
ROOT
ATOM      1  C   UNL     1     100.052  -5.203  -2.010  1.00  0.00     0.180 A 
ATOM      2  C   UNL     1     100.076  -4.090  -2.868  1.00  0.00     0.208 A 
ATOM      3  C   UNL     1     100.378  -4.284  -4.226  1.00  0.00     0.238 A 
ATOM      4  O   UNL     1     100.452  -3.278  -4.978  1.00  0.00    -0.285 OA
ATOM      5  C   UNL     1     100.635  -5.589  -4.711  1.00  0.00     0.111 A 
ATOM      6  C   UNL     1     100.912  -5.906  -6.074  1.00  0.00     0.134 A 
ATOM      7  C   UNL     1     101.279  -7.213  -6.419  1.00  0.00     0.093 A 
ATOM      8  C   UNL     1     101.317  -8.227  -5.461  1.00  0.00     0.123 A 
ATOM      9  C   UNL     1     100.991  -7.940  -4.135  1.00  0.00     0.094 A 
ATOM     10  C   UNL     1     100.655  -6.638  -3.755  1.00  0.00     0.146 A 
ATOM     11  O   UNL     1     100.361  -6.405  -2.481  1.00  0.00    -0.452 OA
ENDROOT
BRANCH   1  12
ATOM     12  C   UNL     1      99.717  -5.082  -0.572  1.00  0.00     0.025 A 
ATOM     13  C   UNL     1     100.654  -5.402   0.426  1.00  0.00     0.016 A 
ATOM     14  C   UNL     1     100.325  -5.259   1.777  1.00  0.00     0.051 A 
ATOM     15  C   UNL     1      99.061  -4.781   2.149  1.00  0.00     0.157 A 
ATOM     16  C   UNL     1      98.459  -4.585  -0.193  1.00  0.00     0.062 A 
ATOM     17  C   UNL     1      98.126  -4.441   1.158  1.00  0.00     0.158 A 
BRANCH  15  18
ATOM     18  O   UNL     1      98.734  -4.642   3.497  1.00  0.00    -0.504 OA
ATOM     19  H   UNL     1      99.443  -4.677   4.222  1.00  0.00     0.293 HD
ENDBRANCH  15  18
BRANCH  17  20
ATOM     20  O   UNL     1      96.862  -3.956   1.496  1.00  0.00    -0.504 OA
ATOM     21  H   UNL     1      96.597  -2.991   1.338  1.00  0.00     0.293 HD
ENDBRANCH  17  20
ENDBRANCH   1  12
BRANCH   2  22
ATOM     22  O   UNL     1      99.841  -2.808  -2.363  1.00  0.00    -0.502 OA
ATOM     23  H   UNL     1      98.956  -2.330  -2.483  1.00  0.00     0.293 HD
ENDBRANCH   2  22
BRANCH   6  24
ATOM     24  O   UNL     1     100.813  -4.989  -7.125  1.00  0.00    -0.507 OA
ATOM     25  H   UNL     1      99.948  -4.605  -7.473  1.00  0.00     0.293 HD
ENDBRANCH   6  24
BRANCH   8  26
ATOM     26  O   UNL     1     101.672  -9.519  -5.842  1.00  0.00    -0.508 OA
ATOM     27  H   UNL     1     101.018 -10.290  -5.775  1.00  0.00     0.293 HD
ENDBRANCH   8  26
TORSDOF 6
ENDMDL
MODEL 2
REMARK VINA RESULT:    -5.665      2.059      6.712
REMARK INTER + INTRA:          -6.946
REMARK INTER:                  -6.619
REMARK INTRA:                  -0.327
REMARK UNBOUND:                -0.122
REMARK SMILES O=c1c(O)c(-c2ccc(O)c(O)c2)oc2cc(O)cc(O)c12
REMARK SMILES IDX 5 1 3 2 2 3 1 4 22 5 20 6 19 7 17 8 16 9 15 10 14 11 6 12
REMARK SMILES IDX 7 13 8 14 9 15 13 16 11 17 10 18 12 20 4 22 21 24 18 26
REMARK H PARENT 10 19 12 21 4 23 21 25 18 27
REMARK Flexibility Score: inf
ROOT
ATOM      1  C   UNL     1     100.774  -4.439  -1.305  1.00  0.00     0.180 A 
ATOM      2  C   UNL     1      99.714  -3.895  -0.559  1.00  0.00     0.208 A 
ATOM      3  C   UNL     1      99.568  -4.266   0.787  1.00  0.00     0.238 A 
ATOM      4  O   UNL     1      98.586  -3.818   1.433  1.00  0.00    -0.285 OA
ATOM      5  C   UNL     1     100.494  -5.161   1.376  1.00  0.00     0.111 A 
ATOM      6  C   UNL     1     100.465  -5.572   2.742  1.00  0.00     0.134 A 
ATOM      7  C   UNL     1     101.352  -6.562   3.184  1.00  0.00     0.093 A 
ATOM      8  C   UNL     1     102.308  -7.107   2.327  1.00  0.00     0.123 A 
ATOM      9  C   UNL     1     102.383  -6.669   1.004  1.00  0.00     0.094 A 
ATOM     10  C   UNL     1     101.489  -5.709   0.525  1.00  0.00     0.146 A 
ATOM     11  O   UNL     1     101.587  -5.326  -0.743  1.00  0.00    -0.452 OA
ENDROOT
BRANCH   1  12
ATOM     12  C   UNL     1     101.009  -4.078  -2.722  1.00  0.00     0.025 A 
ATOM     13  C   UNL     1     101.872  -3.027  -3.076  1.00  0.00     0.016 A 
ATOM     14  C   UNL     1     102.097  -2.719  -4.421  1.00  0.00     0.051 A 
ATOM     15  C   UNL     1     101.473  -3.465  -5.430  1.00  0.00     0.157 A 
ATOM     16  C   UNL     1     100.402  -4.835  -3.738  1.00  0.00     0.062 A 
ATOM     17  C   UNL     1     100.624  -4.529  -5.085  1.00  0.00     0.158 A 
BRANCH  15  18
ATOM     18  O   UNL     1     101.697  -3.154  -6.770  1.00  0.00    -0.504 OA
ATOM     19  H   UNL     1     102.628  -3.167  -7.170  1.00  0.00     0.293 HD
ENDBRANCH  15  18
BRANCH  17  20
ATOM     20  O   UNL     1      99.993  -5.295  -6.066  1.00  0.00    -0.504 OA
ATOM     21  H   UNL     1      99.515  -6.160  -5.847  1.00  0.00     0.293 HD
ENDBRANCH  17  20
ENDBRANCH   1  12
BRANCH   2  22
ATOM     22  O   UNL     1      98.799  -3.031  -1.167  1.00  0.00    -0.502 OA
ATOM     23  H   UNL     1      98.996  -2.557  -2.040  1.00  0.00     0.293 HD
ENDBRANCH   2  22
BRANCH   6  24
ATOM     24  O   UNL     1      99.612  -5.025   3.705  1.00  0.00    -0.507 OA
ATOM     25  H   UNL     1      99.151  -5.553   4.431  1.00  0.00     0.293 HD
ENDBRANCH   6  24
BRANCH   8  26
ATOM     26  O   UNL     1     103.185  -8.079   2.804  1.00  0.00    -0.508 OA
ATOM     27  H   UNL     1     104.019  -7.831   3.323  1.00  0.00     0.293 HD
ENDBRANCH   8  26
TORSDOF 6
ENDMDL
MODEL 3
REMARK VINA RESULT:    -5.540      1.900      3.063
REMARK INTER + INTRA:          -6.796
REMARK INTER:                  -6.589
REMARK INTRA:                  -0.206
REMARK UNBOUND:                -0.122
REMARK SMILES O=c1c(O)c(-c2ccc(O)c(O)c2)oc2cc(O)cc(O)c12
REMARK SMILES IDX 5 1 3 2 2 3 1 4 22 5 20 6 19 7 17 8 16 9 15 10 14 11 6 12
REMARK SMILES IDX 7 13 8 14 9 15 13 16 11 17 10 18 12 20 4 22 21 24 18 26
REMARK H PARENT 10 19 12 21 4 23 21 25 18 27
REMARK Flexibility Score: inf
ROOT
ATOM      1  C   UNL     1     100.326  -5.016   0.065  1.00  0.00     0.180 A 
ATOM      2  C   UNL     1      99.792  -3.812  -0.424  1.00  0.00     0.208 A 
ATOM      3  C   UNL     1      99.588  -3.669  -1.806  1.00  0.00     0.238 A 
ATOM      4  O   UNL     1      99.161  -2.568  -2.242  1.00  0.00    -0.285 OA
ATOM      5  C   UNL     1      99.904  -4.737  -2.679  1.00  0.00     0.111 A 
ATOM      6  C   UNL     1      99.700  -4.716  -4.091  1.00  0.00     0.134 A 
ATOM      7  C   UNL     1     100.169  -5.779  -4.873  1.00  0.00     0.093 A 
ATOM      8  C   UNL     1     100.777  -6.890  -4.287  1.00  0.00     0.123 A 
ATOM      9  C   UNL     1     100.929  -6.947  -2.901  1.00  0.00     0.094 A 
ATOM     10  C   UNL     1     100.502  -5.887  -2.099  1.00  0.00     0.146 A 
ATOM     11  O   UNL     1     100.674  -5.975  -0.785  1.00  0.00    -0.452 OA
ENDROOT
BRANCH   1  12
ATOM     12  C   UNL     1     100.547  -5.252   1.510  1.00  0.00     0.025 A 
ATOM     13  C   UNL     1      99.471  -5.332   2.412  1.00  0.00     0.016 A 
ATOM     14  C   UNL     1      99.702  -5.578   3.768  1.00  0.00     0.051 A 
ATOM     15  C   UNL     1     101.008  -5.762   4.241  1.00  0.00     0.157 A 
ATOM     16  C   UNL     1     101.853  -5.457   1.987  1.00  0.00     0.062 A 
ATOM     17  C   UNL     1     102.087  -5.703   3.344  1.00  0.00     0.158 A 
BRANCH  15  18
ATOM     18  O   UNL     1     101.235  -6.005   5.594  1.00  0.00    -0.504 OA
ATOM     19  H   UNL     1     100.477  -6.239   6.226  1.00  0.00     0.293 HD
ENDBRANCH  15  18
BRANCH  17  20
ATOM     20  O   UNL     1     103.399  -5.888   3.782  1.00  0.00    -0.504 OA
ATOM     21  H   UNL     1     103.856  -5.232   4.403  1.00  0.00     0.293 HD
ENDBRANCH  17  20
ENDBRANCH   1  12
BRANCH   2  22
ATOM     22  O   UNL     1      99.508  -2.762   0.454  1.00  0.00    -0.502 OA
ATOM     23  H   UNL     1      99.194  -1.854   0.132  1.00  0.00     0.293 HD
ENDBRANCH   2  22
BRANCH   6  24
ATOM     24  O   UNL     1      99.022  -3.697  -4.767  1.00  0.00    -0.507 OA
ATOM     25  H   UNL     1      98.982  -2.736  -4.465  1.00  0.00     0.293 HD
ENDBRANCH   6  24
BRANCH   8  26
ATOM     26  O   UNL     1     101.219  -7.937  -5.094  1.00  0.00    -0.508 OA
ATOM     27  H   UNL     1     100.962  -7.996  -6.072  1.00  0.00     0.293 HD
ENDBRANCH   8  26
TORSDOF 6
ENDMDL
MODEL 4
REMARK VINA RESULT:    -5.490      4.300      7.182
REMARK INTER + INTRA:          -6.736
REMARK INTER:                  -6.401
REMARK INTRA:                  -0.335
REMARK UNBOUND:                -0.122
REMARK SMILES O=c1c(O)c(-c2ccc(O)c(O)c2)oc2cc(O)cc(O)c12
REMARK SMILES IDX 5 1 3 2 2 3 1 4 22 5 20 6 19 7 17 8 16 9 15 10 14 11 6 12
REMARK SMILES IDX 7 13 8 14 9 15 13 16 11 17 10 18 12 20 4 22 21 24 18 26
REMARK H PARENT 10 19 12 21 4 23 21 25 18 27
REMARK Flexibility Score: inf
ROOT
ATOM      1  C   UNL     1     101.857  -7.269   2.898  1.00  0.00     0.180 A 
ATOM      2  C   UNL     1     102.640  -7.071   1.748  1.00  0.00     0.208 A 
ATOM      3  C   UNL     1     102.249  -6.095   0.818  1.00  0.00     0.238 A 
ATOM      4  O   UNL     1     102.924  -5.961  -0.236  1.00  0.00    -0.285 OA
ATOM      5  C   UNL     1     101.090  -5.318   1.056  1.00  0.00     0.111 A 
ATOM      6  C   UNL     1     100.624  -4.275   0.202  1.00  0.00     0.134 A 
ATOM      7  C   UNL     1      99.395  -3.659   0.469  1.00  0.00     0.093 A 
ATOM      8  C   UNL     1      98.647  -4.004   1.595  1.00  0.00     0.123 A 
ATOM      9  C   UNL     1      99.123  -4.982   2.471  1.00  0.00     0.094 A 
ATOM     10  C   UNL     1     100.328  -5.638   2.211  1.00  0.00     0.146 A 
ATOM     11  O   UNL     1     100.740  -6.570   3.062  1.00  0.00    -0.452 OA
ENDROOT
BRANCH   1  12
ATOM     12  C   UNL     1     102.217  -8.261   3.937  1.00  0.00     0.025 A 
ATOM     13  C   UNL     1     103.060  -7.923   5.011  1.00  0.00     0.016 A 
ATOM     14  C   UNL     1     103.368  -8.868   5.992  1.00  0.00     0.051 A 
ATOM     15  C   UNL     1     102.829 -10.160   5.923  1.00  0.00     0.157 A 
ATOM     16  C   UNL     1     101.664  -9.551   3.884  1.00  0.00     0.062 A 
ATOM     17  C   UNL     1     101.971 -10.500   4.865  1.00  0.00     0.158 A 
BRANCH  15  18
ATOM     18  O   UNL     1     103.140 -11.102   6.903  1.00  0.00    -0.504 OA
ATOM     19  H   UNL     1     102.420 -11.540   7.466  1.00  0.00     0.293 HD
ENDBRANCH  15  18
BRANCH  17  20
ATOM     20  O   UNL     1     101.412 -11.775   4.771  1.00  0.00    -0.504 OA
ATOM     21  H   UNL     1     101.748 -12.551   5.329  1.00  0.00     0.293 HD
ENDBRANCH  17  20
ENDBRANCH   1  12
BRANCH   2  22
ATOM     22  O   UNL     1     103.768  -7.865   1.521  1.00  0.00    -0.502 OA
ATOM     23  H   UNL     1     103.798  -8.572   0.796  1.00  0.00     0.293 HD
ENDBRANCH   2  22
BRANCH   6  24
ATOM     24  O   UNL     1     101.338  -3.790  -0.899  1.00  0.00    -0.507 OA
ATOM     25  H   UNL     1     101.434  -2.814  -1.136  1.00  0.00     0.293 HD
ENDBRANCH   6  24
BRANCH   8  26
ATOM     26  O   UNL     1      97.436  -3.360   1.839  1.00  0.00    -0.508 OA
ATOM     27  H   UNL     1      97.163  -3.083   2.775  1.00  0.00     0.293 HD
ENDBRANCH   8  26
TORSDOF 6
ENDMDL
MODEL 5
REMARK VINA RESULT:    -5.408     10.203     13.492
REMARK INTER + INTRA:          -6.637
REMARK INTER:                  -6.343
REMARK INTRA:                  -0.294
REMARK UNBOUND:                -0.122
REMARK SMILES O=c1c(O)c(-c2ccc(O)c(O)c2)oc2cc(O)cc(O)c12
REMARK SMILES IDX 5 1 3 2 2 3 1 4 22 5 20 6 19 7 17 8 16 9 15 10 14 11 6 12
REMARK SMILES IDX 7 13 8 14 9 15 13 16 11 17 10 18 12 20 4 22 21 24 18 26
REMARK H PARENT 10 19 12 21 4 23 21 25 18 27
REMARK Flexibility Score: inf
ROOT
ATOM      1  C   UNL     1      90.167   0.305  -1.789  1.00  0.00     0.180 A 
ATOM      2  C   UNL     1      89.115   0.101  -2.699  1.00  0.00     0.208 A 
ATOM      3  C   UNL     1      87.795   0.312  -2.271  1.00  0.00     0.238 A 
ATOM      4  O   UNL     1      86.855   0.075  -3.074  1.00  0.00    -0.285 OA
ATOM      5  C   UNL     1      87.543   0.741  -0.946  1.00  0.00     0.111 A 
ATOM      6  C   UNL     1      86.248   1.025  -0.418  1.00  0.00     0.134 A 
ATOM      7  C   UNL     1      86.105   1.317   0.944  1.00  0.00     0.093 A 
ATOM      8  C   UNL     1      87.217   1.399   1.783  1.00  0.00     0.123 A 
ATOM      9  C   UNL     1      88.494   1.182   1.264  1.00  0.00     0.094 A 
ATOM     10  C   UNL     1      88.665   0.854  -0.083  1.00  0.00     0.146 A 
ATOM     11  O   UNL     1      89.895   0.644  -0.534  1.00  0.00    -0.452 OA
ENDROOT
BRANCH   1  12
ATOM     12  C   UNL     1      91.586   0.127  -2.172  1.00  0.00     0.025 A 
ATOM     13  C   UNL     1      92.174  -1.149  -2.231  1.00  0.00     0.016 A 
ATOM     14  C   UNL     1      93.509  -1.295  -2.617  1.00  0.00     0.051 A 
ATOM     15  C   UNL     1      94.272  -0.172  -2.962  1.00  0.00     0.157 A 
ATOM     16  C   UNL     1      92.350   1.248  -2.538  1.00  0.00     0.062 A 
ATOM     17  C   UNL     1      93.688   1.104  -2.925  1.00  0.00     0.158 A 
BRANCH  15  18
ATOM     18  O   UNL     1      95.604  -0.321  -3.345  1.00  0.00    -0.504 OA
ATOM     19  H   UNL     1      95.858  -0.635  -4.275  1.00  0.00     0.293 HD
ENDBRANCH  15  18
BRANCH  17  20
ATOM     20  O   UNL     1      94.418   2.242  -3.269  1.00  0.00    -0.504 OA
ATOM     21  H   UNL     1      93.972   3.082  -3.618  1.00  0.00     0.293 HD
ENDBRANCH  17  20
ENDBRANCH   1  12
BRANCH   2  22
ATOM     22  O   UNL     1      89.385  -0.344  -3.996  1.00  0.00    -0.502 OA
ATOM     23  H   UNL     1      90.182  -0.016  -4.529  1.00  0.00     0.293 HD
ENDBRANCH   2  22
BRANCH   6  24
ATOM     24  O   UNL     1      85.082   1.060  -1.189  1.00  0.00    -0.507 OA
ATOM     25  H   UNL     1      85.023   0.777  -2.156  1.00  0.00     0.293 HD
ENDBRANCH   6  24
BRANCH   8  26
ATOM     26  O   UNL     1      87.040   1.707   3.130  1.00  0.00    -0.508 OA
ATOM     27  H   UNL     1      87.381   2.576   3.524  1.00  0.00     0.293 HD
ENDBRANCH   8  26
TORSDOF 6
ENDMDL
MODEL 6
REMARK VINA RESULT:    -5.322     10.275     13.365
REMARK INTER + INTRA:          -6.533
REMARK INTER:                  -6.744
REMARK INTRA:                   0.211
REMARK UNBOUND:                -0.122
REMARK SMILES O=c1c(O)c(-c2ccc(O)c(O)c2)oc2cc(O)cc(O)c12
REMARK SMILES IDX 5 1 3 2 2 3 1 4 22 5 20 6 19 7 17 8 16 9 15 10 14 11 6 12
REMARK SMILES IDX 7 13 8 14 9 15 13 16 11 17 10 18 12 20 4 22 21 24 18 26
REMARK H PARENT 10 19 12 21 4 23 21 25 18 27
REMARK Flexibility Score: inf
ROOT
ATOM      1  C   UNL     1      90.495   0.941  -1.298  1.00  0.00     0.180 A 
ATOM      2  C   UNL     1      90.239   1.781  -0.201  1.00  0.00     0.208 A 
ATOM      3  C   UNL     1      88.910   1.989   0.201  1.00  0.00     0.238 A 
ATOM      4  O   UNL     1      88.684   2.785   1.150  1.00  0.00    -0.285 OA
ATOM      5  C   UNL     1      87.856   1.341  -0.486  1.00  0.00     0.111 A 
ATOM      6  C   UNL     1      86.476   1.447  -0.138  1.00  0.00     0.134 A 
ATOM      7  C   UNL     1      85.508   0.866  -0.967  1.00  0.00     0.093 A 
ATOM      8  C   UNL     1      85.873   0.130  -2.094  1.00  0.00     0.123 A 
ATOM      9  C   UNL     1      87.223  -0.030  -2.410  1.00  0.00     0.094 A 
ATOM     10  C   UNL     1      88.210   0.567  -1.622  1.00  0.00     0.146 A 
ATOM     11  O   UNL     1      89.482   0.399  -1.964  1.00  0.00    -0.452 OA
ENDROOT
BRANCH   1  12
ATOM     12  C   UNL     1      91.870   0.653  -1.767  1.00  0.00     0.025 A 
ATOM     13  C   UNL     1      92.229  -0.619  -2.248  1.00  0.00     0.016 A 
ATOM     14  C   UNL     1      93.526  -0.861  -2.707  1.00  0.00     0.051 A 
ATOM     15  C   UNL     1      94.480   0.165  -2.706  1.00  0.00     0.157 A 
ATOM     16  C   UNL     1      92.825   1.684  -1.787  1.00  0.00     0.062 A 
ATOM     17  C   UNL     1      94.125   1.444  -2.246  1.00  0.00     0.158 A 
BRANCH  15  18
ATOM     18  O   UNL     1      95.773  -0.080  -3.163  1.00  0.00    -0.504 OA
ATOM     19  H   UNL     1      96.146  -1.021  -3.223  1.00  0.00     0.293 HD
ENDBRANCH  15  18
BRANCH  17  20
ATOM     20  O   UNL     1      95.049   2.489  -2.239  1.00  0.00    -0.504 OA
ATOM     21  H   UNL     1      96.041   2.329  -2.114  1.00  0.00     0.293 HD
ENDBRANCH  17  20
ENDBRANCH   1  12
BRANCH   2  22
ATOM     22  O   UNL     1      91.294   2.428   0.449  1.00  0.00    -0.502 OA
ATOM     23  H   UNL     1      91.849   3.148   0.000  1.00  0.00     0.293 HD
ENDBRANCH   2  22
BRANCH   6  24
ATOM     24  O   UNL     1      86.009   2.082   1.017  1.00  0.00    -0.507 OA
ATOM     25  H   UNL     1      85.072   2.436   1.138  1.00  0.00     0.293 HD
ENDBRANCH   6  24
BRANCH   8  26
ATOM     26  O   UNL     1      84.884  -0.447  -2.888  1.00  0.00    -0.508 OA
ATOM     27  H   UNL     1      84.158  -1.030  -2.489  1.00  0.00     0.293 HD
ENDBRANCH   8  26
TORSDOF 6
ENDMDL
MODEL 7
REMARK VINA RESULT:    -5.272      2.966      7.930
REMARK INTER + INTRA:          -6.473
REMARK INTER:                  -6.149
REMARK INTRA:                  -0.324
REMARK UNBOUND:                -0.122
REMARK SMILES O=c1c(O)c(-c2ccc(O)c(O)c2)oc2cc(O)cc(O)c12
REMARK SMILES IDX 5 1 3 2 2 3 1 4 22 5 20 6 19 7 17 8 16 9 15 10 14 11 6 12
REMARK SMILES IDX 7 13 8 14 9 15 13 16 11 17 10 18 12 20 4 22 21 24 18 26
REMARK H PARENT 10 19 12 21 4 23 21 25 18 27
REMARK Flexibility Score: inf
ROOT
ATOM      1  C   UNL     1     101.348  -5.708   1.092  1.00  0.00     0.180 A 
ATOM      2  C   UNL     1     102.343  -6.675   1.309  1.00  0.00     0.208 A 
ATOM      3  C   UNL     1     102.489  -7.226   2.593  1.00  0.00     0.238 A 
ATOM      4  O   UNL     1     103.418  -8.051   2.793  1.00  0.00    -0.285 OA
ATOM      5  C   UNL     1     101.628  -6.815   3.638  1.00  0.00     0.111 A 
ATOM      6  C   UNL     1     101.659  -7.336   4.966  1.00  0.00     0.134 A 
ATOM      7  C   UNL     1     100.846  -6.764   5.952  1.00  0.00     0.093 A 
ATOM      8  C   UNL     1      99.957  -5.734   5.644  1.00  0.00     0.123 A 
ATOM      9  C   UNL     1      99.876  -5.257   4.335  1.00  0.00     0.094 A 
ATOM     10  C   UNL     1     100.699  -5.784   3.338  1.00  0.00     0.146 A 
ATOM     11  O   UNL     1     100.598  -5.295   2.107  1.00  0.00    -0.452 OA
ENDROOT
BRANCH   1  12
ATOM     12  C   UNL     1     101.116  -5.099  -0.238  1.00  0.00     0.025 A 
ATOM     13  C   UNL     1     101.795  -3.934  -0.638  1.00  0.00     0.016 A 
ATOM     14  C   UNL     1     101.578  -3.391  -1.907  1.00  0.00     0.051 A 
ATOM     15  C   UNL     1     100.691  -4.009  -2.799  1.00  0.00     0.157 A 
ATOM     16  C   UNL     1     100.244  -5.726  -1.144  1.00  0.00     0.062 A 
ATOM     17  C   UNL     1     100.024  -5.183  -2.415  1.00  0.00     0.158 A 
BRANCH  15  18
ATOM     18  O   UNL     1     100.475  -3.463  -4.063  1.00  0.00    -0.504 OA
ATOM     19  H   UNL     1      99.713  -2.818  -4.240  1.00  0.00     0.293 HD
ENDBRANCH  15  18
BRANCH  17  20
ATOM     20  O   UNL     1      99.141  -5.827  -3.282  1.00  0.00    -0.504 OA
ATOM     21  H   UNL     1      98.278  -5.394  -3.588  1.00  0.00     0.293 HD
ENDBRANCH  17  20
ENDBRANCH   1  12
BRANCH   2  22
ATOM     22  O   UNL     1     103.198  -7.049   0.268  1.00  0.00    -0.502 OA
ATOM     23  H   UNL     1     103.015  -7.851  -0.324  1.00  0.00     0.293 HD
ENDBRANCH   2  22
BRANCH   6  24
ATOM     24  O   UNL     1     102.444  -8.425   5.359  1.00  0.00    -0.507 OA
ATOM     25  H   UNL     1     102.084  -9.276   5.763  1.00  0.00     0.293 HD
ENDBRANCH   6  24
BRANCH   8  26
ATOM     26  O   UNL     1      99.153  -5.198   6.647  1.00  0.00    -0.508 OA
ATOM     27  H   UNL     1      98.179  -5.463   6.743  1.00  0.00     0.293 HD
ENDBRANCH   8  26
TORSDOF 6
ENDMDL
MODEL 8
REMARK VINA RESULT:    -5.159      4.040      7.060
REMARK INTER + INTRA:          -6.337
REMARK INTER:                  -6.071
REMARK INTRA:                  -0.267
REMARK UNBOUND:                -0.122
REMARK SMILES O=c1c(O)c(-c2ccc(O)c(O)c2)oc2cc(O)cc(O)c12
REMARK SMILES IDX 5 1 3 2 2 3 1 4 22 5 20 6 19 7 17 8 16 9 15 10 14 11 6 12
REMARK SMILES IDX 7 13 8 14 9 15 13 16 11 17 10 18 12 20 4 22 21 24 18 26
REMARK H PARENT 10 19 12 21 4 23 21 25 18 27
REMARK Flexibility Score: inf
ROOT
ATOM      1  C   UNL     1     100.045  -6.310   4.289  1.00  0.00     0.180 A 
ATOM      2  C   UNL     1     101.268  -6.899   3.925  1.00  0.00     0.208 A 
ATOM      3  C   UNL     1     101.810  -6.616   2.661  1.00  0.00     0.238 A 
ATOM      4  O   UNL     1     102.877  -7.189   2.320  1.00  0.00    -0.285 OA
ATOM      5  C   UNL     1     101.132  -5.734   1.785  1.00  0.00     0.111 A 
ATOM      6  C   UNL     1     101.611  -5.345   0.498  1.00  0.00     0.134 A 
ATOM      7  C   UNL     1     100.796  -4.569  -0.336  1.00  0.00     0.093 A 
ATOM      8  C   UNL     1      99.549  -4.116   0.094  1.00  0.00     0.123 A 
ATOM      9  C   UNL     1      99.096  -4.442   1.374  1.00  0.00     0.094 A 
ATOM     10  C   UNL     1      99.872  -5.243   2.215  1.00  0.00     0.146 A 
ATOM     11  O   UNL     1      99.401  -5.539   3.421  1.00  0.00    -0.452 OA
ENDROOT
BRANCH   1  12
ATOM     12  C   UNL     1      99.422  -6.540   5.613  1.00  0.00     0.025 A 
ATOM     13  C   UNL     1      98.769  -7.748   5.914  1.00  0.00     0.016 A 
ATOM     14  C   UNL     1      98.209  -7.953   7.178  1.00  0.00     0.051 A 
ATOM     15  C   UNL     1      98.303  -6.961   8.162  1.00  0.00     0.157 A 
ATOM     16  C   UNL     1      99.532  -5.557   6.610  1.00  0.00     0.062 A 
ATOM     17  C   UNL     1      98.971  -5.759   7.876  1.00  0.00     0.158 A 
BRANCH  15  18
ATOM     18  O   UNL     1      97.741  -7.167   9.421  1.00  0.00    -0.504 OA
ATOM     19  H   UNL     1      97.771  -8.073   9.874  1.00  0.00     0.293 HD
ENDBRANCH  15  18
BRANCH  17  20
ATOM     20  O   UNL     1      99.089  -4.753   8.837  1.00  0.00    -0.504 OA
ATOM     21  H   UNL     1      98.731  -3.819   8.683  1.00  0.00     0.293 HD
ENDBRANCH  17  20
ENDBRANCH   1  12
BRANCH   2  22
ATOM     22  O   UNL     1     101.908  -7.785   4.796  1.00  0.00    -0.502 OA
ATOM     23  H   UNL     1     102.217  -8.705   4.506  1.00  0.00     0.293 HD
ENDBRANCH   2  22
BRANCH   6  24
ATOM     24  O   UNL     1     102.880  -5.666   0.007  1.00  0.00    -0.507 OA
ATOM     25  H   UNL     1     103.402  -6.491   0.261  1.00  0.00     0.293 HD
ENDBRANCH   6  24
BRANCH   8  26
ATOM     26  O   UNL     1      98.771  -3.334  -0.757  1.00  0.00    -0.508 OA
ATOM     27  H   UNL     1      97.765  -3.274  -0.649  1.00  0.00     0.293 HD
ENDBRANCH   8  26
TORSDOF 6
ENDMDL
