MODEL 1
REMARK VINA RESULT:    -3.619      0.000      0.000
REMARK INTER + INTRA:          -4.529
REMARK INTER:                  -4.465
REMARK INTRA:                  -0.064
REMARK UNBOUND:                -0.064
REMARK SMILES CCCCCC(=O)[O-]
REMARK SMILES IDX 4 1 5 2 6 3 7 4 8 5 3 6 2 7 1 8
REMARK H PARENT
REMARK Flexibility Score: inf
ROOT
ATOM      1  C   UNL     1     -35.994 -24.224  34.074  1.00  0.00     0.006 C 
ENDROOT
BRANCH   1   2
ATOM      2  C   UNL     1     -37.174 -24.956  33.421  1.00  0.00     0.053 C 
BRANCH   2   3
ATOM      3  C   UNL     1     -36.764 -26.327  32.985  1.00  0.00     0.041 C 
ATOM      4  O   UNL     1     -37.151 -26.781  31.876  1.00  0.00    -0.550 OA
ATOM      5  O   UNL     1     -35.997 -27.123  33.825  1.00  0.00    -0.550 OA
ENDBRANCH   2   3
ENDBRANCH   1   2
BRANCH   1   6
ATOM      6  C   UNL     1     -36.381 -22.813  34.564  1.00  0.00     0.000 C 
BRANCH   6   7
ATOM      7  C   UNL     1     -35.922 -22.511  36.000  1.00  0.00    -0.003 C 
ATOM      8  C   UNL     1     -37.067 -22.089  36.918  1.00  0.00     0.004 C 
ENDBRANCH   6   7
ENDBRANCH   1   6
TORSDOF 4
ENDMDL
MODEL 2
REMARK VINA RESULT:    -2.787     11.650     12.486
REMARK INTER + INTRA:          -3.503
REMARK INTER:                  -3.394
REMARK INTRA:                  -0.109
REMARK UNBOUND:                -0.064
REMARK SMILES CCCCCC(=O)[O-]
REMARK SMILES IDX 4 1 5 2 6 3 7 4 8 5 3 6 2 7 1 8
REMARK H PARENT
REMARK Flexibility Score: inf
ROOT
ATOM      1  C   UNL     1     -47.288 -21.164  27.637  1.00  0.00     0.006 C 
ENDROOT
BRANCH   1   2
ATOM      2  C   UNL     1     -45.787 -21.366  27.392  1.00  0.00     0.053 C 
BRANCH   2   3
ATOM      3  C   UNL     1     -45.225 -22.352  28.366  1.00  0.00     0.041 C 
ATOM      4  O   UNL     1     -44.008 -22.304  28.686  1.00  0.00    -0.550 OA
ATOM      5  O   UNL     1     -46.033 -23.357  28.882  1.00  0.00    -0.550 OA
ENDBRANCH   2   3
ENDBRANCH   1   2
BRANCH   1   6
ATOM      6  C   UNL     1     -47.718 -19.694  27.449  1.00  0.00     0.000 C 
BRANCH   6   7
ATOM      7  C   UNL     1     -46.733 -18.868  26.605  1.00  0.00    -0.003 C 
ATOM      8  C   UNL     1     -46.690 -17.395  27.007  1.00  0.00     0.004 C 
ENDBRANCH   6   7
ENDBRANCH   1   6
TORSDOF 4
ENDMDL
MODEL 3
REMARK VINA RESULT:    -2.781      7.145      8.013
REMARK INTER + INTRA:          -3.495
REMARK INTER:                  -3.259
REMARK INTRA:                  -0.236
REMARK UNBOUND:                -0.064
REMARK SMILES CCCCCC(=O)[O-]
REMARK SMILES IDX 4 1 5 2 6 3 7 4 8 5 3 6 2 7 1 8
REMARK H PARENT
REMARK Flexibility Score: inf
ROOT
ATOM      1  C   UNL     1     -39.028 -20.422  27.890  1.00  0.00     0.006 C 
ENDROOT
BRANCH   1   2
ATOM      2  C   UNL     1     -40.086 -20.556  28.994  1.00  0.00     0.053 C 
BRANCH   2   3
ATOM      3  C   UNL     1     -41.136 -21.544  28.597  1.00  0.00     0.041 C 
ATOM      4  O   UNL     1     -41.376 -21.759  27.380  1.00  0.00    -0.550 OA
ATOM      5  O   UNL     1     -41.886 -22.190  29.571  1.00  0.00    -0.550 OA
ENDBRANCH   2   3
ENDBRANCH   1   2
BRANCH   1   6
ATOM      6  C   UNL     1     -37.804 -21.328  28.142  1.00  0.00     0.000 C 
BRANCH   6   7
ATOM      7  C   UNL     1     -37.855 -22.660  27.376  1.00  0.00    -0.003 C 
ATOM      8  C   UNL     1     -38.180 -23.853  28.271  1.00  0.00     0.004 C 
ENDBRANCH   6   7
ENDBRANCH   1   6
TORSDOF 4
ENDMDL
MODEL 4
REMARK VINA RESULT:    -2.753      7.345      8.068
REMARK INTER + INTRA:          -3.460
REMARK INTER:                  -3.307
REMARK INTRA:                  -0.153
REMARK UNBOUND:                -0.064
REMARK SMILES CCCCCC(=O)[O-]
REMARK SMILES IDX 4 1 5 2 6 3 7 4 8 5 3 6 2 7 1 8
REMARK H PARENT
REMARK Flexibility Score: inf
ROOT
ATOM      1  C   UNL     1     -38.768 -20.337  28.116  1.00  0.00     0.006 C 
ENDROOT
BRANCH   1   2
ATOM      2  C   UNL     1     -37.871 -21.581  28.134  1.00  0.00     0.053 C 
BRANCH   2   3
ATOM      3  C   UNL     1     -37.637 -22.079  26.743  1.00  0.00     0.041 C 
ATOM      4  O   UNL     1     -36.958 -23.122  26.548  1.00  0.00    -0.550 OA
ATOM      5  O   UNL     1     -38.126 -21.364  25.658  1.00  0.00    -0.550 OA
ENDBRANCH   2   3
ENDBRANCH   1   2
BRANCH   1   6
ATOM      6  C   UNL     1     -40.070 -20.544  28.918  1.00  0.00     0.000 C 
BRANCH   6   7
ATOM      7  C   UNL     1     -41.036 -21.551  28.275  1.00  0.00    -0.003 C 
ATOM      8  C   UNL     1     -41.877 -22.312  29.298  1.00  0.00     0.004 C 
ENDBRANCH   6   7
ENDBRANCH   1   6
TORSDOF 4
ENDMDL
MODEL 5
REMARK VINA RESULT:    -2.752      7.799      8.459
REMARK INTER + INTRA:          -3.460
REMARK INTER:                  -3.389
REMARK INTRA:                  -0.071
REMARK UNBOUND:                -0.064
REMARK SMILES CCCCCC(=O)[O-]
REMARK SMILES IDX 4 1 5 2 6 3 7 4 8 5 3 6 2 7 1 8
REMARK H PARENT
REMARK Flexibility Score: inf
ROOT
ATOM      1  C   UNL     1     -40.856 -21.819  28.328  1.00  0.00     0.006 C 
ENDROOT
BRANCH   1   2
ATOM      2  C   UNL     1     -42.008 -22.237  29.252  1.00  0.00     0.053 C 
BRANCH   2   3
ATOM      3  C   UNL     1     -43.161 -22.754  28.453  1.00  0.00     0.041 C 
ATOM      4  O   UNL     1     -44.303 -22.240  28.581  1.00  0.00    -0.550 OA
ATOM      5  O   UNL     1     -42.986 -23.838  27.602  1.00  0.00    -0.550 OA
ENDBRANCH   2   3
ENDBRANCH   1   2
BRANCH   1   6
ATOM      6  C   UNL     1     -40.120 -20.564  28.843  1.00  0.00     0.000 C 
BRANCH   6   7
ATOM      7  C   UNL     1     -38.810 -20.269  28.096  1.00  0.00    -0.003 C 
ATOM      8  C   UNL     1     -37.846 -21.454  28.086  1.00  0.00     0.004 C 
ENDBRANCH   6   7
ENDBRANCH   1   6
TORSDOF 4
ENDMDL
MODEL 6
REMARK VINA RESULT:    -2.741      8.086      8.988
REMARK INTER + INTRA:          -3.446
REMARK INTER:                  -3.238
REMARK INTRA:                  -0.207
REMARK UNBOUND:                -0.064
REMARK SMILES CCCCCC(=O)[O-]
REMARK SMILES IDX 4 1 5 2 6 3 7 4 8 5 3 6 2 7 1 8
REMARK H PARENT
REMARK Flexibility Score: inf
ROOT
ATOM      1  C   UNL     1     -40.297 -19.903  27.484  1.00  0.00     0.006 C 
ENDROOT
BRANCH   1   2
ATOM      2  C   UNL     1     -39.616 -20.446  28.747  1.00  0.00     0.053 C 
BRANCH   2   3
ATOM      3  C   UNL     1     -38.714 -21.589  28.406  1.00  0.00     0.041 C 
ATOM      4  O   UNL     1     -37.493 -21.387  28.177  1.00  0.00    -0.550 OA
ATOM      5  O   UNL     1     -39.232 -22.873  28.292  1.00  0.00    -0.550 OA
ENDBRANCH   2   3
ENDBRANCH   1   2
BRANCH   1   6
ATOM      6  C   UNL     1     -39.688 -18.561  27.025  1.00  0.00     0.000 C 
BRANCH   6   7
ATOM      7  C   UNL     1     -39.259 -18.553  25.548  1.00  0.00    -0.003 C 
ATOM      8  C   UNL     1     -38.547 -19.835  25.124  1.00  0.00     0.004 C 
ENDBRANCH   6   7
ENDBRANCH   1   6
TORSDOF 4
ENDMDL
MODEL 7
REMARK VINA RESULT:    -2.724      8.798      9.650
REMARK INTER + INTRA:          -3.424
REMARK INTER:                  -3.322
REMARK INTRA:                  -0.103
REMARK UNBOUND:                -0.064
REMARK SMILES CCCCCC(=O)[O-]
REMARK SMILES IDX 4 1 5 2 6 3 7 4 8 5 3 6 2 7 1 8
REMARK H PARENT
REMARK Flexibility Score: inf
ROOT
ATOM      1  C   UNL     1     -38.906 -20.117  28.071  1.00  0.00     0.006 C 
ENDROOT
BRANCH   1   2
ATOM      2  C   UNL     1     -39.303 -20.032  26.591  1.00  0.00     0.053 C 
BRANCH   2   3
ATOM      3  C   UNL     1     -39.478 -18.605  26.177  1.00  0.00     0.041 C 
ATOM      4  O   UNL     1     -40.095 -17.799  26.922  1.00  0.00    -0.550 OA
ATOM      5  O   UNL     1     -39.003 -18.177  24.944  1.00  0.00    -0.550 OA
ENDBRANCH   2   3
ENDBRANCH   1   2
BRANCH   1   6
ATOM      6  C   UNL     1     -40.070 -20.603  28.961  1.00  0.00     0.000 C 
BRANCH   6   7
ATOM      7  C   UNL     1     -40.749 -21.881  28.443  1.00  0.00    -0.003 C 
ATOM      8  C   UNL     1     -41.956 -22.298  29.280  1.00  0.00     0.004 C 
ENDBRANCH   6   7
ENDBRANCH   1   6
TORSDOF 4
ENDMDL
MODEL 8
REMARK VINA RESULT:    -2.707     13.416     14.027
REMARK INTER + INTRA:          -3.404
REMARK INTER:                  -3.238
REMARK INTRA:                  -0.167
REMARK UNBOUND:                -0.064
REMARK SMILES CCCCCC(=O)[O-]
REMARK SMILES IDX 4 1 5 2 6 3 7 4 8 5 3 6 2 7 1 8
REMARK H PARENT
REMARK Flexibility Score: inf
ROOT
ATOM      1  C   UNL     1     -46.322 -19.425  26.185  1.00  0.00     0.006 C 
ENDROOT
BRANCH   1   2
ATOM      2  C   UNL     1     -45.200 -18.378  26.199  1.00  0.00     0.053 C 
BRANCH   2   3
ATOM      3  C   UNL     1     -45.713 -17.065  26.700  1.00  0.00     0.041 C 
ATOM      4  O   UNL     1     -46.836 -16.998  27.266  1.00  0.00    -0.550 OA
ATOM      5  O   UNL     1     -44.974 -15.907  26.496  1.00  0.00    -0.550 OA
ENDBRANCH   2   3
ENDBRANCH   1   2
BRANCH   1   6
ATOM      6  C   UNL     1     -45.897 -20.745  26.862  1.00  0.00     0.000 C 
BRANCH   6   7
ATOM      7  C   UNL     1     -46.935 -21.290  27.856  1.00  0.00    -0.003 C 
ATOM      8  C   UNL     1     -48.103 -20.333  28.086  1.00  0.00     0.004 C 
ENDBRANCH   6   7
ENDBRANCH   1   6
TORSDOF 4
ENDMDL
MODEL 9
REMARK VINA RESULT:    -2.704      9.030      9.930
REMARK INTER + INTRA:          -3.401
REMARK INTER:                  -3.211
REMARK INTRA:                  -0.189
REMARK UNBOUND:                -0.064
REMARK SMILES CCCCCC(=O)[O-]
REMARK SMILES IDX 4 1 5 2 6 3 7 4 8 5 3 6 2 7 1 8
REMARK H PARENT
REMARK Flexibility Score: inf
ROOT
ATOM      1  C   UNL     1     -40.465 -19.738  27.292  1.00  0.00     0.006 C 
ENDROOT
BRANCH   1   2
ATOM      2  C   UNL     1     -39.748 -18.441  26.894  1.00  0.00     0.053 C 
BRANCH   2   3
ATOM      3  C   UNL     1     -39.298 -18.507  25.469  1.00  0.00     0.041 C 
ATOM      4  O   UNL     1     -39.710 -17.659  24.634  1.00  0.00    -0.550 OA
ATOM      5  O   UNL     1     -38.463 -19.535  25.051  1.00  0.00    -0.550 OA
ENDBRANCH   2   3
ENDBRANCH   1   2
BRANCH   1   6
ATOM      6  C   UNL     1     -39.916 -20.329  28.607  1.00  0.00     0.000 C 
BRANCH   6   7
ATOM      7  C   UNL     1     -39.113 -21.625  28.412  1.00  0.00    -0.003 C 
ATOM      8  C   UNL     1     -37.680 -21.377  27.944  1.00  0.00     0.004 C 
ENDBRANCH   6   7
ENDBRANCH   1   6
TORSDOF 4
ENDMDL
