MODEL 1
REMARK VINA RESULT:    -2.396      0.000      0.000
REMARK INTER + INTRA:          -3.499
REMARK INTER:                  -2.956
REMARK INTRA:                  -0.543
REMARK UNBOUND:                -0.543
REMARK SMILES CC(C)=CCC[C@@H](C)c1ccc(C)cc1
REMARK SMILES IDX 6 1 7 2 8 3 9 4 13 5 12 6 11 7 14 8 10 9 15 10 5 11 4 12
REMARK SMILES IDX 2 13 1 14 3 15
REMARK H PARENT
REMARK Flexibility Score: inf
ROOT
ATOM      1  C   UNL     1     -13.122  23.946   6.737  1.00  0.00     0.012 C 
ENDROOT
BRANCH   1   2
ATOM      2  C   UNL     1     -12.695  22.462   6.637  1.00  0.00     0.016 C 
ATOM      3  C   UNL     1     -12.926  21.875   5.236  1.00  0.00     0.013 C 
BRANCH   2   4
ATOM      4  C   UNL     1     -11.239  22.310   7.041  1.00  0.00    -0.045 A 
ATOM      5  C   UNL     1      -7.088  21.875   8.156  1.00  0.00     0.044 C 
ATOM      6  C   UNL     1      -8.533  21.996   7.772  1.00  0.00    -0.051 A 
ATOM      7  C   UNL     1      -9.500  22.287   8.746  1.00  0.00     0.004 A 
ATOM      8  C   UNL     1      -8.920  21.884   6.430  1.00  0.00     0.004 A 
ATOM      9  C   UNL     1     -10.842  22.435   8.385  1.00  0.00     0.004 A 
ATOM     10  C   UNL     1     -10.262  22.033   6.067  1.00  0.00     0.004 A 
ENDBRANCH   2   4
ENDBRANCH   1   2
BRANCH   1  11
ATOM     11  C   UNL     1     -12.011  24.943   6.347  1.00  0.00     0.028 C 
BRANCH  11  12
ATOM     12  C   UNL     1     -12.335  26.357   6.763  1.00  0.00    -0.028 C 
ATOM     13  C   UNL     1     -12.332  26.799   8.040  1.00  0.00    -0.080 C 
ATOM     14  C   UNL     1     -12.041  25.882   9.206  1.00  0.00     0.039 C 
ATOM     15  C   UNL     1     -12.661  28.247   8.300  1.00  0.00     0.039 C 
ENDBRANCH  11  12
ENDBRANCH   1  11
TORSDOF 4
ENDMDL
MODEL 2
REMARK VINA RESULT:    -1.096      0.972      5.341
REMARK INTER + INTRA:          -1.896
REMARK INTER:                  -1.194
REMARK INTRA:                  -0.702
REMARK UNBOUND:                -0.543
REMARK SMILES CC(C)=CCC[C@@H](C)c1ccc(C)cc1
REMARK SMILES IDX 6 1 7 2 8 3 9 4 13 5 12 6 11 7 14 8 10 9 15 10 5 11 4 12
REMARK SMILES IDX 2 13 1 14 3 15
REMARK H PARENT
REMARK Flexibility Score: inf
ROOT
ATOM      1  C   UNL     1     -11.032  23.357   5.200  1.00  0.00     0.012 C 
ENDROOT
BRANCH   1   2
ATOM      2  C   UNL     1     -12.483  23.475   5.723  1.00  0.00     0.016 C 
ATOM      3  C   UNL     1     -12.908  22.262   6.564  1.00  0.00     0.013 C 
BRANCH   2   4
ATOM      4  C   UNL     1     -12.647  24.756   6.523  1.00  0.00    -0.045 A 
ATOM      5  C   UNL     1     -13.101  28.382   8.827  1.00  0.00     0.044 C 
ATOM      6  C   UNL     1     -12.973  27.118   8.030  1.00  0.00    -0.051 A 
ATOM      7  C   UNL     1     -13.071  27.153   6.631  1.00  0.00     0.004 A 
ATOM      8  C   UNL     1     -12.690  25.904   8.671  1.00  0.00     0.004 A 
ATOM      9  C   UNL     1     -12.917  25.981   5.885  1.00  0.00     0.004 A 
ATOM     10  C   UNL     1     -12.534  24.732   7.925  1.00  0.00     0.004 A 
ENDBRANCH   2   4
ENDBRANCH   1   2
BRANCH   1  11
ATOM     11  C   UNL     1     -10.465  21.923   5.255  1.00  0.00     0.028 C 
BRANCH  11  12
ATOM     12  C   UNL     1      -9.080  21.876   5.856  1.00  0.00    -0.028 C 
ATOM     13  C   UNL     1      -8.815  21.973   7.177  1.00  0.00    -0.080 C 
ATOM     14  C   UNL     1      -9.905  22.192   8.200  1.00  0.00     0.039 C 
ATOM     15  C   UNL     1      -7.380  21.892   7.630  1.00  0.00     0.039 C 
ENDBRANCH  11  12
ENDBRANCH   1  11
TORSDOF 4
ENDMDL
