MODEL 1
REMARK VINA RESULT:    -4.270      0.000      0.000
REMARK INTER + INTRA:          -5.194
REMARK INTER:                  -6.018
REMARK INTRA:                   0.824
REMARK UNBOUND:                 0.824
REMARK SMILES CC1=CCC(=C(C)C)C(=O)CC(C)=CCC1
REMARK SMILES IDX 12 1 14 2 13 3 15 4 16 5 2 6 1 7 3 8 11 10 9 11 10 12 5 13
REMARK SMILES IDX 6 14 7 15 8 16 4 17
REMARK H PARENT
REMARK Flexibility Score: 60.00
ROOT
ATOM      1  C   UNL     1     -14.735  10.923 -30.492  1.00  0.00    -0.070 C 
ATOM      2  C   UNL     1     -14.719  11.716 -31.586  1.00  0.00    -0.027 C 
ATOM      3  C   UNL     1     -13.413  10.538 -29.879  1.00  0.00     0.039 C 
ENDROOT
BRANCH   2   4
ATOM      4  C   UNL     1     -15.928  12.128 -32.396  1.00  0.00     0.032 C 
BRANCH   4   5
ATOM      5  C   UNL     1     -16.563  13.470 -31.974  1.00  0.00     0.034 C 
BRANCH   5   6
ATOM      6  C   UNL     1     -15.852  14.126 -30.805  1.00  0.00    -0.077 C 
ATOM      7  C   UNL     1     -14.500  14.744 -31.064  1.00  0.00     0.039 C 
ATOM      8  C   UNL     1     -16.318  14.134 -29.533  1.00  0.00    -0.023 CG0
ATOM      9  G   UNL     1     -17.648  13.596 -29.044  1.00  0.00     0.000 G0
ENDBRANCH   5   6
ENDBRANCH   4   5
ENDBRANCH   2   4
BRANCH   1  10
ATOM     10  C   UNL     1     -16.004  10.331 -29.913  1.00  0.00     0.111 C 
BRANCH  10  11
ATOM     11  C   UNL     1     -16.634  11.250 -28.900  1.00  0.00     0.163 C 
ATOM     12  O   UNL     1     -16.169  11.248 -27.728  1.00  0.00    -0.294 OA
BRANCH  11  13
ATOM     13  C   UNL     1     -17.815  12.105 -29.219  1.00  0.00    -0.002 C 
ATOM     14  C   UNL     1     -18.948  11.561 -29.757  1.00  0.00    -0.069 C 
ATOM     15  C   UNL     1     -20.098  12.418 -30.236  1.00  0.00     0.039 C 
ATOM     16  C   UNL     1     -19.106  10.063 -29.902  1.00  0.00     0.039 C 
BRANCH  13  17
ATOM     17  C   UNL     1     -17.665  13.604 -29.009  1.00  0.00     0.066 CG0
ATOM     18  G   UNL     1     -16.338  14.128 -29.520  1.00  0.00     0.000 G0
ENDBRANCH  13  17
ENDBRANCH  11  13
ENDBRANCH  10  11
ENDBRANCH   1  10
TORSDOF 0
ENDMDL
MODEL 2
REMARK VINA RESULT:    -4.235      2.332      4.785
REMARK INTER + INTRA:          -5.144
REMARK INTER:                  -5.580
REMARK INTRA:                   0.435
REMARK UNBOUND:                 0.824
REMARK SMILES CC1=CCC(=C(C)C)C(=O)CC(C)=CCC1
REMARK SMILES IDX 12 1 14 2 13 3 15 4 16 5 2 6 1 7 3 8 11 10 9 11 10 12 5 13
REMARK SMILES IDX 6 14 7 15 8 16 4 17
REMARK H PARENT
REMARK Flexibility Score: 60.00
ROOT
ATOM      1  C   UNL     1     -17.275  12.582 -29.404  1.00  0.00    -0.070 C 
ATOM      2  C   UNL     1     -16.936  11.691 -28.447  1.00  0.00    -0.027 C 
ATOM      3  C   UNL     1     -17.582  13.995 -28.977  1.00  0.00     0.039 C 
ENDROOT
BRANCH   2   4
ATOM      4  C   UNL     1     -16.688  10.214 -28.663  1.00  0.00     0.032 C 
BRANCH   4   5
ATOM      5  C   UNL     1     -15.786   9.878 -29.869  1.00  0.00     0.034 C 
BRANCH   5   6
ATOM      6  C   UNL     1     -14.353  10.347 -29.692  1.00  0.00    -0.077 C 
ATOM      7  C   UNL     1     -13.612   9.885 -28.462  1.00  0.00     0.039 C 
ATOM      8  C   UNL     1     -13.720  11.205 -30.528  1.00  0.00    -0.023 CG0
ATOM      9  G   UNL     1     -14.256  11.780 -31.825  1.00  0.00     0.000 G0
ENDBRANCH   5   6
ENDBRANCH   4   5
ENDBRANCH   2   4
BRANCH   1  10
ATOM     10  C   UNL     1     -17.450  12.210 -30.863  1.00  0.00     0.111 C 
BRANCH  10  11
ATOM     11  C   UNL     1     -16.539  13.011 -31.754  1.00  0.00     0.163 C 
ATOM     12  O   UNL     1     -17.050  13.607 -32.742  1.00  0.00    -0.294 OA
BRANCH  11  13
ATOM     13  C   UNL     1     -15.063  13.072 -31.546  1.00  0.00    -0.002 C 
ATOM     14  C   UNL     1     -14.452  14.248 -31.205  1.00  0.00    -0.069 C 
ATOM     15  C   UNL     1     -12.947  14.378 -31.141  1.00  0.00     0.039 C 
ATOM     16  C   UNL     1     -15.259  15.484 -30.876  1.00  0.00     0.039 C 
BRANCH  13  17
ATOM     17  C   UNL     1     -14.269  11.805 -31.819  1.00  0.00     0.066 CG0
ATOM     18  G   UNL     1     -13.711  11.189 -30.551  1.00  0.00     0.000 G0
ENDBRANCH  13  17
ENDBRANCH  11  13
ENDBRANCH  10  11
ENDBRANCH   1  10
TORSDOF 0
ENDMDL
MODEL 3
REMARK VINA RESULT:    -4.146      1.721      4.104
REMARK INTER + INTRA:          -5.018
REMARK INTER:                  -5.474
REMARK INTRA:                   0.456
REMARK UNBOUND:                 0.824
REMARK SMILES CC1=CCC(=C(C)C)C(=O)CC(C)=CCC1
REMARK SMILES IDX 12 1 14 2 13 3 15 4 16 5 2 6 1 7 3 8 11 10 9 11 10 12 5 13
REMARK SMILES IDX 6 14 7 15 8 16 4 17
REMARK H PARENT
REMARK Flexibility Score: 60.00
ROOT
ATOM      1  C   UNL     1     -15.519  10.956 -28.866  1.00  0.00    -0.070 C 
ATOM      2  C   UNL     1     -16.435   9.972 -29.000  1.00  0.00    -0.027 C 
ATOM      3  C   UNL     1     -14.066  10.600 -29.055  1.00  0.00     0.039 C 
ENDROOT
BRANCH   2   4
ATOM      4  C   UNL     1     -17.921  10.109 -28.755  1.00  0.00     0.032 C 
BRANCH   4   5
ATOM      5  C   UNL     1     -18.790  10.112 -30.031  1.00  0.00     0.034 C 
BRANCH   5   6
ATOM      6  C   UNL     1     -19.176  11.507 -30.487  1.00  0.00    -0.077 C 
ATOM      7  C   UNL     1     -20.539  12.022 -30.092  1.00  0.00     0.039 C 
ATOM      8  C   UNL     1     -18.408  12.293 -31.280  1.00  0.00    -0.023 CG0
ATOM      9  G   UNL     1     -17.008  11.995 -31.780  1.00  0.00     0.000 G0
ENDBRANCH   5   6
ENDBRANCH   4   5
ENDBRANCH   2   4
BRANCH   1  10
ATOM     10  C   UNL     1     -15.872  12.369 -28.448  1.00  0.00     0.111 C 
BRANCH  10  11
ATOM     11  C   UNL     1     -16.253  13.220 -29.630  1.00  0.00     0.163 C 
ATOM     12  O   UNL     1     -16.904  14.279 -29.414  1.00  0.00    -0.294 OA
BRANCH  11  13
ATOM     13  C   UNL     1     -15.942  12.825 -31.035  1.00  0.00    -0.002 C 
ATOM     14  C   UNL     1     -14.794  13.251 -31.644  1.00  0.00    -0.069 C 
ATOM     15  C   UNL     1     -14.526  13.001 -33.111  1.00  0.00     0.039 C 
ATOM     16  C   UNL     1     -13.729  13.999 -30.873  1.00  0.00     0.039 C 
BRANCH  13  17
ATOM     17  C   UNL     1     -16.993  12.018 -31.780  1.00  0.00     0.066 CG0
ATOM     18  G   UNL     1     -18.396  12.295 -31.276  1.00  0.00     0.000 G0
ENDBRANCH  13  17
ENDBRANCH  11  13
ENDBRANCH  10  11
ENDBRANCH   1  10
TORSDOF 0
ENDMDL
MODEL 4
REMARK VINA RESULT:    -3.995      2.489      4.194
REMARK INTER + INTRA:          -4.806
REMARK INTER:                  -5.608
REMARK INTRA:                   0.803
REMARK UNBOUND:                 0.824
REMARK SMILES CC1=CCC(=C(C)C)C(=O)CC(C)=CCC1
REMARK SMILES IDX 12 1 14 2 13 3 15 4 16 5 2 6 1 7 3 8 11 10 9 11 10 12 5 13
REMARK SMILES IDX 6 14 7 15 8 16 4 17
REMARK H PARENT
REMARK Flexibility Score: 60.00
ROOT
ATOM      1  C   UNL     1     -16.044  14.264 -30.600  1.00  0.00    -0.070 C 
ATOM      2  C   UNL     1     -14.885  14.943 -30.452  1.00  0.00    -0.027 C 
ATOM      3  C   UNL     1     -16.928  14.104 -29.389  1.00  0.00     0.039 C 
ENDROOT
BRANCH   2   4
ATOM      4  C   UNL     1     -13.826  15.125 -31.517  1.00  0.00     0.032 C 
BRANCH   4   5
ATOM      5  C   UNL     1     -12.503  14.376 -31.250  1.00  0.00     0.034 C 
BRANCH   5   6
ATOM      6  C   UNL     1     -12.302  13.177 -32.159  1.00  0.00    -0.077 C 
ATOM      7  C   UNL     1     -11.514  13.384 -33.428  1.00  0.00     0.039 C 
ATOM      8  C   UNL     1     -12.839  11.952 -31.940  1.00  0.00    -0.023 CG0
ATOM      9  G   UNL     1     -13.643  11.510 -30.733  1.00  0.00     0.000 G0
ENDBRANCH   5   6
ENDBRANCH   4   5
ENDBRANCH   2   4
BRANCH   1  10
ATOM     10  C   UNL     1     -16.450  13.584 -31.891  1.00  0.00     0.111 C 
BRANCH  10  11
ATOM     11  C   UNL     1     -15.657  12.326 -32.130  1.00  0.00     0.163 C 
ATOM     12  O   UNL     1     -15.461  11.965 -33.322  1.00  0.00    -0.294 OA
BRANCH  11  13
ATOM     13  C   UNL     1     -15.154  11.472 -31.014  1.00  0.00    -0.002 C 
ATOM     14  C   UNL     1     -16.022  10.757 -30.235  1.00  0.00    -0.069 C 
ATOM     15  C   UNL     1     -15.561  10.010 -29.003  1.00  0.00     0.039 C 
ATOM     16  C   UNL     1     -17.495  10.679 -30.570  1.00  0.00     0.039 C 
BRANCH  13  17
ATOM     17  C   UNL     1     -13.662  11.509 -30.727  1.00  0.00     0.066 CG0
ATOM     18  G   UNL     1     -12.854  11.948 -31.932  1.00  0.00     0.000 G0
ENDBRANCH  13  17
ENDBRANCH  11  13
ENDBRANCH  10  11
ENDBRANCH   1  10
TORSDOF 0
ENDMDL
MODEL 5
REMARK VINA RESULT:    -3.898      2.012      3.509
REMARK INTER + INTRA:          -4.670
REMARK INTER:                  -5.922
REMARK INTRA:                   1.252
REMARK UNBOUND:                 0.824
REMARK SMILES CC1=CCC(=C(C)C)C(=O)CC(C)=CCC1
REMARK SMILES IDX 12 1 14 2 13 3 15 4 16 5 2 6 1 7 3 8 11 10 9 11 10 12 5 13
REMARK SMILES IDX 6 14 7 15 8 16 4 17
REMARK H PARENT
REMARK Flexibility Score: 60.00
ROOT
ATOM      1  C   UNL     1     -15.212  13.767 -30.603  1.00  0.00    -0.070 C 
ATOM      2  C   UNL     1     -14.316  12.809 -30.927  1.00  0.00    -0.027 C 
ATOM      3  C   UNL     1     -14.799  15.207 -30.772  1.00  0.00     0.039 C 
ENDROOT
BRANCH   2   4
ATOM      4  C   UNL     1     -14.507  11.320 -30.737  1.00  0.00     0.032 C 
BRANCH   4   5
ATOM      5  C   UNL     1     -13.909  10.751 -29.434  1.00  0.00     0.034 C 
BRANCH   5   6
ATOM      6  C   UNL     1     -14.909  10.694 -28.293  1.00  0.00    -0.077 C 
ATOM      7  C   UNL     1     -14.395  10.952 -26.898  1.00  0.00     0.039 C 
ATOM      8  C   UNL     1     -16.215  10.362 -28.436  1.00  0.00    -0.023 CG0
ATOM      9  G   UNL     1     -16.950  10.084 -29.732  1.00  0.00     0.000 G0
ENDBRANCH   5   6
ENDBRANCH   4   5
ENDBRANCH   2   4
BRANCH   1  10
ATOM     10  C   UNL     1     -16.567  13.467 -29.995  1.00  0.00     0.111 C 
BRANCH  10  11
ATOM     11  C   UNL     1     -17.304  12.410 -30.775  1.00  0.00     0.163 C 
ATOM     12  O   UNL     1     -17.454  12.584 -32.015  1.00  0.00    -0.294 OA
BRANCH  11  13
ATOM     13  C   UNL     1     -17.908  11.210 -30.125  1.00  0.00    -0.002 C 
ATOM     14  C   UNL     1     -19.240  11.177 -29.816  1.00  0.00    -0.069 C 
ATOM     15  C   UNL     1     -19.848  10.046 -29.018  1.00  0.00     0.039 C 
ATOM     16  C   UNL     1     -20.175  12.280 -30.259  1.00  0.00     0.039 C 
BRANCH  13  17
ATOM     17  C   UNL     1     -16.966  10.079 -29.740  1.00  0.00     0.066 CG0
ATOM     18  G   UNL     1     -16.208  10.370 -28.460  1.00  0.00     0.000 G0
ENDBRANCH  13  17
ENDBRANCH  11  13
ENDBRANCH  10  11
ENDBRANCH   1  10
TORSDOF 0
ENDMDL
MODEL 6
REMARK VINA RESULT:    -3.830      2.219      4.887
REMARK INTER + INTRA:          -4.573
REMARK INTER:                  -4.862
REMARK INTRA:                   0.290
REMARK UNBOUND:                 0.824
REMARK SMILES CC1=CCC(=C(C)C)C(=O)CC(C)=CCC1
REMARK SMILES IDX 12 1 14 2 13 3 15 4 16 5 2 6 1 7 3 8 11 10 9 11 10 12 5 13
REMARK SMILES IDX 6 14 7 15 8 16 4 17
REMARK H PARENT
REMARK Flexibility Score: 60.00
ROOT
ATOM      1  C   UNL     1     -16.229  14.009 -30.577  1.00  0.00    -0.070 C 
ATOM      2  C   UNL     1     -16.862  13.717 -29.420  1.00  0.00    -0.027 C 
ATOM      3  C   UNL     1     -15.129  15.039 -30.539  1.00  0.00     0.039 C 
ENDROOT
BRANCH   2   4
ATOM      4  C   UNL     1     -18.048  12.789 -29.272  1.00  0.00     0.032 C 
BRANCH   4   5
ATOM      5  C   UNL     1     -17.697  11.286 -29.257  1.00  0.00     0.034 C 
BRANCH   5   6
ATOM      6  C   UNL     1     -16.304  11.004 -28.725  1.00  0.00    -0.077 C 
ATOM      7  C   UNL     1     -16.090  11.102 -27.234  1.00  0.00     0.039 C 
ATOM      8  C   UNL     1     -15.227  10.737 -29.503  1.00  0.00    -0.023 CG0
ATOM      9  G   UNL     1     -15.207  10.572 -31.010  1.00  0.00     0.000 G0
ENDBRANCH   5   6
ENDBRANCH   4   5
ENDBRANCH   2   4
BRANCH   1  10
ATOM     10  C   UNL     1     -16.630  13.424 -31.916  1.00  0.00     0.111 C 
BRANCH  10  11
ATOM     11  C   UNL     1     -15.508  12.634 -32.537  1.00  0.00     0.163 C 
ATOM     12  O   UNL     1     -15.383  12.667 -33.791  1.00  0.00    -0.294 OA
BRANCH  11  13
ATOM     13  C   UNL     1     -14.590  11.777 -31.731  1.00  0.00    -0.002 C 
ATOM     14  C   UNL     1     -13.244  12.017 -31.714  1.00  0.00    -0.069 C 
ATOM     15  C   UNL     1     -12.272  11.077 -31.037  1.00  0.00     0.039 C 
ATOM     16  C   UNL     1     -12.658  13.244 -32.376  1.00  0.00     0.039 C 
BRANCH  13  17
ATOM     17  C   UNL     1     -15.201  10.582 -31.017  1.00  0.00     0.066 CG0
ATOM     18  G   UNL     1     -15.215  10.755 -29.511  1.00  0.00     0.000 G0
ENDBRANCH  13  17
ENDBRANCH  11  13
ENDBRANCH  10  11
ENDBRANCH   1  10
TORSDOF 0
ENDMDL
MODEL 7
REMARK VINA RESULT:    -3.641      8.130     10.556
REMARK INTER + INTRA:          -4.307
REMARK INTER:                  -5.136
REMARK INTRA:                   0.829
REMARK UNBOUND:                 0.824
REMARK SMILES CC1=CCC(=C(C)C)C(=O)CC(C)=CCC1
REMARK SMILES IDX 12 1 14 2 13 3 15 4 16 5 2 6 1 7 3 8 11 10 9 11 10 12 5 13
REMARK SMILES IDX 6 14 7 15 8 16 4 17
REMARK H PARENT
REMARK Flexibility Score: 60.00
ROOT
ATOM      1  C   UNL     1     -25.552  10.181 -28.627  1.00  0.00    -0.070 C 
ATOM      2  C   UNL     1     -26.780   9.877 -28.153  1.00  0.00    -0.027 C 
ATOM      3  C   UNL     1     -24.400  10.185 -27.654  1.00  0.00     0.039 C 
ENDROOT
BRANCH   2   4
ATOM      4  C   UNL     1     -28.068   9.914 -28.947  1.00  0.00     0.032 C 
BRANCH   4   5
ATOM      5  C   UNL     1     -28.926  11.178 -28.729  1.00  0.00     0.034 C 
BRANCH   5   6
ATOM      6  C   UNL     1     -28.940  12.105 -29.931  1.00  0.00    -0.077 C 
ATOM      7  C   UNL     1     -30.093  11.983 -30.897  1.00  0.00     0.039 C 
ATOM      8  C   UNL     1     -27.954  12.985 -30.229  1.00  0.00    -0.023 CG0
ATOM      9  G   UNL     1     -26.721  13.290 -29.402  1.00  0.00     0.000 G0
ENDBRANCH   5   6
ENDBRANCH   4   5
ENDBRANCH   2   4
BRANCH   1  10
ATOM     10  C   UNL     1     -25.295  10.604 -30.059  1.00  0.00     0.111 C 
BRANCH  10  11
ATOM     11  C   UNL     1     -24.646  11.961 -30.130  1.00  0.00     0.163 C 
ATOM     12  O   UNL     1     -23.388  12.021 -30.078  1.00  0.00    -0.294 OA
BRANCH  11  13
ATOM     13  C   UNL     1     -25.437  13.225 -30.196  1.00  0.00    -0.002 C 
ATOM     14  C   UNL     1     -24.965  14.312 -30.880  1.00  0.00    -0.069 C 
ATOM     15  C   UNL     1     -25.664  15.652 -30.835  1.00  0.00     0.039 C 
ATOM     16  C   UNL     1     -23.709  14.224 -31.719  1.00  0.00     0.039 C 
BRANCH  13  17
ATOM     17  C   UNL     1     -26.731  13.279 -29.399  1.00  0.00     0.066 CG0
ATOM     18  G   UNL     1     -27.948  12.992 -30.255  1.00  0.00     0.000 G0
ENDBRANCH  13  17
ENDBRANCH  11  13
ENDBRANCH  10  11
ENDBRANCH   1  10
TORSDOF 0
ENDMDL
MODEL 8
REMARK VINA RESULT:    -3.542      1.994      3.937
REMARK INTER + INTRA:          -4.167
REMARK INTER:                  -5.018
REMARK INTRA:                   0.850
REMARK UNBOUND:                 0.824
REMARK SMILES CC1=CCC(=C(C)C)C(=O)CC(C)=CCC1
REMARK SMILES IDX 12 1 14 2 13 3 15 4 16 5 2 6 1 7 3 8 11 10 9 11 10 12 5 13
REMARK SMILES IDX 6 14 7 15 8 16 4 17
REMARK H PARENT
REMARK Flexibility Score: 60.00
ROOT
ATOM      1  C   UNL     1     -17.811  12.781 -30.314  1.00  0.00    -0.070 C 
ATOM      2  C   UNL     1     -17.036  13.725 -30.892  1.00  0.00    -0.027 C 
ATOM      3  C   UNL     1     -19.117  12.434 -30.982  1.00  0.00     0.039 C 
ENDROOT
BRANCH   2   4
ATOM      4  C   UNL     1     -15.745  14.276 -30.327  1.00  0.00     0.032 C 
BRANCH   4   5
ATOM      5  C   UNL     1     -14.462  13.702 -30.962  1.00  0.00     0.034 C 
BRANCH   5   6
ATOM      6  C   UNL     1     -14.678  12.358 -31.635  1.00  0.00    -0.077 C 
ATOM      7  C   UNL     1     -15.102  12.361 -33.084  1.00  0.00     0.039 C 
ATOM      8  C   UNL     1     -14.582  11.163 -31.005  1.00  0.00    -0.023 CG0
ATOM      9  G   UNL     1     -14.157  10.917 -29.571  1.00  0.00     0.000 G0
ENDBRANCH   5   6
ENDBRANCH   4   5
ENDBRANCH   2   4
BRANCH   1  10
ATOM     10  C   UNL     1     -17.476  12.128 -28.989  1.00  0.00     0.111 C 
BRANCH  10  11
ATOM     11  C   UNL     1     -16.704  10.849 -29.178  1.00  0.00     0.163 C 
ATOM     12  O   UNL     1     -17.271   9.898 -29.783  1.00  0.00    -0.294 OA
BRANCH  11  13
ATOM     13  C   UNL     1     -15.331  10.653 -28.627  1.00  0.00    -0.002 C 
ATOM     14  C   UNL     1     -15.145  10.330 -27.312  1.00  0.00    -0.069 C 
ATOM     15  C   UNL     1     -13.768  10.280 -26.687  1.00  0.00     0.039 C 
ATOM     16  C   UNL     1     -16.316  10.007 -26.410  1.00  0.00     0.039 C 
BRANCH  13  17
ATOM     17  C   UNL     1     -14.162  10.920 -29.562  1.00  0.00     0.066 CG0
ATOM     18  G   UNL     1     -14.607  11.137 -30.995  1.00  0.00     0.000 G0
ENDBRANCH  13  17
ENDBRANCH  11  13
ENDBRANCH  10  11
ENDBRANCH   1  10
TORSDOF 0
ENDMDL
MODEL 9
REMARK VINA RESULT:    -3.281      1.787      4.224
REMARK INTER + INTRA:          -3.799
REMARK INTER:                  -4.275
REMARK INTRA:                   0.475
REMARK UNBOUND:                 0.824
REMARK SMILES CC1=CCC(=C(C)C)C(=O)CC(C)=CCC1
REMARK SMILES IDX 12 1 14 2 13 3 15 4 16 5 2 6 1 7 3 8 11 10 9 11 10 12 5 13
REMARK SMILES IDX 6 14 7 15 8 16 4 17
REMARK H PARENT
REMARK Flexibility Score: 60.00
ROOT
ATOM      1  C   UNL     1     -15.912  11.197 -27.827  1.00  0.00    -0.070 C 
ATOM      2  C   UNL     1     -17.029  11.948 -27.713  1.00  0.00    -0.027 C 
ATOM      3  C   UNL     1     -15.789   9.977 -26.949  1.00  0.00     0.039 C 
ENDROOT
BRANCH   2   4
ATOM      4  C   UNL     1     -17.293  13.253 -28.432  1.00  0.00     0.032 C 
BRANCH   4   5
ATOM      5  C   UNL     1     -18.513  13.236 -29.378  1.00  0.00     0.034 C 
BRANCH   5   6
ATOM      6  C   UNL     1     -18.490  12.081 -30.362  1.00  0.00    -0.077 C 
ATOM      7  C   UNL     1     -19.574  11.038 -30.243  1.00  0.00     0.039 C 
ATOM      8  C   UNL     1     -17.525  11.888 -31.293  1.00  0.00    -0.023 CG0
ATOM      9  G   UNL     1     -16.359  12.806 -31.605  1.00  0.00     0.000 G0
ENDBRANCH   5   6
ENDBRANCH   4   5
ENDBRANCH   2   4
BRANCH   1  10
ATOM     10  C   UNL     1     -14.747  11.570 -28.720  1.00  0.00     0.111 C 
BRANCH  10  11
ATOM     11  C   UNL     1     -14.986  11.155 -30.148  1.00  0.00     0.163 C 
ATOM     12  O   UNL     1     -15.119   9.926 -30.394  1.00  0.00    -0.294 OA
BRANCH  11  13
ATOM     13  C   UNL     1     -15.008  12.135 -31.273  1.00  0.00    -0.002 C 
ATOM     14  C   UNL     1     -13.854  12.483 -31.921  1.00  0.00    -0.069 C 
ATOM     15  C   UNL     1     -13.819  13.585 -32.955  1.00  0.00     0.039 C 
ATOM     16  C   UNL     1     -12.548  11.778 -31.629  1.00  0.00     0.039 C 
BRANCH  13  17
ATOM     17  C   UNL     1     -16.340  12.791 -31.599  1.00  0.00     0.066 CG0
ATOM     18  G   UNL     1     -17.517  11.882 -31.305  1.00  0.00     0.000 G0
ENDBRANCH  13  17
ENDBRANCH  11  13
ENDBRANCH  10  11
ENDBRANCH   1  10
TORSDOF 0
ENDMDL
