MODEL 1
REMARK VINA RESULT:    -4.170      0.000      0.000
REMARK INTER + INTRA:          -6.310
REMARK INTER:                  -6.365
REMARK INTRA:                   0.055
REMARK UNBOUND:                 0.055
REMARK SMILES CC1=CCC[C@H](C)C(=O)C[C@H](C(C)C)C(=O)C1
REMARK SMILES IDX 8 1 9 2 6 3 7 4 5 5 4 6 3 7 2 8 1 9 10 11 11 12 15 13 16 14
REMARK SMILES IDX 17 15 12 17 13 18 14 19
REMARK H PARENT
REMARK Flexibility Score: 70.00
ROOT
ATOM      1  C   UNL     1      16.945  16.067  23.926  1.00  0.00     0.136 C 
ATOM      2  O   UNL     1      16.699  15.069  23.263  1.00  0.00    -0.299 OA
ENDROOT
BRANCH   1   3
ATOM      3  C   UNL     1      15.979  16.458  25.030  1.00  0.00     0.053 C 
ATOM      4  C   UNL     1      14.629  16.901  24.451  1.00  0.00     0.016 C 
BRANCH   3   5
ATOM      5  C   UNL     1      15.806  15.281  26.020  1.00  0.00     0.015 C 
BRANCH   5   6
ATOM      6  C   UNL     1      17.116  14.920  26.753  1.00  0.00     0.028 C 
BRANCH   6   7
ATOM      7  C   UNL     1      17.703  13.621  26.253  1.00  0.00    -0.028 C 
ATOM      8  C   UNL     1      18.994  13.440  25.887  1.00  0.00    -0.070 CG0
ATOM      9  C   UNL     1      19.403  12.080  25.379  1.00  0.00     0.039 C 
ATOM     10  G   UNL     1      20.043  14.537  25.952  1.00  0.00     0.000 G0
ENDBRANCH   6   7
ENDBRANCH   5   6
ENDBRANCH   3   5
ENDBRANCH   1   3
BRANCH   1  11
ATOM     11  C   UNL     1      18.234  16.812  23.614  1.00  0.00     0.087 C 
BRANCH  11  12
ATOM     12  C   UNL     1      19.368  16.756  24.674  1.00  0.00     0.066 C 
BRANCH  12  13
ATOM     13  C   UNL     1      20.073  15.406  24.681  1.00  0.00     0.140 C 
ATOM     14  O   UNL     1      20.699  15.045  23.695  1.00  0.00    -0.299 OA
BRANCH  13  15
ATOM     15  C   UNL     1      20.061  14.535  25.919  1.00  0.00     0.106 CG0
ATOM     16  G   UNL     1      19.010  13.440  25.855  1.00  0.00     0.000 G0
ENDBRANCH  13  15
ENDBRANCH  12  13
BRANCH  12  17
ATOM     17  C   UNL     1      20.367  17.946  24.508  1.00  0.00    -0.006 C 
ATOM     18  C   UNL     1      21.767  17.583  25.027  1.00  0.00     0.008 C 
ATOM     19  C   UNL     1      20.469  18.497  23.075  1.00  0.00     0.008 C 
ENDBRANCH  12  17
ENDBRANCH  11  12
ENDBRANCH   1  11
TORSDOF 1
ENDMDL
MODEL 2
REMARK VINA RESULT:    -4.161      3.499      5.748
REMARK INTER + INTRA:          -6.295
REMARK INTER:                  -6.598
REMARK INTRA:                   0.302
REMARK UNBOUND:                 0.055
REMARK SMILES CC1=CCC[C@H](C)C(=O)C[C@H](C(C)C)C(=O)C1
REMARK SMILES IDX 8 1 9 2 6 3 7 4 5 5 4 6 3 7 2 8 1 9 10 11 11 12 15 13 16 14
REMARK SMILES IDX 17 15 12 17 13 18 14 19
REMARK H PARENT
REMARK Flexibility Score: 70.00
ROOT
ATOM      1  C   UNL     1      16.583  16.735  23.688  1.00  0.00     0.136 C 
ATOM      2  O   UNL     1      17.692  16.990  23.241  1.00  0.00    -0.299 OA
ENDROOT
BRANCH   1   3
ATOM      3  C   UNL     1      16.408  15.471  24.510  1.00  0.00     0.053 C 
ATOM      4  C   UNL     1      17.252  14.322  23.943  1.00  0.00     0.016 C 
BRANCH   3   5
ATOM      5  C   UNL     1      16.763  15.751  25.990  1.00  0.00     0.015 C 
BRANCH   5   6
ATOM      6  C   UNL     1      15.559  16.270  26.806  1.00  0.00     0.028 C 
BRANCH   6   7
ATOM      7  C   UNL     1      14.325  15.425  26.592  1.00  0.00    -0.028 C 
ATOM      8  C   UNL     1      13.272  15.768  25.813  1.00  0.00    -0.070 CG0
ATOM      9  C   UNL     1      12.106  14.815  25.739  1.00  0.00     0.039 C 
ATOM     10  G   UNL     1      13.203  17.063  25.022  1.00  0.00     0.000 G0
ENDBRANCH   6   7
ENDBRANCH   5   6
ENDBRANCH   3   5
ENDBRANCH   1   3
BRANCH   1  11
ATOM     11  C   UNL     1      15.473  17.740  23.418  1.00  0.00     0.087 C 
BRANCH  11  12
ATOM     12  C   UNL     1      14.236  17.243  22.620  1.00  0.00     0.066 C 
BRANCH  12  13
ATOM     13  C   UNL     1      13.091  16.842  23.540  1.00  0.00     0.140 C 
ATOM     14  O   UNL     1      12.109  16.281  23.075  1.00  0.00    -0.299 OA
BRANCH  13  15
ATOM     15  C   UNL     1      13.185  17.069  25.034  1.00  0.00     0.106 CG0
ATOM     16  G   UNL     1      13.275  15.771  25.819  1.00  0.00     0.000 G0
ENDBRANCH  13  15
ENDBRANCH  12  13
BRANCH  12  17
ATOM     17  C   UNL     1      13.795  18.283  21.541  1.00  0.00    -0.006 C 
ATOM     18  C   UNL     1      13.291  19.584  22.185  1.00  0.00     0.008 C 
ATOM     19  C   UNL     1      14.871  18.607  20.489  1.00  0.00     0.008 C 
ENDBRANCH  12  17
ENDBRANCH  11  12
ENDBRANCH   1  11
TORSDOF 1
ENDMDL
MODEL 3
REMARK VINA RESULT:    -4.035      1.862      4.477
REMARK INTER + INTRA:          -6.103
REMARK INTER:                  -5.839
REMARK INTRA:                  -0.264
REMARK UNBOUND:                 0.055
REMARK SMILES CC1=CCC[C@H](C)C(=O)C[C@H](C(C)C)C(=O)C1
REMARK SMILES IDX 8 1 9 2 6 3 7 4 5 5 4 6 3 7 2 8 1 9 10 11 11 12 15 13 16 14
REMARK SMILES IDX 17 15 12 17 13 18 14 19
REMARK H PARENT
REMARK Flexibility Score: 70.00
ROOT
ATOM      1  C   UNL     1      18.878  13.753  24.038  1.00  0.00     0.136 C 
ATOM      2  O   UNL     1      19.473  13.267  23.087  1.00  0.00    -0.299 OA
ENDROOT
BRANCH   1   3
ATOM      3  C   UNL     1      19.265  13.309  25.437  1.00  0.00     0.053 C 
ATOM      4  C   UNL     1      18.889  11.840  25.674  1.00  0.00     0.016 C 
BRANCH   3   5
ATOM      5  C   UNL     1      20.777  13.545  25.665  1.00  0.00     0.015 C 
BRANCH   5   6
ATOM      6  C   UNL     1      21.123  15.036  25.880  1.00  0.00     0.028 C 
BRANCH   6   7
ATOM      7  C   UNL     1      21.663  15.677  24.623  1.00  0.00    -0.028 C 
ATOM      8  C   UNL     1      21.159  16.789  24.038  1.00  0.00    -0.070 CG0
ATOM      9  C   UNL     1      21.804  17.275  22.766  1.00  0.00     0.039 C 
ATOM     10  G   UNL     1      19.975  17.562  24.594  1.00  0.00     0.000 G0
ENDBRANCH   6   7
ENDBRANCH   5   6
ENDBRANCH   3   5
ENDBRANCH   1   3
BRANCH   1  11
ATOM     11  C   UNL     1      17.822  14.805  23.737  1.00  0.00     0.087 C 
BRANCH  11  12
ATOM     12  C   UNL     1      17.820  16.090  24.611  1.00  0.00     0.066 C 
BRANCH  12  13
ATOM     13  C   UNL     1      18.652  17.202  23.987  1.00  0.00     0.140 C 
ATOM     14  O   UNL     1      18.216  17.816  23.024  1.00  0.00    -0.299 OA
BRANCH  13  15
ATOM     15  C   UNL     1      19.984  17.600  24.587  1.00  0.00     0.106 CG0
ATOM     16  G   UNL     1      21.143  16.792  24.027  1.00  0.00     0.000 G0
ENDBRANCH  13  15
ENDBRANCH  12  13
BRANCH  12  17
ATOM     17  C   UNL     1      16.367  16.553  24.947  1.00  0.00    -0.006 C 
ATOM     18  C   UNL     1      15.376  16.145  23.845  1.00  0.00     0.008 C 
ATOM     19  C   UNL     1      15.846  16.078  26.316  1.00  0.00     0.008 C 
ENDBRANCH  12  17
ENDBRANCH  11  12
ENDBRANCH   1  11
TORSDOF 1
ENDMDL
MODEL 4
REMARK VINA RESULT:    -4.017      5.470      7.490
REMARK INTER + INTRA:          -6.076
REMARK INTER:                  -6.006
REMARK INTRA:                  -0.069
REMARK UNBOUND:                 0.055
REMARK SMILES CC1=CCC[C@H](C)C(=O)C[C@H](C(C)C)C(=O)C1
REMARK SMILES IDX 8 1 9 2 6 3 7 4 5 5 4 6 3 7 2 8 1 9 10 11 11 12 15 13 16 14
REMARK SMILES IDX 17 15 12 17 13 18 14 19
REMARK H PARENT
REMARK Flexibility Score: 70.00
ROOT
ATOM      1  C   UNL     1      14.148  17.021  24.775  1.00  0.00     0.136 C 
ATOM      2  O   UNL     1      15.272  17.443  24.542  1.00  0.00    -0.299 OA
ENDROOT
BRANCH   1   3
ATOM      3  C   UNL     1      14.003  15.817  25.688  1.00  0.00     0.053 C 
ATOM      4  C   UNL     1      14.718  16.049  27.026  1.00  0.00     0.016 C 
BRANCH   3   5
ATOM      5  C   UNL     1      12.505  15.495  25.902  1.00  0.00     0.015 C 
BRANCH   5   6
ATOM      6  C   UNL     1      12.028  14.286  25.066  1.00  0.00     0.028 C 
BRANCH   6   7
ATOM      7  C   UNL     1      10.625  14.480  24.542  1.00  0.00    -0.028 C 
ATOM      8  C   UNL     1      10.310  15.010  23.337  1.00  0.00    -0.070 CG0
ATOM      9  C   UNL     1       8.851  15.160  22.987  1.00  0.00     0.039 C 
ATOM     10  G   UNL     1      11.349  15.468  22.327  1.00  0.00     0.000 G0
ENDBRANCH   6   7
ENDBRANCH   5   6
ENDBRANCH   3   5
ENDBRANCH   1   3
BRANCH   1  11
ATOM     11  C   UNL     1      12.978  17.774  24.161  1.00  0.00     0.087 C 
BRANCH  11  12
ATOM     12  C   UNL     1      12.789  17.672  22.622  1.00  0.00     0.066 C 
BRANCH  12  13
ATOM     13  C   UNL     1      11.473  16.998  22.256  1.00  0.00     0.140 C 
ATOM     14  O   UNL     1      10.538  17.675  21.854  1.00  0.00    -0.299 OA
BRANCH  13  15
ATOM     15  C   UNL     1      11.334  15.492  22.320  1.00  0.00     0.106 CG0
ATOM     16  G   UNL     1      10.311  15.042  23.349  1.00  0.00     0.000 G0
ENDBRANCH  13  15
ENDBRANCH  12  13
BRANCH  12  17
ATOM     17  C   UNL     1      12.956  19.063  21.931  1.00  0.00    -0.006 C 
ATOM     18  C   UNL     1      13.335  20.155  22.944  1.00  0.00     0.008 C 
ATOM     19  C   UNL     1      13.950  19.076  20.756  1.00  0.00     0.008 C 
ENDBRANCH  12  17
ENDBRANCH  11  12
ENDBRANCH   1  11
TORSDOF 1
ENDMDL
MODEL 5
REMARK VINA RESULT:    -3.920      3.189      5.341
REMARK INTER + INTRA:          -5.928
REMARK INTER:                  -6.301
REMARK INTRA:                   0.373
REMARK UNBOUND:                 0.055
REMARK SMILES CC1=CCC[C@H](C)C(=O)C[C@H](C(C)C)C(=O)C1
REMARK SMILES IDX 8 1 9 2 6 3 7 4 5 5 4 6 3 7 2 8 1 9 10 11 11 12 15 13 16 14
REMARK SMILES IDX 17 15 12 17 13 18 14 19
REMARK H PARENT
REMARK Flexibility Score: 70.00
ROOT
ATOM      1  C   UNL     1      14.811  18.133  23.152  1.00  0.00     0.136 C 
ATOM      2  O   UNL     1      15.329  18.955  22.409  1.00  0.00    -0.299 OA
ENDROOT
BRANCH   1   3
ATOM      3  C   UNL     1      13.419  18.418  23.688  1.00  0.00     0.053 C 
ATOM      4  C   UNL     1      13.139  19.926  23.720  1.00  0.00     0.016 C 
BRANCH   3   5
ATOM      5  C   UNL     1      12.365  17.669  22.839  1.00  0.00     0.015 C 
BRANCH   5   6
ATOM      6  C   UNL     1      12.472  16.133  22.972  1.00  0.00     0.028 C 
BRANCH   6   7
ATOM      7  C   UNL     1      11.865  15.634  24.262  1.00  0.00    -0.028 C 
ATOM      8  C   UNL     1      12.554  15.059  25.275  1.00  0.00    -0.070 CG0
ATOM      9  C   UNL     1      11.781  14.589  26.481  1.00  0.00     0.039 C 
ATOM     10  G   UNL     1      14.060  14.857  25.253  1.00  0.00     0.000 G0
ENDBRANCH   6   7
ENDBRANCH   5   6
ENDBRANCH   3   5
ENDBRANCH   1   3
BRANCH   1  11
ATOM     11  C   UNL     1      15.595  16.862  23.441  1.00  0.00     0.087 C 
BRANCH  11  12
ATOM     12  C   UNL     1      16.001  16.592  24.917  1.00  0.00     0.066 C 
BRANCH  12  13
ATOM     13  C   UNL     1      14.839  16.044  25.734  1.00  0.00     0.140 C 
ATOM     14  O   UNL     1      14.497  16.616  26.759  1.00  0.00    -0.299 OA
BRANCH  13  15
ATOM     15  C   UNL     1      14.059  14.838  25.256  1.00  0.00     0.106 CG0
ATOM     16  G   UNL     1      12.557  15.066  25.275  1.00  0.00     0.000 G0
ENDBRANCH  13  15
ENDBRANCH  12  13
BRANCH  12  17
ATOM     17  C   UNL     1      17.269  15.683  25.005  1.00  0.00    -0.006 C 
ATOM     18  C   UNL     1      18.526  16.419  24.513  1.00  0.00     0.008 C 
ATOM     19  C   UNL     1      17.529  15.085  26.399  1.00  0.00     0.008 C 
ENDBRANCH  12  17
ENDBRANCH  11  12
ENDBRANCH   1  11
TORSDOF 1
ENDMDL
MODEL 6
REMARK VINA RESULT:    -3.901      9.816     11.463
REMARK INTER + INTRA:          -5.899
REMARK INTER:                  -5.834
REMARK INTRA:                  -0.065
REMARK UNBOUND:                 0.055
REMARK SMILES CC1=CCC[C@H](C)C(=O)C[C@H](C(C)C)C(=O)C1
REMARK SMILES IDX 8 1 9 2 6 3 7 4 5 5 4 6 3 7 2 8 1 9 10 11 11 12 15 13 16 14
REMARK SMILES IDX 17 15 12 17 13 18 14 19
REMARK H PARENT
REMARK Flexibility Score: 70.00
ROOT
ATOM      1  C   UNL     1      19.299  17.194  16.241  1.00  0.00     0.136 C 
ATOM      2  O   UNL     1      18.567  18.116  16.573  1.00  0.00    -0.299 OA
ENDROOT
BRANCH   1   3
ATOM      3  C   UNL     1      20.650  17.063  16.921  1.00  0.00     0.053 C 
ATOM      4  C   UNL     1      20.504  17.082  18.448  1.00  0.00     0.016 C 
BRANCH   3   5
ATOM      5  C   UNL     1      21.358  15.773  16.442  1.00  0.00     0.015 C 
BRANCH   5   6
ATOM      6  C   UNL     1      22.450  16.049  15.383  1.00  0.00     0.028 C 
BRANCH   6   7
ATOM      7  C   UNL     1      22.501  14.967  14.330  1.00  0.00    -0.028 C 
ATOM      8  C   UNL     1      21.852  15.005  13.143  1.00  0.00    -0.070 CG0
ATOM      9  C   UNL     1      21.990  13.820  12.221  1.00  0.00     0.039 C 
ATOM     10  G   UNL     1      20.987  16.173  12.700  1.00  0.00     0.000 G0
ENDBRANCH   6   7
ENDBRANCH   5   6
ENDBRANCH   3   5
ENDBRANCH   1   3
BRANCH   1  11
ATOM     11  C   UNL     1      18.768  16.221  15.200  1.00  0.00     0.087 C 
BRANCH  11  12
ATOM     12  C   UNL     1      18.649  16.733  13.737  1.00  0.00     0.066 C 
BRANCH  12  13
ATOM     13  C   UNL     1      19.507  15.917  12.779  1.00  0.00     0.140 C 
ATOM     14  O   UNL     1      18.981  15.082  12.057  1.00  0.00    -0.299 OA
BRANCH  13  15
ATOM     15  C   UNL     1      20.994  16.176  12.663  1.00  0.00     0.106 CG0
ATOM     16  G   UNL     1      21.831  14.998  13.134  1.00  0.00     0.000 G0
ENDBRANCH  13  15
ENDBRANCH  12  13
BRANCH  12  17
ATOM     17  C   UNL     1      17.158  16.814  13.278  1.00  0.00    -0.006 C 
ATOM     18  C   UNL     1      16.193  16.675  14.466  1.00  0.00     0.008 C 
ATOM     19  C   UNL     1      16.808  18.075  12.467  1.00  0.00     0.008 C 
ENDBRANCH  12  17
ENDBRANCH  11  12
ENDBRANCH   1  11
TORSDOF 1
ENDMDL
MODEL 7
REMARK VINA RESULT:    -3.823      9.402     10.746
REMARK INTER + INTRA:          -5.779
REMARK INTER:                  -6.029
REMARK INTRA:                   0.250
REMARK UNBOUND:                 0.055
REMARK SMILES CC1=CCC[C@H](C)C(=O)C[C@H](C(C)C)C(=O)C1
REMARK SMILES IDX 8 1 9 2 6 3 7 4 5 5 4 6 3 7 2 8 1 9 10 11 11 12 15 13 16 14
REMARK SMILES IDX 17 15 12 17 13 18 14 19
REMARK H PARENT
REMARK Flexibility Score: 70.00
ROOT
ATOM      1  C   UNL     1      17.043  16.671  13.526  1.00  0.00     0.136 C 
ATOM      2  O   UNL     1      16.793  17.502  12.665  1.00  0.00    -0.299 OA
ENDROOT
BRANCH   1   3
ATOM      3  C   UNL     1      16.067  16.507  14.677  1.00  0.00     0.053 C 
ATOM      4  C   UNL     1      15.588  15.053  14.791  1.00  0.00     0.016 C 
BRANCH   3   5
ATOM      5  C   UNL     1      16.719  16.988  15.995  1.00  0.00     0.015 C 
BRANCH   5   6
ATOM      6  C   UNL     1      17.741  18.125  15.775  1.00  0.00     0.028 C 
BRANCH   6   7
ATOM      7  C   UNL     1      18.871  18.070  16.776  1.00  0.00    -0.028 C 
ATOM      8  C   UNL     1      19.820  17.105  16.828  1.00  0.00    -0.070 CG0
ATOM      9  C   UNL     1      20.859  17.190  17.916  1.00  0.00     0.039 C 
ATOM     10  G   UNL     1      19.882  15.941  15.853  1.00  0.00     0.000 G0
ENDBRANCH   6   7
ENDBRANCH   5   6
ENDBRANCH   3   5
ENDBRANCH   1   3
BRANCH   1  11
ATOM     11  C   UNL     1      18.300  15.834  13.345  1.00  0.00     0.087 C 
BRANCH  11  12
ATOM     12  C   UNL     1      19.660  16.585  13.300  1.00  0.00     0.066 C 
BRANCH  12  13
ATOM     13  C   UNL     1      20.517  16.281  14.521  1.00  0.00     0.140 C 
ATOM     14  O   UNL     1      21.734  16.372  14.445  1.00  0.00    -0.299 OA
BRANCH  13  15
ATOM     15  C   UNL     1      19.875  15.932  15.847  1.00  0.00     0.106 CG0
ATOM     16  G   UNL     1      19.844  17.108  16.810  1.00  0.00     0.000 G0
ENDBRANCH  13  15
ENDBRANCH  12  13
BRANCH  12  17
ATOM     17  C   UNL     1      20.418  16.315  11.960  1.00  0.00    -0.006 C 
ATOM     18  C   UNL     1      20.333  14.836  11.552  1.00  0.00     0.008 C 
ATOM     19  C   UNL     1      19.974  17.206  10.786  1.00  0.00     0.008 C 
ENDBRANCH  12  17
ENDBRANCH  11  12
ENDBRANCH   1  11
TORSDOF 1
ENDMDL
MODEL 8
REMARK VINA RESULT:    -3.783      3.698      6.107
REMARK INTER + INTRA:          -5.719
REMARK INTER:                  -5.370
REMARK INTRA:                  -0.350
REMARK UNBOUND:                 0.055
REMARK SMILES CC1=CCC[C@H](C)C(=O)C[C@H](C(C)C)C(=O)C1
REMARK SMILES IDX 8 1 9 2 6 3 7 4 5 5 4 6 3 7 2 8 1 9 10 11 11 12 15 13 16 14
REMARK SMILES IDX 17 15 12 17 13 18 14 19
REMARK H PARENT
REMARK Flexibility Score: 70.00
ROOT
ATOM      1  C   UNL     1      13.518  16.261  25.477  1.00  0.00     0.136 C 
ATOM      2  O   UNL     1      12.900  16.934  26.289  1.00  0.00    -0.299 OA
ENDROOT
BRANCH   1   3
ATOM      3  C   UNL     1      12.780  15.158  24.740  1.00  0.00     0.053 C 
ATOM      4  C   UNL     1      12.388  14.023  25.696  1.00  0.00     0.016 C 
BRANCH   3   5
ATOM      5  C   UNL     1      11.539  15.741  24.024  1.00  0.00     0.015 C 
BRANCH   5   6
ATOM      6  C   UNL     1      11.869  16.313  22.627  1.00  0.00     0.028 C 
BRANCH   6   7
ATOM      7  C   UNL     1      12.136  17.799  22.674  1.00  0.00    -0.028 C 
ATOM      8  C   UNL     1      13.309  18.390  22.345  1.00  0.00    -0.070 CG0
ATOM      9  C   UNL     1      13.410  19.888  22.480  1.00  0.00     0.039 C 
ATOM     10  G   UNL     1      14.526  17.620  21.859  1.00  0.00     0.000 G0
ENDBRANCH   6   7
ENDBRANCH   5   6
ENDBRANCH   3   5
ENDBRANCH   1   3
BRANCH   1  11
ATOM     11  C   UNL     1      14.977  16.620  25.238  1.00  0.00     0.087 C 
BRANCH  11  12
ATOM     12  C   UNL     1      15.587  16.258  23.856  1.00  0.00     0.066 C 
BRANCH  12  13
ATOM     13  C   UNL     1      15.602  17.453  22.912  1.00  0.00     0.140 C 
ATOM     14  O   UNL     1      16.515  18.263  22.975  1.00  0.00    -0.299 OA
BRANCH  13  15
ATOM     15  C   UNL     1      14.533  17.612  21.851  1.00  0.00     0.106 CG0
ATOM     16  G   UNL     1      13.320  18.378  22.353  1.00  0.00     0.000 G0
ENDBRANCH  13  15
ENDBRANCH  12  13
BRANCH  12  17
ATOM     17  C   UNL     1      16.996  15.602  24.006  1.00  0.00    -0.006 C 
ATOM     18  C   UNL     1      17.599  15.871  25.394  1.00  0.00     0.008 C 
ATOM     19  C   UNL     1      17.032  14.093  23.707  1.00  0.00     0.008 C 
ENDBRANCH  12  17
ENDBRANCH  11  12
ENDBRANCH   1  11
TORSDOF 1
ENDMDL
MODEL 9
REMARK VINA RESULT:    -3.623      4.301      7.204
REMARK INTER + INTRA:          -5.474
REMARK INTER:                  -5.475
REMARK INTRA:                   0.001
REMARK UNBOUND:                 0.055
REMARK SMILES CC1=CCC[C@H](C)C(=O)C[C@H](C(C)C)C(=O)C1
REMARK SMILES IDX 8 1 9 2 6 3 7 4 5 5 4 6 3 7 2 8 1 9 10 11 11 12 15 13 16 14
REMARK SMILES IDX 17 15 12 17 13 18 14 19
REMARK H PARENT
REMARK Flexibility Score: 70.00
ROOT
ATOM      1  C   UNL     1      12.359  17.827  21.561  1.00  0.00     0.136 C 
ATOM      2  O   UNL     1      12.097  17.251  20.515  1.00  0.00    -0.299 OA
ENDROOT
BRANCH   1   3
ATOM      3  C   UNL     1      13.362  18.967  21.528  1.00  0.00     0.053 C 
ATOM      4  C   UNL     1      13.105  19.961  22.667  1.00  0.00     0.016 C 
BRANCH   3   5
ATOM      5  C   UNL     1      14.802  18.404  21.589  1.00  0.00     0.015 C 
BRANCH   5   6
ATOM      6  C   UNL     1      15.423  18.503  23.000  1.00  0.00     0.028 C 
BRANCH   6   7
ATOM      7  C   UNL     1      15.823  17.149  23.537  1.00  0.00    -0.028 C 
ATOM      8  C   UNL     1      15.065  16.380  24.354  1.00  0.00    -0.070 CG0
ATOM      9  C   UNL     1      15.636  15.065  24.821  1.00  0.00     0.039 C 
ATOM     10  G   UNL     1      13.678  16.779  24.828  1.00  0.00     0.000 G0
ENDBRANCH   6   7
ENDBRANCH   5   6
ENDBRANCH   3   5
ENDBRANCH   1   3
BRANCH   1  11
ATOM     11  C   UNL     1      11.619  17.376  22.811  1.00  0.00     0.087 C 
BRANCH  11  12
ATOM     12  C   UNL     1      11.766  15.888  23.234  1.00  0.00     0.066 C 
BRANCH  12  13
ATOM     13  C   UNL     1      12.619  15.736  24.486  1.00  0.00     0.140 C 
ATOM     14  O   UNL     1      12.491  14.744  25.189  1.00  0.00    -0.299 OA
BRANCH  13  15
ATOM     15  C   UNL     1      13.672  16.767  24.833  1.00  0.00     0.106 CG0
ATOM     16  G   UNL     1      15.059  16.371  24.355  1.00  0.00     0.000 G0
ENDBRANCH  13  15
ENDBRANCH  12  13
BRANCH  12  17
ATOM     17  C   UNL     1      10.374  15.193  23.375  1.00  0.00    -0.006 C 
ATOM     18  C   UNL     1       9.279  15.962  22.619  1.00  0.00     0.008 C 
ATOM     19  C   UNL     1      10.355  13.712  22.953  1.00  0.00     0.008 C 
ENDBRANCH  12  17
ENDBRANCH  11  12
ENDBRANCH   1  11
TORSDOF 1
ENDMDL
