MODEL 1
REMARK VINA RESULT:    -6.226      0.000      0.000
REMARK INTER + INTRA:          -7.862
REMARK INTER:                  -7.682
REMARK INTRA:                  -0.180
REMARK UNBOUND:                -0.180
REMARK SMILES [NH3+][C@H](Cc1ccc(O)cc1)C(=O)[O-]
REMARK SMILES IDX 3 1 2 2 1 3 11 7 12 8 13 9 4 10 5 11 10 12 6 13 9 14 7 15
REMARK SMILES IDX 8 16
REMARK H PARENT 1 4 1 5 1 6 8 17
REMARK Flexibility Score: inf
ROOT
ATOM      1  C   UNL     1      21.605  -5.454  44.296  1.00  0.00     0.107 C 
ENDROOT
BRANCH   1   2
ATOM      2  C   UNL     1      22.106  -6.559  43.344  1.00  0.00     0.232 C 
BRANCH   2   3
ATOM      3  N   UNL     1      23.097  -7.408  44.017  1.00  0.00    -0.350 N 
ATOM      4  H   UNL     1      23.113  -7.189  45.040  1.00  0.00     0.345 HD
ATOM      5  H   UNL     1      24.050  -7.218  43.629  1.00  0.00     0.345 HD
ATOM      6  H   UNL     1      22.867  -8.420  43.888  1.00  0.00     0.345 HD
ENDBRANCH   2   3
BRANCH   2   7
ATOM      7  C   UNL     1      20.961  -7.397  42.836  1.00  0.00     0.099 C 
ATOM      8  O   UNL     1      20.940  -7.793  41.640  1.00  0.00    -0.544 OA
ATOM      9  O   UNL     1      19.930  -7.757  43.695  1.00  0.00    -0.544 OA
ENDBRANCH   2   7
ENDBRANCH   1   2
BRANCH   1  10
ATOM     10  C   UNL     1      22.338  -4.153  44.078  1.00  0.00    -0.041 A 
ATOM     11  C   UNL     1      22.898  -3.467  45.167  1.00  0.00     0.008 A 
ATOM     12  C   UNL     1      22.507  -3.639  42.781  1.00  0.00     0.008 A 
ATOM     13  C   UNL     1      23.603  -2.276  44.964  1.00  0.00     0.046 A 
ATOM     14  C   UNL     1      23.212  -2.449  42.581  1.00  0.00     0.046 A 
ATOM     15  C   UNL     1      23.761  -1.764  43.670  1.00  0.00     0.115 A 
BRANCH  15  16
ATOM     16  O   UNL     1      24.461  -0.580  43.455  1.00  0.00    -0.508 OA
ATOM     17  H   UNL     1      25.448  -0.582  43.227  1.00  0.00     0.293 HD
ENDBRANCH  15  16
ENDBRANCH   1  10
TORSDOF 5
ENDMDL
MODEL 2
REMARK VINA RESULT:    -6.053      1.503      2.216
REMARK INTER + INTRA:          -7.647
REMARK INTER:                  -7.497
REMARK INTRA:                  -0.150
REMARK UNBOUND:                -0.180
REMARK SMILES [NH3+][C@H](Cc1ccc(O)cc1)C(=O)[O-]
REMARK SMILES IDX 3 1 2 2 1 3 11 7 12 8 13 9 4 10 5 11 10 12 6 13 9 14 7 15
REMARK SMILES IDX 8 16
REMARK H PARENT 1 4 1 5 1 6 8 17
REMARK Flexibility Score: inf
ROOT
ATOM      1  C   UNL     1      21.023  -5.126  43.842  1.00  0.00     0.107 C 
ENDROOT
BRANCH   1   2
ATOM      2  C   UNL     1      21.683  -6.458  44.253  1.00  0.00     0.232 C 
BRANCH   2   3
ATOM      3  N   UNL     1      20.730  -7.567  44.118  1.00  0.00    -0.350 N 
ATOM      4  H   UNL     1      19.760  -7.190  44.017  1.00  0.00     0.345 HD
ATOM      5  H   UNL     1      20.759  -8.167  44.975  1.00  0.00     0.345 HD
ATOM      6  H   UNL     1      20.958  -8.151  43.281  1.00  0.00     0.345 HD
ENDBRANCH   2   3
BRANCH   2   7
ATOM      7  C   UNL     1      22.917  -6.728  43.430  1.00  0.00     0.099 C 
ATOM      8  O   UNL     1      24.030  -6.917  43.990  1.00  0.00    -0.544 OA
ATOM      9  O   UNL     1      22.827  -6.792  42.045  1.00  0.00    -0.544 OA
ENDBRANCH   2   7
ENDBRANCH   1   2
BRANCH   1  10
ATOM     10  C   UNL     1      22.014  -3.988  43.842  1.00  0.00    -0.041 A 
ATOM     11  C   UNL     1      22.377  -3.368  42.635  1.00  0.00     0.008 A 
ATOM     12  C   UNL     1      22.548  -3.508  45.050  1.00  0.00     0.008 A 
ATOM     13  C   UNL     1      23.273  -2.294  42.635  1.00  0.00     0.046 A 
ATOM     14  C   UNL     1      23.443  -2.435  45.047  1.00  0.00     0.046 A 
ATOM     15  C   UNL     1      23.808  -1.825  43.841  1.00  0.00     0.115 A 
BRANCH  15  16
ATOM     16  O   UNL     1      24.701  -0.756  43.855  1.00  0.00    -0.508 OA
ATOM     17  H   UNL     1      25.692  -0.897  44.010  1.00  0.00     0.293 HD
ENDBRANCH  15  16
ENDBRANCH   1  10
TORSDOF 5
ENDMDL
MODEL 3
REMARK VINA RESULT:    -5.840      9.442     11.142
REMARK INTER + INTRA:          -7.386
REMARK INTER:                  -7.164
REMARK INTRA:                  -0.222
REMARK UNBOUND:                -0.180
REMARK SMILES [NH3+][C@H](Cc1ccc(O)cc1)C(=O)[O-]
REMARK SMILES IDX 3 1 2 2 1 3 11 7 12 8 13 9 4 10 5 11 10 12 6 13 9 14 7 15
REMARK SMILES IDX 8 16
REMARK H PARENT 1 4 1 5 1 6 8 17
REMARK Flexibility Score: inf
ROOT
ATOM      1  C   UNL     1      20.520   6.515  39.885  1.00  0.00     0.107 C 
ENDROOT
BRANCH   1   2
ATOM      2  C   UNL     1      19.077   6.016  39.672  1.00  0.00     0.232 C 
BRANCH   2   3
ATOM      3  N   UNL     1      18.129   7.135  39.746  1.00  0.00    -0.350 N 
ATOM      4  H   UNL     1      17.156   6.785  39.589  1.00  0.00     0.345 HD
ATOM      5  H   UNL     1      18.348   7.836  39.001  1.00  0.00     0.345 HD
ATOM      6  H   UNL     1      18.177   7.599  40.682  1.00  0.00     0.345 HD
ENDBRANCH   2   3
BRANCH   2   7
ATOM      7  C   UNL     1      18.939   5.302  38.351  1.00  0.00     0.099 C 
ATOM      8  O   UNL     1      19.084   4.052  38.282  1.00  0.00    -0.544 OA
ATOM      9  O   UNL     1      18.629   6.020  37.203  1.00  0.00    -0.544 OA
ENDBRANCH   2   7
ENDBRANCH   1   2
BRANCH   1  10
ATOM     10  C   UNL     1      21.319   5.568  40.747  1.00  0.00    -0.041 A 
ATOM     11  C   UNL     1      22.192   4.641  40.155  1.00  0.00     0.008 A 
ATOM     12  C   UNL     1      21.230   5.633  42.147  1.00  0.00     0.008 A 
ATOM     13  C   UNL     1      22.954   3.782  40.953  1.00  0.00     0.046 A 
ATOM     14  C   UNL     1      21.993   4.773  42.942  1.00  0.00     0.046 A 
ATOM     15  C   UNL     1      22.857   3.846  42.348  1.00  0.00     0.115 A 
BRANCH  15  16
ATOM     16  O   UNL     1      23.611   2.995  43.153  1.00  0.00    -0.508 OA
ATOM     17  H   UNL     1      23.356   2.815  44.117  1.00  0.00     0.293 HD
ENDBRANCH  15  16
ENDBRANCH   1  10
TORSDOF 5
ENDMDL
MODEL 4
REMARK VINA RESULT:    -5.839      9.425     11.067
REMARK INTER + INTRA:          -7.383
REMARK INTER:                  -7.157
REMARK INTRA:                  -0.226
REMARK UNBOUND:                -0.180
REMARK SMILES [NH3+][C@H](Cc1ccc(O)cc1)C(=O)[O-]
REMARK SMILES IDX 3 1 2 2 1 3 11 7 12 8 13 9 4 10 5 11 10 12 6 13 9 14 7 15
REMARK SMILES IDX 8 16
REMARK H PARENT 1 4 1 5 1 6 8 17
REMARK Flexibility Score: inf
ROOT
ATOM      1  C   UNL     1      20.550   6.510  39.859  1.00  0.00     0.107 C 
ENDROOT
BRANCH   1   2
ATOM      2  C   UNL     1      19.123   5.967  39.640  1.00  0.00     0.232 C 
BRANCH   2   3
ATOM      3  N   UNL     1      18.139   7.051  39.742  1.00  0.00    -0.350 N 
ATOM      4  H   UNL     1      17.836   7.345  38.786  1.00  0.00     0.345 HD
ATOM      5  H   UNL     1      18.570   7.879  40.216  1.00  0.00     0.345 HD
ATOM      6  H   UNL     1      17.301   6.740  40.285  1.00  0.00     0.345 HD
ENDBRANCH   2   3
BRANCH   2   7
ATOM      7  C   UNL     1      19.004   5.278  38.304  1.00  0.00     0.099 C 
ATOM      8  O   UNL     1      19.227   4.043  38.200  1.00  0.00    -0.544 OA
ATOM      9  O   UNL     1      18.623   6.003  37.182  1.00  0.00    -0.544 OA
ENDBRANCH   2   7
ENDBRANCH   1   2
BRANCH   1  10
ATOM     10  C   UNL     1      21.368   5.595  40.738  1.00  0.00    -0.041 A 
ATOM     11  C   UNL     1      21.222   5.641  42.133  1.00  0.00     0.008 A 
ATOM     12  C   UNL     1      22.248   4.659  40.168  1.00  0.00     0.008 A 
ATOM     13  C   UNL     1      21.957   4.774  42.948  1.00  0.00     0.046 A 
ATOM     14  C   UNL     1      22.982   3.794  40.985  1.00  0.00     0.046 A 
ATOM     15  C   UNL     1      22.839   3.848  42.376  1.00  0.00     0.115 A 
BRANCH  15  16
ATOM     16  O   UNL     1      23.576   2.980  43.177  1.00  0.00    -0.508 OA
ATOM     17  H   UNL     1      24.024   3.297  44.028  1.00  0.00     0.293 HD
ENDBRANCH  15  16
ENDBRANCH   1  10
TORSDOF 5
ENDMDL
MODEL 5
REMARK VINA RESULT:    -5.837      2.447      5.408
REMARK INTER + INTRA:          -7.381
REMARK INTER:                  -7.132
REMARK INTRA:                  -0.249
REMARK UNBOUND:                -0.180
REMARK SMILES [NH3+][C@H](Cc1ccc(O)cc1)C(=O)[O-]
REMARK SMILES IDX 3 1 2 2 1 3 11 7 12 8 13 9 4 10 5 11 10 12 6 13 9 14 7 15
REMARK SMILES IDX 8 16
REMARK H PARENT 1 4 1 5 1 6 8 17
REMARK Flexibility Score: inf
ROOT
ATOM      1  C   UNL     1      22.511  -2.358  43.569  1.00  0.00     0.107 C 
ENDROOT
BRANCH   1   2
ATOM      2  C   UNL     1      24.035  -2.143  43.672  1.00  0.00     0.232 C 
BRANCH   2   3
ATOM      3  N   UNL     1      24.371  -0.729  43.464  1.00  0.00    -0.350 N 
ATOM      4  H   UNL     1      25.387  -0.638  43.230  1.00  0.00     0.345 HD
ATOM      5  H   UNL     1      24.188  -0.188  44.340  1.00  0.00     0.345 HD
ATOM      6  H   UNL     1      23.804  -0.325  42.683  1.00  0.00     0.345 HD
ENDBRANCH   2   3
BRANCH   2   7
ATOM      7  C   UNL     1      24.560  -2.614  45.004  1.00  0.00     0.099 C 
ATOM      8  O   UNL     1      24.358  -1.936  46.047  1.00  0.00    -0.544 OA
ATOM      9  O   UNL     1      25.253  -3.815  45.092  1.00  0.00    -0.544 OA
ENDBRANCH   2   7
ENDBRANCH   1   2
BRANCH   1  10
ATOM     10  C   UNL     1      22.151  -3.823  43.567  1.00  0.00    -0.041 A 
ATOM     11  C   UNL     1      22.579  -4.653  42.518  1.00  0.00     0.008 A 
ATOM     12  C   UNL     1      21.425  -4.380  44.633  1.00  0.00     0.008 A 
ATOM     13  C   UNL     1      22.272  -6.018  42.528  1.00  0.00     0.046 A 
ATOM     14  C   UNL     1      21.119  -5.744  44.641  1.00  0.00     0.046 A 
ATOM     15  C   UNL     1      21.541  -6.566  43.590  1.00  0.00     0.115 A 
BRANCH  15  16
ATOM     16  O   UNL     1      21.229  -7.923  43.612  1.00  0.00    -0.508 OA
ATOM     17  H   UNL     1      20.782  -8.350  44.414  1.00  0.00     0.293 HD
ENDBRANCH  15  16
ENDBRANCH   1  10
TORSDOF 5
ENDMDL
MODEL 6
REMARK VINA RESULT:    -5.639     10.765     12.659
REMARK INTER + INTRA:          -7.137
REMARK INTER:                  -6.916
REMARK INTRA:                  -0.221
REMARK UNBOUND:                -0.180
REMARK SMILES [NH3+][C@H](Cc1ccc(O)cc1)C(=O)[O-]
REMARK SMILES IDX 3 1 2 2 1 3 11 7 12 8 13 9 4 10 5 11 10 12 6 13 9 14 7 15
REMARK SMILES IDX 8 16
REMARK H PARENT 1 4 1 5 1 6 8 17
REMARK Flexibility Score: inf
ROOT
ATOM      1  C   UNL     1      20.532   7.857  38.809  1.00  0.00     0.107 C 
ENDROOT
BRANCH   1   2
ATOM      2  C   UNL     1      19.006   8.022  38.659  1.00  0.00     0.232 C 
BRANCH   2   3
ATOM      3  N   UNL     1      18.693   9.234  37.891  1.00  0.00    -0.350 N 
ATOM      4  H   UNL     1      17.678   9.465  37.994  1.00  0.00     0.345 HD
ATOM      5  H   UNL     1      18.890   9.073  36.877  1.00  0.00     0.345 HD
ATOM      6  H   UNL     1      19.262  10.044  38.229  1.00  0.00     0.345 HD
ENDBRANCH   2   3
BRANCH   2   7
ATOM      7  C   UNL     1      18.391   6.813  38.001  1.00  0.00     0.099 C 
ATOM      8  O   UNL     1      18.413   6.688  36.747  1.00  0.00    -0.544 OA
ATOM      9  O   UNL     1      17.816   5.817  38.779  1.00  0.00    -0.544 OA
ENDBRANCH   2   7
ENDBRANCH   1   2
BRANCH   1  10
ATOM     10  C   UNL     1      20.885   6.934  39.951  1.00  0.00    -0.041 A 
ATOM     11  C   UNL     1      20.687   7.347  41.278  1.00  0.00     0.008 A 
ATOM     12  C   UNL     1      21.371   5.641  39.697  1.00  0.00     0.008 A 
ATOM     13  C   UNL     1      20.986   6.483  42.337  1.00  0.00     0.046 A 
ATOM     14  C   UNL     1      21.669   4.780  40.757  1.00  0.00     0.046 A 
ATOM     15  C   UNL     1      21.478   5.197  42.078  1.00  0.00     0.115 A 
BRANCH  15  16
ATOM     16  O   UNL     1      21.779   4.328  43.124  1.00  0.00    -0.508 OA
ATOM     17  H   UNL     1      22.249   3.446  42.959  1.00  0.00     0.293 HD
ENDBRANCH  15  16
ENDBRANCH   1  10
TORSDOF 5
ENDMDL
MODEL 7
REMARK VINA RESULT:    -5.597      9.237     11.038
REMARK INTER + INTRA:          -7.086
REMARK INTER:                  -6.877
REMARK INTRA:                  -0.209
REMARK UNBOUND:                -0.180
REMARK SMILES [NH3+][C@H](Cc1ccc(O)cc1)C(=O)[O-]
REMARK SMILES IDX 3 1 2 2 1 3 11 7 12 8 13 9 4 10 5 11 10 12 6 13 9 14 7 15
REMARK SMILES IDX 8 16
REMARK H PARENT 1 4 1 5 1 6 8 17
REMARK Flexibility Score: inf
ROOT
ATOM      1  C   UNL     1      20.008   6.476  41.868  1.00  0.00     0.107 C 
ENDROOT
BRANCH   1   2
ATOM      2  C   UNL     1      18.637   5.770  41.909  1.00  0.00     0.232 C 
BRANCH   2   3
ATOM      3  N   UNL     1      18.122   5.725  43.283  1.00  0.00    -0.350 N 
ATOM      4  H   UNL     1      17.455   4.926  43.384  1.00  0.00     0.345 HD
ATOM      5  H   UNL     1      17.607   6.610  43.499  1.00  0.00     0.345 HD
ATOM      6  H   UNL     1      18.904   5.605  43.967  1.00  0.00     0.345 HD
ENDBRANCH   2   3
BRANCH   2   7
ATOM      7  C   UNL     1      17.647   6.457  41.003  1.00  0.00     0.099 C 
ATOM      8  O   UNL     1      18.040   7.071  39.975  1.00  0.00    -0.544 OA
ATOM      9  O   UNL     1      16.288   6.396  41.287  1.00  0.00    -0.544 OA
ENDBRANCH   2   7
ENDBRANCH   1   2
BRANCH   1  10
ATOM     10  C   UNL     1      21.133   5.498  41.630  1.00  0.00    -0.041 A 
ATOM     11  C   UNL     1      21.774   4.882  42.716  1.00  0.00     0.008 A 
ATOM     12  C   UNL     1      21.519   5.162  40.321  1.00  0.00     0.008 A 
ATOM     13  C   UNL     1      22.797   3.954  42.497  1.00  0.00     0.046 A 
ATOM     14  C   UNL     1      22.542   4.235  40.105  1.00  0.00     0.046 A 
ATOM     15  C   UNL     1      23.184   3.628  41.191  1.00  0.00     0.115 A 
BRANCH  15  16
ATOM     16  O   UNL     1      24.201   2.705  40.959  1.00  0.00    -0.508 OA
ATOM     17  H   UNL     1      24.203   2.116  40.136  1.00  0.00     0.293 HD
ENDBRANCH  15  16
ENDBRANCH   1  10
TORSDOF 5
ENDMDL
MODEL 8
REMARK VINA RESULT:    -5.539      2.226      5.493
REMARK INTER + INTRA:          -7.014
REMARK INTER:                  -6.801
REMARK INTRA:                  -0.213
REMARK UNBOUND:                -0.180
REMARK SMILES [NH3+][C@H](Cc1ccc(O)cc1)C(=O)[O-]
REMARK SMILES IDX 3 1 2 2 1 3 11 7 12 8 13 9 4 10 5 11 10 12 6 13 9 14 7 15
REMARK SMILES IDX 8 16
REMARK H PARENT 1 4 1 5 1 6 8 17
REMARK Flexibility Score: inf
ROOT
ATOM      1  C   UNL     1      22.288  -3.676  44.489  1.00  0.00     0.107 C 
ENDROOT
BRANCH   1   2
ATOM      2  C   UNL     1      23.193  -3.079  43.392  1.00  0.00     0.232 C 
BRANCH   2   3
ATOM      3  N   UNL     1      22.388  -2.634  42.247  1.00  0.00    -0.350 N 
ATOM      4  H   UNL     1      21.640  -1.981  42.574  1.00  0.00     0.345 HD
ATOM      5  H   UNL     1      21.928  -3.458  41.795  1.00  0.00     0.345 HD
ATOM      6  H   UNL     1      22.986  -2.143  41.543  1.00  0.00     0.345 HD
ENDBRANCH   2   3
BRANCH   2   7
ATOM      7  C   UNL     1      24.013  -1.934  43.930  1.00  0.00     0.099 C 
ATOM      8  O   UNL     1      24.222  -0.911  43.225  1.00  0.00    -0.544 OA
ATOM      9  O   UNL     1      24.525  -1.994  45.220  1.00  0.00    -0.544 OA
ENDBRANCH   2   7
ENDBRANCH   1   2
BRANCH   1  10
ATOM     10  C   UNL     1      22.434  -5.175  44.580  1.00  0.00    -0.041 A 
ATOM     11  C   UNL     1      23.519  -5.738  45.272  1.00  0.00     0.008 A 
ATOM     12  C   UNL     1      21.466  -6.021  44.014  1.00  0.00     0.008 A 
ATOM     13  C   UNL     1      23.641  -7.127  45.383  1.00  0.00     0.046 A 
ATOM     14  C   UNL     1      21.591  -7.409  44.125  1.00  0.00     0.046 A 
ATOM     15  C   UNL     1      22.677  -7.966  44.809  1.00  0.00     0.115 A 
BRANCH  15  16
ATOM     16  O   UNL     1      22.788  -9.350  44.912  1.00  0.00    -0.508 OA
ATOM     17  H   UNL     1      22.727  -9.948  44.097  1.00  0.00     0.293 HD
ENDBRANCH  15  16
ENDBRANCH   1  10
TORSDOF 5
ENDMDL
MODEL 9
REMARK VINA RESULT:    -5.345      9.590     11.541
REMARK INTER + INTRA:          -6.775
REMARK INTER:                  -6.563
REMARK INTRA:                  -0.212
REMARK UNBOUND:                -0.180
REMARK SMILES [NH3+][C@H](Cc1ccc(O)cc1)C(=O)[O-]
REMARK SMILES IDX 3 1 2 2 1 3 11 7 12 8 13 9 4 10 5 11 10 12 6 13 9 14 7 15
REMARK SMILES IDX 8 16
REMARK H PARENT 1 4 1 5 1 6 8 17
REMARK Flexibility Score: inf
ROOT
ATOM      1  C   UNL     1      21.734   5.565  39.970  1.00  0.00     0.107 C 
ENDROOT
BRANCH   1   2
ATOM      2  C   UNL     1      21.908   4.259  40.773  1.00  0.00     0.232 C 
BRANCH   2   3
ATOM      3  N   UNL     1      23.206   3.641  40.474  1.00  0.00    -0.350 N 
ATOM      4  H   UNL     1      23.843   3.743  41.297  1.00  0.00     0.345 HD
ATOM      5  H   UNL     1      23.648   4.120  39.657  1.00  0.00     0.345 HD
ATOM      6  H   UNL     1      23.090   2.624  40.257  1.00  0.00     0.345 HD
ENDBRANCH   2   3
BRANCH   2   7
ATOM      7  C   UNL     1      21.778   4.511  42.254  1.00  0.00     0.099 C 
ATOM      8  O   UNL     1      20.744   5.060  42.720  1.00  0.00    -0.544 OA
ATOM      9  O   UNL     1      22.792   4.115  43.116  1.00  0.00    -0.544 OA
ENDBRANCH   2   7
ENDBRANCH   1   2
BRANCH   1  10
ATOM     10  C   UNL     1      20.338   5.696  39.412  1.00  0.00    -0.041 A 
ATOM     11  C   UNL     1      19.572   4.549  39.151  1.00  0.00     0.008 A 
ATOM     12  C   UNL     1      19.777   6.964  39.190  1.00  0.00     0.008 A 
ATOM     13  C   UNL     1      18.267   4.669  38.660  1.00  0.00     0.046 A 
ATOM     14  C   UNL     1      18.473   7.081  38.699  1.00  0.00     0.046 A 
ATOM     15  C   UNL     1      17.715   5.936  38.433  1.00  0.00     0.115 A 
BRANCH  15  16
ATOM     16  O   UNL     1      16.417   6.068  37.945  1.00  0.00    -0.508 OA
ATOM     17  H   UNL     1      16.123   5.605  37.094  1.00  0.00     0.293 HD
ENDBRANCH  15  16
ENDBRANCH   1  10
TORSDOF 5
ENDMDL
