MODEL 1
REMARK VINA RESULT:    -6.523      0.000      0.000
REMARK INTER + INTRA:          -8.190
REMARK INTER:                  -7.858
REMARK INTRA:                  -0.332
REMARK UNBOUND:                -0.332
REMARK SMILES O=c1c(O)c(-c2ccc(O)c(O)c2)oc2cc(O)cc(O)c12
REMARK SMILES IDX 5 1 3 2 2 3 1 4 22 5 20 6 19 7 17 8 16 9 15 10 14 11 6 12
REMARK SMILES IDX 7 13 8 14 9 15 13 16 11 17 10 18 12 20 4 22 21 24 18 26
REMARK H PARENT 10 19 12 21 4 23 21 25 18 27
REMARK Flexibility Score: inf
ROOT
ATOM      1  C   UNL     1      22.471 -21.228 -11.315  1.00  0.00     0.180 A 
ATOM      2  C   UNL     1      23.294 -21.509 -12.423  1.00  0.00     0.208 A 
ATOM      3  C   UNL     1      23.333 -22.820 -12.925  1.00  0.00     0.238 A 
ATOM      4  O   UNL     1      24.057 -23.081 -13.923  1.00  0.00    -0.285 OA
ATOM      5  C   UNL     1      22.568 -23.827 -12.300  1.00  0.00     0.111 A 
ATOM      6  C   UNL     1      22.555 -25.173 -12.741  1.00  0.00     0.134 A 
ATOM      7  C   UNL     1      21.774 -26.120 -12.060  1.00  0.00     0.093 A 
ATOM      8  C   UNL     1      21.010 -25.749 -10.951  1.00  0.00     0.123 A 
ATOM      9  C   UNL     1      21.019 -24.420 -10.512  1.00  0.00     0.094 A 
ATOM     10  C   UNL     1      21.789 -23.462 -11.178  1.00  0.00     0.146 A 
ATOM     11  O   UNL     1      21.776 -22.207 -10.743  1.00  0.00    -0.452 OA
ENDROOT
BRANCH   1  12
ATOM     12  C   UNL     1      22.362 -19.868 -10.740  1.00  0.00     0.025 A 
ATOM     13  C   UNL     1      21.413 -18.946 -11.216  1.00  0.00     0.016 A 
ATOM     14  C   UNL     1      21.313 -17.676 -10.642  1.00  0.00     0.051 A 
ATOM     15  C   UNL     1      22.147 -17.314  -9.577  1.00  0.00     0.157 A 
ATOM     16  C   UNL     1      23.182 -19.507  -9.659  1.00  0.00     0.062 A 
ATOM     17  C   UNL     1      23.085 -18.235  -9.082  1.00  0.00     0.158 A 
BRANCH  15  18
ATOM     18  O   UNL     1      22.046 -16.045  -9.008  1.00  0.00    -0.504 OA
ATOM     19  H   UNL     1      21.425 -15.341  -9.388  1.00  0.00     0.293 HD
ENDBRANCH  15  18
BRANCH  17  20
ATOM     20  O   UNL     1      23.925 -17.909  -8.018  1.00  0.00    -0.504 OA
ATOM     21  H   UNL     1      24.499 -17.073  -8.024  1.00  0.00     0.293 HD
ENDBRANCH  17  20
ENDBRANCH   1  12
BRANCH   2  22
ATOM     22  O   UNL     1      24.079 -20.503 -12.992  1.00  0.00    -0.502 OA
ATOM     23  H   UNL     1      25.071 -20.419 -12.805  1.00  0.00     0.293 HD
ENDBRANCH   2  22
BRANCH   6  24
ATOM     24  O   UNL     1      23.307 -25.575 -13.844  1.00  0.00    -0.507 OA
ATOM     25  H   UNL     1      23.883 -26.409 -13.823  1.00  0.00     0.293 HD
ENDBRANCH   6  24
BRANCH   8  26
ATOM     26  O   UNL     1      20.245 -26.709 -10.293  1.00  0.00    -0.508 OA
ATOM     27  H   UNL     1      20.676 -27.456  -9.762  1.00  0.00     0.293 HD
ENDBRANCH   8  26
TORSDOF 6
ENDMDL
MODEL 2
REMARK VINA RESULT:    -6.426      1.593      6.966
REMARK INTER + INTRA:          -8.073
REMARK INTER:                  -7.741
REMARK INTRA:                  -0.332
REMARK UNBOUND:                -0.332
REMARK SMILES O=c1c(O)c(-c2ccc(O)c(O)c2)oc2cc(O)cc(O)c12
REMARK SMILES IDX 5 1 3 2 2 3 1 4 22 5 20 6 19 7 17 8 16 9 15 10 14 11 6 12
REMARK SMILES IDX 7 13 8 14 9 15 13 16 11 17 10 18 12 20 4 22 21 24 18 26
REMARK H PARENT 10 19 12 21 4 23 21 25 18 27
REMARK Flexibility Score: inf
ROOT
ATOM      1  C   UNL     1      22.147 -21.130 -11.544  1.00  0.00     0.180 A 
ATOM      2  C   UNL     1      21.366 -20.266 -12.336  1.00  0.00     0.208 A 
ATOM      3  C   UNL     1      21.339 -18.897 -12.024  1.00  0.00     0.238 A 
ATOM      4  O   UNL     1      20.652 -18.113 -12.733  1.00  0.00    -0.285 OA
ATOM      5  C   UNL     1      22.074 -18.421 -10.919  1.00  0.00     0.111 A 
ATOM      6  C   UNL     1      22.098 -17.058 -10.535  1.00  0.00     0.134 A 
ATOM      7  C   UNL     1      22.847 -16.663  -9.416  1.00  0.00     0.093 A 
ATOM      8  C   UNL     1      23.570 -17.601  -8.676  1.00  0.00     0.123 A 
ATOM      9  C   UNL     1      23.551 -18.949  -9.051  1.00  0.00     0.094 A 
ATOM     10  C   UNL     1      22.812 -19.362 -10.163  1.00  0.00     0.146 A 
ATOM     11  O   UNL     1      22.815 -20.647 -10.500  1.00  0.00    -0.452 OA
ENDROOT
BRANCH   1  12
ATOM     12  C   UNL     1      22.241 -22.582 -11.820  1.00  0.00     0.025 A 
ATOM     13  C   UNL     1      23.242 -23.105 -12.657  1.00  0.00     0.016 A 
ATOM     14  C   UNL     1      23.326 -24.480 -12.883  1.00  0.00     0.051 A 
ATOM     15  C   UNL     1      22.421 -25.355 -12.268  1.00  0.00     0.157 A 
ATOM     16  C   UNL     1      21.349 -23.465 -11.189  1.00  0.00     0.062 A 
ATOM     17  C   UNL     1      21.429 -24.843 -11.415  1.00  0.00     0.158 A 
BRANCH  15  18
ATOM     18  O   UNL     1      22.505 -26.727 -12.498  1.00  0.00    -0.504 OA
ATOM     19  H   UNL     1      22.735 -27.099 -13.412  1.00  0.00     0.293 HD
ENDBRANCH  15  18
BRANCH  17  20
ATOM     20  O   UNL     1      20.518 -25.687 -10.781  1.00  0.00    -0.504 OA
ATOM     21  H   UNL     1      20.418 -25.711  -9.772  1.00  0.00     0.293 HD
ENDBRANCH  17  20
ENDBRANCH   1  12
BRANCH   2  22
ATOM     22  O   UNL     1      20.608 -20.772 -13.395  1.00  0.00    -0.502 OA
ATOM     23  H   UNL     1      20.638 -21.748 -13.666  1.00  0.00     0.293 HD
ENDBRANCH   2  22
BRANCH   6  24
ATOM     24  O   UNL     1      21.386 -16.097 -11.253  1.00  0.00    -0.507 OA
ATOM     25  H   UNL     1      21.591 -15.897 -12.226  1.00  0.00     0.293 HD
ENDBRANCH   6  24
BRANCH   8  26
ATOM     26  O   UNL     1      24.305 -17.183  -7.568  1.00  0.00    -0.508 OA
ATOM     27  H   UNL     1      24.323 -17.722  -6.711  1.00  0.00     0.293 HD
ENDBRANCH   8  26
TORSDOF 6
ENDMDL
MODEL 3
REMARK VINA RESULT:    -6.384      1.586      6.961
REMARK INTER + INTRA:          -8.022
REMARK INTER:                  -7.700
REMARK INTRA:                  -0.322
REMARK UNBOUND:                -0.332
REMARK SMILES O=c1c(O)c(-c2ccc(O)c(O)c2)oc2cc(O)cc(O)c12
REMARK SMILES IDX 5 1 3 2 2 3 1 4 22 5 20 6 19 7 17 8 16 9 15 10 14 11 6 12
REMARK SMILES IDX 7 13 8 14 9 15 13 16 11 17 10 18 12 20 4 22 21 24 18 26
REMARK H PARENT 10 19 12 21 4 23 21 25 18 27
REMARK Flexibility Score: inf
ROOT
ATOM      1  C   UNL     1      22.175 -21.175 -11.533  1.00  0.00     0.180 A 
ATOM      2  C   UNL     1      21.375 -20.335 -12.332  1.00  0.00     0.208 A 
ATOM      3  C   UNL     1      21.320 -18.964 -12.033  1.00  0.00     0.238 A 
ATOM      4  O   UNL     1      20.616 -18.201 -12.747  1.00  0.00    -0.285 OA
ATOM      5  C   UNL     1      22.047 -18.462 -10.933  1.00  0.00     0.111 A 
ATOM      6  C   UNL     1      22.044 -17.096 -10.562  1.00  0.00     0.134 A 
ATOM      7  C   UNL     1      22.786 -16.675  -9.449  1.00  0.00     0.093 A 
ATOM      8  C   UNL     1      23.530 -17.591  -8.701  1.00  0.00     0.123 A 
ATOM      9  C   UNL     1      23.538 -18.942  -9.064  1.00  0.00     0.094 A 
ATOM     10  C   UNL     1      22.806 -19.380 -10.171  1.00  0.00     0.146 A 
ATOM     11  O   UNL     1      22.835 -20.668 -10.496  1.00  0.00    -0.452 OA
ENDROOT
BRANCH   1  12
ATOM     12  C   UNL     1      22.298 -22.627 -11.796  1.00  0.00     0.025 A 
ATOM     13  C   UNL     1      21.373 -23.547 -11.272  1.00  0.00     0.016 A 
ATOM     14  C   UNL     1      21.496 -24.910 -11.554  1.00  0.00     0.051 A 
ATOM     15  C   UNL     1      22.534 -25.372 -12.374  1.00  0.00     0.157 A 
ATOM     16  C   UNL     1      23.324 -23.093 -12.634  1.00  0.00     0.062 A 
ATOM     17  C   UNL     1      23.451 -24.458 -12.918  1.00  0.00     0.158 A 
BRANCH  15  18
ATOM     18  O   UNL     1      22.654 -26.733 -12.651  1.00  0.00    -0.504 OA
ATOM     19  H   UNL     1      22.797 -27.071 -13.595  1.00  0.00     0.293 HD
ENDBRANCH  15  18
BRANCH  17  20
ATOM     20  O   UNL     1      24.491 -24.884 -13.743  1.00  0.00    -0.504 OA
ATOM     21  H   UNL     1      24.378 -24.975 -14.747  1.00  0.00     0.293 HD
ENDBRANCH  17  20
ENDBRANCH   1  12
BRANCH   2  22
ATOM     22  O   UNL     1      20.626 -20.866 -13.384  1.00  0.00    -0.502 OA
ATOM     23  H   UNL     1      20.198 -20.284 -14.095  1.00  0.00     0.293 HD
ENDBRANCH   2  22
BRANCH   6  24
ATOM     24  O   UNL     1      21.310 -16.156 -11.288  1.00  0.00    -0.507 OA
ATOM     25  H   UNL     1      21.236 -15.190 -10.990  1.00  0.00     0.293 HD
ENDBRANCH   6  24
BRANCH   8  26
ATOM     26  O   UNL     1      24.258 -17.146  -7.600  1.00  0.00    -0.508 OA
ATOM     27  H   UNL     1      24.405 -17.737  -6.789  1.00  0.00     0.293 HD
ENDBRANCH   8  26
TORSDOF 6
ENDMDL
MODEL 4
REMARK VINA RESULT:    -6.379      1.862      7.585
REMARK INTER + INTRA:          -8.016
REMARK INTER:                  -7.694
REMARK INTRA:                  -0.323
REMARK UNBOUND:                -0.332
REMARK SMILES O=c1c(O)c(-c2ccc(O)c(O)c2)oc2cc(O)cc(O)c12
REMARK SMILES IDX 5 1 3 2 2 3 1 4 22 5 20 6 19 7 17 8 16 9 15 10 14 11 6 12
REMARK SMILES IDX 7 13 8 14 9 15 13 16 11 17 10 18 12 20 4 22 21 24 18 26
REMARK H PARENT 10 19 12 21 4 23 21 25 18 27
REMARK Flexibility Score: inf
ROOT
ATOM      1  C   UNL     1      22.916 -19.339 -10.922  1.00  0.00     0.180 A 
ATOM      2  C   UNL     1      23.534 -18.934  -9.723  1.00  0.00     0.208 A 
ATOM      3  C   UNL     1      23.419 -17.594  -9.320  1.00  0.00     0.238 A 
ATOM      4  O   UNL     1      23.958 -17.222  -8.243  1.00  0.00    -0.285 OA
ATOM      5  C   UNL     1      22.709 -16.682 -10.128  1.00  0.00     0.111 A 
ATOM      6  C   UNL     1      22.549 -15.315  -9.795  1.00  0.00     0.134 A 
ATOM      7  C   UNL     1      21.836 -14.468 -10.657  1.00  0.00     0.093 A 
ATOM      8  C   UNL     1      21.281 -14.959 -11.840  1.00  0.00     0.123 A 
ATOM      9  C   UNL     1      21.434 -16.309 -12.174  1.00  0.00     0.094 A 
ATOM     10  C   UNL     1      22.140 -17.169 -11.327  1.00  0.00     0.146 A 
ATOM     11  O   UNL     1      22.267 -18.448 -11.666  1.00  0.00    -0.452 OA
ENDROOT
BRANCH   1  12
ATOM     12  C   UNL     1      22.977 -20.738 -11.405  1.00  0.00     0.025 A 
ATOM     13  C   UNL     1      24.048 -21.194 -12.193  1.00  0.00     0.016 A 
ATOM     14  C   UNL     1      24.096 -22.525 -12.616  1.00  0.00     0.051 A 
ATOM     15  C   UNL     1      23.085 -23.422 -12.248  1.00  0.00     0.157 A 
ATOM     16  C   UNL     1      21.977 -21.646 -11.021  1.00  0.00     0.062 A 
ATOM     17  C   UNL     1      22.021 -22.979 -11.445  1.00  0.00     0.158 A 
BRANCH  15  18
ATOM     18  O   UNL     1      23.135 -24.748 -12.675  1.00  0.00    -0.504 OA
ATOM     19  H   UNL     1      23.964 -25.316 -12.546  1.00  0.00     0.293 HD
ENDBRANCH  15  18
BRANCH  17  20
ATOM     20  O   UNL     1      21.002 -23.848 -11.054  1.00  0.00    -0.504 OA
ATOM     21  H   UNL     1      21.123 -24.854 -11.058  1.00  0.00     0.293 HD
ENDBRANCH  17  20
ENDBRANCH   1  12
BRANCH   2  22
ATOM     22  O   UNL     1      24.273 -19.847  -8.967  1.00  0.00    -0.502 OA
ATOM     23  H   UNL     1      23.862 -20.387  -8.215  1.00  0.00     0.293 HD
ENDBRANCH   2  22
BRANCH   6  24
ATOM     24  O   UNL     1      23.092 -14.794  -8.621  1.00  0.00    -0.507 OA
ATOM     25  H   UNL     1      23.924 -14.214  -8.628  1.00  0.00     0.293 HD
ENDBRANCH   6  24
BRANCH   8  26
ATOM     26  O   UNL     1      20.578 -14.096 -12.678  1.00  0.00    -0.508 OA
ATOM     27  H   UNL     1      20.598 -14.204 -13.686  1.00  0.00     0.293 HD
ENDBRANCH   8  26
TORSDOF 6
ENDMDL
MODEL 5
REMARK VINA RESULT:    -6.302      1.903      7.120
REMARK INTER + INTRA:          -7.924
REMARK INTER:                  -7.599
REMARK INTRA:                  -0.325
REMARK UNBOUND:                -0.332
REMARK SMILES O=c1c(O)c(-c2ccc(O)c(O)c2)oc2cc(O)cc(O)c12
REMARK SMILES IDX 5 1 3 2 2 3 1 4 22 5 20 6 19 7 17 8 16 9 15 10 14 11 6 12
REMARK SMILES IDX 7 13 8 14 9 15 13 16 11 17 10 18 12 20 4 22 21 24 18 26
REMARK H PARENT 10 19 12 21 4 23 21 25 18 27
REMARK Flexibility Score: inf
ROOT
ATOM      1  C   UNL     1      22.615 -20.609 -11.306  1.00  0.00     0.180 A 
ATOM      2  C   UNL     1      23.571 -20.089 -10.413  1.00  0.00     0.208 A 
ATOM      3  C   UNL     1      23.673 -18.697 -10.262  1.00  0.00     0.238 A 
ATOM      4  O   UNL     1      24.518 -18.220  -9.457  1.00  0.00    -0.285 OA
ATOM      5  C   UNL     1      22.835 -17.852 -11.019  1.00  0.00     0.111 A 
ATOM      6  C   UNL     1      22.876 -16.440 -10.930  1.00  0.00     0.134 A 
ATOM      7  C   UNL     1      22.014 -15.666 -11.723  1.00  0.00     0.093 A 
ATOM      8  C   UNL     1      21.117 -16.276 -12.602  1.00  0.00     0.123 A 
ATOM      9  C   UNL     1      21.071 -17.672 -12.694  1.00  0.00     0.094 A 
ATOM     10  C   UNL     1      21.919 -18.459 -11.910  1.00  0.00     0.146 A 
ATOM     11  O   UNL     1      21.852 -19.782 -12.014  1.00  0.00    -0.452 OA
ENDROOT
BRANCH   1  12
ATOM     12  C   UNL     1      22.435 -22.066 -11.506  1.00  0.00     0.025 A 
ATOM     13  C   UNL     1      21.466 -22.789 -10.789  1.00  0.00     0.016 A 
ATOM     14  C   UNL     1      21.298 -24.158 -11.012  1.00  0.00     0.051 A 
ATOM     15  C   UNL     1      22.084 -24.821 -11.963  1.00  0.00     0.157 A 
ATOM     16  C   UNL     1      23.206 -22.731 -12.473  1.00  0.00     0.062 A 
ATOM     17  C   UNL     1      23.042 -24.103 -12.698  1.00  0.00     0.158 A 
BRANCH  15  18
ATOM     18  O   UNL     1      21.916 -26.188 -12.181  1.00  0.00    -0.504 OA
ATOM     19  H   UNL     1      21.547 -26.799 -11.462  1.00  0.00     0.293 HD
ENDBRANCH  15  18
BRANCH  17  20
ATOM     20  O   UNL     1      23.836 -24.731 -13.657  1.00  0.00    -0.504 OA
ATOM     21  H   UNL     1      23.592 -24.731 -14.641  1.00  0.00     0.293 HD
ENDBRANCH  17  20
ENDBRANCH   1  12
BRANCH   2  22
ATOM     22  O   UNL     1      24.423 -20.947  -9.713  1.00  0.00    -0.502 OA
ATOM     23  H   UNL     1      25.303 -20.635  -9.318  1.00  0.00     0.293 HD
ENDBRANCH   2  22
BRANCH   6  24
ATOM     24  O   UNL     1      23.762 -15.800 -10.062  1.00  0.00    -0.507 OA
ATOM     25  H   UNL     1      23.871 -16.094  -9.098  1.00  0.00     0.293 HD
ENDBRANCH   6  24
BRANCH   8  26
ATOM     26  O   UNL     1      20.273 -15.485 -13.379  1.00  0.00    -0.508 OA
ATOM     27  H   UNL     1      20.640 -14.804 -14.033  1.00  0.00     0.293 HD
ENDBRANCH   8  26
TORSDOF 6
ENDMDL
MODEL 6
REMARK VINA RESULT:    -6.263      2.343      7.569
REMARK INTER + INTRA:          -7.877
REMARK INTER:                  -7.621
REMARK INTRA:                  -0.256
REMARK UNBOUND:                -0.332
REMARK SMILES O=c1c(O)c(-c2ccc(O)c(O)c2)oc2cc(O)cc(O)c12
REMARK SMILES IDX 5 1 3 2 2 3 1 4 22 5 20 6 19 7 17 8 16 9 15 10 14 11 6 12
REMARK SMILES IDX 7 13 8 14 9 15 13 16 11 17 10 18 12 20 4 22 21 24 18 26
REMARK H PARENT 10 19 12 21 4 23 21 25 18 27
REMARK Flexibility Score: inf
ROOT
ATOM      1  C   UNL     1      21.806 -18.896 -11.537  1.00  0.00     0.180 A 
ATOM      2  C   UNL     1      21.096 -18.185 -12.524  1.00  0.00     0.208 A 
ATOM      3  C   UNL     1      21.037 -16.784 -12.441  1.00  0.00     0.238 A 
ATOM      4  O   UNL     1      20.413 -16.136 -13.324  1.00  0.00    -0.285 OA
ATOM      5  C   UNL     1      21.667 -16.123 -11.366  1.00  0.00     0.111 A 
ATOM      6  C   UNL     1      21.652 -14.717 -11.207  1.00  0.00     0.134 A 
ATOM      7  C   UNL     1      22.296 -14.134 -10.105  1.00  0.00     0.093 A 
ATOM      8  C   UNL     1      22.953 -14.928  -9.162  1.00  0.00     0.123 A 
ATOM      9  C   UNL     1      22.973 -16.318  -9.315  1.00  0.00     0.094 A 
ATOM     10  C   UNL     1      22.338 -16.917 -10.407  1.00  0.00     0.146 A 
ATOM     11  O   UNL     1      22.376 -18.240 -10.531  1.00  0.00    -0.452 OA
ENDROOT
BRANCH   1  12
ATOM     12  C   UNL     1      21.929 -20.371 -11.566  1.00  0.00     0.025 A 
ATOM     13  C   UNL     1      20.845 -21.203 -11.235  1.00  0.00     0.016 A 
ATOM     14  C   UNL     1      20.978 -22.593 -11.294  1.00  0.00     0.051 A 
ATOM     15  C   UNL     1      22.189 -23.171 -11.696  1.00  0.00     0.157 A 
ATOM     16  C   UNL     1      23.134 -20.956 -11.989  1.00  0.00     0.062 A 
ATOM     17  C   UNL     1      23.271 -22.348 -12.048  1.00  0.00     0.158 A 
BRANCH  15  18
ATOM     18  O   UNL     1      22.319 -24.558 -11.751  1.00  0.00    -0.504 OA
ATOM     19  H   UNL     1      21.581 -25.146 -12.119  1.00  0.00     0.293 HD
ENDBRANCH  15  18
BRANCH  17  20
ATOM     20  O   UNL     1      24.487 -22.891 -12.459  1.00  0.00    -0.504 OA
ATOM     21  H   UNL     1      25.372 -22.430 -12.278  1.00  0.00     0.293 HD
ENDBRANCH  17  20
ENDBRANCH   1  12
BRANCH   2  22
ATOM     22  O   UNL     1      20.438 -18.868 -13.550  1.00  0.00    -0.502 OA
ATOM     23  H   UNL     1      19.639 -19.466 -13.378  1.00  0.00     0.293 HD
ENDBRANCH   2  22
BRANCH   6  24
ATOM     24  O   UNL     1      21.004 -13.896 -12.131  1.00  0.00    -0.507 OA
ATOM     25  H   UNL     1      20.866 -14.181 -13.094  1.00  0.00     0.293 HD
ENDBRANCH   6  24
BRANCH   8  26
ATOM     26  O   UNL     1      23.584 -14.323  -8.077  1.00  0.00    -0.508 OA
ATOM     27  H   UNL     1      24.261 -13.580  -8.205  1.00  0.00     0.293 HD
ENDBRANCH   8  26
TORSDOF 6
ENDMDL
MODEL 7
REMARK VINA RESULT:    -6.225      1.427      1.577
REMARK INTER + INTRA:          -7.831
REMARK INTER:                  -7.511
REMARK INTRA:                  -0.320
REMARK UNBOUND:                -0.332
REMARK SMILES O=c1c(O)c(-c2ccc(O)c(O)c2)oc2cc(O)cc(O)c12
REMARK SMILES IDX 5 1 3 2 2 3 1 4 22 5 20 6 19 7 17 8 16 9 15 10 14 11 6 12
REMARK SMILES IDX 7 13 8 14 9 15 13 16 11 17 10 18 12 20 4 22 21 24 18 26
REMARK H PARENT 10 19 12 21 4 23 21 25 18 27
REMARK Flexibility Score: inf
ROOT
ATOM      1  C   UNL     1      22.448 -19.971 -11.676  1.00  0.00     0.180 A 
ATOM      2  C   UNL     1      22.729 -20.044 -13.055  1.00  0.00     0.208 A 
ATOM      3  C   UNL     1      22.516 -21.259 -13.727  1.00  0.00     0.238 A 
ATOM      4  O   UNL     1      22.753 -21.333 -14.963  1.00  0.00    -0.285 OA
ATOM      5  C   UNL     1      22.048 -22.379 -13.009  1.00  0.00     0.111 A 
ATOM      6  C   UNL     1      21.811 -23.639 -13.610  1.00  0.00     0.134 A 
ATOM      7  C   UNL     1      21.353 -24.709 -12.826  1.00  0.00     0.093 A 
ATOM      8  C   UNL     1      21.129 -24.543 -11.457  1.00  0.00     0.123 A 
ATOM      9  C   UNL     1      21.360 -23.301 -10.858  1.00  0.00     0.094 A 
ATOM     10  C   UNL     1      21.814 -22.222 -11.623  1.00  0.00     0.146 A 
ATOM     11  O   UNL     1      22.022 -21.052 -11.030  1.00  0.00    -0.452 OA
ENDROOT
BRANCH   1  12
ATOM     12  C   UNL     1      22.630 -18.722 -10.902  1.00  0.00     0.025 A 
ATOM     13  C   UNL     1      21.651 -17.712 -10.902  1.00  0.00     0.016 A 
ATOM     14  C   UNL     1      21.833 -16.552 -10.144  1.00  0.00     0.051 A 
ATOM     15  C   UNL     1      22.987 -16.390  -9.366  1.00  0.00     0.157 A 
ATOM     16  C   UNL     1      23.774 -18.563 -10.104  1.00  0.00     0.062 A 
ATOM     17  C   UNL     1      23.961 -17.402  -9.345  1.00  0.00     0.158 A 
BRANCH  15  18
ATOM     18  O   UNL     1      23.167 -15.230  -8.613  1.00  0.00    -0.504 OA
ATOM     19  H   UNL     1      24.091 -14.887  -8.381  1.00  0.00     0.293 HD
ENDBRANCH  15  18
BRANCH  17  20
ATOM     20  O   UNL     1      25.117 -17.275  -8.575  1.00  0.00    -0.504 OA
ATOM     21  H   UNL     1      25.933 -17.855  -8.732  1.00  0.00     0.293 HD
ENDBRANCH  17  20
ENDBRANCH   1  12
BRANCH   2  22
ATOM     22  O   UNL     1      23.239 -18.934 -13.731  1.00  0.00    -0.502 OA
ATOM     23  H   UNL     1      24.213 -18.662 -13.671  1.00  0.00     0.293 HD
ENDBRANCH   2  22
BRANCH   6  24
ATOM     24  O   UNL     1      22.026 -23.836 -14.974  1.00  0.00    -0.507 OA
ATOM     25  H   UNL     1      21.611 -24.614 -15.473  1.00  0.00     0.293 HD
ENDBRANCH   6  24
BRANCH   8  26
ATOM     26  O   UNL     1      20.675 -25.623 -10.701  1.00  0.00    -0.508 OA
ATOM     27  H   UNL     1      19.715 -25.941 -10.757  1.00  0.00     0.293 HD
ENDBRANCH   8  26
TORSDOF 6
ENDMDL
MODEL 8
REMARK VINA RESULT:    -6.181      2.435      7.194
REMARK INTER + INTRA:          -7.777
REMARK INTER:                  -7.496
REMARK INTRA:                  -0.282
REMARK UNBOUND:                -0.332
REMARK SMILES O=c1c(O)c(-c2ccc(O)c(O)c2)oc2cc(O)cc(O)c12
REMARK SMILES IDX 5 1 3 2 2 3 1 4 22 5 20 6 19 7 17 8 16 9 15 10 14 11 6 12
REMARK SMILES IDX 7 13 8 14 9 15 13 16 11 17 10 18 12 20 4 22 21 24 18 26
REMARK H PARENT 10 19 12 21 4 23 21 25 18 27
REMARK Flexibility Score: inf
ROOT
ATOM      1  C   UNL     1      23.850 -23.038 -13.082  1.00  0.00     0.180 A 
ATOM      2  C   UNL     1      22.507 -22.812 -13.442  1.00  0.00     0.208 A 
ATOM      3  C   UNL     1      21.820 -21.736 -12.857  1.00  0.00     0.238 A 
ATOM      4  O   UNL     1      20.621 -21.517 -13.180  1.00  0.00    -0.285 OA
ATOM      5  C   UNL     1      22.476 -20.922 -11.911  1.00  0.00     0.111 A 
ATOM      6  C   UNL     1      21.854 -19.822 -11.273  1.00  0.00     0.134 A 
ATOM      7  C   UNL     1      22.573 -19.065 -10.334  1.00  0.00     0.093 A 
ATOM      8  C   UNL     1      23.896 -19.386 -10.024  1.00  0.00     0.123 A 
ATOM      9  C   UNL     1      24.516 -20.471 -10.652  1.00  0.00     0.094 A 
ATOM     10  C   UNL     1      23.818 -21.236 -11.591  1.00  0.00     0.146 A 
ATOM     11  O   UNL     1      24.432 -22.258 -12.176  1.00  0.00    -0.452 OA
ENDROOT
BRANCH   1  12
ATOM     12  C   UNL     1      24.647 -24.139 -13.670  1.00  0.00     0.025 A 
ATOM     13  C   UNL     1      25.615 -23.896 -14.660  1.00  0.00     0.016 A 
ATOM     14  C   UNL     1      26.372 -24.948 -15.181  1.00  0.00     0.051 A 
ATOM     15  C   UNL     1      26.184 -26.255 -14.713  1.00  0.00     0.157 A 
ATOM     16  C   UNL     1      24.477 -25.448 -13.189  1.00  0.00     0.062 A 
ATOM     17  C   UNL     1      25.233 -26.504 -13.710  1.00  0.00     0.158 A 
BRANCH  15  18
ATOM     18  O   UNL     1      26.939 -27.302 -15.238  1.00  0.00    -0.504 OA
ATOM     19  H   UNL     1      27.830 -27.567 -14.836  1.00  0.00     0.293 HD
ENDBRANCH  15  18
BRANCH  17  20
ATOM     20  O   UNL     1      25.026 -27.792 -13.217  1.00  0.00    -0.504 OA
ATOM     21  H   UNL     1      25.538 -28.151 -12.418  1.00  0.00     0.293 HD
ENDBRANCH  17  20
ENDBRANCH   1  12
BRANCH   2  22
ATOM     22  O   UNL     1      21.865 -23.663 -14.345  1.00  0.00    -0.502 OA
ATOM     23  H   UNL     1      22.376 -24.282 -14.964  1.00  0.00     0.293 HD
ENDBRANCH   2  22
BRANCH   6  24
ATOM     24  O   UNL     1      20.534 -19.477 -11.561  1.00  0.00    -0.507 OA
ATOM     25  H   UNL     1      20.273 -19.057 -12.446  1.00  0.00     0.293 HD
ENDBRANCH   6  24
BRANCH   8  26
ATOM     26  O   UNL     1      24.586 -18.618  -9.088  1.00  0.00    -0.508 OA
ATOM     27  H   UNL     1      25.270 -19.031  -8.466  1.00  0.00     0.293 HD
ENDBRANCH   8  26
TORSDOF 6
ENDMDL
MODEL 9
REMARK VINA RESULT:    -6.179      2.229      3.724
REMARK INTER + INTRA:          -7.775
REMARK INTER:                  -7.509
REMARK INTRA:                  -0.266
REMARK UNBOUND:                -0.332
REMARK SMILES O=c1c(O)c(-c2ccc(O)c(O)c2)oc2cc(O)cc(O)c12
REMARK SMILES IDX 5 1 3 2 2 3 1 4 22 5 20 6 19 7 17 8 16 9 15 10 14 11 6 12
REMARK SMILES IDX 7 13 8 14 9 15 13 16 11 17 10 18 12 20 4 22 21 24 18 26
REMARK H PARENT 10 19 12 21 4 23 21 25 18 27
REMARK Flexibility Score: inf
ROOT
ATOM      1  C   UNL     1      23.665 -22.729 -12.449  1.00  0.00     0.180 A 
ATOM      2  C   UNL     1      22.533 -23.516 -12.160  1.00  0.00     0.208 A 
ATOM      3  C   UNL     1      22.518 -24.859 -12.571  1.00  0.00     0.238 A 
ATOM      4  O   UNL     1      21.515 -25.577 -12.309  1.00  0.00    -0.285 OA
ATOM      5  C   UNL     1      23.620 -25.383 -13.278  1.00  0.00     0.111 A 
ATOM      6  C   UNL     1      23.683 -26.723 -13.731  1.00  0.00     0.134 A 
ATOM      7  C   UNL     1      24.812 -27.168 -14.436  1.00  0.00     0.093 A 
ATOM      8  C   UNL     1      25.875 -26.301 -14.697  1.00  0.00     0.123 A 
ATOM      9  C   UNL     1      25.819 -24.976 -14.251  1.00  0.00     0.094 A 
ATOM     10  C   UNL     1      24.704 -24.515 -13.545  1.00  0.00     0.146 A 
ATOM     11  O   UNL     1      24.679 -23.253 -13.130  1.00  0.00    -0.452 OA
ENDROOT
BRANCH   1  12
ATOM     12  C   UNL     1      23.763 -21.311 -12.032  1.00  0.00     0.025 A 
ATOM     13  C   UNL     1      23.549 -20.263 -12.946  1.00  0.00     0.016 A 
ATOM     14  C   UNL     1      23.623 -18.934 -12.524  1.00  0.00     0.051 A 
ATOM     15  C   UNL     1      23.897 -18.630 -11.184  1.00  0.00     0.157 A 
ATOM     16  C   UNL     1      24.017 -21.002 -10.686  1.00  0.00     0.062 A 
ATOM     17  C   UNL     1      24.093 -19.671 -10.261  1.00  0.00     0.158 A 
BRANCH  15  18
ATOM     18  O   UNL     1      23.973 -17.302 -10.768  1.00  0.00    -0.504 OA
ATOM     19  H   UNL     1      23.288 -16.904 -10.137  1.00  0.00     0.293 HD
ENDBRANCH  15  18
BRANCH  17  20
ATOM     20  O   UNL     1      24.361 -19.403  -8.919  1.00  0.00    -0.504 OA
ATOM     21  H   UNL     1      25.200 -18.917  -8.625  1.00  0.00     0.293 HD
ENDBRANCH  17  20
ENDBRANCH   1  12
BRANCH   2  22
ATOM     22  O   UNL     1      21.434 -22.959 -11.503  1.00  0.00    -0.502 OA
ATOM     23  H   UNL     1      21.314 -21.958 -11.400  1.00  0.00     0.293 HD
ENDBRANCH   2  22
BRANCH   6  24
ATOM     24  O   UNL     1      22.637 -27.613 -13.487  1.00  0.00    -0.507 OA
ATOM     25  H   UNL     1      22.804 -28.594 -13.292  1.00  0.00     0.293 HD
ENDBRANCH   6  24
BRANCH   8  26
ATOM     26  O   UNL     1      26.984 -26.767 -15.400  1.00  0.00    -0.508 OA
ATOM     27  H   UNL     1      27.789 -26.177 -15.571  1.00  0.00     0.293 HD
ENDBRANCH   8  26
TORSDOF 6
ENDMDL
