MODEL 1
REMARK VINA RESULT:    -4.611      0.000      0.000
REMARK INTER + INTRA:         -15.325
REMARK INTER:                 -11.620
REMARK INTRA:                  -3.704
REMARK UNBOUND:                -3.704
REMARK SMILES CCCCCCCCCCCCCCCCCCCCCCCCCCCC(=O)[O-]
REMARK SMILES IDX 15 1 16 2 17 3 18 4 19 5 20 6 21 7 22 8 23 9 24 10 25 11
REMARK SMILES IDX 26 12 27 13 28 14 29 15 30 16 14 17 13 18 12 19 11 20 10 21
REMARK SMILES IDX 9 22 8 23 7 24 6 25 5 26 4 27 3 28 2 29 1 30
REMARK H PARENT
REMARK Flexibility Score: inf
ROOT
ATOM      1  C   UNL     1     -10.631   1.650 -35.289  1.00  0.00     0.000 C 
ENDROOT
BRANCH   1   2
ATOM      2  C   UNL     1      -9.940   2.559 -36.315  1.00  0.00     0.000 C 
BRANCH   2   3
ATOM      3  C   UNL     1     -10.184   2.122 -37.767  1.00  0.00     0.000 C 
BRANCH   3   4
ATOM      4  C   UNL     1      -9.186   2.757 -38.752  1.00  0.00     0.000 C 
BRANCH   4   5
ATOM      5  C   UNL     1      -9.872   3.572 -39.863  1.00  0.00     0.000 C 
BRANCH   5   6
ATOM      6  C   UNL     1     -10.535   4.883 -39.393  1.00  0.00     0.000 C 
BRANCH   6   7
ATOM      7  C   UNL     1     -12.069   4.829 -39.442  1.00  0.00     0.000 C 
BRANCH   7   8
ATOM      8  C   UNL     1     -12.555   3.825 -40.498  1.00  0.00     0.000 C 
BRANCH   8   9
ATOM      9  C   UNL     1     -12.875   4.486 -41.852  1.00  0.00     0.000 C 
BRANCH   9  10
ATOM     10  C   UNL     1     -14.130   5.378 -41.862  1.00  0.00     0.000 C 
BRANCH  10  11
ATOM     11  C   UNL     1     -15.019   5.239 -43.112  1.00  0.00     0.000 C 
BRANCH  11  12
ATOM     12  C   UNL     1     -16.527   5.434 -42.831  1.00  0.00     0.006 C 
BRANCH  12  13
ATOM     13  C   UNL     1     -16.904   5.310 -41.346  1.00  0.00     0.053 C 
BRANCH  13  14
ATOM     14  C   UNL     1     -17.389   3.934 -41.002  1.00  0.00     0.041 C 
ATOM     15  O   UNL     1     -16.789   3.251 -40.130  1.00  0.00    -0.550 OA
ATOM     16  O   UNL     1     -18.513   3.413 -41.630  1.00  0.00    -0.550 OA
ENDBRANCH  13  14
ENDBRANCH  12  13
ENDBRANCH  11  12
ENDBRANCH  10  11
ENDBRANCH   9  10
ENDBRANCH   8   9
ENDBRANCH   7   8
ENDBRANCH   6   7
ENDBRANCH   5   6
ENDBRANCH   4   5
ENDBRANCH   3   4
ENDBRANCH   2   3
ENDBRANCH   1   2
BRANCH   1  17
ATOM     17  C   UNL     1     -10.857   0.245 -35.871  1.00  0.00     0.000 C 
BRANCH  17  18
ATOM     18  C   UNL     1      -9.727  -0.731 -35.506  1.00  0.00     0.000 C 
BRANCH  18  19
ATOM     19  C   UNL     1      -8.758  -0.971 -36.677  1.00  0.00     0.000 C 
BRANCH  19  20
ATOM     20  C   UNL     1      -8.922  -2.366 -37.302  1.00  0.00     0.000 C 
BRANCH  20  21
ATOM     21  C   UNL     1      -8.176  -2.508 -38.641  1.00  0.00     0.000 C 
BRANCH  21  22
ATOM     22  C   UNL     1      -7.304  -1.284 -38.965  1.00  0.00    -0.000 C 
BRANCH  22  23
ATOM     23  C   UNL     1      -7.133  -1.063 -40.479  1.00  0.00    -0.000 C 
BRANCH  23  24
ATOM     24  C   UNL     1      -8.479  -1.112 -41.235  1.00  0.00    -0.000 C 
BRANCH  24  25
ATOM     25  C   UNL     1      -9.291   0.195 -41.153  1.00  0.00    -0.000 C 
BRANCH  25  26
ATOM     26  C   UNL     1     -10.808   0.008 -40.984  1.00  0.00    -0.000 C 
BRANCH  26  27
ATOM     27  C   UNL     1     -11.196  -1.424 -40.579  1.00  0.00    -0.000 C 
BRANCH  27  28
ATOM     28  C   UNL     1     -11.852  -1.472 -39.181  1.00  0.00    -0.000 C 
BRANCH  28  29
ATOM     29  C   UNL     1     -13.258  -2.096 -39.187  1.00  0.00    -0.003 C 
ATOM     30  C   UNL     1     -14.200  -1.432 -40.186  1.00  0.00     0.004 C 
ENDBRANCH  28  29
ENDBRANCH  27  28
ENDBRANCH  26  27
ENDBRANCH  25  26
ENDBRANCH  24  25
ENDBRANCH  23  24
ENDBRANCH  22  23
ENDBRANCH  21  22
ENDBRANCH  20  21
ENDBRANCH  19  20
ENDBRANCH  18  19
ENDBRANCH  17  18
ENDBRANCH   1  17
TORSDOF 26
ENDMDL
MODEL 2
REMARK VINA RESULT:    -4.611      1.238      3.958
REMARK INTER + INTRA:         -15.324
REMARK INTER:                 -10.659
REMARK INTRA:                  -4.665
REMARK UNBOUND:                -3.704
REMARK SMILES CCCCCCCCCCCCCCCCCCCCCCCCCCCC(=O)[O-]
REMARK SMILES IDX 15 1 16 2 17 3 18 4 19 5 20 6 21 7 22 8 23 9 24 10 25 11
REMARK SMILES IDX 26 12 27 13 28 14 29 15 30 16 14 17 13 18 12 19 11 20 10 21
REMARK SMILES IDX 9 22 8 23 7 24 6 25 5 26 4 27 3 28 2 29 1 30
REMARK H PARENT
REMARK Flexibility Score: inf
ROOT
ATOM      1  C   UNL     1     -11.230  -1.345 -38.975  1.00  0.00     0.000 C 
ENDROOT
BRANCH   1   2
ATOM      2  C   UNL     1     -11.993  -1.026 -40.268  1.00  0.00     0.000 C 
BRANCH   2   3
ATOM      3  C   UNL     1     -11.302   0.046 -41.126  1.00  0.00     0.000 C 
BRANCH   3   4
ATOM      4  C   UNL     1     -11.989   1.419 -41.022  1.00  0.00     0.000 C 
BRANCH   4   5
ATOM      5  C   UNL     1     -11.313   2.498 -41.889  1.00  0.00     0.000 C 
BRANCH   5   6
ATOM      6  C   UNL     1     -11.978   3.888 -41.831  1.00  0.00     0.000 C 
BRANCH   6   7
ATOM      7  C   UNL     1     -12.602   4.197 -40.462  1.00  0.00     0.000 C 
BRANCH   7   8
ATOM      8  C   UNL     1     -12.779   5.709 -40.262  1.00  0.00     0.000 C 
BRANCH   8   9
ATOM      9  C   UNL     1     -12.982   6.470 -41.585  1.00  0.00     0.000 C 
BRANCH   9  10
ATOM     10  C   UNL     1     -14.352   7.157 -41.740  1.00  0.00     0.000 C 
BRANCH  10  11
ATOM     11  C   UNL     1     -15.169   6.713 -42.967  1.00  0.00     0.000 C 
BRANCH  11  12
ATOM     12  C   UNL     1     -15.566   5.218 -42.945  1.00  0.00     0.006 C 
BRANCH  12  13
ATOM     13  C   UNL     1     -16.976   4.957 -42.390  1.00  0.00     0.053 C 
BRANCH  13  14
ATOM     14  C   UNL     1     -16.971   4.790 -40.900  1.00  0.00     0.041 C 
ATOM     15  O   UNL     1     -16.688   3.673 -40.390  1.00  0.00    -0.550 OA
ATOM     16  O   UNL     1     -17.261   5.869 -40.075  1.00  0.00    -0.550 OA
ENDBRANCH  13  14
ENDBRANCH  12  13
ENDBRANCH  11  12
ENDBRANCH  10  11
ENDBRANCH   9  10
ENDBRANCH   8   9
ENDBRANCH   7   8
ENDBRANCH   6   7
ENDBRANCH   5   6
ENDBRANCH   4   5
ENDBRANCH   3   4
ENDBRANCH   2   3
ENDBRANCH   1   2
BRANCH   1  17
ATOM     17  C   UNL     1     -10.456  -2.666 -39.111  1.00  0.00     0.000 C 
BRANCH  17  18
ATOM     18  C   UNL     1      -8.971  -2.519 -38.741  1.00  0.00     0.000 C 
BRANCH  18  19
ATOM     19  C   UNL     1      -8.748  -2.474 -37.220  1.00  0.00     0.000 C 
BRANCH  19  20
ATOM     20  C   UNL     1      -7.790  -1.347 -36.797  1.00  0.00     0.000 C 
BRANCH  20  21
ATOM     21  C   UNL     1      -8.458  -0.316 -35.869  1.00  0.00     0.000 C 
BRANCH  21  22
ATOM     22  C   UNL     1      -9.880  -0.727 -35.454  1.00  0.00    -0.000 C 
BRANCH  22  23
ATOM     23  C   UNL     1     -10.924   0.360 -35.761  1.00  0.00    -0.000 C 
BRANCH  23  24
ATOM     24  C   UNL     1     -10.409   1.779 -35.432  1.00  0.00    -0.000 C 
BRANCH  24  25
ATOM     25  C   UNL     1     -10.581   2.790 -36.583  1.00  0.00    -0.000 C 
BRANCH  25  26
ATOM     26  C   UNL     1     -10.162   2.273 -37.970  1.00  0.00    -0.000 C 
BRANCH  26  27
ATOM     27  C   UNL     1      -9.316   3.287 -38.759  1.00  0.00    -0.000 C 
BRANCH  27  28
ATOM     28  C   UNL     1      -8.340   2.592 -39.733  1.00  0.00    -0.000 C 
BRANCH  28  29
ATOM     29  C   UNL     1      -8.216   1.077 -39.496  1.00  0.00    -0.003 C 
ATOM     30  C   UNL     1      -7.698   0.323 -40.718  1.00  0.00     0.004 C 
ENDBRANCH  28  29
ENDBRANCH  27  28
ENDBRANCH  26  27
ENDBRANCH  25  26
ENDBRANCH  24  25
ENDBRANCH  23  24
ENDBRANCH  22  23
ENDBRANCH  21  22
ENDBRANCH  20  21
ENDBRANCH  19  20
ENDBRANCH  18  19
ENDBRANCH  17  18
ENDBRANCH   1  17
TORSDOF 26
ENDMDL
MODEL 3
REMARK VINA RESULT:    -4.585      1.209      3.617
REMARK INTER + INTRA:         -15.258
REMARK INTER:                 -10.491
REMARK INTRA:                  -4.766
REMARK UNBOUND:                -3.704
REMARK SMILES CCCCCCCCCCCCCCCCCCCCCCCCCCCC(=O)[O-]
REMARK SMILES IDX 15 1 16 2 17 3 18 4 19 5 20 6 21 7 22 8 23 9 24 10 25 11
REMARK SMILES IDX 26 12 27 13 28 14 29 15 30 16 14 17 13 18 12 19 11 20 10 21
REMARK SMILES IDX 9 22 8 23 7 24 6 25 5 26 4 27 3 28 2 29 1 30
REMARK H PARENT
REMARK Flexibility Score: inf
ROOT
ATOM      1  C   UNL     1     -10.603   2.297 -38.883  1.00  0.00     0.000 C 
ENDROOT
BRANCH   1   2
ATOM      2  C   UNL     1     -10.135   3.535 -38.105  1.00  0.00     0.000 C 
BRANCH   2   3
ATOM      3  C   UNL     1     -10.311   4.843 -38.891  1.00  0.00     0.000 C 
BRANCH   3   4
ATOM      4  C   UNL     1     -11.779   5.114 -39.266  1.00  0.00     0.000 C 
BRANCH   4   5
ATOM      5  C   UNL     1     -11.982   5.348 -40.775  1.00  0.00     0.000 C 
BRANCH   5   6
ATOM      6  C   UNL     1     -12.667   4.189 -41.526  1.00  0.00     0.000 C 
BRANCH   6   7
ATOM      7  C   UNL     1     -12.208   4.068 -42.987  1.00  0.00     0.000 C 
BRANCH   7   8
ATOM      8  C   UNL     1     -13.119   4.875 -43.923  1.00  0.00     0.000 C 
BRANCH   8   9
ATOM      9  C   UNL     1     -14.517   5.127 -43.329  1.00  0.00     0.000 C 
BRANCH   9  10
ATOM     10  C   UNL     1     -14.889   6.609 -43.141  1.00  0.00     0.000 C 
BRANCH  10  11
ATOM     11  C   UNL     1     -15.268   7.008 -41.702  1.00  0.00     0.000 C 
BRANCH  11  12
ATOM     12  C   UNL     1     -16.671   6.524 -41.269  1.00  0.00     0.006 C 
BRANCH  12  13
ATOM     13  C   UNL     1     -16.646   5.336 -40.293  1.00  0.00     0.053 C 
BRANCH  13  14
ATOM     14  C   UNL     1     -17.237   4.099 -40.900  1.00  0.00     0.041 C 
ATOM     15  O   UNL     1     -17.214   3.011 -40.267  1.00  0.00    -0.550 OA
ATOM     16  O   UNL     1     -17.828   4.151 -42.156  1.00  0.00    -0.550 OA
ENDBRANCH  13  14
ENDBRANCH  12  13
ENDBRANCH  11  12
ENDBRANCH  10  11
ENDBRANCH   9  10
ENDBRANCH   8   9
ENDBRANCH   7   8
ENDBRANCH   6   7
ENDBRANCH   5   6
ENDBRANCH   4   5
ENDBRANCH   3   4
ENDBRANCH   2   3
ENDBRANCH   1   2
BRANCH   1  17
ATOM     17  C   UNL     1      -9.654   2.000 -40.055  1.00  0.00     0.000 C 
BRANCH  17  18
ATOM     18  C   UNL     1     -10.337   1.202 -41.177  1.00  0.00     0.000 C 
BRANCH  18  19
ATOM     19  C   UNL     1     -11.759   0.755 -40.797  1.00  0.00     0.000 C 
BRANCH  19  20
ATOM     20  C   UNL     1     -11.896  -0.775 -40.717  1.00  0.00     0.000 C 
BRANCH  20  21
ATOM     21  C   UNL     1     -11.672  -1.318 -39.294  1.00  0.00     0.000 C 
BRANCH  21  22
ATOM     22  C   UNL     1     -10.674  -2.486 -39.257  1.00  0.00    -0.000 C 
BRANCH  22  23
ATOM     23  C   UNL     1      -9.578  -2.364 -40.331  1.00  0.00    -0.000 C 
BRANCH  23  24
ATOM     24  C   UNL     1      -8.324  -1.629 -39.809  1.00  0.00    -0.000 C 
BRANCH  24  25
ATOM     25  C   UNL     1      -8.026  -1.880 -38.318  1.00  0.00    -0.000 C 
BRANCH  25  26
ATOM     26  C   UNL     1      -7.455  -0.672 -37.557  1.00  0.00    -0.000 C 
BRANCH  26  27
ATOM     27  C   UNL     1      -8.538   0.155 -36.842  1.00  0.00    -0.000 C 
BRANCH  27  28
ATOM     28  C   UNL     1      -9.618  -0.741 -36.197  1.00  0.00    -0.000 C 
BRANCH  28  29
ATOM     29  C   UNL     1     -10.913   0.015 -35.852  1.00  0.00    -0.003 C 
ATOM     30  C   UNL     1     -10.655   1.383 -35.227  1.00  0.00     0.004 C 
ENDBRANCH  28  29
ENDBRANCH  27  28
ENDBRANCH  26  27
ENDBRANCH  25  26
ENDBRANCH  24  25
ENDBRANCH  23  24
ENDBRANCH  22  23
ENDBRANCH  21  22
ENDBRANCH  20  21
ENDBRANCH  19  20
ENDBRANCH  18  19
ENDBRANCH  17  18
ENDBRANCH   1  17
TORSDOF 26
ENDMDL
MODEL 4
REMARK VINA RESULT:    -4.557      0.988      2.072
REMARK INTER + INTRA:         -15.188
REMARK INTER:                 -11.711
REMARK INTRA:                  -3.477
REMARK UNBOUND:                -3.704
REMARK SMILES CCCCCCCCCCCCCCCCCCCCCCCCCCCC(=O)[O-]
REMARK SMILES IDX 15 1 16 2 17 3 18 4 19 5 20 6 21 7 22 8 23 9 24 10 25 11
REMARK SMILES IDX 26 12 27 13 28 14 29 15 30 16 14 17 13 18 12 19 11 20 10 21
REMARK SMILES IDX 9 22 8 23 7 24 6 25 5 26 4 27 3 28 2 29 1 30
REMARK H PARENT
REMARK Flexibility Score: inf
ROOT
ATOM      1  C   UNL     1     -10.292   1.756 -37.960  1.00  0.00     0.000 C 
ENDROOT
BRANCH   1   2
ATOM      2  C   UNL     1      -9.381   2.502 -38.945  1.00  0.00     0.000 C 
BRANCH   2   3
ATOM      3  C   UNL     1      -9.686   4.006 -39.025  1.00  0.00     0.000 C 
BRANCH   3   4
ATOM      4  C   UNL     1     -10.708   4.344 -40.126  1.00  0.00     0.000 C 
BRANCH   4   5
ATOM      5  C   UNL     1     -12.164   4.311 -39.627  1.00  0.00     0.000 C 
BRANCH   5   6
ATOM      6  C   UNL     1     -13.213   3.975 -40.706  1.00  0.00     0.000 C 
BRANCH   6   7
ATOM      7  C   UNL     1     -14.151   5.151 -41.016  1.00  0.00     0.000 C 
BRANCH   7   8
ATOM      8  C   UNL     1     -14.502   5.201 -42.511  1.00  0.00     0.000 C 
BRANCH   8   9
ATOM      9  C   UNL     1     -15.096   6.555 -42.942  1.00  0.00     0.000 C 
BRANCH   9  10
ATOM     10  C   UNL     1     -16.190   7.113 -42.014  1.00  0.00     0.000 C 
BRANCH  10  11
ATOM     11  C   UNL     1     -17.627   6.998 -42.558  1.00  0.00     0.000 C 
BRANCH  11  12
ATOM     12  C   UNL     1     -18.552   6.108 -41.695  1.00  0.00     0.006 C 
BRANCH  12  13
ATOM     13  C   UNL     1     -17.801   5.231 -40.680  1.00  0.00     0.053 C 
BRANCH  13  14
ATOM     14  C   UNL     1     -17.697   3.807 -41.138  1.00  0.00     0.041 C 
ATOM     15  O   UNL     1     -17.892   3.516 -42.348  1.00  0.00    -0.550 OA
ATOM     16  O   UNL     1     -17.366   2.805 -40.234  1.00  0.00    -0.550 OA
ENDBRANCH  13  14
ENDBRANCH  12  13
ENDBRANCH  11  12
ENDBRANCH  10  11
ENDBRANCH   9  10
ENDBRANCH   8   9
ENDBRANCH   7   8
ENDBRANCH   6   7
ENDBRANCH   5   6
ENDBRANCH   4   5
ENDBRANCH   3   4
ENDBRANCH   2   3
ENDBRANCH   1   2
BRANCH   1  17
ATOM     17  C   UNL     1      -9.936   2.116 -36.509  1.00  0.00     0.000 C 
BRANCH  17  18
ATOM     18  C   UNL     1     -10.348   1.020 -35.513  1.00  0.00     0.000 C 
BRANCH  18  19
ATOM     19  C   UNL     1     -10.579  -0.338 -36.198  1.00  0.00     0.000 C 
BRANCH  19  20
ATOM     20  C   UNL     1      -9.293  -1.175 -36.298  1.00  0.00     0.000 C 
BRANCH  20  21
ATOM     21  C   UNL     1      -9.100  -1.805 -37.689  1.00  0.00     0.000 C 
BRANCH  21  22
ATOM     22  C   UNL     1      -8.021  -1.090 -38.518  1.00  0.00    -0.000 C 
BRANCH  22  23
ATOM     23  C   UNL     1      -7.842  -1.708 -39.916  1.00  0.00    -0.000 C 
BRANCH  23  24
ATOM     24  C   UNL     1      -8.347  -0.776 -41.040  1.00  0.00    -0.000 C 
BRANCH  24  25
ATOM     25  C   UNL     1      -9.822  -1.002 -41.424  1.00  0.00    -0.000 C 
BRANCH  25  26
ATOM     26  C   UNL     1     -10.732   0.227 -41.261  1.00  0.00    -0.000 C 
BRANCH  26  27
ATOM     27  C   UNL     1     -12.151  -0.132 -40.787  1.00  0.00    -0.000 C 
BRANCH  27  28
ATOM     28  C   UNL     1     -12.175  -1.454 -39.988  1.00  0.00    -0.000 C 
BRANCH  28  29
ATOM     29  C   UNL     1     -13.590  -1.888 -39.569  1.00  0.00    -0.003 C 
ATOM     30  C   UNL     1     -14.686  -1.234 -40.406  1.00  0.00     0.004 C 
ENDBRANCH  28  29
ENDBRANCH  27  28
ENDBRANCH  26  27
ENDBRANCH  25  26
ENDBRANCH  24  25
ENDBRANCH  23  24
ENDBRANCH  22  23
ENDBRANCH  21  22
ENDBRANCH  20  21
ENDBRANCH  19  20
ENDBRANCH  18  19
ENDBRANCH  17  18
ENDBRANCH   1  17
TORSDOF 26
ENDMDL
MODEL 5
REMARK VINA RESULT:    -4.555      1.461      4.424
REMARK INTER + INTRA:         -15.184
REMARK INTER:                 -11.249
REMARK INTRA:                  -3.935
REMARK UNBOUND:                -3.704
REMARK SMILES CCCCCCCCCCCCCCCCCCCCCCCCCCCC(=O)[O-]
REMARK SMILES IDX 15 1 16 2 17 3 18 4 19 5 20 6 21 7 22 8 23 9 24 10 25 11
REMARK SMILES IDX 26 12 27 13 28 14 29 15 30 16 14 17 13 18 12 19 11 20 10 21
REMARK SMILES IDX 9 22 8 23 7 24 6 25 5 26 4 27 3 28 2 29 1 30
REMARK H PARENT
REMARK Flexibility Score: inf
ROOT
ATOM      1  C   UNL     1     -12.142   3.014 -41.423  1.00  0.00     0.000 C 
ENDROOT
BRANCH   1   2
ATOM      2  C   UNL     1     -12.432   4.210 -40.504  1.00  0.00     0.000 C 
BRANCH   2   3
ATOM      3  C   UNL     1     -13.433   5.206 -41.112  1.00  0.00     0.000 C 
BRANCH   3   4
ATOM      4  C   UNL     1     -12.796   6.574 -41.414  1.00  0.00     0.000 C 
BRANCH   4   5
ATOM      5  C   UNL     1     -12.808   6.927 -42.912  1.00  0.00     0.000 C 
BRANCH   5   6
ATOM      6  C   UNL     1     -12.957   5.721 -43.862  1.00  0.00     0.000 C 
BRANCH   6   7
ATOM      7  C   UNL     1     -14.190   5.826 -44.773  1.00  0.00     0.000 C 
BRANCH   7   8
ATOM      8  C   UNL     1     -15.376   5.040 -44.193  1.00  0.00     0.000 C 
BRANCH   8   9
ATOM      9  C   UNL     1     -16.725   5.754 -44.397  1.00  0.00     0.000 C 
BRANCH   9  10
ATOM     10  C   UNL     1     -16.934   7.014 -43.536  1.00  0.00     0.000 C 
BRANCH  10  11
ATOM     11  C   UNL     1     -16.494   6.879 -42.066  1.00  0.00     0.000 C 
BRANCH  11  12
ATOM     12  C   UNL     1     -17.532   6.170 -41.167  1.00  0.00     0.006 C 
BRANCH  12  13
ATOM     13  C   UNL     1     -16.996   4.908 -40.471  1.00  0.00     0.053 C 
BRANCH  13  14
ATOM     14  C   UNL     1     -17.697   3.668 -40.938  1.00  0.00     0.041 C 
ATOM     15  O   UNL     1     -18.519   3.727 -41.890  1.00  0.00    -0.550 OA
ATOM     16  O   UNL     1     -17.431   2.446 -40.334  1.00  0.00    -0.550 OA
ENDBRANCH  13  14
ENDBRANCH  12  13
ENDBRANCH  11  12
ENDBRANCH  10  11
ENDBRANCH   9  10
ENDBRANCH   8   9
ENDBRANCH   7   8
ENDBRANCH   6   7
ENDBRANCH   5   6
ENDBRANCH   4   5
ENDBRANCH   3   4
ENDBRANCH   2   3
ENDBRANCH   1   2
BRANCH   1  17
ATOM     17  C   UNL     1     -10.993   2.162 -40.860  1.00  0.00     0.000 C 
BRANCH  17  18
ATOM     18  C   UNL     1     -10.778   2.386 -39.355  1.00  0.00     0.000 C 
BRANCH  18  19
ATOM     19  C   UNL     1      -9.288   2.449 -38.979  1.00  0.00     0.000 C 
BRANCH  19  20
ATOM     20  C   UNL     1      -9.067   2.609 -37.465  1.00  0.00     0.000 C 
BRANCH  20  21
ATOM     21  C   UNL     1     -10.382   2.815 -36.692  1.00  0.00     0.000 C 
BRANCH  21  22
ATOM     22  C   UNL     1     -10.415   2.042 -35.363  1.00  0.00    -0.000 C 
BRANCH  22  23
ATOM     23  C   UNL     1     -10.832   0.572 -35.543  1.00  0.00    -0.000 C 
BRANCH  23  24
ATOM     24  C   UNL     1      -9.624  -0.390 -35.521  1.00  0.00    -0.000 C 
BRANCH  24  25
ATOM     25  C   UNL     1      -9.447  -1.203 -36.818  1.00  0.00    -0.000 C 
BRANCH  25  26
ATOM     26  C   UNL     1     -10.480  -0.903 -37.918  1.00  0.00    -0.000 C 
BRANCH  26  27
ATOM     27  C   UNL     1      -9.950  -1.188 -39.334  1.00  0.00    -0.000 C 
BRANCH  27  28
ATOM     28  C   UNL     1     -11.050  -1.749 -40.262  1.00  0.00    -0.000 C 
BRANCH  28  29
ATOM     29  C   UNL     1     -12.469  -1.314 -39.859  1.00  0.00    -0.003 C 
ATOM     30  C   UNL     1     -13.326  -2.471 -39.353  1.00  0.00     0.004 C 
ENDBRANCH  28  29
ENDBRANCH  27  28
ENDBRANCH  26  27
ENDBRANCH  25  26
ENDBRANCH  24  25
ENDBRANCH  23  24
ENDBRANCH  22  23
ENDBRANCH  21  22
ENDBRANCH  20  21
ENDBRANCH  19  20
ENDBRANCH  18  19
ENDBRANCH  17  18
ENDBRANCH   1  17
TORSDOF 26
ENDMDL
MODEL 6
REMARK VINA RESULT:    -4.516      3.069      8.554
REMARK INTER + INTRA:         -15.083
REMARK INTER:                  -9.950
REMARK INTRA:                  -5.134
REMARK UNBOUND:                -3.704
REMARK SMILES CCCCCCCCCCCCCCCCCCCCCCCCCCCC(=O)[O-]
REMARK SMILES IDX 15 1 16 2 17 3 18 4 19 5 20 6 21 7 22 8 23 9 24 10 25 11
REMARK SMILES IDX 26 12 27 13 28 14 29 15 30 16 14 17 13 18 12 19 11 20 10 21
REMARK SMILES IDX 9 22 8 23 7 24 6 25 5 26 4 27 3 28 2 29 1 30
REMARK H PARENT
REMARK Flexibility Score: inf
ROOT
ATOM      1  C   UNL     1     -12.190   2.818 -41.214  1.00  0.00     0.000 C 
ENDROOT
BRANCH   1   2
ATOM      2  C   UNL     1     -11.494   3.437 -42.434  1.00  0.00     0.000 C 
BRANCH   2   3
ATOM      3  C   UNL     1     -10.009   3.746 -42.186  1.00  0.00     0.000 C 
BRANCH   3   4
ATOM      4  C   UNL     1      -9.799   5.074 -41.436  1.00  0.00     0.000 C 
BRANCH   4   5
ATOM      5  C   UNL     1      -9.349   4.876 -39.976  1.00  0.00     0.000 C 
BRANCH   5   6
ATOM      6  C   UNL     1     -10.364   5.343 -38.914  1.00  0.00     0.000 C 
BRANCH   6   7
ATOM      7  C   UNL     1     -11.001   4.178 -38.141  1.00  0.00     0.000 C 
BRANCH   7   8
ATOM      8  C   UNL     1      -9.944   3.395 -37.349  1.00  0.00     0.000 C 
BRANCH   8   9
ATOM      9  C   UNL     1     -10.221   1.880 -37.313  1.00  0.00     0.000 C 
BRANCH   9  10
ATOM     10  C   UNL     1     -10.121   1.166 -38.674  1.00  0.00     0.000 C 
BRANCH  10  11
ATOM     11  C   UNL     1      -8.789   1.370 -39.420  1.00  0.00     0.000 C 
BRANCH  11  12
ATOM     12  C   UNL     1      -8.661   0.527 -40.710  1.00  0.00     0.006 C 
BRANCH  12  13
ATOM     13  C   UNL     1     -10.009   0.079 -41.297  1.00  0.00     0.053 C 
BRANCH  13  14
ATOM     14  C   UNL     1     -10.168  -1.412 -41.264  1.00  0.00     0.041 C 
ATOM     15  O   UNL     1     -10.976  -1.944 -40.458  1.00  0.00    -0.550 OA
ATOM     16  O   UNL     1      -9.438  -2.212 -42.134  1.00  0.00    -0.550 OA
ENDBRANCH  13  14
ENDBRANCH  12  13
ENDBRANCH  11  12
ENDBRANCH  10  11
ENDBRANCH   9  10
ENDBRANCH   8   9
ENDBRANCH   7   8
ENDBRANCH   6   7
ENDBRANCH   5   6
ENDBRANCH   4   5
ENDBRANCH   3   4
ENDBRANCH   2   3
ENDBRANCH   1   2
BRANCH   1  17
ATOM     17  C   UNL     1     -13.384   3.680 -40.773  1.00  0.00     0.000 C 
BRANCH  17  18
ATOM     18  C   UNL     1     -13.562   4.930 -41.650  1.00  0.00     0.000 C 
BRANCH  18  19
ATOM     19  C   UNL     1     -13.345   6.234 -40.862  1.00  0.00     0.000 C 
BRANCH  19  20
ATOM     20  C   UNL     1     -12.773   7.363 -41.736  1.00  0.00     0.000 C 
BRANCH  20  21
ATOM     21  C   UNL     1     -12.711   8.712 -40.997  1.00  0.00     0.000 C 
BRANCH  21  22
ATOM     22  C   UNL     1     -13.760   9.714 -41.505  1.00  0.00    -0.000 C 
BRANCH  22  23
ATOM     23  C   UNL     1     -14.455   9.242 -42.794  1.00  0.00    -0.000 C 
BRANCH  23  24
ATOM     24  C   UNL     1     -15.993   9.202 -42.652  1.00  0.00    -0.000 C 
BRANCH  24  25
ATOM     25  C   UNL     1     -16.481   8.793 -41.249  1.00  0.00    -0.000 C 
BRANCH  25  26
ATOM     26  C   UNL     1     -16.833   7.304 -41.092  1.00  0.00    -0.000 C 
BRANCH  26  27
ATOM     27  C   UNL     1     -16.835   6.542 -42.428  1.00  0.00    -0.000 C 
BRANCH  27  28
ATOM     28  C   UNL     1     -17.343   5.092 -42.266  1.00  0.00    -0.000 C 
BRANCH  28  29
ATOM     29  C   UNL     1     -17.261   4.574 -40.821  1.00  0.00    -0.003 C 
ATOM     30  C   UNL     1     -17.749   3.135 -40.675  1.00  0.00     0.004 C 
ENDBRANCH  28  29
ENDBRANCH  27  28
ENDBRANCH  26  27
ENDBRANCH  25  26
ENDBRANCH  24  25
ENDBRANCH  23  24
ENDBRANCH  22  23
ENDBRANCH  21  22
ENDBRANCH  20  21
ENDBRANCH  19  20
ENDBRANCH  18  19
ENDBRANCH  17  18
ENDBRANCH   1  17
TORSDOF 26
ENDMDL
MODEL 7
REMARK VINA RESULT:    -4.509      1.133      2.278
REMARK INTER + INTRA:         -15.067
REMARK INTER:                 -10.955
REMARK INTRA:                  -4.112
REMARK UNBOUND:                -3.704
REMARK SMILES CCCCCCCCCCCCCCCCCCCCCCCCCCCC(=O)[O-]
REMARK SMILES IDX 15 1 16 2 17 3 18 4 19 5 20 6 21 7 22 8 23 9 24 10 25 11
REMARK SMILES IDX 26 12 27 13 28 14 29 15 30 16 14 17 13 18 12 19 11 20 10 21
REMARK SMILES IDX 9 22 8 23 7 24 6 25 5 26 4 27 3 28 2 29 1 30
REMARK H PARENT
REMARK Flexibility Score: inf
ROOT
ATOM      1  C   UNL     1     -10.264   1.583 -37.743  1.00  0.00     0.000 C 
ENDROOT
BRANCH   1   2
ATOM      2  C   UNL     1      -9.021   1.967 -38.558  1.00  0.00     0.000 C 
BRANCH   2   3
ATOM      3  C   UNL     1      -9.360   2.483 -39.965  1.00  0.00     0.000 C 
BRANCH   3   4
ATOM      4  C   UNL     1     -10.492   3.526 -39.956  1.00  0.00     0.000 C 
BRANCH   4   5
ATOM      5  C   UNL     1     -11.748   3.059 -40.713  1.00  0.00     0.000 C 
BRANCH   5   6
ATOM      6  C   UNL     1     -11.505   2.638 -42.177  1.00  0.00     0.000 C 
BRANCH   6   7
ATOM      7  C   UNL     1     -10.987   3.790 -43.052  1.00  0.00     0.000 C 
BRANCH   7   8
ATOM      8  C   UNL     1     -12.148   4.619 -43.622  1.00  0.00     0.000 C 
BRANCH   8   9
ATOM      9  C   UNL     1     -12.274   6.005 -42.962  1.00  0.00     0.000 C 
BRANCH   9  10
ATOM     10  C   UNL     1     -13.379   6.123 -41.896  1.00  0.00     0.000 C 
BRANCH  10  11
ATOM     11  C   UNL     1     -14.672   5.348 -42.211  1.00  0.00     0.000 C 
BRANCH  11  12
ATOM     12  C   UNL     1     -15.927   5.917 -41.508  1.00  0.00     0.006 C 
BRANCH  12  13
ATOM     13  C   UNL     1     -16.476   5.018 -40.389  1.00  0.00     0.053 C 
BRANCH  13  14
ATOM     14  C   UNL     1     -17.517   4.065 -40.895  1.00  0.00     0.041 C 
ATOM     15  O   UNL     1     -17.473   2.849 -40.569  1.00  0.00    -0.550 OA
ATOM     16  O   UNL     1     -18.545   4.521 -41.710  1.00  0.00    -0.550 OA
ENDBRANCH  13  14
ENDBRANCH  12  13
ENDBRANCH  11  12
ENDBRANCH  10  11
ENDBRANCH   9  10
ENDBRANCH   8   9
ENDBRANCH   7   8
ENDBRANCH   6   7
ENDBRANCH   5   6
ENDBRANCH   4   5
ENDBRANCH   3   4
ENDBRANCH   2   3
ENDBRANCH   1   2
BRANCH   1  17
ATOM     17  C   UNL     1     -10.320   2.377 -36.428  1.00  0.00     0.000 C 
BRANCH  17  18
ATOM     18  C   UNL     1     -10.453   1.466 -35.197  1.00  0.00     0.000 C 
BRANCH  18  19
ATOM     19  C   UNL     1     -11.009   0.077 -35.553  1.00  0.00     0.000 C 
BRANCH  19  20
ATOM     20  C   UNL     1     -10.023  -1.056 -35.222  1.00  0.00     0.000 C 
BRANCH  20  21
ATOM     21  C   UNL     1      -8.563  -0.574 -35.160  1.00  0.00     0.000 C 
BRANCH  21  22
ATOM     22  C   UNL     1      -7.784  -0.879 -36.450  1.00  0.00    -0.000 C 
BRANCH  22  23
ATOM     23  C   UNL     1      -8.461  -1.962 -37.309  1.00  0.00    -0.000 C 
BRANCH  23  24
ATOM     24  C   UNL     1      -8.394  -1.641 -38.818  1.00  0.00    -0.000 C 
BRANCH  24  25
ATOM     25  C   UNL     1      -9.582  -2.196 -39.629  1.00  0.00    -0.000 C 
BRANCH  25  26
ATOM     26  C   UNL     1     -10.028  -1.320 -40.811  1.00  0.00    -0.000 C 
BRANCH  26  27
ATOM     27  C   UNL     1     -11.456  -0.772 -40.648  1.00  0.00    -0.000 C 
BRANCH  27  28
ATOM     28  C   UNL     1     -12.127  -1.281 -39.353  1.00  0.00    -0.000 C 
BRANCH  28  29
ATOM     29  C   UNL     1     -13.372  -2.146 -39.610  1.00  0.00    -0.003 C 
ATOM     30  C   UNL     1     -14.519  -1.366 -40.247  1.00  0.00     0.004 C 
ENDBRANCH  28  29
ENDBRANCH  27  28
ENDBRANCH  26  27
ENDBRANCH  25  26
ENDBRANCH  24  25
ENDBRANCH  23  24
ENDBRANCH  22  23
ENDBRANCH  21  22
ENDBRANCH  20  21
ENDBRANCH  19  20
ENDBRANCH  18  19
ENDBRANCH  17  18
ENDBRANCH   1  17
TORSDOF 26
ENDMDL
MODEL 8
REMARK VINA RESULT:    -4.492      3.083      8.685
REMARK INTER + INTRA:         -15.024
REMARK INTER:                  -9.685
REMARK INTRA:                  -5.339
REMARK UNBOUND:                -3.704
REMARK SMILES CCCCCCCCCCCCCCCCCCCCCCCCCCCC(=O)[O-]
REMARK SMILES IDX 15 1 16 2 17 3 18 4 19 5 20 6 21 7 22 8 23 9 24 10 25 11
REMARK SMILES IDX 26 12 27 13 28 14 29 15 30 16 14 17 13 18 12 19 11 20 10 21
REMARK SMILES IDX 9 22 8 23 7 24 6 25 5 26 4 27 3 28 2 29 1 30
REMARK H PARENT
REMARK Flexibility Score: inf
ROOT
ATOM      1  C   UNL     1     -11.020   6.174 -42.858  1.00  0.00     0.000 C 
ENDROOT
BRANCH   1   2
ATOM      2  C   UNL     1     -11.279   4.901 -43.677  1.00  0.00     0.000 C 
BRANCH   2   3
ATOM      3  C   UNL     1     -12.133   3.867 -42.928  1.00  0.00     0.000 C 
BRANCH   3   4
ATOM      4  C   UNL     1     -13.249   4.517 -42.091  1.00  0.00     0.000 C 
BRANCH   4   5
ATOM      5  C   UNL     1     -13.217   4.092 -40.611  1.00  0.00     0.000 C 
BRANCH   5   6
ATOM      6  C   UNL     1     -12.540   5.099 -39.660  1.00  0.00     0.000 C 
BRANCH   6   7
ATOM      7  C   UNL     1     -11.436   4.463 -38.801  1.00  0.00     0.000 C 
BRANCH   7   8
ATOM      8  C   UNL     1     -10.043   4.805 -39.348  1.00  0.00     0.000 C 
BRANCH   8   9
ATOM      9  C   UNL     1      -9.560   3.811 -40.421  1.00  0.00     0.000 C 
BRANCH   9  10
ATOM     10  C   UNL     1      -8.993   2.487 -39.877  1.00  0.00     0.000 C 
BRANCH  10  11
ATOM     11  C   UNL     1      -9.496   1.219 -40.593  1.00  0.00     0.000 C 
BRANCH  11  12
ATOM     12  C   UNL     1     -11.034   1.065 -40.581  1.00  0.00     0.006 C 
BRANCH  12  13
ATOM     13  C   UNL     1     -11.531  -0.266 -41.168  1.00  0.00     0.053 C 
BRANCH  13  14
ATOM     14  C   UNL     1     -12.094  -1.170 -40.113  1.00  0.00     0.041 C 
ATOM     15  O   UNL     1     -11.328  -1.723 -39.280  1.00  0.00    -0.550 OA
ATOM     16  O   UNL     1     -13.464  -1.387 -40.038  1.00  0.00    -0.550 OA
ENDBRANCH  13  14
ENDBRANCH  12  13
ENDBRANCH  11  12
ENDBRANCH  10  11
ENDBRANCH   9  10
ENDBRANCH   8   9
ENDBRANCH   7   8
ENDBRANCH   6   7
ENDBRANCH   5   6
ENDBRANCH   4   5
ENDBRANCH   3   4
ENDBRANCH   2   3
ENDBRANCH   1   2
BRANCH   1  17
ATOM     17  C   UNL     1     -11.407   7.426 -43.660  1.00  0.00     0.000 C 
BRANCH  17  18
ATOM     18  C   UNL     1     -12.909   7.741 -43.571  1.00  0.00     0.000 C 
BRANCH  18  19
ATOM     19  C   UNL     1     -13.528   8.039 -44.947  1.00  0.00     0.000 C 
BRANCH  19  20
ATOM     20  C   UNL     1     -13.215   6.947 -45.985  1.00  0.00     0.000 C 
BRANCH  20  21
ATOM     21  C   UNL     1     -14.456   6.126 -46.376  1.00  0.00     0.000 C 
BRANCH  21  22
ATOM     22  C   UNL     1     -14.629   4.866 -45.512  1.00  0.00    -0.000 C 
BRANCH  22  23
ATOM     23  C   UNL     1     -15.945   4.870 -44.715  1.00  0.00    -0.000 C 
BRANCH  23  24
ATOM     24  C   UNL     1     -16.788   6.137 -44.978  1.00  0.00    -0.000 C 
BRANCH  24  25
ATOM     25  C   UNL     1     -17.090   6.962 -43.712  1.00  0.00    -0.000 C 
BRANCH  25  26
ATOM     26  C   UNL     1     -16.207   6.634 -42.496  1.00  0.00    -0.000 C 
BRANCH  26  27
ATOM     27  C   UNL     1     -16.953   6.768 -41.157  1.00  0.00    -0.000 C 
BRANCH  27  28
ATOM     28  C   UNL     1     -16.818   5.498 -40.290  1.00  0.00    -0.000 C 
BRANCH  28  29
ATOM     29  C   UNL     1     -16.875   4.194 -41.104  1.00  0.00    -0.003 C 
ATOM     30  C   UNL     1     -18.297   3.795 -41.491  1.00  0.00     0.004 C 
ENDBRANCH  28  29
ENDBRANCH  27  28
ENDBRANCH  26  27
ENDBRANCH  25  26
ENDBRANCH  24  25
ENDBRANCH  23  24
ENDBRANCH  22  23
ENDBRANCH  21  22
ENDBRANCH  20  21
ENDBRANCH  19  20
ENDBRANCH  18  19
ENDBRANCH  17  18
ENDBRANCH   1  17
TORSDOF 26
ENDMDL
MODEL 9
REMARK VINA RESULT:    -4.489      2.072      4.540
REMARK INTER + INTRA:         -15.016
REMARK INTER:                 -10.356
REMARK INTRA:                  -4.660
REMARK UNBOUND:                -3.704
REMARK SMILES CCCCCCCCCCCCCCCCCCCCCCCCCCCC(=O)[O-]
REMARK SMILES IDX 15 1 16 2 17 3 18 4 19 5 20 6 21 7 22 8 23 9 24 10 25 11
REMARK SMILES IDX 26 12 27 13 28 14 29 15 30 16 14 17 13 18 12 19 11 20 10 21
REMARK SMILES IDX 9 22 8 23 7 24 6 25 5 26 4 27 3 28 2 29 1 30
REMARK H PARENT
REMARK Flexibility Score: inf
ROOT
ATOM      1  C   UNL     1     -11.060   3.251 -42.521  1.00  0.00     0.000 C 
ENDROOT
BRANCH   1   2
ATOM      2  C   UNL     1     -11.568   4.210 -43.608  1.00  0.00     0.000 C 
BRANCH   2   3
ATOM      3  C   UNL     1     -10.696   5.467 -43.757  1.00  0.00     0.000 C 
BRANCH   3   4
ATOM      4  C   UNL     1     -10.243   6.035 -42.400  1.00  0.00     0.000 C 
BRANCH   4   5
ATOM      5  C   UNL     1     -11.159   7.160 -41.882  1.00  0.00     0.000 C 
BRANCH   5   6
ATOM      6  C   UNL     1     -12.109   6.749 -40.738  1.00  0.00     0.000 C 
BRANCH   6   7
ATOM      7  C   UNL     1     -13.543   6.480 -41.218  1.00  0.00     0.000 C 
BRANCH   7   8
ATOM      8  C   UNL     1     -13.913   7.390 -42.398  1.00  0.00     0.000 C 
BRANCH   8   9
ATOM      9  C   UNL     1     -14.484   6.613 -43.599  1.00  0.00     0.000 C 
BRANCH   9  10
ATOM     10  C   UNL     1     -15.045   5.218 -43.267  1.00  0.00     0.000 C 
BRANCH  10  11
ATOM     11  C   UNL     1     -16.576   5.090 -43.371  1.00  0.00     0.000 C 
BRANCH  11  12
ATOM     12  C   UNL     1     -17.320   5.416 -42.055  1.00  0.00     0.006 C 
BRANCH  12  13
ATOM     13  C   UNL     1     -17.994   6.797 -42.046  1.00  0.00     0.053 C 
BRANCH  13  14
ATOM     14  C   UNL     1     -17.680   7.568 -40.799  1.00  0.00     0.041 C 
ATOM     15  O   UNL     1     -18.157   7.202 -39.693  1.00  0.00    -0.550 OA
ATOM     16  O   UNL     1     -16.847   8.679 -40.856  1.00  0.00    -0.550 OA
ENDBRANCH  13  14
ENDBRANCH  12  13
ENDBRANCH  11  12
ENDBRANCH  10  11
ENDBRANCH   9  10
ENDBRANCH   8   9
ENDBRANCH   7   8
ENDBRANCH   6   7
ENDBRANCH   5   6
ENDBRANCH   4   5
ENDBRANCH   3   4
ENDBRANCH   2   3
ENDBRANCH   1   2
BRANCH   1  17
ATOM     17  C   UNL     1     -12.133   3.033 -41.443  1.00  0.00     0.000 C 
BRANCH  17  18
ATOM     18  C   UNL     1     -11.571   3.168 -40.019  1.00  0.00     0.000 C 
BRANCH  18  19
ATOM     19  C   UNL     1     -10.034   3.123 -39.988  1.00  0.00     0.000 C 
BRANCH  19  20
ATOM     20  C   UNL     1      -9.467   3.282 -38.567  1.00  0.00     0.000 C 
BRANCH  20  21
ATOM     21  C   UNL     1     -10.463   2.846 -37.478  1.00  0.00     0.000 C 
BRANCH  21  22
ATOM     22  C   UNL     1      -9.779   2.117 -36.309  1.00  0.00    -0.000 C 
BRANCH  22  23
ATOM     23  C   UNL     1     -10.642   0.979 -35.736  1.00  0.00    -0.000 C 
BRANCH  23  24
ATOM     24  C   UNL     1     -10.865  -0.160 -36.755  1.00  0.00    -0.000 C 
BRANCH  24  25
ATOM     25  C   UNL     1      -9.572  -0.656 -37.432  1.00  0.00    -0.000 C 
BRANCH  25  26
ATOM     26  C   UNL     1      -9.544  -0.514 -38.963  1.00  0.00    -0.000 C 
BRANCH  26  27
ATOM     27  C   UNL     1     -10.613  -1.367 -39.666  1.00  0.00    -0.000 C 
BRANCH  27  28
ATOM     28  C   UNL     1     -11.705  -0.497 -40.327  1.00  0.00    -0.000 C 
BRANCH  28  29
ATOM     29  C   UNL     1     -13.104  -1.136 -40.285  1.00  0.00    -0.003 C 
ATOM     30  C   UNL     1     -13.239  -2.201 -39.200  1.00  0.00     0.004 C 
ENDBRANCH  28  29
ENDBRANCH  27  28
ENDBRANCH  26  27
ENDBRANCH  25  26
ENDBRANCH  24  25
ENDBRANCH  23  24
ENDBRANCH  22  23
ENDBRANCH  21  22
ENDBRANCH  20  21
ENDBRANCH  19  20
ENDBRANCH  18  19
ENDBRANCH  17  18
ENDBRANCH   1  17
TORSDOF 26
ENDMDL
