MODEL 1
REMARK VINA RESULT:    -4.301      0.000      0.000
REMARK INTER + INTRA:          -4.550
REMARK INTER:                  -5.307
REMARK INTRA:                   0.757
REMARK UNBOUND:                 0.757
REMARK SMILES CC1=CC=CC(C)(C)CC1=O
REMARK SMILES IDX 1 1 2 2 3 3 10 4 11 5 9 6 4 8 5 9 6 10 7 11 8 12
REMARK H PARENT
REMARK Flexibility Score: 80.00
ROOT
ATOM      1  C   UNL     1     -13.147 -15.251  28.594  1.00  0.00     0.048 C 
ATOM      2  C   UNL     1     -13.322 -16.406  29.552  1.00  0.00    -0.008 C 
ATOM      3  C   UNL     1     -13.602 -16.113  30.841  1.00  0.00     0.007 C 
ENDROOT
BRANCH   2   4
ATOM      4  C   UNL     1     -13.096 -17.771  29.014  1.00  0.00     0.159 C 
ATOM      5  O   UNL     1     -12.607 -17.895  27.858  1.00  0.00    -0.295 OA
BRANCH   4   6
ATOM      6  C   UNL     1     -13.429 -19.021  29.768  1.00  0.00     0.091 CG0
ATOM      7  G   UNL     1     -12.701 -19.126  31.127  1.00  0.00     0.000 G0
ENDBRANCH   4   6
ENDBRANCH   2   4
BRANCH   3   8
ATOM      8  C   UNL     1     -13.798 -17.014  32.000  1.00  0.00    -0.003 C 
ATOM      9  C   UNL     1     -13.420 -18.290  32.152  1.00  0.00    -0.020 C 
BRANCH   9  10
ATOM     10  C   UNL     1     -12.705 -19.141  31.130  1.00  0.00    -0.010 CG0
ATOM     11  C   UNL     1     -11.212 -18.743  31.062  1.00  0.00     0.016 C 
ATOM     12  C   UNL     1     -12.786 -20.616  31.587  1.00  0.00     0.016 C 
ATOM     13  G   UNL     1     -13.416 -19.021  29.763  1.00  0.00     0.000 G0
ENDBRANCH   9  10
ENDBRANCH   3   8
TORSDOF 0
ENDMDL
MODEL 2
REMARK VINA RESULT:    -4.104      1.566      2.991
REMARK INTER + INTRA:          -4.308
REMARK INTER:                  -5.062
REMARK INTRA:                   0.754
REMARK UNBOUND:                 0.757
REMARK SMILES CC1=CC=CC(C)(C)CC1=O
REMARK SMILES IDX 1 1 2 2 3 3 10 4 11 5 9 6 4 8 5 9 6 10 7 11 8 12
REMARK H PARENT
REMARK Flexibility Score: 80.00
ROOT
ATOM      1  C   UNL     1     -14.289 -20.194  28.633  1.00  0.00     0.048 C 
ATOM      2  C   UNL     1     -13.309 -19.503  29.551  1.00  0.00    -0.008 C 
ATOM      3  C   UNL     1     -13.238 -19.935  30.829  1.00  0.00     0.007 C 
ENDROOT
BRANCH   2   4
ATOM      4  C   UNL     1     -12.557 -18.352  28.993  1.00  0.00     0.159 C 
ATOM      5  O   UNL     1     -12.898 -17.889  27.871  1.00  0.00    -0.295 OA
BRANCH   4   6
ATOM      6  C   UNL     1     -11.395 -17.710  29.688  1.00  0.00     0.091 CG0
ATOM      7  G   UNL     1     -11.755 -17.146  31.081  1.00  0.00     0.000 G0
ENDBRANCH   4   6
ENDBRANCH   2   4
BRANCH   3   8
ATOM      8  C   UNL     1     -12.406 -19.446  31.953  1.00  0.00    -0.003 C 
ATOM      9  C   UNL     1     -11.777 -18.272  32.090  1.00  0.00    -0.020 C 
BRANCH   9  10
ATOM     10  C   UNL     1     -11.747 -17.147  31.082  1.00  0.00    -0.010 CG0
ATOM     11  C   UNL     1     -13.090 -16.381  31.105  1.00  0.00     0.016 C 
ATOM     12  C   UNL     1     -10.628 -16.161  31.490  1.00  0.00     0.016 C 
ATOM     13  G   UNL     1     -11.407 -17.711  29.684  1.00  0.00     0.000 G0
ENDBRANCH   9  10
ENDBRANCH   3   8
TORSDOF 0
ENDMDL
MODEL 3
REMARK VINA RESULT:    -4.018      1.874      3.414
REMARK INTER + INTRA:          -4.201
REMARK INTER:                  -4.960
REMARK INTRA:                   0.759
REMARK UNBOUND:                 0.757
REMARK SMILES CC1=CC=CC(C)(C)CC1=O
REMARK SMILES IDX 1 1 2 2 3 3 10 4 11 5 9 6 4 8 5 9 6 10 7 11 8 12
REMARK H PARENT
REMARK Flexibility Score: 80.00
ROOT
ATOM      1  C   UNL     1     -13.757 -17.223  32.749  1.00  0.00     0.048 C 
ATOM      2  C   UNL     1     -13.214 -16.945  31.366  1.00  0.00    -0.008 C 
ATOM      3  C   UNL     1     -13.691 -15.864  30.713  1.00  0.00     0.007 C 
ENDROOT
BRANCH   2   4
ATOM      4  C   UNL     1     -12.255 -17.930  30.807  1.00  0.00     0.159 C 
ATOM      5  O   UNL     1     -12.097 -19.031  31.402  1.00  0.00    -0.295 OA
BRANCH   4   6
ATOM      6  C   UNL     1     -11.445 -17.684  29.571  1.00  0.00     0.091 CG0
ATOM      7  G   UNL     1     -12.311 -17.432  28.316  1.00  0.00     0.000 G0
ENDBRANCH   4   6
ENDBRANCH   2   4
BRANCH   3   8
ATOM      8  C   UNL     1     -13.376 -15.357  29.357  1.00  0.00    -0.003 C 
ATOM      9  C   UNL     1     -12.811 -15.998  28.326  1.00  0.00    -0.020 C 
BRANCH   9  10
ATOM     10  C   UNL     1     -12.323 -17.427  28.317  1.00  0.00    -0.010 CG0
ATOM     11  C   UNL     1     -13.524 -18.395  28.213  1.00  0.00     0.016 C 
ATOM     12  C   UNL     1     -11.437 -17.628  27.065  1.00  0.00     0.016 C 
ATOM     13  G   UNL     1     -11.453 -17.688  29.568  1.00  0.00     0.000 G0
ENDBRANCH   9  10
ENDBRANCH   3   8
TORSDOF 0
ENDMDL
MODEL 4
REMARK VINA RESULT:    -3.955      1.803      3.153
REMARK INTER + INTRA:          -4.123
REMARK INTER:                  -4.876
REMARK INTRA:                   0.754
REMARK UNBOUND:                 0.757
REMARK SMILES CC1=CC=CC(C)(C)CC1=O
REMARK SMILES IDX 1 1 2 2 3 3 10 4 11 5 9 6 4 8 5 9 6 10 7 11 8 12
REMARK H PARENT
REMARK Flexibility Score: 80.00
ROOT
ATOM      1  C   UNL     1     -14.094 -20.277  28.717  1.00  0.00     0.048 C 
ATOM      2  C   UNL     1     -13.423 -19.106  29.396  1.00  0.00    -0.008 C 
ATOM      3  C   UNL     1     -13.245 -17.981  28.671  1.00  0.00     0.007 C 
ENDROOT
BRANCH   2   4
ATOM      4  C   UNL     1     -12.943 -19.315  30.785  1.00  0.00     0.159 C 
ATOM      5  O   UNL     1     -12.924 -20.486  31.253  1.00  0.00    -0.295 OA
BRANCH   4   6
ATOM      6  C   UNL     1     -12.487 -18.201  31.677  1.00  0.00     0.091 CG0
ATOM      7  G   UNL     1     -11.290 -17.411  31.102  1.00  0.00     0.000 G0
ENDBRANCH   4   6
ENDBRANCH   2   4
BRANCH   3   8
ATOM      8  C   UNL     1     -12.606 -16.698  29.047  1.00  0.00    -0.003 C 
ATOM      9  C   UNL     1     -11.769 -16.437  30.060  1.00  0.00    -0.020 C 
BRANCH   9  10
ATOM     10  C   UNL     1     -11.290 -17.417  31.103  1.00  0.00    -0.010 CG0
ATOM     11  C   UNL     1     -10.204 -18.339  30.502  1.00  0.00     0.016 C 
ATOM     12  C   UNL     1     -10.649 -16.617  32.261  1.00  0.00     0.016 C 
ATOM     13  G   UNL     1     -12.493 -18.204  31.670  1.00  0.00     0.000 G0
ENDBRANCH   9  10
ENDBRANCH   3   8
TORSDOF 0
ENDMDL
MODEL 5
REMARK VINA RESULT:    -3.936      1.785      2.055
REMARK INTER + INTRA:          -4.100
REMARK INTER:                  -4.849
REMARK INTRA:                   0.749
REMARK UNBOUND:                 0.757
REMARK SMILES CC1=CC=CC(C)(C)CC1=O
REMARK SMILES IDX 1 1 2 2 3 3 10 4 11 5 9 6 4 8 5 9 6 10 7 11 8 12
REMARK H PARENT
REMARK Flexibility Score: 80.00
ROOT
ATOM      1  C   UNL     1     -13.705 -14.966  28.624  1.00  0.00     0.048 C 
ATOM      2  C   UNL     1     -13.214 -15.846  29.749  1.00  0.00    -0.008 C 
ATOM      3  C   UNL     1     -13.847 -15.751  30.939  1.00  0.00     0.007 C 
ENDROOT
BRANCH   2   4
ATOM      4  C   UNL     1     -12.025 -16.690  29.476  1.00  0.00     0.159 C 
ATOM      5  O   UNL     1     -11.382 -16.508  28.406  1.00  0.00    -0.295 OA
BRANCH   4   6
ATOM      6  C   UNL     1     -11.546 -17.766  30.402  1.00  0.00     0.091 CG0
ATOM      7  G   UNL     1     -11.211 -17.247  31.819  1.00  0.00     0.000 G0
ENDBRANCH   4   6
ENDBRANCH   2   4
BRANCH   3   8
ATOM      8  C   UNL     1     -13.581 -16.454  32.216  1.00  0.00    -0.003 C 
ATOM      9  C   UNL     1     -12.470 -17.086  32.616  1.00  0.00    -0.020 C 
BRANCH   9  10
ATOM     10  C   UNL     1     -11.198 -17.256  31.820  1.00  0.00    -0.010 CG0
ATOM     11  C   UNL     1     -10.390 -15.938  31.827  1.00  0.00     0.016 C 
ATOM     12  C   UNL     1     -10.341 -18.346  32.505  1.00  0.00     0.016 C 
ATOM     13  G   UNL     1     -11.539 -17.739  30.392  1.00  0.00     0.000 G0
ENDBRANCH   9  10
ENDBRANCH   3   8
TORSDOF 0
ENDMDL
MODEL 6
REMARK VINA RESULT:    -3.933      1.809      3.178
REMARK INTER + INTRA:          -4.096
REMARK INTER:                  -4.838
REMARK INTRA:                   0.742
REMARK UNBOUND:                 0.757
REMARK SMILES CC1=CC=CC(C)(C)CC1=O
REMARK SMILES IDX 1 1 2 2 3 3 10 4 11 5 9 6 4 8 5 9 6 10 7 11 8 12
REMARK H PARENT
REMARK Flexibility Score: 80.00
ROOT
ATOM      1  C   UNL     1     -14.204 -16.904  33.119  1.00  0.00     0.048 C 
ATOM      2  C   UNL     1     -13.576 -17.462  31.863  1.00  0.00    -0.008 C 
ATOM      3  C   UNL     1     -12.973 -18.668  31.948  1.00  0.00     0.007 C 
ENDROOT
BRANCH   2   4
ATOM      4  C   UNL     1     -13.605 -16.602  30.654  1.00  0.00     0.159 C 
ATOM      5  O   UNL     1     -13.962 -15.398  30.772  1.00  0.00    -0.295 OA
BRANCH   4   6
ATOM      6  C   UNL     1     -13.245 -17.091  29.284  1.00  0.00     0.091 CG0
ATOM      7  G   UNL     1     -11.801 -17.634  29.192  1.00  0.00     0.000 G0
ENDBRANCH   4   6
ENDBRANCH   2   4
BRANCH   3   8
ATOM      8  C   UNL     1     -12.258 -19.449  30.911  1.00  0.00    -0.003 C 
ATOM      9  C   UNL     1     -11.748 -19.035  29.744  1.00  0.00    -0.020 C 
BRANCH   9  10
ATOM     10  C   UNL     1     -11.809 -17.633  29.185  1.00  0.00    -0.010 CG0
ATOM     11  C   UNL     1     -10.767 -16.736  29.891  1.00  0.00     0.016 C 
ATOM     12  C   UNL     1     -11.447 -17.695  27.683  1.00  0.00     0.016 C 
ATOM     13  G   UNL     1     -13.249 -17.085  29.311  1.00  0.00     0.000 G0
ENDBRANCH   9  10
ENDBRANCH   3   8
TORSDOF 0
ENDMDL
MODEL 7
REMARK VINA RESULT:    -3.909      1.873      2.843
REMARK INTER + INTRA:          -4.066
REMARK INTER:                  -4.825
REMARK INTRA:                   0.760
REMARK UNBOUND:                 0.757
REMARK SMILES CC1=CC=CC(C)(C)CC1=O
REMARK SMILES IDX 1 1 2 2 3 3 10 4 11 5 9 6 4 8 5 9 6 10 7 11 8 12
REMARK H PARENT
REMARK Flexibility Score: 80.00
ROOT
ATOM      1  C   UNL     1     -14.375 -14.397  28.625  1.00  0.00     0.048 C 
ATOM      2  C   UNL     1     -13.354 -15.398  29.113  1.00  0.00    -0.008 C 
ATOM      3  C   UNL     1     -12.533 -15.952  28.195  1.00  0.00     0.007 C 
ENDROOT
BRANCH   2   4
ATOM      4  C   UNL     1     -13.387 -15.749  30.555  1.00  0.00     0.159 C 
ATOM      5  O   UNL     1     -14.375 -15.381  31.248  1.00  0.00    -0.295 OA
BRANCH   4   6
ATOM      6  C   UNL     1     -12.298 -16.512  31.244  1.00  0.00     0.091 CG0
ATOM      7  G   UNL     1     -12.080 -17.925  30.659  1.00  0.00     0.000 G0
ENDBRANCH   4   6
ENDBRANCH   2   4
BRANCH   3   8
ATOM      8  C   UNL     1     -11.466 -16.967  28.362  1.00  0.00    -0.003 C 
ATOM      9  C   UNL     1     -11.260 -17.815  29.378  1.00  0.00    -0.020 C 
BRANCH   9  10
ATOM     10  C   UNL     1     -12.079 -17.918  30.642  1.00  0.00    -0.010 CG0
ATOM     11  C   UNL     1     -13.405 -18.660  30.354  1.00  0.00     0.016 C 
ATOM     12  C   UNL     1     -11.280 -18.750  31.671  1.00  0.00     0.016 C 
ATOM     13  G   UNL     1     -12.302 -16.507  31.233  1.00  0.00     0.000 G0
ENDBRANCH   9  10
ENDBRANCH   3   8
TORSDOF 0
ENDMDL
MODEL 8
REMARK VINA RESULT:    -3.890      2.119      3.123
REMARK INTER + INTRA:          -4.043
REMARK INTER:                  -4.790
REMARK INTRA:                   0.747
REMARK UNBOUND:                 0.757
REMARK SMILES CC1=CC=CC(C)(C)CC1=O
REMARK SMILES IDX 1 1 2 2 3 3 10 4 11 5 9 6 4 8 5 9 6 10 7 11 8 12
REMARK H PARENT
REMARK Flexibility Score: 80.00
ROOT
ATOM      1  C   UNL     1     -15.124 -14.668  31.582  1.00  0.00     0.048 C 
ATOM      2  C   UNL     1     -13.929 -15.435  31.068  1.00  0.00    -0.008 C 
ATOM      3  C   UNL     1     -13.696 -15.412  29.738  1.00  0.00     0.007 C 
ENDROOT
BRANCH   2   4
ATOM      4  C   UNL     1     -13.149 -16.216  32.060  1.00  0.00     0.159 C 
ATOM      5  O   UNL     1     -13.617 -16.362  33.223  1.00  0.00    -0.295 OA
BRANCH   4   6
ATOM      6  C   UNL     1     -11.819 -16.838  31.762  1.00  0.00     0.091 CG0
ATOM      7  G   UNL     1     -11.867 -17.846  30.591  1.00  0.00     0.000 G0
ENDBRANCH   4   6
ENDBRANCH   2   4
BRANCH   3   8
ATOM      8  C   UNL     1     -12.634 -16.078  28.946  1.00  0.00    -0.003 C 
ATOM      9  C   UNL     1     -11.857 -17.115  29.281  1.00  0.00    -0.020 C 
BRANCH   9  10
ATOM     10  C   UNL     1     -11.864 -17.854  30.598  1.00  0.00    -0.010 CG0
ATOM     11  C   UNL     1     -13.079 -18.807  30.663  1.00  0.00     0.016 C 
ATOM     12  C   UNL     1     -10.580 -18.711  30.680  1.00  0.00     0.016 C 
ATOM     13  G   UNL     1     -11.840 -16.839  31.764  1.00  0.00     0.000 G0
ENDBRANCH   9  10
ENDBRANCH   3   8
TORSDOF 0
ENDMDL
MODEL 9
REMARK VINA RESULT:    -3.846      1.799      2.173
REMARK INTER + INTRA:          -3.988
REMARK INTER:                  -5.043
REMARK INTRA:                   1.055
REMARK UNBOUND:                 0.757
REMARK SMILES CC1=CC=CC(C)(C)CC1=O
REMARK SMILES IDX 1 1 2 2 3 3 10 4 11 5 9 6 4 8 5 9 6 10 7 11 8 12
REMARK H PARENT
REMARK Flexibility Score: 80.00
ROOT
ATOM      1  C   UNL     1     -13.974 -16.075  27.079  1.00  0.00     0.048 C 
ATOM      2  C   UNL     1     -13.080 -16.424  28.246  1.00  0.00    -0.008 C 
ATOM      3  C   UNL     1     -13.465 -16.015  29.474  1.00  0.00     0.007 C 
ENDROOT
BRANCH   2   4
ATOM      4  C   UNL     1     -11.808 -17.123  27.936  1.00  0.00     0.159 C 
ATOM      5  O   UNL     1     -11.666 -17.655  26.801  1.00  0.00    -0.295 OA
BRANCH   4   6
ATOM      6  C   UNL     1     -10.675 -17.245  28.908  1.00  0.00     0.091 CG0
ATOM      7  G   UNL     1     -11.069 -17.968  30.216  1.00  0.00     0.000 G0
ENDBRANCH   4   6
ENDBRANCH   2   4
BRANCH   3   8
ATOM      8  C   UNL     1     -12.796 -16.180  30.785  1.00  0.00    -0.003 C 
ATOM      9  C   UNL     1     -11.781 -16.988  31.119  1.00  0.00    -0.020 C 
BRANCH   9  10
ATOM     10  C   UNL     1     -11.080 -17.970  30.211  1.00  0.00    -0.010 CG0
ATOM     11  C   UNL     1      -9.875 -18.601  30.946  1.00  0.00     0.016 C 
ATOM     12  C   UNL     1     -12.074 -19.102  29.863  1.00  0.00     0.016 C 
ATOM     13  G   UNL     1     -10.673 -17.265  28.897  1.00  0.00     0.000 G0
ENDBRANCH   9  10
ENDBRANCH   3   8
TORSDOF 0
ENDMDL
