MODEL 1
REMARK VINA RESULT:    -3.850      0.000      0.000
REMARK INTER + INTRA:          -4.188
REMARK INTER:                  -4.188
REMARK INTRA:                   0.000
REMARK UNBOUND:                 0.000
REMARK SMILES Oc1cccc(O)c1O
REMARK SMILES IDX 4 1 5 2 6 3 8 4 2 5 3 6 7 7 1 9 9 11
REMARK H PARENT 7 8 1 10 9 12
REMARK Flexibility Score: inf
ROOT
ATOM      1  C   UNL     1      55.457  54.239 128.688  1.00  0.00     0.008 A 
ATOM      2  C   UNL     1      56.252  55.247 128.137  1.00  0.00     0.050 A 
ATOM      3  C   UNL     1      57.092  54.971 127.054  1.00  0.00     0.161 A 
ATOM      4  C   UNL     1      57.138  53.672 126.515  1.00  0.00     0.200 A 
ATOM      5  C   UNL     1      56.337  52.656 127.073  1.00  0.00     0.161 A 
ATOM      6  C   UNL     1      55.500  52.947 128.159  1.00  0.00     0.050 A 
ENDROOT
BRANCH   3   7
ATOM      7  O   UNL     1      57.872  55.998 126.525  1.00  0.00    -0.504 OA
ATOM      8  H   UNL     1      57.786  56.300 125.562  1.00  0.00     0.293 HD
ENDBRANCH   3   7
BRANCH   5   9
ATOM      9  O   UNL     1      56.376  51.366 126.546  1.00  0.00    -0.504 OA
ATOM     10  H   UNL     1      56.584  50.562 127.125  1.00  0.00     0.293 HD
ENDBRANCH   5   9
BRANCH   4  11
ATOM     11  O   UNL     1      57.979  53.402 125.434  1.00  0.00    -0.502 OA
ATOM     12  H   UNL     1      57.924  52.536 124.911  1.00  0.00     0.293 HD
ENDBRANCH   4  11
TORSDOF 3
ENDMDL
MODEL 2
REMARK VINA RESULT:    -3.841      0.038      2.808
REMARK INTER + INTRA:          -4.178
REMARK INTER:                  -4.178
REMARK INTRA:                   0.000
REMARK UNBOUND:                 0.000
REMARK SMILES Oc1cccc(O)c1O
REMARK SMILES IDX 4 1 5 2 6 3 8 4 2 5 3 6 7 7 1 9 9 11
REMARK H PARENT 7 8 1 10 9 12
REMARK Flexibility Score: inf
ROOT
ATOM      1  C   UNL     1      55.463  54.225 128.730  1.00  0.00     0.008 A 
ATOM      2  C   UNL     1      55.515  52.939 128.187  1.00  0.00     0.050 A 
ATOM      3  C   UNL     1      56.349  52.664 127.099  1.00  0.00     0.161 A 
ATOM      4  C   UNL     1      57.142  53.688 126.548  1.00  0.00     0.200 A 
ATOM      5  C   UNL     1      57.088  54.984 127.095  1.00  0.00     0.161 A 
ATOM      6  C   UNL     1      56.247  55.245 128.186  1.00  0.00     0.050 A 
ENDROOT
BRANCH   3   7
ATOM      7  O   UNL     1      56.380  51.370 126.580  1.00  0.00    -0.504 OA
ATOM      8  H   UNL     1      57.070  50.689 126.871  1.00  0.00     0.293 HD
ENDBRANCH   3   7
BRANCH   5   9
ATOM      9  O   UNL     1      57.870  56.004 126.555  1.00  0.00    -0.504 OA
ATOM     10  H   UNL     1      57.459  56.869 126.225  1.00  0.00     0.293 HD
ENDBRANCH   5   9
BRANCH   4  11
ATOM     11  O   UNL     1      57.973  53.408 125.462  1.00  0.00    -0.502 OA
ATOM     12  H   UNL     1      58.977  53.313 125.560  1.00  0.00     0.293 HD
ENDBRANCH   4  11
TORSDOF 3
ENDMDL
MODEL 3
REMARK VINA RESULT:    -3.447     13.002     14.511
REMARK INTER + INTRA:          -3.749
REMARK INTER:                  -3.749
REMARK INTRA:                   0.000
REMARK UNBOUND:                 0.000
REMARK SMILES Oc1cccc(O)c1O
REMARK SMILES IDX 4 1 5 2 6 3 8 4 2 5 3 6 7 7 1 9 9 11
REMARK H PARENT 7 8 1 10 9 12
REMARK Flexibility Score: inf
ROOT
ATOM      1  C   UNL     1      55.357  40.493 123.092  1.00  0.00     0.008 A 
ATOM      2  C   UNL     1      56.321  41.400 123.539  1.00  0.00     0.050 A 
ATOM      3  C   UNL     1      57.631  40.975 123.783  1.00  0.00     0.161 A 
ATOM      4  C   UNL     1      57.981  39.628 123.576  1.00  0.00     0.200 A 
ATOM      5  C   UNL     1      57.007  38.715 123.126  1.00  0.00     0.161 A 
ATOM      6  C   UNL     1      55.698  39.154 122.886  1.00  0.00     0.050 A 
ENDROOT
BRANCH   3   7
ATOM      7  O   UNL     1      58.571  41.903 124.228  1.00  0.00    -0.504 OA
ATOM      8  H   UNL     1      58.331  42.648 124.872  1.00  0.00     0.293 HD
ENDBRANCH   3   7
BRANCH   5   9
ATOM      9  O   UNL     1      57.345  37.378 122.919  1.00  0.00    -0.504 OA
ATOM     10  H   UNL     1      58.298  37.096 122.723  1.00  0.00     0.293 HD
ENDBRANCH   5   9
BRANCH   4  11
ATOM     11  O   UNL     1      59.290  39.209 123.821  1.00  0.00    -0.502 OA
ATOM     12  H   UNL     1      59.846  39.590 124.577  1.00  0.00     0.293 HD
ENDBRANCH   4  11
TORSDOF 3
ENDMDL
MODEL 4
REMARK VINA RESULT:    -3.441     15.365     16.480
REMARK INTER + INTRA:          -3.742
REMARK INTER:                  -3.742
REMARK INTRA:                   0.000
REMARK UNBOUND:                 0.000
REMARK SMILES Oc1cccc(O)c1O
REMARK SMILES IDX 4 1 5 2 6 3 8 4 2 5 3 6 7 7 1 9 9 11
REMARK H PARENT 7 8 1 10 9 12
REMARK Flexibility Score: inf
ROOT
ATOM      1  C   UNL     1      54.739  39.957 123.124  1.00  0.00     0.008 A 
ATOM      2  C   UNL     1      53.785  39.120 123.707  1.00  0.00     0.050 A 
ATOM      3  C   UNL     1      54.113  37.804 124.046  1.00  0.00     0.161 A 
ATOM      4  C   UNL     1      55.411  37.319 123.799  1.00  0.00     0.200 A 
ATOM      5  C   UNL     1      56.371  38.164 123.210  1.00  0.00     0.161 A 
ATOM      6  C   UNL     1      56.028  39.481 122.875  1.00  0.00     0.050 A 
ENDROOT
BRANCH   3   7
ATOM      7  O   UNL     1      53.139  36.992 124.627  1.00  0.00    -0.504 OA
ATOM      8  H   UNL     1      53.154  36.754 125.612  1.00  0.00     0.293 HD
ENDBRANCH   3   7
BRANCH   5   9
ATOM      9  O   UNL     1      57.659  37.692 122.962  1.00  0.00    -0.504 OA
ATOM     10  H   UNL     1      58.264  38.134 122.280  1.00  0.00     0.293 HD
ENDBRANCH   5   9
BRANCH   4  11
ATOM     11  O   UNL     1      55.733  36.004 124.139  1.00  0.00    -0.502 OA
ATOM     12  H   UNL     1      56.568  35.546 123.793  1.00  0.00     0.293 HD
ENDBRANCH   4  11
TORSDOF 3
ENDMDL
MODEL 5
REMARK VINA RESULT:    -3.427     13.706     14.993
REMARK INTER + INTRA:          -3.727
REMARK INTER:                  -3.727
REMARK INTRA:                   0.000
REMARK UNBOUND:                 0.000
REMARK SMILES Oc1cccc(O)c1O
REMARK SMILES IDX 4 1 5 2 6 3 8 4 2 5 3 6 7 7 1 9 9 11
REMARK H PARENT 7 8 1 10 9 12
REMARK Flexibility Score: inf
ROOT
ATOM      1  C   UNL     1      56.579  41.555 123.616  1.00  0.00     0.008 A 
ATOM      2  C   UNL     1      55.542  40.656 123.358  1.00  0.00     0.050 A 
ATOM      3  C   UNL     1      55.819  39.304 123.131  1.00  0.00     0.161 A 
ATOM      4  C   UNL     1      57.149  38.845 123.164  1.00  0.00     0.200 A 
ATOM      5  C   UNL     1      58.193  39.753 123.424  1.00  0.00     0.161 A 
ATOM      6  C   UNL     1      57.902  41.106 123.649  1.00  0.00     0.050 A 
ENDROOT
BRANCH   3   7
ATOM      7  O   UNL     1      54.762  38.430 122.876  1.00  0.00    -0.504 OA
ATOM      8  H   UNL     1      54.251  37.971 123.621  1.00  0.00     0.293 HD
ENDBRANCH   3   7
BRANCH   5   9
ATOM      9  O   UNL     1      59.514  39.308 123.459  1.00  0.00    -0.504 OA
ATOM     10  H   UNL     1      60.229  39.809 123.972  1.00  0.00     0.293 HD
ENDBRANCH   5   9
BRANCH   4  11
ATOM     11  O   UNL     1      57.420  37.495 122.937  1.00  0.00    -0.502 OA
ATOM     12  H   UNL     1      58.171  37.190 122.330  1.00  0.00     0.293 HD
ENDBRANCH   4  11
TORSDOF 3
ENDMDL
MODEL 6
REMARK VINA RESULT:    -3.409     13.016     14.785
REMARK INTER + INTRA:          -3.707
REMARK INTER:                  -3.707
REMARK INTRA:                   0.000
REMARK UNBOUND:                 0.000
REMARK SMILES Oc1cccc(O)c1O
REMARK SMILES IDX 4 1 5 2 6 3 8 4 2 5 3 6 7 7 1 9 9 11
REMARK H PARENT 7 8 1 10 9 12
REMARK Flexibility Score: inf
ROOT
ATOM      1  C   UNL     1      55.181  40.340 123.042  1.00  0.00     0.008 A 
ATOM      2  C   UNL     1      55.620  39.024 122.875  1.00  0.00     0.050 A 
ATOM      3  C   UNL     1      56.957  38.690 123.114  1.00  0.00     0.161 A 
ATOM      4  C   UNL     1      57.865  39.684 123.527  1.00  0.00     0.200 A 
ATOM      5  C   UNL     1      57.420  41.009 123.694  1.00  0.00     0.161 A 
ATOM      6  C   UNL     1      56.078  41.330 123.450  1.00  0.00     0.050 A 
ENDROOT
BRANCH   3   7
ATOM      7  O   UNL     1      57.365  37.369 122.939  1.00  0.00    -0.504 OA
ATOM      8  H   UNL     1      56.733  36.647 122.615  1.00  0.00     0.293 HD
ENDBRANCH   3   7
BRANCH   5   9
ATOM      9  O   UNL     1      58.312  42.000 124.102  1.00  0.00    -0.504 OA
ATOM     10  H   UNL     1      58.936  42.454 123.447  1.00  0.00     0.293 HD
ENDBRANCH   5   9
BRANCH   4  11
ATOM     11  O   UNL     1      59.198  39.345 123.764  1.00  0.00    -0.502 OA
ATOM     12  H   UNL     1      59.831  39.086 123.017  1.00  0.00     0.293 HD
ENDBRANCH   4  11
TORSDOF 3
ENDMDL
MODEL 7
REMARK VINA RESULT:    -3.384     15.773     16.569
REMARK INTER + INTRA:          -3.681
REMARK INTER:                  -3.681
REMARK INTRA:                   0.000
REMARK UNBOUND:                 0.000
REMARK SMILES Oc1cccc(O)c1O
REMARK SMILES IDX 4 1 5 2 6 3 8 4 2 5 3 6 7 7 1 9 9 11
REMARK H PARENT 7 8 1 10 9 12
REMARK Flexibility Score: inf
ROOT
ATOM      1  C   UNL     1      54.398  39.368 123.471  1.00  0.00     0.008 A 
ATOM      2  C   UNL     1      55.628  38.959 122.950  1.00  0.00     0.050 A 
ATOM      3  C   UNL     1      56.273  37.830 123.464  1.00  0.00     0.161 A 
ATOM      4  C   UNL     1      55.680  37.099 124.511  1.00  0.00     0.200 A 
ATOM      5  C   UNL     1      54.441  37.513 125.035  1.00  0.00     0.161 A 
ATOM      6  C   UNL     1      53.806  38.647 124.511  1.00  0.00     0.050 A 
ENDROOT
BRANCH   3   7
ATOM      7  O   UNL     1      57.500  37.446 122.923  1.00  0.00    -0.504 OA
ATOM      8  H   UNL     1      58.035  36.671 123.295  1.00  0.00     0.293 HD
ENDBRANCH   3   7
BRANCH   5   9
ATOM      9  O   UNL     1      53.846  36.796 126.072  1.00  0.00    -0.504 OA
ATOM     10  H   UNL     1      54.013  37.030 127.043  1.00  0.00     0.293 HD
ENDBRANCH   5   9
BRANCH   4  11
ATOM     11  O   UNL     1      56.328  35.973 125.020  1.00  0.00    -0.502 OA
ATOM     12  H   UNL     1      56.852  35.338 124.430  1.00  0.00     0.293 HD
ENDBRANCH   4  11
TORSDOF 3
ENDMDL
MODEL 8
REMARK VINA RESULT:    -3.360     14.122     15.360
REMARK INTER + INTRA:          -3.655
REMARK INTER:                  -3.655
REMARK INTRA:                   0.000
REMARK UNBOUND:                 0.000
REMARK SMILES Oc1cccc(O)c1O
REMARK SMILES IDX 4 1 5 2 6 3 8 4 2 5 3 6 7 7 1 9 9 11
REMARK H PARENT 7 8 1 10 9 12
REMARK Flexibility Score: inf
ROOT
ATOM      1  C   UNL     1      55.610  40.996 123.367  1.00  0.00     0.008 A 
ATOM      2  C   UNL     1      56.980  40.733 123.419  1.00  0.00     0.050 A 
ATOM      3  C   UNL     1      57.454  39.423 123.294  1.00  0.00     0.161 A 
ATOM      4  C   UNL     1      56.546  38.363 123.112  1.00  0.00     0.200 A 
ATOM      5  C   UNL     1      55.164  38.630 123.060  1.00  0.00     0.161 A 
ATOM      6  C   UNL     1      54.703  39.948 123.188  1.00  0.00     0.050 A 
ENDROOT
BRANCH   3   7
ATOM      7  O   UNL     1      58.828  39.192 123.350  1.00  0.00    -0.504 OA
ATOM      8  H   UNL     1      59.372  39.373 124.185  1.00  0.00     0.293 HD
ENDBRANCH   3   7
BRANCH   5   9
ATOM      9  O   UNL     1      54.257  37.587 122.881  1.00  0.00    -0.504 OA
ATOM     10  H   UNL     1      53.257  37.744 122.901  1.00  0.00     0.293 HD
ENDBRANCH   5   9
BRANCH   4  11
ATOM     11  O   UNL     1      57.023  37.058 122.988  1.00  0.00    -0.502 OA
ATOM     12  H   UNL     1      57.323  36.675 122.099  1.00  0.00     0.293 HD
ENDBRANCH   4  11
TORSDOF 3
ENDMDL
MODEL 9
REMARK VINA RESULT:    -2.356     13.465     15.086
REMARK INTER + INTRA:          -2.562
REMARK INTER:                  -2.562
REMARK INTRA:                   0.000
REMARK UNBOUND:                 0.000
REMARK SMILES Oc1cccc(O)c1O
REMARK SMILES IDX 4 1 5 2 6 3 8 4 2 5 3 6 7 7 1 9 9 11
REMARK H PARENT 7 8 1 10 9 12
REMARK Flexibility Score: inf
ROOT
ATOM      1  C   UNL     1      57.523  40.950 123.713  1.00  0.00     0.008 A 
ATOM      2  C   UNL     1      57.892  39.632 123.434  1.00  0.00     0.050 A 
ATOM      3  C   UNL     1      56.916  38.669 123.155  1.00  0.00     0.161 A 
ATOM      4  C   UNL     1      55.556  39.030 123.154  1.00  0.00     0.200 A 
ATOM      5  C   UNL     1      55.186  40.359 123.436  1.00  0.00     0.161 A 
ATOM      6  C   UNL     1      56.174  41.313 123.715  1.00  0.00     0.050 A 
ENDROOT
BRANCH   3   7
ATOM      7  O   UNL     1      57.315  37.362 122.879  1.00  0.00    -0.504 OA
ATOM      8  H   UNL     1      58.285  37.117 122.718  1.00  0.00     0.293 HD
ENDBRANCH   3   7
BRANCH   5   9
ATOM      9  O   UNL     1      53.841  40.725 123.438  1.00  0.00    -0.504 OA
ATOM     10  H   UNL     1      53.220  40.465 122.681  1.00  0.00     0.293 HD
ENDBRANCH   5   9
BRANCH   4  11
ATOM     11  O   UNL     1      54.586  38.066 122.875  1.00  0.00    -0.502 OA
ATOM     12  H   UNL     1      54.784  37.248 122.310  1.00  0.00     0.293 HD
ENDBRANCH   4  11
TORSDOF 3
ENDMDL
