MODEL 1
REMARK VINA RESULT:    -6.027      0.000      0.000
REMARK INTER + INTRA:          -7.052
REMARK INTER:                  -7.613
REMARK INTRA:                   0.561
REMARK UNBOUND:                 0.561
REMARK SMILES COc1cc(O)c2c(=O)c(OC)c(-c3ccc(O)c(O)c3)oc2c1
REMARK SMILES IDX 3 1 4 2 5 3 7 4 23 5 24 6 22 7 13 8 10 9 8 10 9 11 2 12 1 13
REMARK SMILES IDX 6 14 14 16 21 17 15 18 19 19 16 20 17 21 20 22 18 24 11 26
REMARK SMILES IDX 12 27
REMARK H PARENT 6 15 20 23 18 25
REMARK Flexibility Score: inf
ROOT
ATOM      1  C   UNL     1      48.122  13.713  28.235  1.00  0.00     0.126 A 
ATOM      2  C   UNL     1      47.580  13.633  26.950  1.00  0.00     0.093 A 
ATOM      3  C   UNL     1      48.388  13.784  25.814  1.00  0.00     0.134 A 
ATOM      4  C   UNL     1      49.776  14.019  25.964  1.00  0.00     0.111 A 
ATOM      5  C   UNL     1      50.320  14.096  27.265  1.00  0.00     0.146 A 
ATOM      6  C   UNL     1      49.499  13.945  28.386  1.00  0.00     0.094 A 
ATOM      7  O   UNL     1      51.617  14.308  27.442  1.00  0.00    -0.452 OA
ATOM      8  C   UNL     1      52.479  14.459  26.442  1.00  0.00     0.180 A 
ATOM      9  C   UNL     1      52.027  14.429  25.106  1.00  0.00     0.210 A 
ATOM     10  C   UNL     1      50.653  14.191  24.870  1.00  0.00     0.239 A 
ATOM     11  O   UNL     1      50.209  14.136  23.692  1.00  0.00    -0.285 OA
ENDROOT
BRANCH   1  12
ATOM     12  O   UNL     1      47.260  13.555  29.331  1.00  0.00    -0.496 OA
ATOM     13  C   UNL     1      47.674  13.128  30.625  1.00  0.00     0.278 C 
ENDBRANCH   1  12
BRANCH   3  14
ATOM     14  O   UNL     1      47.806  13.698  24.549  1.00  0.00    -0.507 OA
ATOM     15  H   UNL     1      48.362  13.554  23.714  1.00  0.00     0.293 HD
ENDBRANCH   3  14
BRANCH   8  16
ATOM     16  C   UNL     1      53.903  14.675  26.783  1.00  0.00     0.025 A 
ATOM     17  C   UNL     1      54.781  15.312  25.888  1.00  0.00     0.062 A 
ATOM     18  C   UNL     1      54.404  14.183  27.999  1.00  0.00     0.016 A 
ATOM     19  C   UNL     1      56.132  15.486  26.221  1.00  0.00     0.158 A 
ATOM     20  C   UNL     1      55.750  14.357  28.331  1.00  0.00     0.051 A 
ATOM     21  C   UNL     1      56.617  15.012  27.445  1.00  0.00     0.157 A 
BRANCH  19  22
ATOM     22  O   UNL     1      56.999  16.124  25.336  1.00  0.00    -0.504 OA
ATOM     23  H   UNL     1      57.356  17.054  25.521  1.00  0.00     0.293 HD
ENDBRANCH  19  22
BRANCH  21  24
ATOM     24  O   UNL     1      57.959  15.189  27.774  1.00  0.00    -0.504 OA
ATOM     25  H   UNL     1      58.680  14.580  27.406  1.00  0.00     0.293 HD
ENDBRANCH  21  24
ENDBRANCH   8  16
BRANCH   9  26
ATOM     26  O   UNL     1      52.964  14.666  24.079  1.00  0.00    -0.490 OA
ATOM     27  C   UNL     1      52.900  15.689  23.092  1.00  0.00     0.278 C 
ENDBRANCH   9  26
TORSDOF 6
ENDMDL
MODEL 2
REMARK VINA RESULT:    -5.897      1.220      6.832
REMARK INTER + INTRA:          -6.886
REMARK INTER:                  -7.460
REMARK INTRA:                   0.573
REMARK UNBOUND:                 0.561
REMARK SMILES COc1cc(O)c2c(=O)c(OC)c(-c3ccc(O)c(O)c3)oc2c1
REMARK SMILES IDX 3 1 4 2 5 3 7 4 23 5 24 6 22 7 13 8 10 9 8 10 9 11 2 12 1 13
REMARK SMILES IDX 6 14 14 16 21 17 15 18 19 19 16 20 17 21 20 22 18 24 11 26
REMARK SMILES IDX 12 27
REMARK H PARENT 6 15 20 23 18 25
REMARK Flexibility Score: inf
ROOT
ATOM      1  C   UNL     1      55.644  14.989  26.869  1.00  0.00     0.126 A 
ATOM      2  C   UNL     1      55.775  15.360  25.529  1.00  0.00     0.093 A 
ATOM      3  C   UNL     1      54.657  15.423  24.684  1.00  0.00     0.134 A 
ATOM      4  C   UNL     1      53.373  15.107  25.191  1.00  0.00     0.111 A 
ATOM      5  C   UNL     1      53.246  14.736  26.547  1.00  0.00     0.146 A 
ATOM      6  C   UNL     1      54.371  14.677  27.375  1.00  0.00     0.094 A 
ATOM      7  O   UNL     1      52.058  14.441  27.056  1.00  0.00    -0.452 OA
ATOM      8  C   UNL     1      50.930  14.472  26.354  1.00  0.00     0.180 A 
ATOM      9  C   UNL     1      50.957  14.802  24.982  1.00  0.00     0.210 A 
ATOM     10  C   UNL     1      52.203  15.137  24.401  1.00  0.00     0.239 A 
ATOM     11  O   UNL     1      52.271  15.458  23.185  1.00  0.00    -0.285 OA
ENDROOT
BRANCH   1  12
ATOM     12  O   UNL     1      56.800  14.944  27.663  1.00  0.00    -0.496 OA
ATOM     13  C   UNL     1      58.085  15.391  27.240  1.00  0.00     0.278 C 
ENDBRANCH   1  12
BRANCH   3  14
ATOM     14  O   UNL     1      54.832  15.796  23.351  1.00  0.00    -0.507 OA
ATOM     15  H   UNL     1      55.470  16.537  23.084  1.00  0.00     0.293 HD
ENDBRANCH   3  14
BRANCH   8  16
ATOM     16  C   UNL     1      49.670  14.134  27.053  1.00  0.00     0.025 A 
ATOM     17  C   UNL     1      49.590  14.135  28.458  1.00  0.00     0.062 A 
ATOM     18  C   UNL     1      48.547  13.746  26.305  1.00  0.00     0.016 A 
ATOM     19  C   UNL     1      48.394  13.788  29.101  1.00  0.00     0.158 A 
ATOM     20  C   UNL     1      47.355  13.401  26.946  1.00  0.00     0.051 A 
ATOM     21  C   UNL     1      47.273  13.424  28.345  1.00  0.00     0.157 A 
BRANCH  19  22
ATOM     22  O   UNL     1      48.313  13.797  30.493  1.00  0.00    -0.504 OA
ATOM     23  H   UNL     1      48.617  14.596  31.036  1.00  0.00     0.293 HD
ENDBRANCH  19  22
BRANCH  21  24
ATOM     24  O   UNL     1      46.085  13.083  28.988  1.00  0.00    -0.504 OA
ATOM     25  H   UNL     1      45.760  13.588  29.804  1.00  0.00     0.293 HD
ENDBRANCH  21  24
ENDBRANCH   8  16
BRANCH   9  26
ATOM     26  O   UNL     1      49.748  14.753  24.260  1.00  0.00    -0.490 OA
ATOM     27  C   UNL     1      49.064  15.856  23.676  1.00  0.00     0.278 C 
ENDBRANCH   9  26
TORSDOF 6
ENDMDL
MODEL 3
REMARK VINA RESULT:    -5.766      1.762      7.386
REMARK INTER + INTRA:          -6.722
REMARK INTER:                  -6.509
REMARK INTRA:                  -0.214
REMARK UNBOUND:                 0.561
REMARK SMILES COc1cc(O)c2c(=O)c(OC)c(-c3ccc(O)c(O)c3)oc2c1
REMARK SMILES IDX 3 1 4 2 5 3 7 4 23 5 24 6 22 7 13 8 10 9 8 10 9 11 2 12 1 13
REMARK SMILES IDX 6 14 14 16 21 17 15 18 19 19 16 20 17 21 20 22 18 24 11 26
REMARK SMILES IDX 12 27
REMARK H PARENT 6 15 20 23 18 25
REMARK Flexibility Score: inf
ROOT
ATOM      1  C   UNL     1      56.325  15.515  26.181  1.00  0.00     0.126 A 
ATOM      2  C   UNL     1      56.383  14.886  27.427  1.00  0.00     0.093 A 
ATOM      3  C   UNL     1      55.254  14.261  27.975  1.00  0.00     0.134 A 
ATOM      4  C   UNL     1      54.033  14.261  27.258  1.00  0.00     0.111 A 
ATOM      5  C   UNL     1      53.979  14.895  25.997  1.00  0.00     0.146 A 
ATOM      6  C   UNL     1      55.115  15.516  25.468  1.00  0.00     0.094 A 
ATOM      7  O   UNL     1      52.854  14.908  25.297  1.00  0.00    -0.452 OA
ATOM      8  C   UNL     1      51.725  14.343  25.711  1.00  0.00     0.180 A 
ATOM      9  C   UNL     1      51.669  13.712  26.972  1.00  0.00     0.210 A 
ATOM     10  C   UNL     1      52.851  13.662  27.747  1.00  0.00     0.239 A 
ATOM     11  O   UNL     1      52.852  13.090  28.869  1.00  0.00    -0.285 OA
ENDROOT
BRANCH   1  12
ATOM     12  O   UNL     1      57.489  16.124  25.688  1.00  0.00    -0.496 OA
ATOM     13  C   UNL     1      58.744  16.125  26.361  1.00  0.00     0.278 C 
ENDBRANCH   1  12
BRANCH   3  14
ATOM     14  O   UNL     1      55.355  13.646  29.223  1.00  0.00    -0.507 OA
ATOM     15  H   UNL     1      55.916  14.041  29.969  1.00  0.00     0.293 HD
ENDBRANCH   3  14
BRANCH   8  16
ATOM     16  C   UNL     1      50.546  14.420  24.820  1.00  0.00     0.025 A 
ATOM     17  C   UNL     1      49.846  13.263  24.431  1.00  0.00     0.062 A 
ATOM     18  C   UNL     1      50.150  15.664  24.303  1.00  0.00     0.016 A 
ATOM     19  C   UNL     1      48.746  13.356  23.567  1.00  0.00     0.158 A 
ATOM     20  C   UNL     1      49.053  15.756  23.443  1.00  0.00     0.051 A 
ATOM     21  C   UNL     1      48.346  14.604  23.075  1.00  0.00     0.157 A 
BRANCH  19  22
ATOM     22  O   UNL     1      48.049  12.210  23.188  1.00  0.00    -0.504 OA
ATOM     23  H   UNL     1      47.184  11.941  23.641  1.00  0.00     0.293 HD
ENDBRANCH  19  22
BRANCH  21  24
ATOM     24  O   UNL     1      47.250  14.692  22.219  1.00  0.00    -0.504 OA
ATOM     25  H   UNL     1      46.976  13.918  21.626  1.00  0.00     0.293 HD
ENDBRANCH  21  24
ENDBRANCH   8  16
BRANCH   9  26
ATOM     26  O   UNL     1      50.432  13.189  27.401  1.00  0.00    -0.490 OA
ATOM     27  C   UNL     1      49.541  13.783  28.339  1.00  0.00     0.278 C 
ENDBRANCH   9  26
TORSDOF 6
ENDMDL
MODEL 4
REMARK VINA RESULT:    -5.352      1.825      3.803
REMARK INTER + INTRA:          -6.198
REMARK INTER:                  -6.729
REMARK INTRA:                   0.531
REMARK UNBOUND:                 0.561
REMARK SMILES COc1cc(O)c2c(=O)c(OC)c(-c3ccc(O)c(O)c3)oc2c1
REMARK SMILES IDX 3 1 4 2 5 3 7 4 23 5 24 6 22 7 13 8 10 9 8 10 9 11 2 12 1 13
REMARK SMILES IDX 6 14 14 16 21 17 15 18 19 19 16 20 17 21 20 22 18 24 11 26
REMARK SMILES IDX 12 27
REMARK H PARENT 6 15 20 23 18 25
REMARK Flexibility Score: inf
ROOT
ATOM      1  C   UNL     1      49.057  15.177  24.239  1.00  0.00     0.126 A 
ATOM      2  C   UNL     1      48.438  14.433  25.246  1.00  0.00     0.093 A 
ATOM      3  C   UNL     1      49.178  13.909  26.316  1.00  0.00     0.134 A 
ATOM      4  C   UNL     1      50.574  14.134  26.383  1.00  0.00     0.111 A 
ATOM      5  C   UNL     1      51.195  14.889  25.364  1.00  0.00     0.146 A 
ATOM      6  C   UNL     1      50.442  15.402  24.303  1.00  0.00     0.094 A 
ATOM      7  O   UNL     1      52.499  15.124  25.399  1.00  0.00    -0.452 OA
ATOM      8  C   UNL     1      53.299  14.685  26.366  1.00  0.00     0.180 A 
ATOM      9  C   UNL     1      52.778  13.896  27.413  1.00  0.00     0.210 A 
ATOM     10  C   UNL     1      51.388  13.632  27.422  1.00  0.00     0.239 A 
ATOM     11  O   UNL     1      50.877  12.949  28.349  1.00  0.00    -0.285 OA
ENDROOT
BRANCH   1  12
ATOM     12  O   UNL     1      48.263  15.672  23.194  1.00  0.00    -0.496 OA
ATOM     13  C   UNL     1      48.757  16.035  21.908  1.00  0.00     0.278 C 
ENDBRANCH   1  12
BRANCH   3  14
ATOM     14  O   UNL     1      48.520  13.171  27.301  1.00  0.00    -0.507 OA
ATOM     15  H   UNL     1      47.573  12.836  27.173  1.00  0.00     0.293 HD
ENDBRANCH   3  14
BRANCH   8  16
ATOM     16  C   UNL     1      54.735  15.035  26.288  1.00  0.00     0.025 A 
ATOM     17  C   UNL     1      55.598  14.828  27.379  1.00  0.00     0.062 A 
ATOM     18  C   UNL     1      55.236  15.640  25.124  1.00  0.00     0.016 A 
ATOM     19  C   UNL     1      56.950  15.189  27.293  1.00  0.00     0.158 A 
ATOM     20  C   UNL     1      56.584  15.998  25.038  1.00  0.00     0.051 A 
ATOM     21  C   UNL     1      57.445  15.771  26.120  1.00  0.00     0.157 A 
BRANCH  19  22
ATOM     22  O   UNL     1      57.806  14.977  28.372  1.00  0.00    -0.504 OA
ATOM     23  H   UNL     1      58.007  14.045  28.715  1.00  0.00     0.293 HD
ENDBRANCH  19  22
BRANCH  21  24
ATOM     24  O   UNL     1      58.791  16.125  26.037  1.00  0.00    -0.504 OA
ATOM     25  H   UNL     1      59.490  15.474  25.702  1.00  0.00     0.293 HD
ENDBRANCH  21  24
ENDBRANCH   8  16
BRANCH   9  26
ATOM     26  O   UNL     1      53.674  13.392  28.377  1.00  0.00    -0.490 OA
ATOM     27  C   UNL     1      53.868  12.024  28.720  1.00  0.00     0.278 C 
ENDBRANCH   9  26
TORSDOF 6
ENDMDL
MODEL 5
REMARK VINA RESULT:    -5.343      1.909      3.728
REMARK INTER + INTRA:          -6.188
REMARK INTER:                  -6.684
REMARK INTRA:                   0.496
REMARK UNBOUND:                 0.561
REMARK SMILES COc1cc(O)c2c(=O)c(OC)c(-c3ccc(O)c(O)c3)oc2c1
REMARK SMILES IDX 3 1 4 2 5 3 7 4 23 5 24 6 22 7 13 8 10 9 8 10 9 11 2 12 1 13
REMARK SMILES IDX 6 14 14 16 21 17 15 18 19 19 16 20 17 21 20 22 18 24 11 26
REMARK SMILES IDX 12 27
REMARK H PARENT 6 15 20 23 18 25
REMARK Flexibility Score: inf
ROOT
ATOM      1  C   UNL     1      49.732  15.397  24.036  1.00  0.00     0.126 A 
ATOM      2  C   UNL     1      48.955  14.580  24.861  1.00  0.00     0.093 A 
ATOM      3  C   UNL     1      49.513  13.942  25.979  1.00  0.00     0.134 A 
ATOM      4  C   UNL     1      50.884  14.126  26.282  1.00  0.00     0.111 A 
ATOM      5  C   UNL     1      51.664  14.955  25.447  1.00  0.00     0.146 A 
ATOM      6  C   UNL     1      51.092  15.581  24.335  1.00  0.00     0.094 A 
ATOM      7  O   UNL     1      52.949  15.154  25.705  1.00  0.00    -0.452 OA
ATOM      8  C   UNL     1      53.583  14.609  26.738  1.00  0.00     0.180 A 
ATOM      9  C   UNL     1      52.897  13.741  27.614  1.00  0.00     0.210 A 
ATOM     10  C   UNL     1      51.520  13.511  27.383  1.00  0.00     0.239 A 
ATOM     11  O   UNL     1      50.863  12.759  28.151  1.00  0.00    -0.285 OA
ENDROOT
BRANCH   1  12
ATOM     12  O   UNL     1      49.115  16.005  22.932  1.00  0.00    -0.496 OA
ATOM     13  C   UNL     1      49.044  15.429  21.631  1.00  0.00     0.278 C 
ENDBRANCH   1  12
BRANCH   3  14
ATOM     14  O   UNL     1      48.702  13.134  26.776  1.00  0.00    -0.507 OA
ATOM     15  H   UNL     1      48.007  12.516  26.375  1.00  0.00     0.293 HD
ENDBRANCH   3  14
BRANCH   8  16
ATOM     16  C   UNL     1      55.017  14.929  26.917  1.00  0.00     0.025 A 
ATOM     17  C   UNL     1      55.803  15.388  25.845  1.00  0.00     0.062 A 
ATOM     18  C   UNL     1      55.622  14.715  28.166  1.00  0.00     0.016 A 
ATOM     19  C   UNL     1      57.166  15.663  26.030  1.00  0.00     0.158 A 
ATOM     20  C   UNL     1      56.979  14.990  28.351  1.00  0.00     0.051 A 
ATOM     21  C   UNL     1      57.754  15.468  27.285  1.00  0.00     0.157 A 
BRANCH  19  22
ATOM     22  O   UNL     1      57.942  16.125  24.968  1.00  0.00    -0.504 OA
ATOM     23  H   UNL     1      58.596  16.890  25.083  1.00  0.00     0.293 HD
ENDBRANCH  19  22
BRANCH  21  24
ATOM     24  O   UNL     1      59.108  15.745  27.466  1.00  0.00    -0.504 OA
ATOM     25  H   UNL     1      59.466  16.080  28.352  1.00  0.00     0.293 HD
ENDBRANCH  21  24
ENDBRANCH   8  16
BRANCH   9  26
ATOM     26  O   UNL     1      53.626  13.129  28.653  1.00  0.00    -0.490 OA
ATOM     27  C   UNL     1      53.868  11.735  28.812  1.00  0.00     0.278 C 
ENDBRANCH   9  26
TORSDOF 6
ENDMDL
MODEL 6
REMARK VINA RESULT:    -4.503      2.853      6.122
REMARK INTER + INTRA:          -5.127
REMARK INTER:                  -5.882
REMARK INTRA:                   0.755
REMARK UNBOUND:                 0.561
REMARK SMILES COc1cc(O)c2c(=O)c(OC)c(-c3ccc(O)c(O)c3)oc2c1
REMARK SMILES IDX 3 1 4 2 5 3 7 4 23 5 24 6 22 7 13 8 10 9 8 10 9 11 2 12 1 13
REMARK SMILES IDX 6 14 14 16 21 17 15 18 19 19 16 20 17 21 20 22 18 24 11 26
REMARK SMILES IDX 12 27
REMARK H PARENT 6 15 20 23 18 25
REMARK Flexibility Score: inf
ROOT
ATOM      1  C   UNL     1      52.713  10.374  28.614  1.00  0.00     0.126 A 
ATOM      2  C   UNL     1      53.799  11.031  29.199  1.00  0.00     0.093 A 
ATOM      3  C   UNL     1      54.223  12.283  28.733  1.00  0.00     0.134 A 
ATOM      4  C   UNL     1      53.546  12.898  27.652  1.00  0.00     0.111 A 
ATOM      5  C   UNL     1      52.447  12.232  27.065  1.00  0.00     0.146 A 
ATOM      6  C   UNL     1      52.039  10.983  27.543  1.00  0.00     0.094 A 
ATOM      7  O   UNL     1      51.786  12.782  26.057  1.00  0.00    -0.452 OA
ATOM      8  C   UNL     1      52.093  13.966  25.536  1.00  0.00     0.180 A 
ATOM      9  C   UNL     1      53.193  14.695  26.034  1.00  0.00     0.210 A 
ATOM     10  C   UNL     1      53.919  14.152  27.120  1.00  0.00     0.239 A 
ATOM     11  O   UNL     1      54.896  14.778  27.609  1.00  0.00    -0.285 OA
ENDROOT
BRANCH   1  12
ATOM     12  O   UNL     1      52.338   9.123  29.126  1.00  0.00    -0.496 OA
ATOM     13  C   UNL     1      53.200   8.265  29.867  1.00  0.00     0.278 C 
ENDBRANCH   1  12
BRANCH   3  14
ATOM     14  O   UNL     1      55.312  12.904  29.345  1.00  0.00    -0.507 OA
ATOM     15  H   UNL     1      55.946  12.394  29.950  1.00  0.00     0.293 HD
ENDBRANCH   3  14
BRANCH   8  16
ATOM     16  C   UNL     1      51.260  14.468  24.421  1.00  0.00     0.025 A 
ATOM     17  C   UNL     1      49.926  14.050  24.258  1.00  0.00     0.062 A 
ATOM     18  C   UNL     1      51.827  15.332  23.470  1.00  0.00     0.016 A 
ATOM     19  C   UNL     1      49.161  14.520  23.181  1.00  0.00     0.158 A 
ATOM     20  C   UNL     1      51.064  15.800  22.397  1.00  0.00     0.051 A 
ATOM     21  C   UNL     1      49.729  15.399  22.251  1.00  0.00     0.157 A 
BRANCH  19  22
ATOM     22  O   UNL     1      47.838  14.111  23.025  1.00  0.00    -0.504 OA
ATOM     23  H   UNL     1      47.079  14.579  23.506  1.00  0.00     0.293 HD
ENDBRANCH  19  22
BRANCH  21  24
ATOM     24  O   UNL     1      48.965  15.865  21.183  1.00  0.00    -0.504 OA
ATOM     25  H   UNL     1      47.987  16.101  21.295  1.00  0.00     0.293 HD
ENDBRANCH  21  24
ENDBRANCH   8  16
BRANCH   9  26
ATOM     26  O   UNL     1      53.527  15.912  25.405  1.00  0.00    -0.490 OA
ATOM     27  C   UNL     1      54.586  16.125  24.478  1.00  0.00     0.278 C 
ENDBRANCH   9  26
TORSDOF 6
ENDMDL
MODEL 7
REMARK VINA RESULT:    -4.315      2.787      5.179
REMARK INTER + INTRA:          -4.889
REMARK INTER:                  -5.066
REMARK INTRA:                   0.177
REMARK UNBOUND:                 0.561
REMARK SMILES COc1cc(O)c2c(=O)c(OC)c(-c3ccc(O)c(O)c3)oc2c1
REMARK SMILES IDX 3 1 4 2 5 3 7 4 23 5 24 6 22 7 13 8 10 9 8 10 9 11 2 12 1 13
REMARK SMILES IDX 6 14 14 16 21 17 15 18 19 19 16 20 17 21 20 22 18 24 11 26
REMARK SMILES IDX 12 27
REMARK H PARENT 6 15 20 23 18 25
REMARK Flexibility Score: inf
ROOT
ATOM      1  C   UNL     1      48.466  15.758  23.255  1.00  0.00     0.126 A 
ATOM      2  C   UNL     1      47.323  16.102  23.980  1.00  0.00     0.093 A 
ATOM      3  C   UNL     1      47.197  15.763  25.335  1.00  0.00     0.134 A 
ATOM      4  C   UNL     1      48.240  15.061  25.984  1.00  0.00     0.111 A 
ATOM      5  C   UNL     1      49.396  14.717  25.248  1.00  0.00     0.146 A 
ATOM      6  C   UNL     1      49.503  15.062  23.897  1.00  0.00     0.094 A 
ATOM      7  O   UNL     1      50.395  14.066  25.827  1.00  0.00    -0.452 OA
ATOM      8  C   UNL     1      50.389  13.699  27.104  1.00  0.00     0.180 A 
ATOM      9  C   UNL     1      49.267  13.969  27.915  1.00  0.00     0.210 A 
ATOM     10  C   UNL     1      48.184  14.675  27.342  1.00  0.00     0.239 A 
ATOM     11  O   UNL     1      47.170  14.956  28.035  1.00  0.00    -0.285 OA
ENDROOT
BRANCH   1  12
ATOM     12  O   UNL     1      48.531  16.124  21.902  1.00  0.00    -0.496 OA
ATOM     13  C   UNL     1      49.367  15.494  20.937  1.00  0.00     0.278 C 
ENDBRANCH   1  12
BRANCH   3  14
ATOM     14  O   UNL     1      46.037  16.125  26.022  1.00  0.00    -0.507 OA
ATOM     15  H   UNL     1      45.290  15.463  26.193  1.00  0.00     0.293 HD
ENDBRANCH   3  14
BRANCH   8  16
ATOM     16  C   UNL     1      51.580  12.990  27.625  1.00  0.00     0.025 A 
ATOM     17  C   UNL     1      51.577  11.596  27.812  1.00  0.00     0.062 A 
ATOM     18  C   UNL     1      52.716  13.727  27.996  1.00  0.00     0.016 A 
ATOM     19  C   UNL     1      52.707  10.946  28.329  1.00  0.00     0.158 A 
ATOM     20  C   UNL     1      53.842  13.080  28.510  1.00  0.00     0.051 A 
ATOM     21  C   UNL     1      53.843  11.688  28.675  1.00  0.00     0.157 A 
BRANCH  19  22
ATOM     22  O   UNL     1      52.706   9.564  28.507  1.00  0.00    -0.504 OA
ATOM     23  H   UNL     1      51.845   9.048  28.645  1.00  0.00     0.293 HD
ENDBRANCH  19  22
BRANCH  21  24
ATOM     24  O   UNL     1      54.965  11.039  29.185  1.00  0.00    -0.504 OA
ATOM     25  H   UNL     1      55.065  10.033  29.133  1.00  0.00     0.293 HD
ENDBRANCH  21  24
ENDBRANCH   8  16
BRANCH   9  26
ATOM     26  O   UNL     1      49.275  13.498  29.244  1.00  0.00    -0.490 OA
ATOM     27  C   UNL     1      48.150  13.377  30.107  1.00  0.00     0.278 C 
ENDBRANCH   9  26
TORSDOF 6
ENDMDL
MODEL 8
REMARK VINA RESULT:    -3.820      2.299      7.861
REMARK INTER + INTRA:          -4.263
REMARK INTER:                  -4.956
REMARK INTRA:                   0.693
REMARK UNBOUND:                 0.561
REMARK SMILES COc1cc(O)c2c(=O)c(OC)c(-c3ccc(O)c(O)c3)oc2c1
REMARK SMILES IDX 3 1 4 2 5 3 7 4 23 5 24 6 22 7 13 8 10 9 8 10 9 11 2 12 1 13
REMARK SMILES IDX 6 14 14 16 21 17 15 18 19 19 16 20 17 21 20 22 18 24 11 26
REMARK SMILES IDX 12 27
REMARK H PARENT 6 15 20 23 18 25
REMARK Flexibility Score: inf
ROOT
ATOM      1  C   UNL     1      58.313  15.788  25.631  1.00  0.00     0.126 A 
ATOM      2  C   UNL     1      58.309  15.373  26.965  1.00  0.00     0.093 A 
ATOM      3  C   UNL     1      57.113  15.024  27.610  1.00  0.00     0.134 A 
ATOM      4  C   UNL     1      55.888  15.089  26.904  1.00  0.00     0.111 A 
ATOM      5  C   UNL     1      55.897  15.507  25.555  1.00  0.00     0.146 A 
ATOM      6  C   UNL     1      57.098  15.853  24.928  1.00  0.00     0.094 A 
ATOM      7  O   UNL     1      54.768  15.574  24.862  1.00  0.00    -0.452 OA
ATOM      8  C   UNL     1      53.579  15.261  25.366  1.00  0.00     0.180 A 
ATOM      9  C   UNL     1      53.462  14.863  26.714  1.00  0.00     0.210 A 
ATOM     10  C   UNL     1      54.643  14.764  27.486  1.00  0.00     0.239 A 
ATOM     11  O   UNL     1      54.588  14.393  28.689  1.00  0.00    -0.285 OA
ENDROOT
BRANCH   1  12
ATOM     12  O   UNL     1      59.541  16.125  25.042  1.00  0.00    -0.496 OA
ATOM     13  C   UNL     1      60.700  15.298  25.069  1.00  0.00     0.278 C 
ENDBRANCH   1  12
BRANCH   3  14
ATOM     14  O   UNL     1      57.154  14.616  28.943  1.00  0.00    -0.507 OA
ATOM     15  H   UNL     1      58.029  14.413  29.413  1.00  0.00     0.293 HD
ENDBRANCH   3  14
BRANCH   8  16
ATOM     16  C   UNL     1      52.402  15.366  24.475  1.00  0.00     0.025 A 
ATOM     17  C   UNL     1      51.150  14.848  24.853  1.00  0.00     0.062 A 
ATOM     18  C   UNL     1      52.548  15.941  23.202  1.00  0.00     0.016 A 
ATOM     19  C   UNL     1      50.052  14.937  23.984  1.00  0.00     0.158 A 
ATOM     20  C   UNL     1      51.454  16.031  22.337  1.00  0.00     0.051 A 
ATOM     21  C   UNL     1      50.203  15.532  22.726  1.00  0.00     0.157 A 
BRANCH  19  22
ATOM     22  O   UNL     1      48.811  14.430  24.363  1.00  0.00    -0.504 OA
ATOM     23  H   UNL     1      47.981  14.587  23.804  1.00  0.00     0.293 HD
ENDBRANCH  19  22
BRANCH  21  24
ATOM     24  O   UNL     1      49.110  15.622  21.867  1.00  0.00    -0.504 OA
ATOM     25  H   UNL     1      49.228  15.788  20.875  1.00  0.00     0.293 HD
ENDBRANCH  21  24
ENDBRANCH   8  16
BRANCH   9  26
ATOM     26  O   UNL     1      52.173  14.611  27.226  1.00  0.00    -0.490 OA
ATOM     27  C   UNL     1      51.686  13.369  27.724  1.00  0.00     0.278 C 
ENDBRANCH   9  26
TORSDOF 6
ENDMDL
MODEL 9
REMARK VINA RESULT:    -3.646      2.178      6.770
REMARK INTER + INTRA:          -4.044
REMARK INTER:                  -4.462
REMARK INTRA:                   0.418
REMARK UNBOUND:                 0.561
REMARK SMILES COc1cc(O)c2c(=O)c(OC)c(-c3ccc(O)c(O)c3)oc2c1
REMARK SMILES IDX 3 1 4 2 5 3 7 4 23 5 24 6 22 7 13 8 10 9 8 10 9 11 2 12 1 13
REMARK SMILES IDX 6 14 14 16 21 17 15 18 19 19 16 20 17 21 20 22 18 24 11 26
REMARK SMILES IDX 12 27
REMARK H PARENT 6 15 20 23 18 25
REMARK Flexibility Score: inf
ROOT
ATOM      1  C   UNL     1      53.556  15.568  23.686  1.00  0.00     0.126 A 
ATOM      2  C   UNL     1      52.804  15.880  22.550  1.00  0.00     0.093 A 
ATOM      3  C   UNL     1      51.404  15.805  22.568  1.00  0.00     0.134 A 
ATOM      4  C   UNL     1      50.735  15.409  23.751  1.00  0.00     0.111 A 
ATOM      5  C   UNL     1      51.499  15.097  24.897  1.00  0.00     0.146 A 
ATOM      6  C   UNL     1      52.895  15.175  24.861  1.00  0.00     0.094 A 
ATOM      7  O   UNL     1      50.905  14.729  26.024  1.00  0.00    -0.452 OA
ATOM      8  C   UNL     1      49.587  14.630  26.160  1.00  0.00     0.180 A 
ATOM      9  C   UNL     1      48.739  14.890  25.063  1.00  0.00     0.210 A 
ATOM     10  C   UNL     1      49.330  15.300  23.845  1.00  0.00     0.239 A 
ATOM     11  O   UNL     1      48.610  15.563  22.845  1.00  0.00    -0.285 OA
ENDROOT
BRANCH   1  12
ATOM     12  O   UNL     1      54.954  15.660  23.604  1.00  0.00    -0.496 OA
ATOM     13  C   UNL     1      55.795  16.091  24.669  1.00  0.00     0.278 C 
ENDBRANCH   1  12
BRANCH   3  14
ATOM     14  O   UNL     1      50.691  16.124  21.412  1.00  0.00    -0.507 OA
ATOM     15  H   UNL     1      49.679  16.089  21.382  1.00  0.00     0.293 HD
ENDBRANCH   3  14
BRANCH   8  16
ATOM     16  C   UNL     1      49.057  14.222  27.480  1.00  0.00     0.025 A 
ATOM     17  C   UNL     1      47.874  13.469  27.593  1.00  0.00     0.062 A 
ATOM     18  C   UNL     1      49.712  14.644  28.648  1.00  0.00     0.016 A 
ATOM     19  C   UNL     1      47.375  13.114  28.855  1.00  0.00     0.158 A 
ATOM     20  C   UNL     1      49.217  14.289  29.905  1.00  0.00     0.051 A 
ATOM     21  C   UNL     1      48.049  13.520  30.012  1.00  0.00     0.157 A 
BRANCH  19  22
ATOM     22  O   UNL     1      46.207  12.361  28.965  1.00  0.00    -0.504 OA
ATOM     23  H   UNL     1      45.960  11.662  28.274  1.00  0.00     0.293 HD
ENDBRANCH  19  22
BRANCH  21  24
ATOM     24  O   UNL     1      47.553  13.163  31.264  1.00  0.00    -0.504 OA
ATOM     25  H   UNL     1      48.108  13.269  32.105  1.00  0.00     0.293 HD
ENDBRANCH  21  24
ENDBRANCH   8  16
BRANCH   9  26
ATOM     26  O   UNL     1      47.352  14.703  25.232  1.00  0.00    -0.490 OA
ATOM     27  C   UNL     1      46.408  15.684  25.648  1.00  0.00     0.278 C 
ENDBRANCH   9  26
TORSDOF 6
ENDMDL
