MODEL 1
REMARK VINA RESULT:    -7.291      0.000      0.000
REMARK INTER + INTRA:         -11.947
REMARK INTER:                 -10.702
REMARK INTRA:                  -1.246
REMARK UNBOUND:                -1.246
REMARK SMILES Cc1cc2c(C(C)C)c(O)c(O)c(C=O)c2c(O)c1-c1c(C)cc2c(C(C)C)c(O)c(O)c(C=O)c2c1O
REMARK SMILES IDX 1 1 2 2 3 3 4 4 16 5 13 6 11 7 9 8 5 9 17 10 19 11 20 12
REMARK SMILES IDX 37 13 21 14 36 15 23 16 22 17 24 18 33 19 25 20 31 21 29 22
REMARK SMILES IDX 38 23 34 25 35 26 26 27 27 28 28 29 32 30 30 32 18 34 6 36
REMARK SMILES IDX 7 37 8 38 14 39 15 40 10 41 12 43
REMARK H PARENT 38 24 32 31 30 33 18 35 10 42 12 44
REMARK Flexibility Score: inf
ROOT
ATOM      1  C   UNL     1      29.707  15.740  81.468  1.00  0.00     0.045 C 
ATOM      2  C   UNL     1      30.679  14.587  81.437  1.00  0.00    -0.039 A 
ATOM      3  C   UNL     1      31.798  14.609  82.273  1.00  0.00     0.013 A 
ATOM      4  C   UNL     1      32.753  13.568  82.266  1.00  0.00    -0.006 A 
ATOM      5  C   UNL     1      32.652  12.559  81.263  1.00  0.00     0.039 A 
ATOM      6  C   UNL     1      33.741  11.658  81.081  1.00  0.00     0.072 A 
ATOM      7  C   UNL     1      34.857  11.722  81.941  1.00  0.00     0.169 A 
ATOM      8  C   UNL     1      34.894  12.646  82.990  1.00  0.00     0.162 A 
ATOM      9  C   UNL     1      33.817  13.531  83.217  1.00  0.00     0.008 A 
ATOM     10  C   UNL     1      31.456  12.476  80.492  1.00  0.00     0.132 A 
ATOM     11  C   UNL     1      30.484  13.495  80.574  1.00  0.00     0.031 A 
ENDROOT
BRANCH  11  12
ATOM     12  C   UNL     1      29.258  13.423  79.735  1.00  0.00     0.031 A 
ATOM     13  C   UNL     1      28.125  12.719  80.193  1.00  0.00     0.132 A 
ATOM     14  C   UNL     1      29.243  14.039  78.474  1.00  0.00    -0.039 A 
ATOM     15  C   UNL     1      26.930  12.688  79.413  1.00  0.00     0.039 A 
ATOM     16  C   UNL     1      28.108  13.930  77.668  1.00  0.00     0.013 A 
ATOM     17  C   UNL     1      30.454  14.774  77.951  1.00  0.00     0.045 C 
ATOM     18  C   UNL     1      26.929  13.296  78.120  1.00  0.00    -0.006 A 
ATOM     19  C   UNL     1      25.749  12.028  79.863  1.00  0.00     0.072 A 
ATOM     20  C   UNL     1      25.766  13.222  77.293  1.00  0.00     0.008 A 
ATOM     21  C   UNL     1      24.675  11.829  78.978  1.00  0.00     0.169 A 
ATOM     22  C   UNL     1      24.723  12.349  77.674  1.00  0.00     0.162 A 
BRANCH  13  23
ATOM     23  O   UNL     1      28.200  12.016  81.400  1.00  0.00    -0.507 OA
ATOM     24  H   UNL     1      27.532  12.112  82.154  1.00  0.00     0.293 HD
ENDBRANCH  13  23
BRANCH  19  25
ATOM     25  C   UNL     1      25.567  11.613  81.275  1.00  0.00     0.264 C 
ATOM     26  O   UNL     1      25.507  10.396  81.593  1.00  0.00    -0.298 OA
ENDBRANCH  19  25
BRANCH  20  27
ATOM     27  C   UNL     1      25.647  14.026  75.985  1.00  0.00     0.017 C 
ATOM     28  C   UNL     1      25.444  13.093  74.786  1.00  0.00     0.012 C 
ATOM     29  C   UNL     1      24.571  15.127  76.025  1.00  0.00     0.012 C 
ENDBRANCH  20  27
BRANCH  21  30
ATOM     30  O   UNL     1      23.541  11.150  79.437  1.00  0.00    -0.504 OA
ATOM     31  H   UNL     1      23.214  11.176  80.393  1.00  0.00     0.293 HD
ENDBRANCH  21  30
BRANCH  22  32
ATOM     32  O   UNL     1      23.749  12.002  76.734  1.00  0.00    -0.504 OA
ATOM     33  H   UNL     1      23.947  11.556  75.850  1.00  0.00     0.293 HD
ENDBRANCH  22  32
ENDBRANCH  11  12
BRANCH  10  34
ATOM     34  O   UNL     1      31.219  11.362  79.679  1.00  0.00    -0.507 OA
ATOM     35  H   UNL     1      30.587  11.365  78.889  1.00  0.00     0.293 HD
ENDBRANCH  10  34
BRANCH   9  36
ATOM     36  C   UNL     1      33.813  14.426  84.469  1.00  0.00     0.017 C 
ATOM     37  C   UNL     1      34.660  15.682  84.247  1.00  0.00     0.012 C 
ATOM     38  C   UNL     1      34.229  13.689  85.756  1.00  0.00     0.012 C 
ENDBRANCH   9  36
BRANCH   6  39
ATOM     39  C   UNL     1      33.808  10.722  79.939  1.00  0.00     0.264 C 
ATOM     40  O   UNL     1      33.726   9.479  80.125  1.00  0.00    -0.298 OA
ENDBRANCH   6  39
BRANCH   8  41
ATOM     41  O   UNL     1      36.027  12.706  83.806  1.00  0.00    -0.504 OA
ATOM     42  H   UNL     1      36.971  12.722  83.440  1.00  0.00     0.293 HD
ENDBRANCH   8  41
BRANCH   7  43
ATOM     43  O   UNL     1      35.964  10.883  81.764  1.00  0.00    -0.504 OA
ATOM     44  H   UNL     1      36.108  10.018  82.269  1.00  0.00     0.293 HD
ENDBRANCH   7  43
TORSDOF 11
ENDMDL
MODEL 2
REMARK VINA RESULT:    -7.170     14.159     16.733
REMARK INTER + INTRA:         -11.770
REMARK INTER:                 -10.859
REMARK INTRA:                  -0.911
REMARK UNBOUND:                -1.246
REMARK SMILES Cc1cc2c(C(C)C)c(O)c(O)c(C=O)c2c(O)c1-c1c(C)cc2c(C(C)C)c(O)c(O)c(C=O)c2c1O
REMARK SMILES IDX 1 1 2 2 3 3 4 4 16 5 13 6 11 7 9 8 5 9 17 10 19 11 20 12
REMARK SMILES IDX 37 13 21 14 36 15 23 16 22 17 24 18 33 19 25 20 31 21 29 22
REMARK SMILES IDX 38 23 34 25 35 26 26 27 27 28 28 29 32 30 30 32 18 34 6 36
REMARK SMILES IDX 7 37 8 38 14 39 15 40 10 41 12 43
REMARK H PARENT 38 24 32 31 30 33 18 35 10 42 12 44
REMARK Flexibility Score: inf
ROOT
ATOM      1  C   UNL     1      33.731   1.071  75.429  1.00  0.00     0.045 C 
ATOM      2  C   UNL     1      34.932   0.210  75.128  1.00  0.00    -0.039 A 
ATOM      3  C   UNL     1      35.764   0.543  74.056  1.00  0.00     0.013 A 
ATOM      4  C   UNL     1      36.887  -0.242  73.714  1.00  0.00    -0.006 A 
ATOM      5  C   UNL     1      37.074  -1.490  74.380  1.00  0.00     0.039 A 
ATOM      6  C   UNL     1      38.042  -2.404  73.872  1.00  0.00     0.072 A 
ATOM      7  C   UNL     1      38.853  -2.032  72.781  1.00  0.00     0.169 A 
ATOM      8  C   UNL     1      38.735  -0.762  72.206  1.00  0.00     0.162 A 
ATOM      9  C   UNL     1      37.807   0.177  72.707  1.00  0.00     0.008 A 
ATOM     10  C   UNL     1      36.297  -1.769  75.542  1.00  0.00     0.132 A 
ATOM     11  C   UNL     1      35.225  -0.926  75.902  1.00  0.00     0.031 A 
ENDROOT
BRANCH  11  12
ATOM     12  C   UNL     1      34.392  -1.247  77.091  1.00  0.00     0.031 A 
ATOM     13  C   UNL     1      34.873  -0.972  78.389  1.00  0.00     0.132 A 
ATOM     14  C   UNL     1      33.136  -1.848  76.918  1.00  0.00    -0.039 A 
ATOM     15  C   UNL     1      34.058  -1.234  79.531  1.00  0.00     0.039 A 
ATOM     16  C   UNL     1      32.377  -2.192  78.038  1.00  0.00     0.013 A 
ATOM     17  C   UNL     1      32.613  -2.177  75.540  1.00  0.00     0.045 C 
ATOM     18  C   UNL     1      32.791  -1.867  79.349  1.00  0.00    -0.006 A 
ATOM     19  C   UNL     1      34.488  -0.925  80.855  1.00  0.00     0.072 A 
ATOM     20  C   UNL     1      31.984  -2.200  80.482  1.00  0.00     0.008 A 
ATOM     21  C   UNL     1      33.758  -1.400  81.960  1.00  0.00     0.169 A 
ATOM     22  C   UNL     1      32.560  -2.107  81.768  1.00  0.00     0.162 A 
BRANCH  13  23
ATOM     23  O   UNL     1      36.173  -0.481  78.545  1.00  0.00    -0.507 OA
ATOM     24  H   UNL     1      36.929  -0.663  77.897  1.00  0.00     0.293 HD
ENDBRANCH  13  23
BRANCH  19  25
ATOM     25  C   UNL     1      35.645  -0.036  81.121  1.00  0.00     0.264 C 
ATOM     26  O   UNL     1      36.730  -0.495  81.563  1.00  0.00    -0.298 OA
ENDBRANCH  19  25
BRANCH  20  27
ATOM     27  C   UNL     1      30.535  -2.697  80.330  1.00  0.00     0.017 C 
ATOM     28  C   UNL     1      29.613  -1.563  79.868  1.00  0.00     0.012 C 
ATOM     29  C   UNL     1      30.392  -3.936  79.426  1.00  0.00     0.012 C 
ENDBRANCH  20  27
BRANCH  21  30
ATOM     30  O   UNL     1      34.222  -1.109  83.248  1.00  0.00    -0.504 OA
ATOM     31  H   UNL     1      33.840  -0.381  83.836  1.00  0.00     0.293 HD
ENDBRANCH  21  30
BRANCH  22  32
ATOM     32  O   UNL     1      31.928  -2.737  82.843  1.00  0.00    -0.504 OA
ATOM     33  H   UNL     1      30.929  -2.866  82.918  1.00  0.00     0.293 HD
ENDBRANCH  22  32
ENDBRANCH  11  12
BRANCH  10  34
ATOM     34  O   UNL     1      36.619  -2.860  76.357  1.00  0.00    -0.507 OA
ATOM     35  H   UNL     1      37.323  -2.833  77.084  1.00  0.00     0.293 HD
ENDBRANCH  10  34
BRANCH   9  36
ATOM     36  C   UNL     1      37.807   1.617  72.162  1.00  0.00     0.017 C 
ATOM     37  C   UNL     1      37.642   2.632  73.296  1.00  0.00     0.012 C 
ATOM     38  C   UNL     1      36.776   1.853  71.042  1.00  0.00     0.012 C 
ENDBRANCH   9  36
BRANCH   6  39
ATOM     39  C   UNL     1      38.155  -3.791  74.370  1.00  0.00     0.264 C 
ATOM     40  O   UNL     1      39.111  -4.125  75.120  1.00  0.00    -0.298 OA
ENDBRANCH   6  39
BRANCH   8  41
ATOM     41  O   UNL     1      39.531  -0.435  71.105  1.00  0.00    -0.504 OA
ATOM     42  H   UNL     1      39.310  -0.721  70.159  1.00  0.00     0.293 HD
ENDBRANCH   8  41
BRANCH   7  43
ATOM     43  O   UNL     1      39.784  -2.920  72.226  1.00  0.00    -0.504 OA
ATOM     44  H   UNL     1      40.761  -2.701  72.080  1.00  0.00     0.293 HD
ENDBRANCH   7  43
TORSDOF 11
ENDMDL
MODEL 3
REMARK VINA RESULT:    -7.165      1.046      9.208
REMARK INTER + INTRA:         -11.762
REMARK INTER:                 -10.349
REMARK INTRA:                  -1.412
REMARK UNBOUND:                -1.246
REMARK SMILES Cc1cc2c(C(C)C)c(O)c(O)c(C=O)c2c(O)c1-c1c(C)cc2c(C(C)C)c(O)c(O)c(C=O)c2c1O
REMARK SMILES IDX 1 1 2 2 3 3 4 4 16 5 13 6 11 7 9 8 5 9 17 10 19 11 20 12
REMARK SMILES IDX 37 13 21 14 36 15 23 16 22 17 24 18 33 19 25 20 31 21 29 22
REMARK SMILES IDX 38 23 34 25 35 26 26 27 27 28 28 29 32 30 30 32 18 34 6 36
REMARK SMILES IDX 7 37 8 38 14 39 15 40 10 41 12 43
REMARK H PARENT 38 24 32 31 30 33 18 35 10 42 12 44
REMARK Flexibility Score: inf
ROOT
ATOM      1  C   UNL     1      29.142  15.779  78.397  1.00  0.00     0.045 C 
ATOM      2  C   UNL     1      28.198  14.619  78.599  1.00  0.00    -0.039 A 
ATOM      3  C   UNL     1      27.065  14.508  77.790  1.00  0.00     0.013 A 
ATOM      4  C   UNL     1      26.135  13.457  77.954  1.00  0.00    -0.006 A 
ATOM      5  C   UNL     1      26.277  12.591  79.078  1.00  0.00     0.039 A 
ATOM      6  C   UNL     1      25.213  11.699  79.399  1.00  0.00     0.072 A 
ATOM      7  C   UNL     1      24.081  11.626  78.562  1.00  0.00     0.169 A 
ATOM      8  C   UNL     1      24.003  12.403  77.402  1.00  0.00     0.162 A 
ATOM      9  C   UNL     1      25.055  13.273  77.039  1.00  0.00     0.008 A 
ATOM     10  C   UNL     1      27.488  12.635  79.828  1.00  0.00     0.132 A 
ATOM     11  C   UNL     1      28.435  13.655  79.593  1.00  0.00     0.031 A 
ENDROOT
BRANCH  11  12
ATOM     12  C   UNL     1      29.676  13.720  80.409  1.00  0.00     0.031 A 
ATOM     13  C   UNL     1      30.847  13.066  79.972  1.00  0.00     0.132 A 
ATOM     14  C   UNL     1      29.670  14.414  81.629  1.00  0.00    -0.039 A 
ATOM     15  C   UNL     1      32.055  13.166  80.727  1.00  0.00     0.039 A 
ATOM     16  C   UNL     1      30.824  14.434  82.415  1.00  0.00     0.013 A 
ATOM     17  C   UNL     1      28.420  15.097  82.130  1.00  0.00     0.045 C 
ATOM     18  C   UNL     1      32.035  13.854  81.978  1.00  0.00    -0.006 A 
ATOM     19  C   UNL     1      33.270  12.561  80.293  1.00  0.00     0.072 A 
ATOM     20  C   UNL     1      33.215  13.911  82.784  1.00  0.00     0.008 A 
ATOM     21  C   UNL     1      34.371  12.491  81.166  1.00  0.00     0.169 A 
ATOM     22  C   UNL     1      34.309  13.089  82.436  1.00  0.00     0.162 A 
BRANCH  13  23
ATOM     23  O   UNL     1      30.800  12.284  78.812  1.00  0.00    -0.507 OA
ATOM     24  H   UNL     1      30.296  12.544  77.974  1.00  0.00     0.293 HD
ENDBRANCH  13  23
BRANCH  19  25
ATOM     25  C   UNL     1      33.456  12.070  78.906  1.00  0.00     0.264 C 
ATOM     26  O   UNL     1      33.696  10.856  78.672  1.00  0.00    -0.298 OA
ENDBRANCH  19  25
BRANCH  20  27
ATOM     27  C   UNL     1      33.300  14.803  84.036  1.00  0.00     0.017 C 
ATOM     28  C   UNL     1      33.366  13.953  85.310  1.00  0.00     0.012 C 
ATOM     29  C   UNL     1      34.445  15.833  83.993  1.00  0.00     0.012 C 
ENDBRANCH  20  27
BRANCH  21  30
ATOM     30  O   UNL     1      35.541  11.863  80.726  1.00  0.00    -0.504 OA
ATOM     31  H   UNL     1      36.364  12.357  80.409  1.00  0.00     0.293 HD
ENDBRANCH  21  30
BRANCH  22  32
ATOM     32  O   UNL     1      35.321  12.869  83.374  1.00  0.00    -0.504 OA
ATOM     33  H   UNL     1      35.978  13.575  83.675  1.00  0.00     0.293 HD
ENDBRANCH  22  32
ENDBRANCH  11  12
BRANCH  10  34
ATOM     34  O   UNL     1      27.766  11.643  80.775  1.00  0.00    -0.507 OA
ATOM     35  H   UNL     1      27.591  11.746  81.767  1.00  0.00     0.293 HD
ENDBRANCH  10  34
BRANCH   9  36
ATOM     36  C   UNL     1      25.015  13.996  75.680  1.00  0.00     0.017 C 
ATOM     37  C   UNL     1      24.007  15.148  75.703  1.00  0.00     0.012 C 
ATOM     38  C   UNL     1      24.765  13.054  74.487  1.00  0.00     0.012 C 
ENDBRANCH   9  36
BRANCH   6  39
ATOM     39  C   UNL     1      25.189  10.920  80.655  1.00  0.00     0.264 C 
ATOM     40  O   UNL     1      25.357   9.672  80.637  1.00  0.00    -0.298 OA
ENDBRANCH   6  39
BRANCH   8  41
ATOM     41  O   UNL     1      22.855  12.332  76.609  1.00  0.00    -0.504 OA
ATOM     42  H   UNL     1      22.353  13.151  76.289  1.00  0.00     0.293 HD
ENDBRANCH   8  41
BRANCH   7  43
ATOM     43  O   UNL     1      22.997  10.795  78.870  1.00  0.00    -0.504 OA
ATOM     44  H   UNL     1      23.078   9.806  79.072  1.00  0.00     0.293 HD
ENDBRANCH   7  43
TORSDOF 11
ENDMDL
MODEL 4
REMARK VINA RESULT:    -7.164     14.341     17.204
REMARK INTER + INTRA:         -11.760
REMARK INTER:                 -11.021
REMARK INTRA:                  -0.739
REMARK UNBOUND:                -1.246
REMARK SMILES Cc1cc2c(C(C)C)c(O)c(O)c(C=O)c2c(O)c1-c1c(C)cc2c(C(C)C)c(O)c(O)c(C=O)c2c1O
REMARK SMILES IDX 1 1 2 2 3 3 4 4 16 5 13 6 11 7 9 8 5 9 17 10 19 11 20 12
REMARK SMILES IDX 37 13 21 14 36 15 23 16 22 17 24 18 33 19 25 20 31 21 29 22
REMARK SMILES IDX 38 23 34 25 35 26 26 27 27 28 28 29 32 30 30 32 18 34 6 36
REMARK SMILES IDX 7 37 8 38 14 39 15 40 10 41 12 43
REMARK H PARENT 38 24 32 31 30 33 18 35 10 42 12 44
REMARK Flexibility Score: inf
ROOT
ATOM      1  C   UNL     1      37.069  -0.922  78.673  1.00  0.00     0.045 C 
ATOM      2  C   UNL     1      35.625  -1.354  78.609  1.00  0.00    -0.039 A 
ATOM      3  C   UNL     1      34.963  -1.714  79.785  1.00  0.00     0.013 A 
ATOM      4  C   UNL     1      33.620  -2.150  79.779  1.00  0.00    -0.006 A 
ATOM      5  C   UNL     1      32.984  -2.381  78.523  1.00  0.00     0.039 A 
ATOM      6  C   UNL     1      31.732  -3.061  78.500  1.00  0.00     0.072 A 
ATOM      7  C   UNL     1      31.103  -3.417  79.710  1.00  0.00     0.169 A 
ATOM      8  C   UNL     1      31.686  -3.086  80.938  1.00  0.00     0.162 A 
ATOM      9  C   UNL     1      32.910  -2.385  80.995  1.00  0.00     0.008 A 
ATOM     10  C   UNL     1      33.617  -1.907  77.338  1.00  0.00     0.132 A 
ATOM     11  C   UNL     1      34.936  -1.408  77.385  1.00  0.00     0.031 A 
ENDROOT
BRANCH  11  12
ATOM     12  C   UNL     1      35.605  -0.954  76.137  1.00  0.00     0.031 A 
ATOM     13  C   UNL     1      36.532  -1.793  75.483  1.00  0.00     0.132 A 
ATOM     14  C   UNL     1      35.328   0.323  75.626  1.00  0.00    -0.039 A 
ATOM     15  C   UNL     1      37.140  -1.381  74.259  1.00  0.00     0.039 A 
ATOM     16  C   UNL     1      35.992   0.765  74.480  1.00  0.00     0.013 A 
ATOM     17  C   UNL     1      34.360   1.249  76.324  1.00  0.00     0.045 C 
ATOM     18  C   UNL     1      36.871  -0.071  73.757  1.00  0.00    -0.006 A 
ATOM     19  C   UNL     1      38.044  -2.220  73.543  1.00  0.00     0.072 A 
ATOM     20  C   UNL     1      37.518   0.389  72.568  1.00  0.00     0.008 A 
ATOM     21  C   UNL     1      38.788  -1.696  72.470  1.00  0.00     0.169 A 
ATOM     22  C   UNL     1      38.585  -0.373  72.044  1.00  0.00     0.162 A 
BRANCH  13  23
ATOM     23  O   UNL     1      36.881  -3.013  76.071  1.00  0.00    -0.507 OA
ATOM     24  H   UNL     1      36.230  -3.611  76.564  1.00  0.00     0.293 HD
ENDBRANCH  13  23
BRANCH  19  25
ATOM     25  C   UNL     1      38.171  -3.669  73.831  1.00  0.00     0.264 C 
ATOM     26  O   UNL     1      39.171  -4.124  74.446  1.00  0.00    -0.298 OA
ENDBRANCH  19  25
BRANCH  20  27
ATOM     27  C   UNL     1      37.114   1.707  71.882  1.00  0.00     0.017 C 
ATOM     28  C   UNL     1      35.918   1.493  70.948  1.00  0.00     0.012 C 
ATOM     29  C   UNL     1      36.858   2.868  72.861  1.00  0.00     0.012 C 
ENDBRANCH  20  27
BRANCH  21  30
ATOM     30  O   UNL     1      39.692  -2.534  71.806  1.00  0.00    -0.504 OA
ATOM     31  H   UNL     1      39.526  -2.935  70.894  1.00  0.00     0.293 HD
ENDBRANCH  21  30
BRANCH  22  32
ATOM     32  O   UNL     1      39.442   0.210  71.107  1.00  0.00    -0.504 OA
ATOM     33  H   UNL     1      39.131   0.675  70.266  1.00  0.00     0.293 HD
ENDBRANCH  22  32
ENDBRANCH  11  12
BRANCH  10  34
ATOM     34  O   UNL     1      32.920  -1.894  76.124  1.00  0.00    -0.507 OA
ATOM     35  H   UNL     1      31.920  -2.035  76.047  1.00  0.00     0.293 HD
ENDBRANCH  10  34
BRANCH   9  36
ATOM     36  C   UNL     1      33.448  -1.895  82.352  1.00  0.00     0.017 C 
ATOM     37  C   UNL     1      34.022  -0.481  82.235  1.00  0.00     0.012 C 
ATOM     38  C   UNL     1      34.459  -2.860  82.999  1.00  0.00     0.012 C 
ENDBRANCH   9  36
BRANCH   6  39
ATOM     39  C   UNL     1      31.108  -3.522  77.241  1.00  0.00     0.264 C 
ATOM     40  O   UNL     1      29.976  -3.094  76.895  1.00  0.00    -0.298 OA
ENDBRANCH   6  39
BRANCH   8  41
ATOM     41  O   UNL     1      31.054  -3.480  82.121  1.00  0.00    -0.504 OA
ATOM     42  H   UNL     1      31.540  -3.568  83.004  1.00  0.00     0.293 HD
ENDBRANCH   8  41
BRANCH   7  43
ATOM     43  O   UNL     1      29.895  -4.125  79.725  1.00  0.00    -0.504 OA
ATOM     44  H   UNL     1      29.062  -3.838  79.226  1.00  0.00     0.293 HD
ENDBRANCH   7  43
TORSDOF 11
ENDMDL
MODEL 5
REMARK VINA RESULT:    -6.861      1.609      1.897
REMARK INTER + INTRA:         -11.316
REMARK INTER:                 -10.050
REMARK INTRA:                  -1.266
REMARK UNBOUND:                -1.246
REMARK SMILES Cc1cc2c(C(C)C)c(O)c(O)c(C=O)c2c(O)c1-c1c(C)cc2c(C(C)C)c(O)c(O)c(C=O)c2c1O
REMARK SMILES IDX 1 1 2 2 3 3 4 4 16 5 13 6 11 7 9 8 5 9 17 10 19 11 20 12
REMARK SMILES IDX 37 13 21 14 36 15 23 16 22 17 24 18 33 19 25 20 31 21 29 22
REMARK SMILES IDX 38 23 34 25 35 26 26 27 27 28 28 29 32 30 30 32 18 34 6 36
REMARK SMILES IDX 7 37 8 38 14 39 15 40 10 41 12 43
REMARK H PARENT 38 24 32 31 30 33 18 35 10 42 12 44
REMARK Flexibility Score: inf
ROOT
ATOM      1  C   UNL     1      28.142  15.111  82.167  1.00  0.00     0.045 C 
ATOM      2  C   UNL     1      29.365  14.486  81.541  1.00  0.00    -0.039 A 
ATOM      3  C   UNL     1      30.568  14.473  82.250  1.00  0.00     0.013 A 
ATOM      4  C   UNL     1      31.749  13.925  81.702  1.00  0.00    -0.006 A 
ATOM      5  C   UNL     1      31.743  13.528  80.332  1.00  0.00     0.039 A 
ATOM      6  C   UNL     1      32.982  13.219  79.698  1.00  0.00     0.072 A 
ATOM      7  C   UNL     1      34.175  13.229  80.448  1.00  0.00     0.169 A 
ATOM      8  C   UNL     1      34.152  13.513  81.818  1.00  0.00     0.162 A 
ATOM      9  C   UNL     1      32.937  13.791  82.481  1.00  0.00     0.008 A 
ATOM     10  C   UNL     1      30.494  13.436  79.651  1.00  0.00     0.132 A 
ATOM     11  C   UNL     1      29.316  13.926  80.253  1.00  0.00     0.031 A 
ENDROOT
BRANCH  11  12
ATOM     12  C   UNL     1      28.024  13.865  79.520  1.00  0.00     0.031 A 
ATOM     13  C   UNL     1      27.184  12.740  79.653  1.00  0.00     0.132 A 
ATOM     14  C   UNL     1      27.656  14.923  78.674  1.00  0.00    -0.039 A 
ATOM     15  C   UNL     1      25.921  12.698  78.989  1.00  0.00     0.039 A 
ATOM     16  C   UNL     1      26.465  14.843  77.950  1.00  0.00     0.013 A 
ATOM     17  C   UNL     1      28.552  16.125  78.493  1.00  0.00     0.045 C 
ATOM     18  C   UNL     1      25.563  13.767  78.112  1.00  0.00    -0.006 A 
ATOM     19  C   UNL     1      25.024  11.601  79.139  1.00  0.00     0.072 A 
ATOM     20  C   UNL     1      24.333  13.718  77.385  1.00  0.00     0.008 A 
ATOM     21  C   UNL     1      23.899  11.494  78.300  1.00  0.00     0.169 A 
ATOM     22  C   UNL     1      23.608  12.506  77.370  1.00  0.00     0.162 A 
BRANCH  13  23
ATOM     23  O   UNL     1      27.623  11.648  80.409  1.00  0.00    -0.507 OA
ATOM     24  H   UNL     1      27.042  11.147  81.071  1.00  0.00     0.293 HD
ENDBRANCH  13  23
BRANCH  19  25
ATOM     25  C   UNL     1      25.180  10.595  80.217  1.00  0.00     0.264 C 
ATOM     26  O   UNL     1      25.550   9.419  79.961  1.00  0.00    -0.298 OA
ENDBRANCH  19  25
BRANCH  20  27
ATOM     27  C   UNL     1      23.813  14.927  76.586  1.00  0.00     0.017 C 
ATOM     28  C   UNL     1      23.817  14.632  75.082  1.00  0.00     0.012 C 
ATOM     29  C   UNL     1      22.436  15.436  77.051  1.00  0.00     0.012 C 
ENDBRANCH  20  27
BRANCH  21  30
ATOM     30  O   UNL     1      23.053  10.389  78.447  1.00  0.00    -0.504 OA
ATOM     31  H   UNL     1      22.699  10.061  79.335  1.00  0.00     0.293 HD
ENDBRANCH  21  30
BRANCH  22  32
ATOM     32  O   UNL     1      22.606  12.324  76.413  1.00  0.00    -0.504 OA
ATOM     33  H   UNL     1      22.183  13.074  75.885  1.00  0.00     0.293 HD
ENDBRANCH  22  32
ENDBRANCH  11  12
BRANCH  10  34
ATOM     34  O   UNL     1      30.421  12.821  78.395  1.00  0.00    -0.507 OA
ATOM     35  H   UNL     1      30.371  11.820  78.260  1.00  0.00     0.293 HD
ENDBRANCH  10  34
BRANCH   9  36
ATOM     36  C   UNL     1      32.920  13.944  84.013  1.00  0.00     0.017 C 
ATOM     37  C   UNL     1      33.423  15.328  84.431  1.00  0.00     0.012 C 
ATOM     38  C   UNL     1      33.675  12.824  84.753  1.00  0.00     0.012 C 
ENDBRANCH   9  36
BRANCH   6  39
ATOM     39  C   UNL     1      33.089  13.002  78.240  1.00  0.00     0.264 C 
ATOM     40  O   UNL     1      33.141  13.982  77.450  1.00  0.00    -0.298 OA
ENDBRANCH   6  39
BRANCH   8  41
ATOM     41  O   UNL     1      35.356  13.545  82.527  1.00  0.00    -0.504 OA
ATOM     42  H   UNL     1      36.102  12.878  82.380  1.00  0.00     0.293 HD
ENDBRANCH   8  41
BRANCH   7  43
ATOM     43  O   UNL     1      35.416  12.975  79.850  1.00  0.00    -0.504 OA
ATOM     44  H   UNL     1      36.031  13.695  79.493  1.00  0.00     0.293 HD
ENDBRANCH   7  43
TORSDOF 11
ENDMDL
MODEL 6
REMARK VINA RESULT:    -6.628      1.240      9.221
REMARK INTER + INTRA:         -10.974
REMARK INTER:                  -9.707
REMARK INTRA:                  -1.266
REMARK UNBOUND:                -1.246
REMARK SMILES Cc1cc2c(C(C)C)c(O)c(O)c(C=O)c2c(O)c1-c1c(C)cc2c(C(C)C)c(O)c(O)c(C=O)c2c1O
REMARK SMILES IDX 1 1 2 2 3 3 4 4 16 5 13 6 11 7 9 8 5 9 17 10 19 11 20 12
REMARK SMILES IDX 37 13 21 14 36 15 23 16 22 17 24 18 33 19 25 20 31 21 29 22
REMARK SMILES IDX 38 23 34 25 35 26 26 27 27 28 28 29 32 30 30 32 18 34 6 36
REMARK SMILES IDX 7 37 8 38 14 39 15 40 10 41 12 43
REMARK H PARENT 38 24 32 31 30 33 18 35 10 42 12 44
REMARK Flexibility Score: inf
ROOT
ATOM      1  C   UNL     1      30.696  15.613  78.104  1.00  0.00     0.045 C 
ATOM      2  C   UNL     1      29.589  14.758  78.670  1.00  0.00    -0.039 A 
ATOM      3  C   UNL     1      28.346  14.735  78.033  1.00  0.00     0.013 A 
ATOM      4  C   UNL     1      27.268  13.973  78.534  1.00  0.00    -0.006 A 
ATOM      5  C   UNL     1      27.410  13.348  79.808  1.00  0.00     0.039 A 
ATOM      6  C   UNL     1      26.256  12.798  80.440  1.00  0.00     0.072 A 
ATOM      7  C   UNL     1      25.018  12.806  79.767  1.00  0.00     0.169 A 
ATOM      8  C   UNL     1      24.915  13.324  78.471  1.00  0.00     0.162 A 
ATOM      9  C   UNL     1      26.046  13.846  77.807  1.00  0.00     0.008 A 
ATOM     10  C   UNL     1      28.707  13.277  80.396  1.00  0.00     0.132 A 
ATOM     11  C   UNL     1      29.785  13.992  79.831  1.00  0.00     0.031 A 
ENDROOT
BRANCH  11  12
ATOM     12  C   UNL     1      31.125  13.948  80.474  1.00  0.00     0.031 A 
ATOM     13  C   UNL     1      32.102  13.040  80.016  1.00  0.00     0.132 A 
ATOM     14  C   UNL     1      31.404  14.798  81.555  1.00  0.00    -0.039 A 
ATOM     15  C   UNL     1      33.406  13.027  80.597  1.00  0.00     0.039 A 
ATOM     16  C   UNL     1      32.647  14.722  82.186  1.00  0.00     0.013 A 
ATOM     17  C   UNL     1      30.364  15.759  82.080  1.00  0.00     0.045 C 
ATOM     18  C   UNL     1      33.676  13.879  81.712  1.00  0.00    -0.006 A 
ATOM     19  C   UNL     1      34.435  12.159  80.130  1.00  0.00     0.072 A 
ATOM     20  C   UNL     1      34.953  13.838  82.354  1.00  0.00     0.008 A 
ATOM     21  C   UNL     1      35.624  12.018  80.867  1.00  0.00     0.169 A 
ATOM     22  C   UNL     1      35.841  12.791  82.020  1.00  0.00     0.162 A 
BRANCH  13  23
ATOM     23  O   UNL     1      31.765  12.122  79.015  1.00  0.00    -0.507 OA
ATOM     24  H   UNL     1      32.159  12.131  78.083  1.00  0.00     0.293 HD
ENDBRANCH  13  23
BRANCH  19  25
ATOM     25  C   UNL     1      34.339  11.450  78.830  1.00  0.00     0.264 C 
ATOM     26  O   UNL     1      34.218  10.198  78.780  1.00  0.00    -0.298 OA
ENDBRANCH  19  25
BRANCH  20  27
ATOM     27  C   UNL     1      35.358  14.868  83.423  1.00  0.00     0.017 C 
ATOM     28  C   UNL     1      35.290  14.255  84.826  1.00  0.00     0.012 C 
ATOM     29  C   UNL     1      36.725  15.529  83.168  1.00  0.00     0.012 C 
ENDBRANCH  20  27
BRANCH  21  30
ATOM     30  O   UNL     1      36.604  11.134  80.402  1.00  0.00    -0.504 OA
ATOM     31  H   UNL     1      36.620  10.746  79.469  1.00  0.00     0.293 HD
ENDBRANCH  21  30
BRANCH  22  32
ATOM     32  O   UNL     1      36.929  12.529  82.856  1.00  0.00    -0.504 OA
ATOM     33  H   UNL     1      37.895  12.628  82.578  1.00  0.00     0.293 HD
ENDBRANCH  22  32
ENDBRANCH  11  12
BRANCH  10  34
ATOM     34  O   UNL     1      28.930  12.466  81.515  1.00  0.00    -0.507 OA
ATOM     35  H   UNL     1      28.386  11.641  81.730  1.00  0.00     0.293 HD
ENDBRANCH  10  34
BRANCH   9  36
ATOM     36  C   UNL     1      25.940  14.263  76.329  1.00  0.00     0.017 C 
ATOM     37  C   UNL     1      24.914  15.386  76.149  1.00  0.00     0.012 C 
ATOM     38  C   UNL     1      25.659  13.087  75.375  1.00  0.00     0.012 C 
ENDBRANCH   9  36
BRANCH   6  39
ATOM     39  C   UNL     1      26.275  12.321  81.839  1.00  0.00     0.264 C 
ATOM     40  O   UNL     1      26.175  13.136  82.793  1.00  0.00    -0.298 OA
ENDBRANCH   6  39
BRANCH   8  41
ATOM     41  O   UNL     1      23.667  13.346  77.843  1.00  0.00    -0.504 OA
ATOM     42  H   UNL     1      23.544  13.174  76.853  1.00  0.00     0.293 HD
ENDBRANCH   8  41
BRANCH   7  43
ATOM     43  O   UNL     1      23.854  12.316  80.373  1.00  0.00    -0.504 OA
ATOM     44  H   UNL     1      23.625  12.447  81.351  1.00  0.00     0.293 HD
ENDBRANCH   7  43
TORSDOF 11
ENDMDL
MODEL 7
REMARK VINA RESULT:    -6.620     14.533     17.387
REMARK INTER + INTRA:         -10.962
REMARK INTER:                  -9.808
REMARK INTRA:                  -1.154
REMARK UNBOUND:                -1.246
REMARK SMILES Cc1cc2c(C(C)C)c(O)c(O)c(C=O)c2c(O)c1-c1c(C)cc2c(C(C)C)c(O)c(O)c(C=O)c2c1O
REMARK SMILES IDX 1 1 2 2 3 3 4 4 16 5 13 6 11 7 9 8 5 9 17 10 19 11 20 12
REMARK SMILES IDX 37 13 21 14 36 15 23 16 22 17 24 18 33 19 25 20 31 21 29 22
REMARK SMILES IDX 38 23 34 25 35 26 26 27 27 28 28 29 32 30 30 32 18 34 6 36
REMARK SMILES IDX 7 37 8 38 14 39 15 40 10 41 12 43
REMARK H PARENT 38 24 32 31 30 33 18 35 10 42 12 44
REMARK Flexibility Score: inf
ROOT
ATOM      1  C   UNL     1      33.002  -1.537  75.110  1.00  0.00     0.045 C 
ATOM      2  C   UNL     1      33.442  -1.653  76.549  1.00  0.00    -0.039 A 
ATOM      3  C   UNL     1      32.478  -1.768  77.553  1.00  0.00     0.013 A 
ATOM      4  C   UNL     1      32.833  -1.854  78.918  1.00  0.00    -0.006 A 
ATOM      5  C   UNL     1      34.198  -1.652  79.280  1.00  0.00     0.039 A 
ATOM      6  C   UNL     1      34.527  -1.479  80.656  1.00  0.00     0.072 A 
ATOM      7  C   UNL     1      33.521  -1.591  81.638  1.00  0.00     0.169 A 
ATOM      8  C   UNL     1      32.205  -1.898  81.277  1.00  0.00     0.162 A 
ATOM      9  C   UNL     1      31.854  -2.107  79.925  1.00  0.00     0.008 A 
ATOM     10  C   UNL     1      35.186  -1.651  78.254  1.00  0.00     0.132 A 
ATOM     11  C   UNL     1      34.803  -1.639  76.896  1.00  0.00     0.031 A 
ENDROOT
BRANCH  11  12
ATOM     12  C   UNL     1      35.840  -1.594  75.831  1.00  0.00     0.031 A 
ATOM     13  C   UNL     1      36.229  -0.360  75.270  1.00  0.00     0.132 A 
ATOM     14  C   UNL     1      36.412  -2.790  75.369  1.00  0.00    -0.039 A 
ATOM     15  C   UNL     1      37.258  -0.308  74.282  1.00  0.00     0.039 A 
ATOM     16  C   UNL     1      37.351  -2.750  74.336  1.00  0.00     0.013 A 
ATOM     17  C   UNL     1      35.990  -4.125  75.934  1.00  0.00     0.045 C 
ATOM     18  C   UNL     1      37.819  -1.530  73.800  1.00  0.00    -0.006 A 
ATOM     19  C   UNL     1      37.713   0.924  73.727  1.00  0.00     0.072 A 
ATOM     20  C   UNL     1      38.804  -1.508  72.764  1.00  0.00     0.008 A 
ATOM     21  C   UNL     1      38.561   0.918  72.605  1.00  0.00     0.169 A 
ATOM     22  C   UNL     1      39.032  -0.295  72.077  1.00  0.00     0.162 A 
BRANCH  13  23
ATOM     23  O   UNL     1      35.565   0.807  75.662  1.00  0.00    -0.507 OA
ATOM     24  H   UNL     1      34.587   0.842  75.921  1.00  0.00     0.293 HD
ENDBRANCH  13  23
BRANCH  19  25
ATOM     25  C   UNL     1      37.394   2.233  74.346  1.00  0.00     0.264 C 
ATOM     26  O   UNL     1      36.662   3.071  73.756  1.00  0.00    -0.298 OA
ENDBRANCH  19  25
BRANCH  20  27
ATOM     27  C   UNL     1      39.579  -2.773  72.353  1.00  0.00     0.017 C 
ATOM     28  C   UNL     1      40.115  -3.511  73.584  1.00  0.00     0.012 C 
ATOM     29  C   UNL     1      38.783  -3.721  71.436  1.00  0.00     0.012 C 
ENDBRANCH  20  27
BRANCH  21  30
ATOM     30  O   UNL     1      38.966   2.143  72.061  1.00  0.00    -0.504 OA
ATOM     31  H   UNL     1      38.470   2.628  71.327  1.00  0.00     0.293 HD
ENDBRANCH  21  30
BRANCH  22  32
ATOM     32  O   UNL     1      39.721  -0.320  70.862  1.00  0.00    -0.504 OA
ATOM     33  H   UNL     1      40.724  -0.232  70.776  1.00  0.00     0.293 HD
ENDBRANCH  22  32
ENDBRANCH  11  12
BRANCH  10  34
ATOM     34  O   UNL     1      36.545  -1.702  78.585  1.00  0.00    -0.507 OA
ATOM     35  H   UNL     1      37.151  -0.892  78.608  1.00  0.00     0.293 HD
ENDBRANCH  10  34
BRANCH   9  36
ATOM     36  C   UNL     1      30.439  -2.598  79.570  1.00  0.00     0.017 C 
ATOM     37  C   UNL     1      29.397  -1.509  79.840  1.00  0.00     0.012 C 
ATOM     38  C   UNL     1      30.055  -3.923  80.255  1.00  0.00     0.012 C 
ENDBRANCH   9  36
BRANCH   6  39
ATOM     39  C   UNL     1      35.874  -1.062  81.098  1.00  0.00     0.264 C 
ATOM     40  O   UNL     1      36.430  -1.630  82.075  1.00  0.00    -0.298 OA
ENDBRANCH   6  39
BRANCH   8  41
ATOM     41  O   UNL     1      31.225  -1.972  82.270  1.00  0.00    -0.504 OA
ATOM     42  H   UNL     1      30.289  -1.607  82.150  1.00  0.00     0.293 HD
ENDBRANCH   8  41
BRANCH   7  43
ATOM     43  O   UNL     1      33.799  -1.382  82.995  1.00  0.00    -0.504 OA
ATOM     44  H   UNL     1      33.277  -1.805  83.753  1.00  0.00     0.293 HD
ENDBRANCH   7  43
TORSDOF 11
ENDMDL
MODEL 8
REMARK VINA RESULT:    -6.559     14.481     16.959
REMARK INTER + INTRA:         -10.872
REMARK INTER:                 -10.156
REMARK INTRA:                  -0.716
REMARK UNBOUND:                -1.246
REMARK SMILES Cc1cc2c(C(C)C)c(O)c(O)c(C=O)c2c(O)c1-c1c(C)cc2c(C(C)C)c(O)c(O)c(C=O)c2c1O
REMARK SMILES IDX 1 1 2 2 3 3 4 4 16 5 13 6 11 7 9 8 5 9 17 10 19 11 20 12
REMARK SMILES IDX 37 13 21 14 36 15 23 16 22 17 24 18 33 19 25 20 31 21 29 22
REMARK SMILES IDX 38 23 34 25 35 26 26 27 27 28 28 29 32 30 30 32 18 34 6 36
REMARK SMILES IDX 7 37 8 38 14 39 15 40 10 41 12 43
REMARK H PARENT 38 24 32 31 30 33 18 35 10 42 12 44
REMARK Flexibility Score: inf
ROOT
ATOM      1  C   UNL     1      34.113   1.049  76.062  1.00  0.00     0.045 C 
ATOM      2  C   UNL     1      35.276   0.207  75.599  1.00  0.00    -0.039 A 
ATOM      3  C   UNL     1      35.983   0.584  74.455  1.00  0.00     0.013 A 
ATOM      4  C   UNL     1      37.063  -0.181  73.962  1.00  0.00    -0.006 A 
ATOM      5  C   UNL     1      37.325  -1.451  74.556  1.00  0.00     0.039 A 
ATOM      6  C   UNL     1      38.233  -2.340  73.911  1.00  0.00     0.072 A 
ATOM      7  C   UNL     1      38.918  -1.924  72.752  1.00  0.00     0.169 A 
ATOM      8  C   UNL     1      38.735  -0.634  72.241  1.00  0.00     0.162 A 
ATOM      9  C   UNL     1      37.866   0.281  72.876  1.00  0.00     0.008 A 
ATOM     10  C   UNL     1      36.681  -1.778  75.785  1.00  0.00     0.132 A 
ATOM     11  C   UNL     1      35.653  -0.955  76.293  1.00  0.00     0.031 A 
ENDROOT
BRANCH  11  12
ATOM     12  C   UNL     1      34.958  -1.325  77.554  1.00  0.00     0.031 A 
ATOM     13  C   UNL     1      33.745  -2.044  77.511  1.00  0.00     0.132 A 
ATOM     14  C   UNL     1      35.502  -0.934  78.787  1.00  0.00    -0.039 A 
ATOM     15  C   UNL     1      33.099  -2.443  78.720  1.00  0.00     0.039 A 
ATOM     16  C   UNL     1      34.823  -1.242  79.967  1.00  0.00     0.013 A 
ATOM     17  C   UNL     1      36.785  -0.139  78.856  1.00  0.00     0.045 C 
ATOM     18  C   UNL     1      33.646  -2.022  79.970  1.00  0.00    -0.006 A 
ATOM     19  C   UNL     1      31.899  -3.213  78.717  1.00  0.00     0.072 A 
ATOM     20  C   UNL     1      32.982  -2.354  81.192  1.00  0.00     0.008 A 
ATOM     21  C   UNL     1      31.178  -3.393  79.912  1.00  0.00     0.169 A 
ATOM     22  C   UNL     1      31.677  -2.890  81.125  1.00  0.00     0.162 A 
BRANCH  13  23
ATOM     23  O   UNL     1      33.161  -2.323  76.271  1.00  0.00    -0.507 OA
ATOM     24  H   UNL     1      32.803  -3.232  76.005  1.00  0.00     0.293 HD
ENDBRANCH  13  23
BRANCH  19  25
ATOM     25  C   UNL     1      31.415  -3.916  77.505  1.00  0.00     0.264 C 
ATOM     26  O   UNL     1      30.184  -4.027  77.265  1.00  0.00    -0.298 OA
ENDBRANCH  19  25
BRANCH  20  27
ATOM     27  C   UNL     1      33.630  -2.096  82.564  1.00  0.00     0.017 C 
ATOM     28  C   UNL     1      34.544  -3.260  82.965  1.00  0.00     0.012 C 
ATOM     29  C   UNL     1      34.368  -0.748  82.663  1.00  0.00     0.012 C 
ENDBRANCH  20  27
BRANCH  21  30
ATOM     30  O   UNL     1      29.986  -4.125  79.875  1.00  0.00    -0.504 OA
ATOM     31  H   UNL     1      29.907  -5.092  80.158  1.00  0.00     0.293 HD
ENDBRANCH  21  30
BRANCH  22  32
ATOM     32  O   UNL     1      30.887  -2.902  82.277  1.00  0.00    -0.504 OA
ATOM     33  H   UNL     1      31.194  -2.568  83.180  1.00  0.00     0.293 HD
ENDBRANCH  22  32
ENDBRANCH  11  12
BRANCH  10  34
ATOM     34  O   UNL     1      37.093  -2.896  76.520  1.00  0.00    -0.507 OA
ATOM     35  H   UNL     1      37.661  -2.844  77.355  1.00  0.00     0.293 HD
ENDBRANCH  10  34
BRANCH   9  36
ATOM     36  C   UNL     1      37.803   1.739  72.388  1.00  0.00     0.017 C 
ATOM     37  C   UNL     1      37.788   2.712  73.571  1.00  0.00     0.012 C 
ATOM     38  C   UNL     1      36.640   2.016  71.418  1.00  0.00     0.012 C 
ENDBRANCH   9  36
BRANCH   6  39
ATOM     39  C   UNL     1      38.403  -3.744  74.342  1.00  0.00     0.264 C 
ATOM     40  O   UNL     1      39.456  -4.110  74.928  1.00  0.00    -0.298 OA
ENDBRANCH   6  39
BRANCH   8  41
ATOM     41  O   UNL     1      39.404  -0.262  71.073  1.00  0.00    -0.504 OA
ATOM     42  H   UNL     1      39.118  -0.568  70.151  1.00  0.00     0.293 HD
ENDBRANCH   8  41
BRANCH   7  43
ATOM     43  O   UNL     1      39.783  -2.785  72.065  1.00  0.00    -0.504 OA
ATOM     44  H   UNL     1      39.750  -3.795  72.132  1.00  0.00     0.293 HD
ENDBRANCH   7  43
TORSDOF 11
ENDMDL
MODEL 9
REMARK VINA RESULT:    -6.522     14.630     17.489
REMARK INTER + INTRA:         -10.818
REMARK INTER:                 -10.009
REMARK INTRA:                  -0.809
REMARK UNBOUND:                -1.246
REMARK SMILES Cc1cc2c(C(C)C)c(O)c(O)c(C=O)c2c(O)c1-c1c(C)cc2c(C(C)C)c(O)c(O)c(C=O)c2c1O
REMARK SMILES IDX 1 1 2 2 3 3 4 4 16 5 13 6 11 7 9 8 5 9 17 10 19 11 20 12
REMARK SMILES IDX 37 13 21 14 36 15 23 16 22 17 24 18 33 19 25 20 31 21 29 22
REMARK SMILES IDX 38 23 34 25 35 26 26 27 27 28 28 29 32 30 30 32 18 34 6 36
REMARK SMILES IDX 7 37 8 38 14 39 15 40 10 41 12 43
REMARK H PARENT 38 24 32 31 30 33 18 35 10 42 12 44
REMARK Flexibility Score: inf
ROOT
ATOM      1  C   UNL     1      32.991  -0.671  75.883  1.00  0.00     0.045 C 
ATOM      2  C   UNL     1      33.483  -1.213  77.202  1.00  0.00    -0.039 A 
ATOM      3  C   UNL     1      32.565  -1.476  78.221  1.00  0.00     0.013 A 
ATOM      4  C   UNL     1      32.973  -1.960  79.484  1.00  0.00    -0.006 A 
ATOM      5  C   UNL     1      34.369  -2.022  79.770  1.00  0.00     0.039 A 
ATOM      6  C   UNL     1      34.788  -2.258  81.112  1.00  0.00     0.072 A 
ATOM      7  C   UNL     1      33.828  -2.507  82.113  1.00  0.00     0.169 A 
ATOM      8  C   UNL     1      32.466  -2.552  81.797  1.00  0.00     0.162 A 
ATOM      9  C   UNL     1      32.021  -2.354  80.472  1.00  0.00     0.008 A 
ATOM     10  C   UNL     1      35.296  -1.865  78.698  1.00  0.00     0.132 A 
ATOM     11  C   UNL     1      34.849  -1.450  77.425  1.00  0.00     0.031 A 
ENDROOT
BRANCH  11  12
ATOM     12  C   UNL     1      35.827  -1.248  76.324  1.00  0.00     0.031 A 
ATOM     13  C   UNL     1      36.010  -2.247  75.344  1.00  0.00     0.132 A 
ATOM     14  C   UNL     1      36.586  -0.068  76.277  1.00  0.00    -0.039 A 
ATOM     15  C   UNL     1      36.912  -2.037  74.258  1.00  0.00     0.039 A 
ATOM     16  C   UNL     1      37.536   0.099  75.268  1.00  0.00     0.013 A 
ATOM     17  C   UNL     1      36.427   1.002  77.330  1.00  0.00     0.045 C 
ATOM     18  C   UNL     1      37.697  -0.845  74.229  1.00  0.00    -0.006 A 
ATOM     19  C   UNL     1      37.087  -3.002  73.223  1.00  0.00     0.072 A 
ATOM     20  C   UNL     1      38.655  -0.641  73.187  1.00  0.00     0.008 A 
ATOM     21  C   UNL     1      38.139  -2.858  72.300  1.00  0.00     0.169 A 
ATOM     22  C   UNL     1      38.970  -1.726  72.340  1.00  0.00     0.162 A 
BRANCH  13  23
ATOM     23  O   UNL     1      35.329  -3.463  75.474  1.00  0.00    -0.507 OA
ATOM     24  H   UNL     1      34.397  -3.630  75.118  1.00  0.00     0.293 HD
ENDBRANCH  13  23
BRANCH  19  25
ATOM     25  C   UNL     1      36.138  -4.123  73.021  1.00  0.00     0.264 C 
ATOM     26  O   UNL     1      35.022  -3.940  72.468  1.00  0.00    -0.298 OA
ENDBRANCH  19  25
BRANCH  20  27
ATOM     27  C   UNL     1      39.378   0.705  73.001  1.00  0.00     0.017 C 
ATOM     28  C   UNL     1      38.426   1.765  72.435  1.00  0.00     0.012 C 
ATOM     29  C   UNL     1      40.088   1.214  74.270  1.00  0.00     0.012 C 
ENDBRANCH  20  27
BRANCH  21  30
ATOM     30  O   UNL     1      38.308  -3.837  71.315  1.00  0.00    -0.504 OA
ATOM     31  H   UNL     1      38.562  -3.638  70.357  1.00  0.00     0.293 HD
ENDBRANCH  21  30
BRANCH  22  32
ATOM     32  O   UNL     1      40.122  -1.663  71.553  1.00  0.00    -0.504 OA
ATOM     33  H   UNL     1      41.006  -1.289  71.870  1.00  0.00     0.293 HD
ENDBRANCH  22  32
ENDBRANCH  11  12
BRANCH  10  34
ATOM     34  O   UNL     1      36.650  -2.161  78.890  1.00  0.00    -0.507 OA
ATOM     35  H   UNL     1      37.108  -2.149  79.793  1.00  0.00     0.293 HD
ENDBRANCH  10  34
BRANCH   9  36
ATOM     36  C   UNL     1      30.536  -2.565  80.124  1.00  0.00     0.017 C 
ATOM     37  C   UNL     1      30.385  -3.455  78.888  1.00  0.00     0.012 C 
ATOM     38  C   UNL     1      29.746  -1.251  79.970  1.00  0.00     0.012 C 
ENDBRANCH   9  36
BRANCH   6  39
ATOM     39  C   UNL     1      36.200  -2.133  81.531  1.00  0.00     0.264 C 
ATOM     40  O   UNL     1      36.679  -2.907  82.402  1.00  0.00    -0.298 OA
ENDBRANCH   6  39
BRANCH   8  41
ATOM     41  O   UNL     1      31.536  -2.770  82.817  1.00  0.00    -0.504 OA
ATOM     42  H   UNL     1      30.554  -2.542  82.728  1.00  0.00     0.293 HD
ENDBRANCH   8  41
BRANCH   7  43
ATOM     43  O   UNL     1      34.199  -2.698  83.450  1.00  0.00    -0.504 OA
ATOM     44  H   UNL     1      33.543  -2.864  84.203  1.00  0.00     0.293 HD
ENDBRANCH   7  43
TORSDOF 11
ENDMDL
