MODEL 1
REMARK VINA RESULT:    -5.632      0.000      0.000
REMARK INTER + INTRA:          -7.008
REMARK INTER:                  -6.620
REMARK INTRA:                  -0.388
REMARK UNBOUND:                -0.388
REMARK SMILES CCCC[C@H]1OC(=O)C2=C1CCC=C2
REMARK SMILES IDX 3 1 2 2 1 3 4 4 5 5 10 6 6 7 9 8 11 9 7 10 14 11 12 12 8 13
REMARK SMILES IDX 13 14
REMARK H PARENT
REMARK Flexibility Score: inf
ROOT
ATOM      1  C   UNL     1     132.986   5.985  93.955  1.00  0.00     0.004 C 
ENDROOT
BRANCH   1   2
ATOM      2  C   UNL     1     133.696   6.795  95.050  1.00  0.00    -0.003 C 
ATOM      3  C   UNL     1     135.213   6.703  94.906  1.00  0.00     0.004 C 
ENDBRANCH   1   2
BRANCH   1   4
ATOM      4  C   UNL     1     133.809   4.773  93.488  1.00  0.00     0.050 C 
BRANCH   4   5
ATOM      5  C   UNL     1     133.563   3.515  94.335  1.00  0.00     0.204 C 
ATOM      6  C   UNL     1     134.840   2.738  94.547  1.00  0.00    -0.015 C 
ATOM      7  O   UNL     1     132.732   2.585  93.632  1.00  0.00    -0.454 OA
ATOM      8  C   UNL     1     134.728   1.512  94.061  1.00  0.00     0.062 C 
ATOM      9  C   UNL     1     135.995   3.123  95.431  1.00  0.00     0.040 C 
ATOM     10  C   UNL     1     133.417   1.392  93.476  1.00  0.00     0.338 C 
ATOM     11  C   UNL     1     135.760   0.485  94.246  1.00  0.00     0.011 C 
ATOM     12  C   UNL     1     137.252   2.287  95.093  1.00  0.00     0.032 C 
ATOM     13  O   UNL     1     132.945   0.369  92.917  1.00  0.00    -0.246 OA
ATOM     14  C   UNL     1     136.929   0.835  94.799  1.00  0.00    -0.026 C 
ENDBRANCH   4   5
ENDBRANCH   1   4
TORSDOF 3
ENDMDL
MODEL 2
REMARK VINA RESULT:    -5.530      1.992      3.250
REMARK INTER + INTRA:          -6.888
REMARK INTER:                  -6.469
REMARK INTRA:                  -0.419
REMARK UNBOUND:                -0.388
REMARK SMILES CCCC[C@H]1OC(=O)C2=C1CCC=C2
REMARK SMILES IDX 3 1 2 2 1 3 4 4 5 5 10 6 6 7 9 8 11 9 7 10 14 11 12 12 8 13
REMARK SMILES IDX 13 14
REMARK H PARENT
REMARK Flexibility Score: inf
ROOT
ATOM      1  C   UNL     1     136.222   5.225  95.734  1.00  0.00     0.004 C 
ENDROOT
BRANCH   1   2
ATOM      2  C   UNL     1     135.560   5.940  94.549  1.00  0.00    -0.003 C 
ATOM      3  C   UNL     1     134.217   6.544  94.951  1.00  0.00     0.004 C 
ENDBRANCH   1   2
BRANCH   1   4
ATOM      4  C   UNL     1     135.694   3.795  95.933  1.00  0.00     0.050 C 
BRANCH   4   5
ATOM      5  C   UNL     1     135.961   2.880  94.728  1.00  0.00     0.204 C 
ATOM      6  C   UNL     1     134.714   2.136  94.317  1.00  0.00    -0.015 C 
ATOM      7  O   UNL     1     136.864   1.828  95.080  1.00  0.00    -0.454 OA
ATOM      8  C   UNL     1     134.904   0.829  94.389  1.00  0.00     0.062 C 
ATOM      9  C   UNL     1     133.504   2.710  93.629  1.00  0.00     0.040 C 
ATOM     10  C   UNL     1     136.243   0.608  94.872  1.00  0.00     0.338 C 
ATOM     11  C   UNL     1     133.913  -0.147  93.919  1.00  0.00     0.011 C 
ATOM     12  C   UNL     1     132.304   1.739  93.721  1.00  0.00     0.032 C 
ATOM     13  O   UNL     1     136.786  -0.509  95.069  1.00  0.00    -0.246 OA
ATOM     14  C   UNL     1     132.707   0.289  93.535  1.00  0.00    -0.026 C 
ENDBRANCH   4   5
ENDBRANCH   1   4
TORSDOF 3
ENDMDL
MODEL 3
REMARK VINA RESULT:    -5.530      1.365      4.372
REMARK INTER + INTRA:          -6.887
REMARK INTER:                  -6.423
REMARK INTRA:                  -0.465
REMARK UNBOUND:                -0.388
REMARK SMILES CCCC[C@H]1OC(=O)C2=C1CCC=C2
REMARK SMILES IDX 3 1 2 2 1 3 4 4 5 5 10 6 6 7 9 8 11 9 7 10 14 11 12 12 8 13
REMARK SMILES IDX 13 14
REMARK H PARENT
REMARK Flexibility Score: inf
ROOT
ATOM      1  C   UNL     1     134.118  -0.152  94.731  1.00  0.00     0.004 C 
ENDROOT
BRANCH   1   2
ATOM      2  C   UNL     1     135.254  -0.418  95.730  1.00  0.00    -0.003 C 
ATOM      3  C   UNL     1     136.613  -0.390  95.037  1.00  0.00     0.004 C 
ENDBRANCH   1   2
BRANCH   1   4
ATOM      4  C   UNL     1     133.511   1.252  94.885  1.00  0.00     0.050 C 
BRANCH   4   5
ATOM      5  C   UNL     1     133.992   2.238  93.809  1.00  0.00     0.204 C 
ATOM      6  C   UNL     1     134.770   3.379  94.418  1.00  0.00    -0.015 C 
ATOM      7  O   UNL     1     132.881   2.897  93.193  1.00  0.00    -0.454 OA
ATOM      8  C   UNL     1     134.193   4.537  94.145  1.00  0.00     0.062 C 
ATOM      9  C   UNL     1     136.157   3.317  95.000  1.00  0.00     0.040 C 
ATOM     10  C   UNL     1     133.002   4.263  93.383  1.00  0.00     0.338 C 
ATOM     11  C   UNL     1     134.799   5.829  94.489  1.00  0.00     0.011 C 
ATOM     12  C   UNL     1     136.452   4.571  95.856  1.00  0.00     0.032 C 
ATOM     13  O   UNL     1     132.192   5.117  92.939  1.00  0.00    -0.246 OA
ATOM     14  C   UNL     1     135.908   5.844  95.240  1.00  0.00    -0.026 C 
ENDBRANCH   4   5
ENDBRANCH   1   4
TORSDOF 3
ENDMDL
MODEL 4
REMARK VINA RESULT:    -5.403      2.268      5.254
REMARK INTER + INTRA:          -6.738
REMARK INTER:                  -6.284
REMARK INTRA:                  -0.454
REMARK UNBOUND:                -0.388
REMARK SMILES CCCC[C@H]1OC(=O)C2=C1CCC=C2
REMARK SMILES IDX 3 1 2 2 1 3 4 4 5 5 10 6 6 7 9 8 11 9 7 10 14 11 12 12 8 13
REMARK SMILES IDX 13 14
REMARK H PARENT
REMARK Flexibility Score: inf
ROOT
ATOM      1  C   UNL     1     136.351  -0.099  94.978  1.00  0.00     0.004 C 
ENDROOT
BRANCH   1   2
ATOM      2  C   UNL     1     135.252  -0.244  96.040  1.00  0.00    -0.003 C 
ATOM      3  C   UNL     1     134.140  -1.173  95.559  1.00  0.00     0.004 C 
ENDBRANCH   1   2
BRANCH   1   4
ATOM      4  C   UNL     1     136.620   1.367  94.601  1.00  0.00     0.050 C 
BRANCH   4   5
ATOM      5  C   UNL     1     135.797   2.364  95.432  1.00  0.00     0.204 C 
ATOM      6  C   UNL     1     134.710   3.003  94.602  1.00  0.00    -0.015 C 
ATOM      7  O   UNL     1     136.600   3.480  95.826  1.00  0.00    -0.454 OA
ATOM      8  C   UNL     1     134.859   4.317  94.568  1.00  0.00     0.062 C 
ATOM      9  C   UNL     1     133.446   2.349  94.111  1.00  0.00     0.040 C 
ATOM     10  C   UNL     1     136.042   4.642  95.323  1.00  0.00     0.338 C 
ATOM     11  C   UNL     1     133.873   5.214  93.953  1.00  0.00     0.011 C 
ATOM     12  C   UNL     1     132.786   3.192  92.995  1.00  0.00     0.032 C 
ATOM     13  O   UNL     1     136.504   5.796  95.517  1.00  0.00    -0.246 OA
ATOM     14  C   UNL     1     132.853   4.682  93.268  1.00  0.00    -0.026 C 
ENDBRANCH   4   5
ENDBRANCH   1   4
TORSDOF 3
ENDMDL
MODEL 5
REMARK VINA RESULT:    -5.310      1.224      4.679
REMARK INTER + INTRA:          -6.629
REMARK INTER:                  -6.345
REMARK INTRA:                  -0.284
REMARK UNBOUND:                -0.388
REMARK SMILES CCCC[C@H]1OC(=O)C2=C1CCC=C2
REMARK SMILES IDX 3 1 2 2 1 3 4 4 5 5 10 6 6 7 9 8 11 9 7 10 14 11 12 12 8 13
REMARK SMILES IDX 13 14
REMARK H PARENT
REMARK Flexibility Score: inf
ROOT
ATOM      1  C   UNL     1     136.540   2.640  95.371  1.00  0.00     0.004 C 
ENDROOT
BRANCH   1   2
ATOM      2  C   UNL     1     137.131   1.459  94.588  1.00  0.00    -0.003 C 
ATOM      3  C   UNL     1     136.327   0.184  94.826  1.00  0.00     0.004 C 
ENDBRANCH   1   2
BRANCH   1   4
ATOM      4  C   UNL     1     135.007   2.704  95.278  1.00  0.00     0.050 C 
BRANCH   4   5
ATOM      5  C   UNL     1     134.508   3.317  93.960  1.00  0.00     0.204 C 
ATOM      6  C   UNL     1     133.901   4.681  94.185  1.00  0.00    -0.015 C 
ATOM      7  O   UNL     1     133.415   2.560  93.431  1.00  0.00    -0.454 OA
ATOM      8  C   UNL     1     132.637   4.700  93.793  1.00  0.00     0.062 C 
ATOM      9  C   UNL     1     134.634   5.953  94.514  1.00  0.00     0.040 C 
ATOM     10  C   UNL     1     132.305   3.381  93.322  1.00  0.00     0.338 C 
ATOM     11  C   UNL     1     131.832   5.927  93.762  1.00  0.00     0.011 C 
ATOM     12  C   UNL     1     133.659   7.033  95.039  1.00  0.00     0.032 C 
ATOM     13  O   UNL     1     131.191   3.013  92.867  1.00  0.00    -0.246 OA
ATOM     14  C   UNL     1     132.342   7.049  94.287  1.00  0.00    -0.026 C 
ENDBRANCH   4   5
ENDBRANCH   1   4
TORSDOF 3
ENDMDL
MODEL 6
REMARK VINA RESULT:    -5.185      2.124      4.384
REMARK INTER + INTRA:          -6.482
REMARK INTER:                  -6.313
REMARK INTRA:                  -0.169
REMARK UNBOUND:                -0.388
REMARK SMILES CCCC[C@H]1OC(=O)C2=C1CCC=C2
REMARK SMILES IDX 3 1 2 2 1 3 4 4 5 5 10 6 6 7 9 8 11 9 7 10 14 11 12 12 8 13
REMARK SMILES IDX 13 14
REMARK H PARENT
REMARK Flexibility Score: inf
ROOT
ATOM      1  C   UNL     1     132.145  -0.180  92.562  1.00  0.00     0.004 C 
ENDROOT
BRANCH   1   2
ATOM      2  C   UNL     1     131.385   0.060  91.249  1.00  0.00    -0.003 C 
ATOM      3  C   UNL     1     132.330   0.520  90.142  1.00  0.00     0.004 C 
ENDBRANCH   1   2
BRANCH   1   4
ATOM      4  C   UNL     1     133.113   0.963  92.902  1.00  0.00     0.050 C 
BRANCH   4   5
ATOM      5  C   UNL     1     133.681   0.868  94.327  1.00  0.00     0.204 C 
ATOM      6  C   UNL     1     134.589   2.035  94.635  1.00  0.00    -0.015 C 
ATOM      7  O   UNL     1     134.552  -0.260  94.452  1.00  0.00    -0.454 OA
ATOM      8  C   UNL     1     135.806   1.613  94.935  1.00  0.00     0.062 C 
ATOM      9  C   UNL     1     134.175   3.461  94.880  1.00  0.00     0.040 C 
ATOM     10  C   UNL     1     135.812   0.178  94.821  1.00  0.00     0.338 C 
ATOM     11  C   UNL     1     136.865   2.512  95.412  1.00  0.00     0.011 C 
ATOM     12  C   UNL     1     135.390   4.413  94.780  1.00  0.00     0.032 C 
ATOM     13  O   UNL     1     136.794  -0.579  95.033  1.00  0.00    -0.246 OA
ATOM     14  C   UNL     1     136.644   3.833  95.405  1.00  0.00    -0.026 C 
ENDBRANCH   4   5
ENDBRANCH   1   4
TORSDOF 3
ENDMDL
MODEL 7
REMARK VINA RESULT:    -5.178      1.803      4.121
REMARK INTER + INTRA:          -6.474
REMARK INTER:                  -5.999
REMARK INTRA:                  -0.474
REMARK UNBOUND:                -0.388
REMARK SMILES CCCC[C@H]1OC(=O)C2=C1CCC=C2
REMARK SMILES IDX 3 1 2 2 1 3 4 4 5 5 10 6 6 7 9 8 11 9 7 10 14 11 12 12 8 13
REMARK SMILES IDX 13 14
REMARK H PARENT
REMARK Flexibility Score: inf
ROOT
ATOM      1  C   UNL     1     131.186   1.582  93.088  1.00  0.00     0.004 C 
ENDROOT
BRANCH   1   2
ATOM      2  C   UNL     1     132.060   0.615  92.277  1.00  0.00    -0.003 C 
ATOM      3  C   UNL     1     132.337  -0.665  93.061  1.00  0.00     0.004 C 
ENDBRANCH   1   2
BRANCH   1   4
ATOM      4  C   UNL     1     131.983   2.342  94.161  1.00  0.00     0.050 C 
BRANCH   4   5
ATOM      5  C   UNL     1     133.115   3.201  93.576  1.00  0.00     0.204 C 
ATOM      6  C   UNL     1     134.446   2.852  94.196  1.00  0.00    -0.015 C 
ATOM      7  O   UNL     1     132.944   4.576  93.932  1.00  0.00    -0.454 OA
ATOM      8  C   UNL     1     134.976   3.908  94.791  1.00  0.00     0.062 C 
ATOM      9  C   UNL     1     135.253   1.604  93.959  1.00  0.00     0.040 C 
ATOM     10  C   UNL     1     134.051   5.002  94.646  1.00  0.00     0.338 C 
ATOM     11  C   UNL     1     136.329   3.905  95.361  1.00  0.00     0.011 C 
ATOM     12  C   UNL     1     136.344   1.437  95.043  1.00  0.00     0.032 C 
ATOM     13  O   UNL     1     134.210   6.171  95.081  1.00  0.00    -0.246 OA
ATOM     14  C   UNL     1     137.005   2.750  95.417  1.00  0.00    -0.026 C 
ENDBRANCH   4   5
ENDBRANCH   1   4
TORSDOF 3
ENDMDL
MODEL 8
REMARK VINA RESULT:    -5.102      1.753      3.546
REMARK INTER + INTRA:          -6.384
REMARK INTER:                  -5.920
REMARK INTRA:                  -0.464
REMARK UNBOUND:                -0.388
REMARK SMILES CCCC[C@H]1OC(=O)C2=C1CCC=C2
REMARK SMILES IDX 3 1 2 2 1 3 4 4 5 5 10 6 6 7 9 8 11 9 7 10 14 11 12 12 8 13
REMARK SMILES IDX 13 14
REMARK H PARENT
REMARK Flexibility Score: inf
ROOT
ATOM      1  C   UNL     1     136.472   3.577  95.500  1.00  0.00     0.004 C 
ENDROOT
BRANCH   1   2
ATOM      2  C   UNL     1     135.752   4.829  96.022  1.00  0.00    -0.003 C 
ATOM      3  C   UNL     1     135.785   5.954  94.991  1.00  0.00     0.004 C 
ENDBRANCH   1   2
BRANCH   1   4
ATOM      4  C   UNL     1     135.656   2.292  95.713  1.00  0.00     0.050 C 
BRANCH   4   5
ATOM      5  C   UNL     1     135.217   1.632  94.397  1.00  0.00     0.204 C 
ATOM      6  C   UNL     1     133.829   2.072  93.998  1.00  0.00    -0.015 C 
ATOM      7  O   UNL     1     135.071   0.218  94.563  1.00  0.00    -0.454 OA
ATOM      8  C   UNL     1     133.015   1.033  93.911  1.00  0.00     0.062 C 
ATOM      9  C   UNL     1     133.427   3.423  93.470  1.00  0.00     0.040 C 
ATOM     10  C   UNL     1     133.768  -0.142  94.267  1.00  0.00     0.338 C 
ATOM     11  C   UNL     1     131.640   1.139  93.409  1.00  0.00     0.011 C 
ATOM     12  C   UNL     1     131.894   3.610  93.541  1.00  0.00     0.032 C 
ATOM     13  O   UNL     1     133.331  -1.321  94.298  1.00  0.00    -0.246 OA
ATOM     14  C   UNL     1     131.131   2.354  93.166  1.00  0.00    -0.026 C 
ENDBRANCH   4   5
ENDBRANCH   1   4
TORSDOF 3
ENDMDL
MODEL 9
REMARK VINA RESULT:    -5.098      2.184      3.329
REMARK INTER + INTRA:          -6.380
REMARK INTER:                  -6.086
REMARK INTRA:                  -0.294
REMARK UNBOUND:                -0.388
REMARK SMILES CCCC[C@H]1OC(=O)C2=C1CCC=C2
REMARK SMILES IDX 3 1 2 2 1 3 4 4 5 5 10 6 6 7 9 8 11 9 7 10 14 11 12 12 8 13
REMARK SMILES IDX 13 14
REMARK H PARENT
REMARK Flexibility Score: inf
ROOT
ATOM      1  C   UNL     1     131.459   5.863  93.244  1.00  0.00     0.004 C 
ENDROOT
BRANCH   1   2
ATOM      2  C   UNL     1     131.116   6.994  94.223  1.00  0.00    -0.003 C 
ATOM      3  C   UNL     1     131.449   6.599  95.660  1.00  0.00     0.004 C 
ENDBRANCH   1   2
BRANCH   1   4
ATOM      4  C   UNL     1     132.313   4.760  93.889  1.00  0.00     0.050 C 
BRANCH   4   5
ATOM      5  C   UNL     1     133.778   4.784  93.426  1.00  0.00     0.204 C 
ATOM      6  C   UNL     1     134.584   3.698  94.098  1.00  0.00    -0.015 C 
ATOM      7  O   UNL     1     134.428   5.982  93.858  1.00  0.00    -0.454 OA
ATOM      8  C   UNL     1     135.585   4.218  94.788  1.00  0.00     0.062 C 
ATOM      9  C   UNL     1     134.508   2.219  93.829  1.00  0.00     0.040 C 
ATOM     10  C   UNL     1     135.507   5.650  94.661  1.00  0.00     0.338 C 
ATOM     11  C   UNL     1     136.618   3.398  95.433  1.00  0.00     0.011 C 
ATOM     12  C   UNL     1     135.191   1.416  94.960  1.00  0.00     0.032 C 
ATOM     13  O   UNL     1     136.292   6.485  95.178  1.00  0.00    -0.246 OA
ATOM     14  C   UNL     1     136.468   2.067  95.454  1.00  0.00    -0.026 C 
ENDBRANCH   4   5
ENDBRANCH   1   4
TORSDOF 3
ENDMDL
