MODEL 1
REMARK VINA RESULT:    -5.655      0.000      0.000
REMARK INTER + INTRA:         -11.940
REMARK INTER:                 -10.284
REMARK INTRA:                  -1.656
REMARK UNBOUND:                -1.656
REMARK SMILES CCCCCCCCCCCCCC[C@H](C)C(=O)[O-]
REMARK SMILES IDX 9 1 10 2 11 3 12 4 13 5 14 6 15 7 16 8 17 9 18 10 19 11 8 12
REMARK SMILES IDX 7 13 6 14 5 15 4 16 3 17 2 18 1 19
REMARK H PARENT
REMARK Flexibility Score: inf
ROOT
ATOM      1  C   UNL     1      16.755  43.495   8.978  1.00  0.00     0.000 C 
ENDROOT
BRANCH   1   2
ATOM      2  C   UNL     1      17.104  44.885   8.422  1.00  0.00     0.000 C 
BRANCH   2   3
ATOM      3  C   UNL     1      17.106  44.926   6.886  1.00  0.00     0.000 C 
BRANCH   3   4
ATOM      4  C   UNL     1      17.749  43.676   6.262  1.00  0.00     0.000 C 
BRANCH   4   5
ATOM      5  C   UNL     1      16.839  42.999   5.224  1.00  0.00     0.001 C 
BRANCH   5   6
ATOM      6  C   UNL     1      15.383  43.494   5.297  1.00  0.00     0.009 C 
BRANCH   6   7
ATOM      7  C   UNL     1      14.788  43.799   3.907  1.00  0.00     0.032 C 
ATOM      8  C   UNL     1      14.797  45.300   3.588  1.00  0.00     0.014 C 
BRANCH   7   9
ATOM      9  C   UNL     1      13.380  43.276   3.830  1.00  0.00     0.044 C 
ATOM     10  O   UNL     1      12.515  43.663   4.661  1.00  0.00    -0.550 OA
ATOM     11  O   UNL     1      13.021  42.365   2.844  1.00  0.00    -0.550 OA
ENDBRANCH   7   9
ENDBRANCH   6   7
ENDBRANCH   5   6
ENDBRANCH   4   5
ENDBRANCH   3   4
ENDBRANCH   2   3
ENDBRANCH   1   2
BRANCH   1  12
ATOM     12  C   UNL     1      15.237  43.308   9.073  1.00  0.00     0.000 C 
BRANCH  12  13
ATOM     13  C   UNL     1      14.816  41.931   8.544  1.00  0.00    -0.000 C 
BRANCH  13  14
ATOM     14  C   UNL     1      16.008  40.967   8.510  1.00  0.00    -0.000 C 
BRANCH  14  15
ATOM     15  C   UNL     1      15.780  39.779   9.457  1.00  0.00    -0.000 C 
BRANCH  15  16
ATOM     16  C   UNL     1      14.336  39.247   9.416  1.00  0.00    -0.000 C 
BRANCH  16  17
ATOM     17  C   UNL     1      13.733  38.896  10.789  1.00  0.00    -0.000 C 
BRANCH  17  18
ATOM     18  C   UNL     1      12.707  37.755  10.718  1.00  0.00    -0.003 C 
ATOM     19  C   UNL     1      12.342  37.258  12.113  1.00  0.00     0.004 C 
ENDBRANCH  17  18
ENDBRANCH  16  17
ENDBRANCH  15  16
ENDBRANCH  14  15
ENDBRANCH  13  14
ENDBRANCH  12  13
ENDBRANCH   1  12
TORSDOF 14
ENDMDL
MODEL 2
REMARK VINA RESULT:    -5.565      3.883      6.390
REMARK INTER + INTRA:         -11.776
REMARK INTER:                  -9.346
REMARK INTRA:                  -2.430
REMARK UNBOUND:                -1.656
REMARK SMILES CCCCCCCCCCCCCC[C@H](C)C(=O)[O-]
REMARK SMILES IDX 9 1 10 2 11 3 12 4 13 5 14 6 15 7 16 8 17 9 18 10 19 11 8 12
REMARK SMILES IDX 7 13 6 14 5 15 4 16 3 17 2 18 1 19
REMARK H PARENT
REMARK Flexibility Score: inf
ROOT
ATOM      1  C   UNL     1      11.132  46.778   6.264  1.00  0.00     0.000 C 
ENDROOT
BRANCH   1   2
ATOM      2  C   UNL     1      11.157  46.009   7.593  1.00  0.00     0.000 C 
BRANCH   2   3
ATOM      3  C   UNL     1      12.582  45.797   8.130  1.00  0.00     0.000 C 
BRANCH   3   4
ATOM      4  C   UNL     1      12.741  44.461   8.876  1.00  0.00     0.000 C 
BRANCH   4   5
ATOM      5  C   UNL     1      13.986  43.679   8.428  1.00  0.00     0.001 C 
BRANCH   5   6
ATOM      6  C   UNL     1      14.820  44.438   7.379  1.00  0.00     0.009 C 
BRANCH   6   7
ATOM      7  C   UNL     1      16.161  43.741   7.068  1.00  0.00     0.032 C 
ATOM      8  C   UNL     1      15.973  42.270   6.671  1.00  0.00     0.014 C 
BRANCH   7   9
ATOM      9  C   UNL     1      17.068  43.827   8.265  1.00  0.00     0.044 C 
ATOM     10  O   UNL     1      17.421  44.951   8.712  1.00  0.00    -0.550 OA
ATOM     11  O   UNL     1      17.521  42.670   8.887  1.00  0.00    -0.550 OA
ENDBRANCH   7   9
ENDBRANCH   6   7
ENDBRANCH   5   6
ENDBRANCH   4   5
ENDBRANCH   3   4
ENDBRANCH   2   3
ENDBRANCH   1   2
BRANCH   1  12
ATOM     12  C   UNL     1      12.549  47.168   5.829  1.00  0.00     0.000 C 
BRANCH  12  13
ATOM     13  C   UNL     1      12.948  46.443   4.537  1.00  0.00    -0.000 C 
BRANCH  13  14
ATOM     14  C   UNL     1      14.361  45.857   4.649  1.00  0.00    -0.000 C 
BRANCH  14  15
ATOM     15  C   UNL     1      14.745  45.100   3.368  1.00  0.00    -0.000 C 
BRANCH  15  16
ATOM     16  C   UNL     1      14.619  43.573   3.513  1.00  0.00    -0.000 C 
BRANCH  16  17
ATOM     17  C   UNL     1      13.193  43.019   3.338  1.00  0.00    -0.000 C 
BRANCH  17  18
ATOM     18  C   UNL     1      12.692  42.255   4.572  1.00  0.00    -0.003 C 
ATOM     19  C   UNL     1      11.784  43.133   5.429  1.00  0.00     0.004 C 
ENDBRANCH  17  18
ENDBRANCH  16  17
ENDBRANCH  15  16
ENDBRANCH  14  15
ENDBRANCH  13  14
ENDBRANCH  12  13
ENDBRANCH   1  12
TORSDOF 14
ENDMDL
MODEL 3
REMARK VINA RESULT:    -5.526      4.096      5.941
REMARK INTER + INTRA:         -11.705
REMARK INTER:                  -9.341
REMARK INTRA:                  -2.364
REMARK UNBOUND:                -1.656
REMARK SMILES CCCCCCCCCCCCCC[C@H](C)C(=O)[O-]
REMARK SMILES IDX 9 1 10 2 11 3 12 4 13 5 14 6 15 7 16 8 17 9 18 10 19 11 8 12
REMARK SMILES IDX 7 13 6 14 5 15 4 16 3 17 2 18 1 19
REMARK H PARENT
REMARK Flexibility Score: inf
ROOT
ATOM      1  C   UNL     1      13.760  45.636   4.032  1.00  0.00     0.000 C 
ENDROOT
BRANCH   1   2
ATOM      2  C   UNL     1      15.176  45.219   3.608  1.00  0.00     0.000 C 
BRANCH   2   3
ATOM      3  C   UNL     1      15.368  43.694   3.594  1.00  0.00     0.000 C 
BRANCH   3   4
ATOM      4  C   UNL     1      16.785  43.272   4.019  1.00  0.00     0.000 C 
BRANCH   4   5
ATOM      5  C   UNL     1      17.043  43.500   5.517  1.00  0.00     0.001 C 
BRANCH   5   6
ATOM      6  C   UNL     1      16.118  42.660   6.416  1.00  0.00     0.009 C 
BRANCH   6   7
ATOM      7  C   UNL     1      15.852  43.325   7.782  1.00  0.00     0.032 C 
ATOM      8  C   UNL     1      15.207  44.710   7.638  1.00  0.00     0.014 C 
BRANCH   7   9
ATOM      9  C   UNL     1      17.140  43.447   8.548  1.00  0.00     0.044 C 
ATOM     10  O   UNL     1      17.620  44.584   8.802  1.00  0.00    -0.550 OA
ATOM     11  O   UNL     1      17.810  42.309   8.983  1.00  0.00    -0.550 OA
ENDBRANCH   7   9
ENDBRANCH   6   7
ENDBRANCH   5   6
ENDBRANCH   4   5
ENDBRANCH   3   4
ENDBRANCH   2   3
ENDBRANCH   1   2
BRANCH   1  12
ATOM     12  C   UNL     1      13.809  46.716   5.119  1.00  0.00     0.000 C 
BRANCH  12  13
ATOM     13  C   UNL     1      12.396  47.109   5.570  1.00  0.00    -0.000 C 
BRANCH  13  14
ATOM     14  C   UNL     1      12.244  46.970   7.089  1.00  0.00    -0.000 C 
BRANCH  14  15
ATOM     15  C   UNL     1      11.053  46.066   7.442  1.00  0.00    -0.000 C 
BRANCH  15  16
ATOM     16  C   UNL     1      11.438  44.579   7.543  1.00  0.00    -0.000 C 
BRANCH  16  17
ATOM     17  C   UNL     1      11.287  43.779   6.236  1.00  0.00    -0.000 C 
BRANCH  17  18
ATOM     18  C   UNL     1      12.569  43.031   5.840  1.00  0.00    -0.003 C 
ATOM     19  C   UNL     1      12.275  41.944   4.810  1.00  0.00     0.004 C 
ENDBRANCH  17  18
ENDBRANCH  16  17
ENDBRANCH  15  16
ENDBRANCH  14  15
ENDBRANCH  13  14
ENDBRANCH  12  13
ENDBRANCH   1  12
TORSDOF 14
ENDMDL
MODEL 4
REMARK VINA RESULT:    -5.524      1.611      2.739
REMARK INTER + INTRA:         -11.701
REMARK INTER:                  -9.365
REMARK INTRA:                  -2.336
REMARK UNBOUND:                -1.656
REMARK SMILES CCCCCCCCCCCCCC[C@H](C)C(=O)[O-]
REMARK SMILES IDX 9 1 10 2 11 3 12 4 13 5 14 6 15 7 16 8 17 9 18 10 19 11 8 12
REMARK SMILES IDX 7 13 6 14 5 15 4 16 3 17 2 18 1 19
REMARK H PARENT
REMARK Flexibility Score: inf
ROOT
ATOM      1  C   UNL     1      17.182  45.043   6.888  1.00  0.00     0.000 C 
ENDROOT
BRANCH   1   2
ATOM      2  C   UNL     1      17.567  43.583   6.604  1.00  0.00     0.000 C 
BRANCH   2   3
ATOM      3  C   UNL     1      16.837  43.003   5.382  1.00  0.00     0.000 C 
BRANCH   3   4
ATOM      4  C   UNL     1      16.398  44.089   4.385  1.00  0.00     0.000 C 
BRANCH   4   5
ATOM      5  C   UNL     1      14.918  43.964   3.990  1.00  0.00     0.001 C 
BRANCH   5   6
ATOM      6  C   UNL     1      13.983  43.852   5.208  1.00  0.00     0.009 C 
BRANCH   6   7
ATOM      7  C   UNL     1      13.018  45.050   5.328  1.00  0.00     0.032 C 
ATOM      8  C   UNL     1      13.757  46.395   5.317  1.00  0.00     0.014 C 
BRANCH   7   9
ATOM      9  C   UNL     1      12.212  44.929   6.592  1.00  0.00     0.044 C 
ATOM     10  O   UNL     1      11.241  44.128   6.650  1.00  0.00    -0.550 OA
ATOM     11  O   UNL     1      12.532  45.696   7.706  1.00  0.00    -0.550 OA
ENDBRANCH   7   9
ENDBRANCH   6   7
ENDBRANCH   5   6
ENDBRANCH   4   5
ENDBRANCH   3   4
ENDBRANCH   2   3
ENDBRANCH   1   2
BRANCH   1  12
ATOM     12  C   UNL     1      16.108  45.124   7.979  1.00  0.00     0.000 C 
BRANCH  12  13
ATOM     13  C   UNL     1      16.118  43.867   8.858  1.00  0.00    -0.000 C 
BRANCH  13  14
ATOM     14  C   UNL     1      14.741  43.192   8.872  1.00  0.00    -0.000 C 
BRANCH  14  15
ATOM     15  C   UNL     1      14.820  41.772   8.291  1.00  0.00    -0.000 C 
BRANCH  15  16
ATOM     16  C   UNL     1      15.983  40.949   8.875  1.00  0.00    -0.000 C 
BRANCH  16  17
ATOM     17  C   UNL     1      15.570  39.626   9.547  1.00  0.00    -0.000 C 
BRANCH  17  18
ATOM     18  C   UNL     1      14.104  39.621  10.007  1.00  0.00    -0.003 C 
ATOM     19  C   UNL     1      13.858  38.528  11.043  1.00  0.00     0.004 C 
ENDBRANCH  17  18
ENDBRANCH  16  17
ENDBRANCH  15  16
ENDBRANCH  14  15
ENDBRANCH  13  14
ENDBRANCH  12  13
ENDBRANCH   1  12
TORSDOF 14
ENDMDL
MODEL 5
REMARK VINA RESULT:    -5.515      4.125      6.634
REMARK INTER + INTRA:         -11.685
REMARK INTER:                  -8.985
REMARK INTRA:                  -2.700
REMARK UNBOUND:                -1.656
REMARK SMILES CCCCCCCCCCCCCC[C@H](C)C(=O)[O-]
REMARK SMILES IDX 9 1 10 2 11 3 12 4 13 5 14 6 15 7 16 8 17 9 18 10 19 11 8 12
REMARK SMILES IDX 7 13 6 14 5 15 4 16 3 17 2 18 1 19
REMARK H PARENT
REMARK Flexibility Score: inf
ROOT
ATOM      1  C   UNL     1      12.861  46.117   4.024  1.00  0.00     0.000 C 
ENDROOT
BRANCH   1   2
ATOM      2  C   UNL     1      13.480  44.711   4.006  1.00  0.00     0.000 C 
BRANCH   2   3
ATOM      3  C   UNL     1      12.469  43.613   4.377  1.00  0.00     0.000 C 
BRANCH   3   4
ATOM      4  C   UNL     1      12.991  42.680   5.483  1.00  0.00     0.000 C 
BRANCH   4   5
ATOM      5  C   UNL     1      14.409  43.049   5.948  1.00  0.00     0.001 C 
BRANCH   5   6
ATOM      6  C   UNL     1      14.499  43.266   7.469  1.00  0.00     0.009 C 
BRANCH   6   7
ATOM      7  C   UNL     1      15.756  44.060   7.883  1.00  0.00     0.032 C 
ATOM      8  C   UNL     1      16.002  45.272   6.973  1.00  0.00     0.014 C 
BRANCH   7   9
ATOM      9  C   UNL     1      16.959  43.158   7.857  1.00  0.00     0.044 C 
ATOM     10  O   UNL     1      17.921  43.408   7.084  1.00  0.00    -0.550 OA
ATOM     11  O   UNL     1      17.019  42.045   8.687  1.00  0.00    -0.550 OA
ENDBRANCH   7   9
ENDBRANCH   6   7
ENDBRANCH   5   6
ENDBRANCH   4   5
ENDBRANCH   3   4
ENDBRANCH   2   3
ENDBRANCH   1   2
BRANCH   1  12
ATOM     12  C   UNL     1      13.315  46.900   5.262  1.00  0.00     0.000 C 
BRANCH  12  13
ATOM     13  C   UNL     1      12.173  47.039   6.276  1.00  0.00    -0.000 C 
BRANCH  13  14
ATOM     14  C   UNL     1      12.570  46.452   7.636  1.00  0.00    -0.000 C 
BRANCH  14  15
ATOM     15  C   UNL     1      11.510  45.458   8.136  1.00  0.00    -0.000 C 
BRANCH  15  16
ATOM     16  C   UNL     1      10.480  45.085   7.054  1.00  0.00    -0.000 C 
BRANCH  16  17
ATOM     17  C   UNL     1       9.017  45.407   7.412  1.00  0.00    -0.000 C 
BRANCH  17  18
ATOM     18  C   UNL     1       8.866  46.724   8.187  1.00  0.00    -0.003 C 
ATOM     19  C   UNL     1       8.655  47.899   7.237  1.00  0.00     0.004 C 
ENDBRANCH  17  18
ENDBRANCH  16  17
ENDBRANCH  15  16
ENDBRANCH  14  15
ENDBRANCH  13  14
ENDBRANCH  12  13
ENDBRANCH   1  12
TORSDOF 14
ENDMDL
MODEL 6
REMARK VINA RESULT:    -5.500      2.618      4.744
REMARK INTER + INTRA:         -11.657
REMARK INTER:                  -9.374
REMARK INTRA:                  -2.283
REMARK UNBOUND:                -1.656
REMARK SMILES CCCCCCCCCCCCCC[C@H](C)C(=O)[O-]
REMARK SMILES IDX 9 1 10 2 11 3 12 4 13 5 14 6 15 7 16 8 17 9 18 10 19 11 8 12
REMARK SMILES IDX 7 13 6 14 5 15 4 16 3 17 2 18 1 19
REMARK H PARENT
REMARK Flexibility Score: inf
ROOT
ATOM      1  C   UNL     1      16.666  43.349   4.012  1.00  0.00     0.000 C 
ENDROOT
BRANCH   1   2
ATOM      2  C   UNL     1      15.223  43.766   3.691  1.00  0.00     0.000 C 
BRANCH   2   3
ATOM      3  C   UNL     1      15.031  45.291   3.693  1.00  0.00     0.000 C 
BRANCH   3   4
ATOM      4  C   UNL     1      13.605  45.707   4.094  1.00  0.00     0.000 C 
BRANCH   4   5
ATOM      5  C   UNL     1      12.749  44.515   4.550  1.00  0.00     0.001 C 
BRANCH   5   6
ATOM      6  C   UNL     1      11.970  44.803   5.847  1.00  0.00     0.009 C 
BRANCH   6   7
ATOM      7  C   UNL     1      12.088  46.274   6.297  1.00  0.00     0.032 C 
ATOM      8  C   UNL     1      12.579  46.400   7.746  1.00  0.00     0.014 C 
BRANCH   7   9
ATOM      9  C   UNL     1      10.756  46.958   6.156  1.00  0.00     0.044 C 
ATOM     10  O   UNL     1      10.430  47.487   5.060  1.00  0.00    -0.550 OA
ATOM     11  O   UNL     1       9.875  47.009   7.229  1.00  0.00    -0.550 OA
ENDBRANCH   7   9
ENDBRANCH   6   7
ENDBRANCH   5   6
ENDBRANCH   4   5
ENDBRANCH   3   4
ENDBRANCH   2   3
ENDBRANCH   1   2
BRANCH   1  12
ATOM     12  C   UNL     1      16.790  42.878   5.466  1.00  0.00     0.000 C 
BRANCH  12  13
ATOM     13  C   UNL     1      17.728  43.792   6.264  1.00  0.00    -0.000 C 
BRANCH  13  14
ATOM     14  C   UNL     1      17.090  44.209   7.595  1.00  0.00    -0.000 C 
BRANCH  14  15
ATOM     15  C   UNL     1      15.568  44.359   7.451  1.00  0.00    -0.000 C 
BRANCH  15  16
ATOM     16  C   UNL     1      14.783  43.548   8.498  1.00  0.00    -0.000 C 
BRANCH  16  17
ATOM     17  C   UNL     1      14.461  42.099   8.091  1.00  0.00    -0.000 C 
BRANCH  17  18
ATOM     18  C   UNL     1      14.901  41.070   9.143  1.00  0.00    -0.003 C 
ATOM     19  C   UNL     1      16.326  40.590   8.881  1.00  0.00     0.004 C 
ENDBRANCH  17  18
ENDBRANCH  16  17
ENDBRANCH  15  16
ENDBRANCH  14  15
ENDBRANCH  13  14
ENDBRANCH  12  13
ENDBRANCH   1  12
TORSDOF 14
ENDMDL
MODEL 7
REMARK VINA RESULT:    -5.384      4.194      6.532
REMARK INTER + INTRA:         -11.446
REMARK INTER:                  -9.171
REMARK INTRA:                  -2.275
REMARK UNBOUND:                -1.656
REMARK SMILES CCCCCCCCCCCCCC[C@H](C)C(=O)[O-]
REMARK SMILES IDX 9 1 10 2 11 3 12 4 13 5 14 6 15 7 16 8 17 9 18 10 19 11 8 12
REMARK SMILES IDX 7 13 6 14 5 15 4 16 3 17 2 18 1 19
REMARK H PARENT
REMARK Flexibility Score: inf
ROOT
ATOM      1  C   UNL     1      13.415  46.751   5.698  1.00  0.00     0.000 C 
ENDROOT
BRANCH   1   2
ATOM      2  C   UNL     1      12.484  46.301   4.562  1.00  0.00     0.000 C 
BRANCH   2   3
ATOM      3  C   UNL     1      12.968  45.015   3.873  1.00  0.00     0.000 C 
BRANCH   3   4
ATOM      4  C   UNL     1      14.493  44.990   3.671  1.00  0.00     0.000 C 
BRANCH   4   5
ATOM      5  C   UNL     1      15.134  43.688   4.177  1.00  0.00     0.001 C 
BRANCH   5   6
ATOM      6  C   UNL     1      16.023  43.904   5.416  1.00  0.00     0.009 C 
BRANCH   6   7
ATOM      7  C   UNL     1      15.651  42.968   6.585  1.00  0.00     0.032 C 
ATOM      8  C   UNL     1      14.159  42.609   6.590  1.00  0.00     0.014 C 
BRANCH   7   9
ATOM      9  C   UNL     1      16.017  43.616   7.892  1.00  0.00     0.044 C 
ATOM     10  O   UNL     1      15.407  43.300   8.947  1.00  0.00    -0.550 OA
ATOM     11  O   UNL     1      17.031  44.565   7.945  1.00  0.00    -0.550 OA
ENDBRANCH   7   9
ENDBRANCH   6   7
ENDBRANCH   5   6
ENDBRANCH   4   5
ENDBRANCH   3   4
ENDBRANCH   2   3
ENDBRANCH   1   2
BRANCH   1  12
ATOM     12  C   UNL     1      12.641  46.905   7.013  1.00  0.00     0.000 C 
BRANCH  12  13
ATOM     13  C   UNL     1      12.991  45.780   7.995  1.00  0.00    -0.000 C 
BRANCH  13  14
ATOM     14  C   UNL     1      11.725  45.104   8.533  1.00  0.00    -0.000 C 
BRANCH  14  15
ATOM     15  C   UNL     1      10.797  44.680   7.383  1.00  0.00    -0.000 C 
BRANCH  15  16
ATOM     16  C   UNL     1       9.332  45.091   7.612  1.00  0.00    -0.000 C 
BRANCH  16  17
ATOM     17  C   UNL     1       9.133  46.518   8.157  1.00  0.00    -0.000 C 
BRANCH  17  18
ATOM     18  C   UNL     1       8.411  47.441   7.165  1.00  0.00    -0.003 C 
ATOM     19  C   UNL     1       9.409  48.210   6.304  1.00  0.00     0.004 C 
ENDBRANCH  17  18
ENDBRANCH  16  17
ENDBRANCH  15  16
ENDBRANCH  14  15
ENDBRANCH  13  14
ENDBRANCH  12  13
ENDBRANCH   1  12
TORSDOF 14
ENDMDL
MODEL 8
REMARK VINA RESULT:    -5.382      4.020      6.129
REMARK INTER + INTRA:         -11.442
REMARK INTER:                  -9.288
REMARK INTRA:                  -2.154
REMARK UNBOUND:                -1.656
REMARK SMILES CCCCCCCCCCCCCC[C@H](C)C(=O)[O-]
REMARK SMILES IDX 9 1 10 2 11 3 12 4 13 5 14 6 15 7 16 8 17 9 18 10 19 11 8 12
REMARK SMILES IDX 7 13 6 14 5 15 4 16 3 17 2 18 1 19
REMARK H PARENT
REMARK Flexibility Score: inf
ROOT
ATOM      1  C   UNL     1      12.750  44.336   4.521  1.00  0.00     0.000 C 
ENDROOT
BRANCH   1   2
ATOM      2  C   UNL     1      13.556  45.588   4.143  1.00  0.00     0.000 C 
BRANCH   2   3
ATOM      3  C   UNL     1      14.964  45.253   3.625  1.00  0.00     0.000 C 
BRANCH   3   4
ATOM      4  C   UNL     1      15.243  43.740   3.606  1.00  0.00     0.000 C 
BRANCH   4   5
ATOM      5  C   UNL     1      16.513  43.365   4.385  1.00  0.00     0.001 C 
BRANCH   5   6
ATOM      6  C   UNL     1      16.635  44.115   5.724  1.00  0.00     0.009 C 
BRANCH   6   7
ATOM      7  C   UNL     1      16.591  43.169   6.942  1.00  0.00     0.032 C 
ATOM      8  C   UNL     1      15.246  42.441   7.065  1.00  0.00     0.014 C 
BRANCH   7   9
ATOM      9  C   UNL     1      16.859  43.948   8.201  1.00  0.00     0.044 C 
ATOM     10  O   UNL     1      17.713  43.536   9.030  1.00  0.00    -0.550 OA
ATOM     11  O   UNL     1      16.169  45.127   8.457  1.00  0.00    -0.550 OA
ENDBRANCH   7   9
ENDBRANCH   6   7
ENDBRANCH   5   6
ENDBRANCH   4   5
ENDBRANCH   3   4
ENDBRANCH   2   3
ENDBRANCH   1   2
BRANCH   1  12
ATOM     12  C   UNL     1      12.247  44.424   5.967  1.00  0.00     0.000 C 
BRANCH  12  13
ATOM     13  C   UNL     1      13.090  45.408   6.786  1.00  0.00    -0.000 C 
BRANCH  13  14
ATOM     14  C   UNL     1      12.198  46.345   7.611  1.00  0.00    -0.000 C 
BRANCH  14  15
ATOM     15  C   UNL     1      10.916  46.699   6.842  1.00  0.00    -0.000 C 
BRANCH  15  16
ATOM     16  C   UNL     1       9.647  46.578   7.706  1.00  0.00    -0.000 C 
BRANCH  16  17
ATOM     17  C   UNL     1       9.671  45.437   8.740  1.00  0.00    -0.000 C 
BRANCH  17  18
ATOM     18  C   UNL     1       9.205  44.094   8.159  1.00  0.00    -0.003 C 
ATOM     19  C   UNL     1       8.022  44.285   7.214  1.00  0.00     0.004 C 
ENDBRANCH  17  18
ENDBRANCH  16  17
ENDBRANCH  15  16
ENDBRANCH  14  15
ENDBRANCH  13  14
ENDBRANCH  12  13
ENDBRANCH   1  12
TORSDOF 14
ENDMDL
MODEL 9
REMARK VINA RESULT:    -5.365      3.014      5.730
REMARK INTER + INTRA:         -11.411
REMARK INTER:                  -8.690
REMARK INTRA:                  -2.721
REMARK UNBOUND:                -1.656
REMARK SMILES CCCCCCCCCCCCCC[C@H](C)C(=O)[O-]
REMARK SMILES IDX 9 1 10 2 11 3 12 4 13 5 14 6 15 7 16 8 17 9 18 10 19 11 8 12
REMARK SMILES IDX 7 13 6 14 5 15 4 16 3 17 2 18 1 19
REMARK H PARENT
REMARK Flexibility Score: inf
ROOT
ATOM      1  C   UNL     1      16.790  43.100   8.468  1.00  0.00     0.000 C 
ENDROOT
BRANCH   1   2
ATOM      2  C   UNL     1      16.048  41.839   7.998  1.00  0.00     0.000 C 
BRANCH   2   3
ATOM      3  C   UNL     1      14.540  42.071   7.815  1.00  0.00     0.000 C 
BRANCH   3   4
ATOM      4  C   UNL     1      14.041  43.326   8.554  1.00  0.00     0.000 C 
BRANCH   4   5
ATOM      5  C   UNL     1      12.971  44.092   7.760  1.00  0.00     0.001 C 
BRANCH   5   6
ATOM      6  C   UNL     1      12.937  45.593   8.102  1.00  0.00     0.009 C 
BRANCH   6   7
ATOM      7  C   UNL     1      11.611  46.266   7.690  1.00  0.00     0.032 C 
ATOM      8  C   UNL     1      10.502  45.242   7.411  1.00  0.00     0.014 C 
BRANCH   7   9
ATOM      9  C   UNL     1      11.830  47.116   6.469  1.00  0.00     0.044 C 
ATOM     10  O   UNL     1      12.967  47.166   5.928  1.00  0.00    -0.550 OA
ATOM     11  O   UNL     1      10.782  47.850   5.926  1.00  0.00    -0.550 OA
ENDBRANCH   7   9
ENDBRANCH   6   7
ENDBRANCH   5   6
ENDBRANCH   4   5
ENDBRANCH   3   4
ENDBRANCH   2   3
ENDBRANCH   1   2
BRANCH   1  12
ATOM     12  C   UNL     1      17.500  43.787   7.297  1.00  0.00     0.000 C 
BRANCH  12  13
ATOM     13  C   UNL     1      16.886  45.164   7.010  1.00  0.00    -0.000 C 
BRANCH  13  14
ATOM     14  C   UNL     1      15.878  45.088   5.856  1.00  0.00    -0.000 C 
BRANCH  14  15
ATOM     15  C   UNL     1      16.259  43.976   4.867  1.00  0.00    -0.000 C 
BRANCH  15  16
ATOM     16  C   UNL     1      15.091  43.559   3.955  1.00  0.00    -0.000 C 
BRANCH  16  17
ATOM     17  C   UNL     1      13.985  44.618   3.789  1.00  0.00    -0.000 C 
BRANCH  17  18
ATOM     18  C   UNL     1      12.587  44.081   4.125  1.00  0.00    -0.003 C 
ATOM     19  C   UNL     1      12.626  42.579   4.396  1.00  0.00     0.004 C 
ENDBRANCH  17  18
ENDBRANCH  16  17
ENDBRANCH  15  16
ENDBRANCH  14  15
ENDBRANCH  13  14
ENDBRANCH  12  13
ENDBRANCH   1  12
TORSDOF 14
ENDMDL
