MODEL 1
REMARK VINA RESULT:    -4.046      0.000      0.000
REMARK INTER + INTRA:          -4.762
REMARK INTER:                  -4.756
REMARK INTRA:                  -0.006
REMARK UNBOUND:                -0.006
REMARK SMILES [NH3+][C@@H](CO)C(=O)[O-]
REMARK SMILES IDX 3 1 2 2 1 3 5 7 6 8 7 9 4 10
REMARK H PARENT 1 4 1 5 1 6 4 11
REMARK Flexibility Score: inf
ROOT
ATOM      1  C   UNL     1     102.388  50.614  47.284  1.00  0.00     0.227 C 
ENDROOT
BRANCH   1   2
ATOM      2  C   UNL     1     101.107  51.447  47.472  1.00  0.00     0.253 C 
BRANCH   2   3
ATOM      3  N   UNL     1     100.278  51.402  46.262  1.00  0.00    -0.348 N 
ATOM      4  H   UNL     1     100.841  51.659  45.417  1.00  0.00     0.345 HD
ATOM      5  H   UNL     1      99.892  50.439  46.133  1.00  0.00     0.345 HD
ATOM      6  H   UNL     1      99.477  52.068  46.355  1.00  0.00     0.345 HD
ENDBRANCH   2   3
BRANCH   2   7
ATOM      7  C   UNL     1     101.445  52.871  47.826  1.00  0.00     0.102 C 
ATOM      8  O   UNL     1     101.962  53.638  46.969  1.00  0.00    -0.544 OA
ATOM      9  O   UNL     1     101.199  53.345  49.108  1.00  0.00    -0.544 OA
ENDBRANCH   2   7
ENDBRANCH   1   2
BRANCH   1  10
ATOM     10  O   UNL     1     102.307  49.408  47.998  1.00  0.00    -0.390 OA
ATOM     11  H   UNL     1     102.905  49.503  48.785  1.00  0.00     0.210 HD
ENDBRANCH   1  10
TORSDOF 4
ENDMDL
MODEL 2
REMARK VINA RESULT:    -3.949      0.205      1.231
REMARK INTER + INTRA:          -4.648
REMARK INTER:                  -4.638
REMARK INTRA:                  -0.010
REMARK UNBOUND:                -0.006
REMARK SMILES [NH3+][C@@H](CO)C(=O)[O-]
REMARK SMILES IDX 3 1 2 2 1 3 5 7 6 8 7 9 4 10
REMARK H PARENT 1 4 1 5 1 6 4 11
REMARK Flexibility Score: inf
ROOT
ATOM      1  C   UNL     1     102.331  50.636  47.271  1.00  0.00     0.227 C 
ENDROOT
BRANCH   1   2
ATOM      2  C   UNL     1     101.009  51.404  47.457  1.00  0.00     0.253 C 
BRANCH   2   3
ATOM      3  N   UNL     1     100.268  51.474  46.192  1.00  0.00    -0.348 N 
ATOM      4  H   UNL     1      99.240  51.555  46.369  1.00  0.00     0.345 HD
ATOM      5  H   UNL     1     100.586  52.306  45.643  1.00  0.00     0.345 HD
ATOM      6  H   UNL     1     100.453  50.615  45.625  1.00  0.00     0.345 HD
ENDBRANCH   2   3
BRANCH   2   7
ATOM      7  C   UNL     1     101.268  52.787  47.993  1.00  0.00     0.102 C 
ATOM      8  O   UNL     1     100.965  53.080  49.180  1.00  0.00    -0.544 OA
ATOM      9  O   UNL     1     101.833  53.755  47.172  1.00  0.00    -0.544 OA
ENDBRANCH   2   7
ENDBRANCH   1   2
BRANCH   1  10
ATOM     10  O   UNL     1     102.314  49.434  47.995  1.00  0.00    -0.390 OA
ATOM     11  H   UNL     1     101.370  49.128  48.016  1.00  0.00     0.210 HD
ENDBRANCH   1  10
TORSDOF 4
ENDMDL
MODEL 3
REMARK VINA RESULT:    -3.909      5.836      6.702
REMARK INTER + INTRA:          -4.601
REMARK INTER:                  -4.221
REMARK INTRA:                  -0.380
REMARK UNBOUND:                -0.006
REMARK SMILES [NH3+][C@@H](CO)C(=O)[O-]
REMARK SMILES IDX 3 1 2 2 1 3 5 7 6 8 7 9 4 10
REMARK H PARENT 1 4 1 5 1 6 4 11
REMARK Flexibility Score: inf
ROOT
ATOM      1  C   UNL     1      97.312  51.732  52.998  1.00  0.00     0.227 C 
ENDROOT
BRANCH   1   2
ATOM      2  C   UNL     1      98.801  51.338  52.984  1.00  0.00     0.253 C 
BRANCH   2   3
ATOM      3  N   UNL     1      99.153  50.601  54.203  1.00  0.00    -0.348 N 
ATOM      4  H   UNL     1      99.156  51.238  55.033  1.00  0.00     0.345 HD
ATOM      5  H   UNL     1      98.460  49.834  54.364  1.00  0.00     0.345 HD
ATOM      6  H   UNL     1     100.100  50.170  54.096  1.00  0.00     0.345 HD
ENDBRANCH   2   3
BRANCH   2   7
ATOM      7  C   UNL     1      99.672  52.557  52.836  1.00  0.00     0.102 C 
ATOM      8  O   UNL     1     100.201  53.092  53.847  1.00  0.00    -0.544 OA
ATOM      9  O   UNL     1      99.888  53.107  51.579  1.00  0.00    -0.544 OA
ENDBRANCH   2   7
ENDBRANCH   1   2
BRANCH   1  10
ATOM     10  O   UNL     1      97.165  53.115  53.185  1.00  0.00    -0.390 OA
ATOM     11  H   UNL     1      97.806  53.555  52.567  1.00  0.00     0.210 HD
ENDBRANCH   1  10
TORSDOF 4
ENDMDL
MODEL 4
REMARK VINA RESULT:    -3.902      5.330      5.941
REMARK INTER + INTRA:          -4.593
REMARK INTER:                  -4.587
REMARK INTRA:                  -0.006
REMARK UNBOUND:                -0.006
REMARK SMILES [NH3+][C@@H](CO)C(=O)[O-]
REMARK SMILES IDX 3 1 2 2 1 3 5 7 6 8 7 9 4 10
REMARK H PARENT 1 4 1 5 1 6 4 11
REMARK Flexibility Score: inf
ROOT
ATOM      1  C   UNL     1      99.325  51.728  52.856  1.00  0.00     0.227 C 
ENDROOT
BRANCH   1   2
ATOM      2  C   UNL     1      99.462  53.226  53.185  1.00  0.00     0.253 C 
BRANCH   2   3
ATOM      3  N   UNL     1      98.149  53.880  53.180  1.00  0.00    -0.348 N 
ATOM      4  H   UNL     1      98.190  54.799  53.679  1.00  0.00     0.345 HD
ATOM      5  H   UNL     1      97.838  54.042  52.194  1.00  0.00     0.345 HD
ATOM      6  H   UNL     1      97.444  53.265  53.649  1.00  0.00     0.345 HD
ENDBRANCH   2   3
BRANCH   2   7
ATOM      7  C   UNL     1     100.391  53.902  52.212  1.00  0.00     0.102 C 
ATOM      8  O   UNL     1     101.193  54.791  52.605  1.00  0.00    -0.544 OA
ATOM      9  O   UNL     1     100.359  53.556  50.867  1.00  0.00    -0.544 OA
ENDBRANCH   2   7
ENDBRANCH   1   2
BRANCH   1  10
ATOM     10  O   UNL     1      99.030  50.989  54.012  1.00  0.00    -0.390 OA
ATOM     11  H   UNL     1      99.531  50.135  53.938  1.00  0.00     0.210 HD
ENDBRANCH   1  10
TORSDOF 4
ENDMDL
MODEL 5
REMARK VINA RESULT:    -3.895      5.336      5.872
REMARK INTER + INTRA:          -4.584
REMARK INTER:                  -4.578
REMARK INTRA:                  -0.007
REMARK UNBOUND:                -0.006
REMARK SMILES [NH3+][C@@H](CO)C(=O)[O-]
REMARK SMILES IDX 3 1 2 2 1 3 5 7 6 8 7 9 4 10
REMARK H PARENT 1 4 1 5 1 6 4 11
REMARK Flexibility Score: inf
ROOT
ATOM      1  C   UNL     1      99.328  51.685  52.850  1.00  0.00     0.227 C 
ENDROOT
BRANCH   1   2
ATOM      2  C   UNL     1      99.449  53.187  53.166  1.00  0.00     0.253 C 
BRANCH   2   3
ATOM      3  N   UNL     1      98.127  53.824  53.168  1.00  0.00    -0.348 N 
ATOM      4  H   UNL     1      98.203  54.835  53.431  1.00  0.00     0.345 HD
ATOM      5  H   UNL     1      97.698  53.751  52.216  1.00  0.00     0.345 HD
ATOM      6  H   UNL     1      97.500  53.338  53.848  1.00  0.00     0.345 HD
ENDBRANCH   2   3
BRANCH   2   7
ATOM      7  C   UNL     1     100.360  53.867  52.177  1.00  0.00     0.102 C 
ATOM      8  O   UNL     1     100.316  53.566  50.955  1.00  0.00    -0.544 OA
ATOM      9  O   UNL     1     101.265  54.825  52.613  1.00  0.00    -0.544 OA
ENDBRANCH   2   7
ENDBRANCH   1   2
BRANCH   1  10
ATOM     10  O   UNL     1      99.033  50.955  54.011  1.00  0.00    -0.390 OA
ATOM     11  H   UNL     1      98.088  51.155  54.241  1.00  0.00     0.210 HD
ENDBRANCH   1  10
TORSDOF 4
ENDMDL
MODEL 6
REMARK VINA RESULT:    -3.560      2.717      3.366
REMARK INTER + INTRA:          -4.191
REMARK INTER:                  -3.967
REMARK INTRA:                  -0.224
REMARK UNBOUND:                -0.006
REMARK SMILES [NH3+][C@@H](CO)C(=O)[O-]
REMARK SMILES IDX 3 1 2 2 1 3 5 7 6 8 7 9 4 10
REMARK H PARENT 1 4 1 5 1 6 4 11
REMARK Flexibility Score: inf
ROOT
ATOM      1  C   UNL     1     101.676  52.849  48.042  1.00  0.00     0.227 C 
ENDROOT
BRANCH   1   2
ATOM      2  C   UNL     1     101.328  54.179  48.737  1.00  0.00     0.253 C 
BRANCH   2   3
ATOM      3  N   UNL     1     102.449  55.120  48.646  1.00  0.00    -0.348 N 
ATOM      4  H   UNL     1     102.771  55.218  47.654  1.00  0.00     0.345 HD
ATOM      5  H   UNL     1     102.154  56.058  49.002  1.00  0.00     0.345 HD
ATOM      6  H   UNL     1     103.245  54.782  49.234  1.00  0.00     0.345 HD
ENDBRANCH   2   3
BRANCH   2   7
ATOM      7  C   UNL     1     100.952  53.945  50.176  1.00  0.00     0.102 C 
ATOM      8  O   UNL     1     100.232  52.963  50.498  1.00  0.00    -0.544 OA
ATOM      9  O   UNL     1     101.390  54.824  51.159  1.00  0.00    -0.544 OA
ENDBRANCH   2   7
ENDBRANCH   1   2
BRANCH   1  10
ATOM     10  O   UNL     1     100.513  52.121  47.749  1.00  0.00    -0.390 OA
ATOM     11  H   UNL     1     100.802  51.193  47.546  1.00  0.00     0.210 HD
ENDBRANCH   1  10
TORSDOF 4
ENDMDL
MODEL 7
REMARK VINA RESULT:    -3.522      2.159      3.175
REMARK INTER + INTRA:          -4.146
REMARK INTER:                  -3.816
REMARK INTRA:                  -0.330
REMARK UNBOUND:                -0.006
REMARK SMILES [NH3+][C@@H](CO)C(=O)[O-]
REMARK SMILES IDX 3 1 2 2 1 3 5 7 6 8 7 9 4 10
REMARK H PARENT 1 4 1 5 1 6 4 11
REMARK Flexibility Score: inf
ROOT
ATOM      1  C   UNL     1     100.961  53.619  49.834  1.00  0.00     0.227 C 
ENDROOT
BRANCH   1   2
ATOM      2  C   UNL     1     101.945  53.650  48.649  1.00  0.00     0.253 C 
BRANCH   2   3
ATOM      3  N   UNL     1     101.963  54.977  48.026  1.00  0.00    -0.348 N 
ATOM      4  H   UNL     1     102.931  55.377  48.032  1.00  0.00     0.345 HD
ATOM      5  H   UNL     1     101.631  54.907  47.036  1.00  0.00     0.345 HD
ATOM      6  H   UNL     1     101.322  55.621  48.543  1.00  0.00     0.345 HD
ENDBRANCH   2   3
BRANCH   2   7
ATOM      7  C   UNL     1     101.590  52.595  47.634  1.00  0.00     0.102 C 
ATOM      8  O   UNL     1     101.142  52.922  46.503  1.00  0.00    -0.544 OA
ATOM      9  O   UNL     1     101.745  51.251  47.947  1.00  0.00    -0.544 OA
ENDBRANCH   2   7
ENDBRANCH   1   2
BRANCH   1  10
ATOM     10  O   UNL     1      99.867  52.787  49.550  1.00  0.00    -0.390 OA
ATOM     11  H   UNL     1     100.183  52.119  48.887  1.00  0.00     0.210 HD
ENDBRANCH   1  10
TORSDOF 4
ENDMDL
MODEL 8
REMARK VINA RESULT:    -3.461      1.595      1.895
REMARK INTER + INTRA:          -4.075
REMARK INTER:                  -4.068
REMARK INTRA:                  -0.007
REMARK UNBOUND:                -0.006
REMARK SMILES [NH3+][C@@H](CO)C(=O)[O-]
REMARK SMILES IDX 3 1 2 2 1 3 5 7 6 8 7 9 4 10
REMARK H PARENT 1 4 1 5 1 6 4 11
REMARK Flexibility Score: inf
ROOT
ATOM      1  C   UNL     1     102.006  51.107  47.888  1.00  0.00     0.227 C 
ENDROOT
BRANCH   1   2
ATOM      2  C   UNL     1     101.302  52.456  47.649  1.00  0.00     0.253 C 
BRANCH   2   3
ATOM      3  N   UNL     1     102.031  53.251  46.654  1.00  0.00    -0.348 N 
ATOM      4  H   UNL     1     101.806  54.268  46.756  1.00  0.00     0.345 HD
ATOM      5  H   UNL     1     103.060  53.115  46.779  1.00  0.00     0.345 HD
ATOM      6  H   UNL     1     101.773  52.936  45.690  1.00  0.00     0.345 HD
ENDBRANCH   2   3
BRANCH   2   7
ATOM      7  C   UNL     1     101.166  53.221  48.938  1.00  0.00     0.102 C 
ATOM      8  O   UNL     1     100.333  52.861  49.812  1.00  0.00    -0.544 OA
ATOM      9  O   UNL     1     101.954  54.342  49.166  1.00  0.00    -0.544 OA
ENDBRANCH   2   7
ENDBRANCH   1   2
BRANCH   1  10
ATOM     10  O   UNL     1     101.734  50.211  46.843  1.00  0.00    -0.390 OA
ATOM     11  H   UNL     1     102.592  49.763  46.622  1.00  0.00     0.210 HD
ENDBRANCH   1  10
TORSDOF 4
ENDMDL
MODEL 9
REMARK VINA RESULT:    -3.231      3.871      4.852
REMARK INTER + INTRA:          -3.805
REMARK INTER:                  -3.797
REMARK INTRA:                  -0.008
REMARK UNBOUND:                -0.006
REMARK SMILES [NH3+][C@@H](CO)C(=O)[O-]
REMARK SMILES IDX 3 1 2 2 1 3 5 7 6 8 7 9 4 10
REMARK H PARENT 1 4 1 5 1 6 4 11
REMARK Flexibility Score: inf
ROOT
ATOM      1  C   UNL     1     101.625  55.125  49.875  1.00  0.00     0.227 C 
ENDROOT
BRANCH   1   2
ATOM      2  C   UNL     1     101.248  53.923  50.762  1.00  0.00     0.253 C 
BRANCH   2   3
ATOM      3  N   UNL     1     100.152  53.157  50.158  1.00  0.00    -0.348 N 
ATOM      4  H   UNL     1      99.301  53.186  50.766  1.00  0.00     0.345 HD
ATOM      5  H   UNL     1      99.915  53.558  49.221  1.00  0.00     0.345 HD
ATOM      6  H   UNL     1     100.446  52.163  50.024  1.00  0.00     0.345 HD
ENDBRANCH   2   3
BRANCH   2   7
ATOM      7  C   UNL     1     100.871  54.380  52.146  1.00  0.00     0.102 C 
ATOM      8  O   UNL     1     101.646  55.121  52.809  1.00  0.00    -0.544 OA
ATOM      9  O   UNL     1      99.667  53.975  52.707  1.00  0.00    -0.544 OA
ENDBRANCH   2   7
ENDBRANCH   1   2
BRANCH   1  10
ATOM     10  O   UNL     1     102.290  54.699  48.716  1.00  0.00    -0.390 OA
ATOM     11  H   UNL     1     102.447  53.724  48.820  1.00  0.00     0.210 HD
ENDBRANCH   1  10
TORSDOF 4
ENDMDL
