MODEL 1
REMARK VINA RESULT:    -3.876      0.000      0.000
REMARK INTER + INTRA:          -7.892
REMARK INTER:                  -6.595
REMARK INTRA:                  -1.296
REMARK UNBOUND:                -1.296
REMARK SMILES CCCCCCCCCCCCCC(=O)[O-]
REMARK SMILES IDX 8 1 9 2 10 3 11 4 12 5 13 6 14 7 15 8 16 9 7 10 6 11 5 12
REMARK SMILES IDX 4 13 3 14 2 15 1 16
REMARK H PARENT
REMARK Flexibility Score: inf
ROOT
ATOM      1  C   UNL     1       5.295  10.271   7.182  1.00  0.00     0.000 C 
ENDROOT
BRANCH   1   2
ATOM      2  C   UNL     1       4.223  10.161   8.283  1.00  0.00     0.000 C 
BRANCH   2   3
ATOM      3  C   UNL     1       4.755   9.747   9.667  1.00  0.00     0.000 C 
BRANCH   3   4
ATOM      4  C   UNL     1       4.954   8.227   9.801  1.00  0.00     0.000 C 
BRANCH   4   5
ATOM      5  C   UNL     1       3.989   7.413   8.920  1.00  0.00     0.006 C 
BRANCH   5   6
ATOM      6  C   UNL     1       3.734   5.985   9.433  1.00  0.00     0.053 C 
BRANCH   6   7
ATOM      7  C   UNL     1       3.300   5.052   8.344  1.00  0.00     0.041 C 
ATOM      8  O   UNL     1       4.018   4.894   7.322  1.00  0.00    -0.550 OA
ATOM      9  O   UNL     1       2.117   4.334   8.468  1.00  0.00    -0.550 OA
ENDBRANCH   6   7
ENDBRANCH   5   6
ENDBRANCH   4   5
ENDBRANCH   3   4
ENDBRANCH   2   3
ENDBRANCH   1   2
BRANCH   1  10
ATOM     10  C   UNL     1       4.988  11.376   6.156  1.00  0.00     0.000 C 
BRANCH  10  11
ATOM     11  C   UNL     1       4.028  12.442   6.710  1.00  0.00    -0.000 C 
BRANCH  11  12
ATOM     12  C   UNL     1       4.576  13.870   6.547  1.00  0.00    -0.000 C 
BRANCH  12  13
ATOM     13  C   UNL     1       5.433  14.316   7.744  1.00  0.00    -0.000 C 
BRANCH  13  14
ATOM     14  C   UNL     1       6.940  14.282   7.439  1.00  0.00    -0.000 C 
BRANCH  14  15
ATOM     15  C   UNL     1       7.672  13.178   8.218  1.00  0.00    -0.003 C 
ATOM     16  C   UNL     1       6.938  12.765   9.495  1.00  0.00     0.004 C 
ENDBRANCH  14  15
ENDBRANCH  13  14
ENDBRANCH  12  13
ENDBRANCH  11  12
ENDBRANCH  10  11
ENDBRANCH   1  10
TORSDOF 12
ENDMDL
MODEL 2
REMARK VINA RESULT:    -3.857      1.189      1.922
REMARK INTER + INTRA:          -7.860
REMARK INTER:                  -6.181
REMARK INTRA:                  -1.679
REMARK UNBOUND:                -1.296
REMARK SMILES CCCCCCCCCCCCCC(=O)[O-]
REMARK SMILES IDX 8 1 9 2 10 3 11 4 12 5 13 6 14 7 15 8 16 9 7 10 6 11 5 12
REMARK SMILES IDX 4 13 3 14 2 15 1 16
REMARK H PARENT
REMARK Flexibility Score: inf
ROOT
ATOM      1  C   UNL     1       4.821  11.386   6.064  1.00  0.00     0.000 C 
ENDROOT
BRANCH   1   2
ATOM      2  C   UNL     1       4.932  10.170   7.002  1.00  0.00     0.000 C 
BRANCH   2   3
ATOM      3  C   UNL     1       4.205  10.323   8.351  1.00  0.00     0.000 C 
BRANCH   3   4
ATOM      4  C   UNL     1       5.084   9.929   9.551  1.00  0.00     0.000 C 
BRANCH   4   5
ATOM      5  C   UNL     1       5.354   8.415   9.628  1.00  0.00     0.006 C 
BRANCH   5   6
ATOM      6  C   UNL     1       4.078   7.555   9.643  1.00  0.00     0.053 C 
BRANCH   6   7
ATOM      7  C   UNL     1       4.276   6.221   8.991  1.00  0.00     0.041 C 
ATOM      8  O   UNL     1       5.218   5.470   9.358  1.00  0.00    -0.550 OA
ATOM      9  O   UNL     1       3.405   5.792   7.998  1.00  0.00    -0.550 OA
ENDBRANCH   6   7
ENDBRANCH   5   6
ENDBRANCH   4   5
ENDBRANCH   3   4
ENDBRANCH   2   3
ENDBRANCH   1   2
BRANCH   1  10
ATOM     10  C   UNL     1       4.049  12.559   6.694  1.00  0.00     0.000 C 
BRANCH  10  11
ATOM     11  C   UNL     1       4.807  13.893   6.576  1.00  0.00    -0.000 C 
BRANCH  11  12
ATOM     12  C   UNL     1       5.621  14.220   7.839  1.00  0.00    -0.000 C 
BRANCH  12  13
ATOM     13  C   UNL     1       7.126  13.960   7.658  1.00  0.00    -0.000 C 
BRANCH  13  14
ATOM     14  C   UNL     1       7.570  12.612   8.252  1.00  0.00    -0.000 C 
BRANCH  14  15
ATOM     15  C   UNL     1       8.311  11.735   7.231  1.00  0.00    -0.003 C 
ATOM     16  C   UNL     1       8.516  10.300   7.718  1.00  0.00     0.004 C 
ENDBRANCH  14  15
ENDBRANCH  13  14
ENDBRANCH  12  13
ENDBRANCH  11  12
ENDBRANCH  10  11
ENDBRANCH   1  10
TORSDOF 12
ENDMDL
MODEL 3
REMARK VINA RESULT:    -3.766      1.147      2.034
REMARK INTER + INTRA:          -7.704
REMARK INTER:                  -7.011
REMARK INTRA:                  -0.693
REMARK UNBOUND:                -1.296
REMARK SMILES CCCCCCCCCCCCCC(=O)[O-]
REMARK SMILES IDX 8 1 9 2 10 3 11 4 12 5 13 6 14 7 15 8 16 9 7 10 6 11 5 12
REMARK SMILES IDX 4 13 3 14 2 15 1 16
REMARK H PARENT
REMARK Flexibility Score: inf
ROOT
ATOM      1  C   UNL     1       5.189   9.444   8.095  1.00  0.00     0.000 C 
ENDROOT
BRANCH   1   2
ATOM      2  C   UNL     1       4.113   8.563   8.755  1.00  0.00     0.000 C 
BRANCH   2   3
ATOM      3  C   UNL     1       4.545   7.112   9.037  1.00  0.00     0.000 C 
BRANCH   3   4
ATOM      4  C   UNL     1       3.467   6.299   9.775  1.00  0.00     0.000 C 
BRANCH   4   5
ATOM      5  C   UNL     1       3.439   4.818   9.358  1.00  0.00     0.006 C 
BRANCH   5   6
ATOM      6  C   UNL     1       2.425   4.504   8.243  1.00  0.00     0.053 C 
BRANCH   6   7
ATOM      7  C   UNL     1       3.085   4.244   6.923  1.00  0.00     0.041 C 
ATOM      8  O   UNL     1       2.399   3.868   5.936  1.00  0.00    -0.550 OA
ATOM      9  O   UNL     1       4.451   4.443   6.772  1.00  0.00    -0.550 OA
ENDBRANCH   6   7
ENDBRANCH   5   6
ENDBRANCH   4   5
ENDBRANCH   3   4
ENDBRANCH   2   3
ENDBRANCH   1   2
BRANCH   1  10
ATOM     10  C   UNL     1       4.905  10.949   8.246  1.00  0.00     0.000 C 
BRANCH  10  11
ATOM     11  C   UNL     1       3.972  11.485   7.147  1.00  0.00    -0.000 C 
BRANCH  11  12
ATOM     12  C   UNL     1       4.703  12.398   6.148  1.00  0.00    -0.000 C 
BRANCH  12  13
ATOM     13  C   UNL     1       4.469  13.891   6.430  1.00  0.00    -0.000 C 
BRANCH  13  14
ATOM     14  C   UNL     1       5.263  14.395   7.648  1.00  0.00    -0.000 C 
BRANCH  14  15
ATOM     15  C   UNL     1       6.773  14.467   7.376  1.00  0.00    -0.003 C 
ATOM     16  C   UNL     1       7.589  13.581   8.319  1.00  0.00     0.004 C 
ENDBRANCH  14  15
ENDBRANCH  13  14
ENDBRANCH  12  13
ENDBRANCH  11  12
ENDBRANCH  10  11
ENDBRANCH   1  10
TORSDOF 12
ENDMDL
MODEL 4
REMARK VINA RESULT:    -3.584      3.472      7.421
REMARK INTER + INTRA:          -7.394
REMARK INTER:                  -6.482
REMARK INTRA:                  -0.912
REMARK UNBOUND:                -1.296
REMARK SMILES CCCCCCCCCCCCCC(=O)[O-]
REMARK SMILES IDX 8 1 9 2 10 3 11 4 12 5 13 6 14 7 15 8 16 9 7 10 6 11 5 12
REMARK SMILES IDX 4 13 3 14 2 15 1 16
REMARK H PARENT
REMARK Flexibility Score: inf
ROOT
ATOM      1  C   UNL     1       5.156  10.250   7.098  1.00  0.00     0.000 C 
ENDROOT
BRANCH   1   2
ATOM      2  C   UNL     1       4.885  11.411   6.123  1.00  0.00     0.000 C 
BRANCH   2   3
ATOM      3  C   UNL     1       4.093  12.588   6.720  1.00  0.00     0.000 C 
BRANCH   3   4
ATOM      4  C   UNL     1       4.804  13.941   6.539  1.00  0.00     0.000 C 
BRANCH   4   5
ATOM      5  C   UNL     1       5.388  14.495   7.850  1.00  0.00     0.006 C 
BRANCH   5   6
ATOM      6  C   UNL     1       6.293  13.499   8.598  1.00  0.00     0.053 C 
BRANCH   6   7
ATOM      7  C   UNL     1       7.680  13.448   8.035  1.00  0.00     0.041 C 
ATOM      8  O   UNL     1       8.044  12.465   7.336  1.00  0.00    -0.550 OA
ATOM      9  O   UNL     1       8.564  14.496   8.256  1.00  0.00    -0.550 OA
ENDBRANCH   6   7
ENDBRANCH   5   6
ENDBRANCH   4   5
ENDBRANCH   3   4
ENDBRANCH   2   3
ENDBRANCH   1   2
BRANCH   1  10
ATOM     10  C   UNL     1       4.137  10.186   8.249  1.00  0.00     0.000 C 
BRANCH  10  11
ATOM     11  C   UNL     1       4.774   9.736   9.575  1.00  0.00    -0.000 C 
BRANCH  11  12
ATOM     12  C   UNL     1       4.180   8.415  10.094  1.00  0.00    -0.000 C 
BRANCH  12  13
ATOM     13  C   UNL     1       4.159   7.313   9.022  1.00  0.00    -0.000 C 
BRANCH  13  14
ATOM     14  C   UNL     1       3.418   6.048   9.488  1.00  0.00    -0.000 C 
BRANCH  14  15
ATOM     15  C   UNL     1       3.103   5.091   8.328  1.00  0.00    -0.003 C 
ATOM     16  C   UNL     1       2.096   4.005   8.710  1.00  0.00     0.004 C 
ENDBRANCH  14  15
ENDBRANCH  13  14
ENDBRANCH  12  13
ENDBRANCH  11  12
ENDBRANCH  10  11
ENDBRANCH   1  10
TORSDOF 12
ENDMDL
MODEL 5
REMARK VINA RESULT:    -3.535     15.945     18.278
REMARK INTER + INTRA:          -7.311
REMARK INTER:                  -6.554
REMARK INTRA:                  -0.757
REMARK UNBOUND:                -1.296
REMARK SMILES CCCCCCCCCCCCCC(=O)[O-]
REMARK SMILES IDX 8 1 9 2 10 3 11 4 12 5 13 6 14 7 15 8 16 9 7 10 6 11 5 12
REMARK SMILES IDX 4 13 3 14 2 15 1 16
REMARK H PARENT
REMARK Flexibility Score: inf
ROOT
ATOM      1  C   UNL     1       2.293   4.397  -9.361  1.00  0.00     0.000 C 
ENDROOT
BRANCH   1   2
ATOM      2  C   UNL     1       2.215   5.809  -9.971  1.00  0.00     0.000 C 
BRANCH   2   3
ATOM      3  C   UNL     1       1.709   6.902  -9.013  1.00  0.00     0.000 C 
BRANCH   3   4
ATOM      4  C   UNL     1       2.759   7.993  -8.742  1.00  0.00     0.000 C 
BRANCH   4   5
ATOM      5  C   UNL     1       4.167   7.423  -8.487  1.00  0.00     0.006 C 
BRANCH   5   6
ATOM      6  C   UNL     1       4.948   8.164  -7.387  1.00  0.00     0.053 C 
BRANCH   6   7
ATOM      7  C   UNL     1       6.429   7.959  -7.496  1.00  0.00     0.041 C 
ATOM      8  O   UNL     1       7.181   8.921  -7.802  1.00  0.00    -0.550 OA
ATOM      9  O   UNL     1       6.982   6.713  -7.231  1.00  0.00    -0.550 OA
ENDBRANCH   6   7
ENDBRANCH   5   6
ENDBRANCH   4   5
ENDBRANCH   3   4
ENDBRANCH   2   3
ENDBRANCH   1   2
BRANCH   1  10
ATOM     10  C   UNL     1       3.466   3.570  -9.917  1.00  0.00     0.000 C 
BRANCH  10  11
ATOM     11  C   UNL     1       4.621   3.437  -8.910  1.00  0.00    -0.000 C 
BRANCH  11  12
ATOM     12  C   UNL     1       5.205   2.014  -8.868  1.00  0.00    -0.000 C 
BRANCH  12  13
ATOM     13  C   UNL     1       5.572   1.566  -7.443  1.00  0.00    -0.000 C 
BRANCH  13  14
ATOM     14  C   UNL     1       4.381   1.647  -6.472  1.00  0.00    -0.000 C 
BRANCH  14  15
ATOM     15  C   UNL     1       3.815   0.262  -6.121  1.00  0.00    -0.003 C 
ATOM     16  C   UNL     1       4.749  -0.552  -5.224  1.00  0.00     0.004 C 
ENDBRANCH  14  15
ENDBRANCH  13  14
ENDBRANCH  12  13
ENDBRANCH  11  12
ENDBRANCH  10  11
ENDBRANCH   1  10
TORSDOF 12
ENDMDL
MODEL 6
REMARK VINA RESULT:    -3.534     15.106     16.513
REMARK INTER + INTRA:          -7.309
REMARK INTER:                  -6.352
REMARK INTRA:                  -0.957
REMARK UNBOUND:                -1.296
REMARK SMILES CCCCCCCCCCCCCC(=O)[O-]
REMARK SMILES IDX 8 1 9 2 10 3 11 4 12 5 13 6 14 7 15 8 16 9 7 10 6 11 5 12
REMARK SMILES IDX 4 13 3 14 2 15 1 16
REMARK H PARENT
REMARK Flexibility Score: inf
ROOT
ATOM      1  C   UNL     1       2.914   6.322  -9.715  1.00  0.00     0.000 C 
ENDROOT
BRANCH   1   2
ATOM      2  C   UNL     1       2.242   4.968  -9.424  1.00  0.00     0.000 C 
BRANCH   2   3
ATOM      3  C   UNL     1       3.214   3.809  -9.139  1.00  0.00     0.000 C 
BRANCH   3   4
ATOM      4  C   UNL     1       4.668   4.279  -8.957  1.00  0.00     0.000 C 
BRANCH   4   5
ATOM      5  C   UNL     1       5.491   3.354  -8.043  1.00  0.00     0.006 C 
BRANCH   5   6
ATOM      6  C   UNL     1       4.817   1.999  -7.759  1.00  0.00     0.053 C 
BRANCH   6   7
ATOM      7  C   UNL     1       4.828   1.645  -6.303  1.00  0.00     0.041 C 
ATOM      8  O   UNL     1       5.658   2.186  -5.526  1.00  0.00    -0.550 OA
ATOM      9  O   UNL     1       3.904   0.740  -5.797  1.00  0.00    -0.550 OA
ENDBRANCH   6   7
ENDBRANCH   5   6
ENDBRANCH   4   5
ENDBRANCH   3   4
ENDBRANCH   2   3
ENDBRANCH   1   2
BRANCH   1  10
ATOM     10  C   UNL     1       2.256   7.491  -8.960  1.00  0.00     0.000 C 
BRANCH  10  11
ATOM     11  C   UNL     1       3.290   8.464  -8.367  1.00  0.00    -0.000 C 
BRANCH  11  12
ATOM     12  C   UNL     1       4.723   7.911  -8.432  1.00  0.00    -0.000 C 
BRANCH  12  13
ATOM     13  C   UNL     1       5.391   7.833  -7.048  1.00  0.00    -0.000 C 
BRANCH  13  14
ATOM     14  C   UNL     1       6.892   8.167  -7.096  1.00  0.00    -0.000 C 
BRANCH  14  15
ATOM     15  C   UNL     1       7.243   9.417  -6.273  1.00  0.00    -0.003 C 
ATOM     16  C   UNL     1       7.873   9.081  -4.921  1.00  0.00     0.004 C 
ENDBRANCH  14  15
ENDBRANCH  13  14
ENDBRANCH  12  13
ENDBRANCH  11  12
ENDBRANCH  10  11
ENDBRANCH   1  10
TORSDOF 12
ENDMDL
MODEL 7
REMARK VINA RESULT:    -3.532     15.638     17.113
REMARK INTER + INTRA:          -7.307
REMARK INTER:                  -6.056
REMARK INTRA:                  -1.251
REMARK UNBOUND:                -1.296
REMARK SMILES CCCCCCCCCCCCCC(=O)[O-]
REMARK SMILES IDX 8 1 9 2 10 3 11 4 12 5 13 6 14 7 15 8 16 9 7 10 6 11 5 12
REMARK SMILES IDX 4 13 3 14 2 15 1 16
REMARK H PARENT
REMARK Flexibility Score: inf
ROOT
ATOM      1  C   UNL     1       1.883   5.800  -9.399  1.00  0.00     0.000 C 
ENDROOT
BRANCH   1   2
ATOM      2  C   UNL     1       2.448   4.408  -9.735  1.00  0.00     0.000 C 
BRANCH   2   3
ATOM      3  C   UNL     1       3.538   3.901  -8.772  1.00  0.00     0.000 C 
BRANCH   3   4
ATOM      4  C   UNL     1       4.487   2.882  -9.427  1.00  0.00     0.000 C 
BRANCH   4   5
ATOM      5  C   UNL     1       5.246   2.020  -8.402  1.00  0.00     0.006 C 
BRANCH   5   6
ATOM      6  C   UNL     1       4.428   1.688  -7.141  1.00  0.00     0.053 C 
BRANCH   6   7
ATOM      7  C   UNL     1       5.258   1.715  -5.894  1.00  0.00     0.041 C 
ATOM      8  O   UNL     1       5.271   0.720  -5.121  1.00  0.00    -0.550 OA
ATOM      9  O   UNL     1       6.039   2.824  -5.597  1.00  0.00    -0.550 OA
ENDBRANCH   6   7
ENDBRANCH   5   6
ENDBRANCH   4   5
ENDBRANCH   3   4
ENDBRANCH   2   3
ENDBRANCH   1   2
BRANCH   1  10
ATOM     10  C   UNL     1       2.888   6.935  -9.666  1.00  0.00     0.000 C 
BRANCH  10  11
ATOM     11  C   UNL     1       2.892   7.992  -8.550  1.00  0.00    -0.000 C 
BRANCH  11  12
ATOM     12  C   UNL     1       4.270   8.652  -8.369  1.00  0.00    -0.000 C 
BRANCH  12  13
ATOM     13  C   UNL     1       5.109   7.979  -7.269  1.00  0.00    -0.000 C 
BRANCH  13  14
ATOM     14  C   UNL     1       6.451   7.440  -7.795  1.00  0.00    -0.000 C 
BRANCH  14  15
ATOM     15  C   UNL     1       6.327   6.026  -8.383  1.00  0.00    -0.003 C 
ATOM     16  C   UNL     1       7.407   5.072  -7.870  1.00  0.00     0.004 C 
ENDBRANCH  14  15
ENDBRANCH  13  14
ENDBRANCH  12  13
ENDBRANCH  11  12
ENDBRANCH  10  11
ENDBRANCH   1  10
TORSDOF 12
ENDMDL
MODEL 8
REMARK VINA RESULT:    -3.502      2.792      7.055
REMARK INTER + INTRA:          -7.255
REMARK INTER:                  -6.333
REMARK INTRA:                  -0.922
REMARK UNBOUND:                -1.296
REMARK SMILES CCCCCCCCCCCCCC(=O)[O-]
REMARK SMILES IDX 8 1 9 2 10 3 11 4 12 5 13 6 14 7 15 8 16 9 7 10 6 11 5 12
REMARK SMILES IDX 4 13 3 14 2 15 1 16
REMARK H PARENT
REMARK Flexibility Score: inf
ROOT
ATOM      1  C   UNL     1       5.792   9.472   8.768  1.00  0.00     0.000 C 
ENDROOT
BRANCH   1   2
ATOM      2  C   UNL     1       6.816  10.601   8.991  1.00  0.00     0.000 C 
BRANCH   2   3
ATOM      3  C   UNL     1       7.485  11.133   7.711  1.00  0.00     0.000 C 
BRANCH   3   4
ATOM      4  C   UNL     1       7.367  12.660   7.564  1.00  0.00     0.000 C 
BRANCH   4   5
ATOM      5  C   UNL     1       5.988  13.201   7.985  1.00  0.00     0.006 C 
BRANCH   5   6
ATOM      6  C   UNL     1       5.035  13.461   6.805  1.00  0.00     0.053 C 
BRANCH   6   7
ATOM      7  C   UNL     1       4.342  12.215   6.341  1.00  0.00     0.041 C 
ATOM      8  O   UNL     1       4.835  11.527   5.409  1.00  0.00    -0.550 OA
ATOM      9  O   UNL     1       3.169  11.798   6.955  1.00  0.00    -0.550 OA
ENDBRANCH   6   7
ENDBRANCH   5   6
ENDBRANCH   4   5
ENDBRANCH   3   4
ENDBRANCH   2   3
ENDBRANCH   1   2
BRANCH   1  10
ATOM     10  C   UNL     1       4.430   9.762   9.423  1.00  0.00     0.000 C 
BRANCH  10  11
ATOM     11  C   UNL     1       3.794   8.504  10.039  1.00  0.00    -0.000 C 
BRANCH  11  12
ATOM     12  C   UNL     1       4.504   7.212   9.601  1.00  0.00    -0.000 C 
BRANCH  12  13
ATOM     13  C   UNL     1       3.585   5.980   9.667  1.00  0.00    -0.000 C 
BRANCH  13  14
ATOM     14  C   UNL     1       3.355   5.339   8.287  1.00  0.00    -0.000 C 
BRANCH  14  15
ATOM     15  C   UNL     1       2.279   4.243   8.321  1.00  0.00    -0.003 C 
ATOM     16  C   UNL     1       1.433   4.280   9.594  1.00  0.00     0.004 C 
ENDBRANCH  14  15
ENDBRANCH  13  14
ENDBRANCH  12  13
ENDBRANCH  11  12
ENDBRANCH  10  11
ENDBRANCH   1  10
TORSDOF 12
ENDMDL
MODEL 9
REMARK VINA RESULT:    -3.472      3.448      7.783
REMARK INTER + INTRA:          -7.205
REMARK INTER:                  -6.341
REMARK INTRA:                  -0.864
REMARK UNBOUND:                -1.296
REMARK SMILES CCCCCCCCCCCCCC(=O)[O-]
REMARK SMILES IDX 8 1 9 2 10 3 11 4 12 5 13 6 14 7 15 8 16 9 7 10 6 11 5 12
REMARK SMILES IDX 4 13 3 14 2 15 1 16
REMARK H PARENT
REMARK Flexibility Score: inf
ROOT
ATOM      1  C   UNL     1       4.852  10.029   9.411  1.00  0.00     0.000 C 
ENDROOT
BRANCH   1   2
ATOM      2  C   UNL     1       4.207  10.230   8.026  1.00  0.00     0.000 C 
BRANCH   2   3
ATOM      3  C   UNL     1       5.204  10.382   6.863  1.00  0.00     0.000 C 
BRANCH   3   4
ATOM      4  C   UNL     1       4.932  11.629   6.003  1.00  0.00     0.000 C 
BRANCH   4   5
ATOM      5  C   UNL     1       4.113  12.703   6.740  1.00  0.00     0.006 C 
BRANCH   5   6
ATOM      6  C   UNL     1       4.889  14.006   7.004  1.00  0.00     0.053 C 
BRANCH   6   7
ATOM      7  C   UNL     1       6.102  13.790   7.856  1.00  0.00     0.041 C 
ATOM      8  O   UNL     1       5.977  13.444   9.060  1.00  0.00    -0.550 OA
ATOM      9  O   UNL     1       7.373  13.940   7.315  1.00  0.00    -0.550 OA
ENDBRANCH   6   7
ENDBRANCH   5   6
ENDBRANCH   4   5
ENDBRANCH   3   4
ENDBRANCH   2   3
ENDBRANCH   1   2
BRANCH   1  10
ATOM     10  C   UNL     1       4.361   8.755  10.120  1.00  0.00     0.000 C 
BRANCH  10  11
ATOM     11  C   UNL     1       4.137   7.587   9.144  1.00  0.00    -0.000 C 
BRANCH  11  12
ATOM     12  C   UNL     1       4.838   6.296   9.600  1.00  0.00    -0.000 C 
BRANCH  12  13
ATOM     13  C   UNL     1       3.857   5.127   9.792  1.00  0.00    -0.000 C 
BRANCH  13  14
ATOM     14  C   UNL     1       2.885   4.968   8.611  1.00  0.00    -0.000 C 
BRANCH  14  15
ATOM     15  C   UNL     1       3.339   3.886   7.618  1.00  0.00    -0.003 C 
ATOM     16  C   UNL     1       3.445   2.501   8.256  1.00  0.00     0.004 C 
ENDBRANCH  14  15
ENDBRANCH  13  14
ENDBRANCH  12  13
ENDBRANCH  11  12
ENDBRANCH  10  11
ENDBRANCH   1  10
TORSDOF 12
ENDMDL
