MODEL 1
REMARK VINA RESULT:    -3.465      0.000      0.000
REMARK INTER + INTRA:          -4.796
REMARK INTER:                  -4.478
REMARK INTRA:                  -0.318
REMARK UNBOUND:                -0.318
REMARK SMILES CCO[C@@H]1O[C@@H](CO)[C@H](O)[C@H](O)[C@@H]1O
REMARK SMILES IDX 4 1 13 2 11 3 9 4 6 5 5 6 3 7 2 8 1 9 14 10 12 12 7 14 8 15
REMARK SMILES IDX 10 17
REMARK H PARENT 14 11 12 13 8 16 10 18
REMARK Flexibility Score: inf
ROOT
ATOM      1  C   UNL     1       2.093   6.786   2.617  1.00  0.00     0.281 C 
ATOM      2  C   UNL     1       2.174   8.318   2.484  1.00  0.00     0.202 C 
ATOM      3  C   UNL     1       3.135   8.912   3.534  1.00  0.00     0.179 C 
ATOM      4  C   UNL     1       4.476   8.164   3.491  1.00  0.00     0.177 C 
ATOM      5  C   UNL     1       4.233   6.638   3.584  1.00  0.00     0.178 C 
ATOM      6  O   UNL     1       3.388   6.204   2.529  1.00  0.00    -0.341 OA
ENDROOT
BRANCH   1   7
ATOM      7  O   UNL     1       1.440   6.427   3.825  1.00  0.00    -0.350 OA
BRANCH   7   8
ATOM      8  C   UNL     1       0.296   5.644   3.548  1.00  0.00     0.160 C 
ATOM      9  C   UNL     1       0.135   4.598   4.640  1.00  0.00     0.035 C 
ENDBRANCH   7   8
ENDBRANCH   1   7
BRANCH   2  10
ATOM     10  O   UNL     1       0.890   8.873   2.612  1.00  0.00    -0.385 OA
ATOM     11  H   UNL     1       0.848   9.291   3.512  1.00  0.00     0.211 HD
ENDBRANCH   2  10
BRANCH   3  12
ATOM     12  O   UNL     1       2.580   8.819   4.823  1.00  0.00    -0.387 OA
ATOM     13  H   UNL     1       1.726   9.326   4.808  1.00  0.00     0.211 HD
ENDBRANCH   3  12
BRANCH   5  14
ATOM     14  C   UNL     1       5.557   5.866   3.488  1.00  0.00     0.191 C 
BRANCH  14  15
ATOM     15  O   UNL     1       6.354   6.118   4.614  1.00  0.00    -0.394 OA
ATOM     16  H   UNL     1       6.775   7.006   4.472  1.00  0.00     0.210 HD
ENDBRANCH  14  15
ENDBRANCH   5  14
BRANCH   4  17
ATOM     17  O   UNL     1       5.281   8.603   4.557  1.00  0.00    -0.387 OA
ATOM     18  H   UNL     1       4.676   8.983   5.245  1.00  0.00     0.211 HD
ENDBRANCH   4  17
TORSDOF 7
ENDMDL
MODEL 2
REMARK VINA RESULT:    -3.101      1.325      1.730
REMARK INTER + INTRA:          -4.326
REMARK INTER:                  -3.933
REMARK INTRA:                  -0.392
REMARK UNBOUND:                -0.318
REMARK SMILES CCO[C@@H]1O[C@@H](CO)[C@H](O)[C@H](O)[C@@H]1O
REMARK SMILES IDX 4 1 13 2 11 3 9 4 6 5 5 6 3 7 2 8 1 9 14 10 12 12 7 14 8 15
REMARK SMILES IDX 10 17
REMARK H PARENT 14 11 12 13 8 16 10 18
REMARK Flexibility Score: inf
ROOT
ATOM      1  C   UNL     1       2.891   7.259   2.529  1.00  0.00     0.281 C 
ATOM      2  C   UNL     1       3.878   8.435   2.657  1.00  0.00     0.202 C 
ATOM      3  C   UNL     1       4.933   8.153   3.746  1.00  0.00     0.179 C 
ATOM      4  C   UNL     1       5.563   6.772   3.512  1.00  0.00     0.177 C 
ATOM      5  C   UNL     1       4.453   5.705   3.355  1.00  0.00     0.178 C 
ATOM      6  O   UNL     1       3.587   6.043   2.282  1.00  0.00    -0.341 OA
ENDROOT
BRANCH   1   7
ATOM      7  O   UNL     1       2.076   7.168   3.687  1.00  0.00    -0.350 OA
BRANCH   7   8
ATOM      8  C   UNL     1       0.833   6.578   3.365  1.00  0.00     0.160 C 
ATOM      9  C   UNL     1       0.608   5.374   4.266  1.00  0.00     0.035 C 
ENDBRANCH   7   8
ENDBRANCH   1   7
BRANCH   2  10
ATOM     10  O   UNL     1       3.172   9.616   2.937  1.00  0.00    -0.385 OA
ATOM     11  H   UNL     1       2.806   9.942   2.073  1.00  0.00     0.211 HD
ENDBRANCH   2  10
BRANCH   3  12
ATOM     12  O   UNL     1       4.349   8.200   5.025  1.00  0.00    -0.387 OA
ATOM     13  H   UNL     1       4.589   7.353   5.484  1.00  0.00     0.211 HD
ENDBRANCH   3  12
BRANCH   5  14
ATOM     14  C   UNL     1       5.058   4.323   3.066  1.00  0.00     0.191 C 
BRANCH  14  15
ATOM     15  O   UNL     1       6.135   4.437   2.173  1.00  0.00    -0.394 OA
ATOM     16  H   UNL     1       5.753   4.729   1.304  1.00  0.00     0.210 HD
ENDBRANCH  14  15
ENDBRANCH   5  14
BRANCH   4  17
ATOM     17  O   UNL     1       6.399   6.459   4.598  1.00  0.00    -0.387 OA
ATOM     18  H   UNL     1       7.321   6.364   4.241  1.00  0.00     0.211 HD
ENDBRANCH   4  17
TORSDOF 7
ENDMDL
MODEL 3
REMARK VINA RESULT:    -2.934      1.639      4.058
REMARK INTER + INTRA:          -4.109
REMARK INTER:                  -3.791
REMARK INTRA:                  -0.317
REMARK UNBOUND:                -0.318
REMARK SMILES CCO[C@@H]1O[C@@H](CO)[C@H](O)[C@H](O)[C@@H]1O
REMARK SMILES IDX 4 1 13 2 11 3 9 4 6 5 5 6 3 7 2 8 1 9 14 10 12 12 7 14 8 15
REMARK SMILES IDX 10 17
REMARK H PARENT 14 11 12 13 8 16 10 18
REMARK Flexibility Score: inf
ROOT
ATOM      1  C   UNL     1       4.486   8.715   2.942  1.00  0.00     0.281 C 
ATOM      2  C   UNL     1       5.792   7.968   2.614  1.00  0.00     0.202 C 
ATOM      3  C   UNL     1       5.826   6.589   3.304  1.00  0.00     0.179 C 
ATOM      4  C   UNL     1       4.526   5.828   3.005  1.00  0.00     0.177 C 
ATOM      5  C   UNL     1       3.304   6.718   3.337  1.00  0.00     0.178 C 
ATOM      6  O   UNL     1       3.355   7.927   2.593  1.00  0.00    -0.341 OA
ENDROOT
BRANCH   1   7
ATOM      7  O   UNL     1       4.460   9.090   4.311  1.00  0.00    -0.350 OA
BRANCH   7   8
ATOM      8  C   UNL     1       3.521  10.125   4.516  1.00  0.00     0.160 C 
ATOM      9  C   UNL     1       2.404   9.611   5.412  1.00  0.00     0.035 C 
ENDBRANCH   7   8
ENDBRANCH   1   7
BRANCH   2  10
ATOM     10  O   UNL     1       6.894   8.748   3.001  1.00  0.00    -0.385 OA
ATOM     11  H   UNL     1       6.984   8.644   3.985  1.00  0.00     0.211 HD
ENDBRANCH   2  10
BRANCH   3  12
ATOM     12  O   UNL     1       5.984   6.734   4.694  1.00  0.00    -0.387 OA
ATOM     13  H   UNL     1       5.085   6.922   5.070  1.00  0.00     0.211 HD
ENDBRANCH   3  12
BRANCH   5  14
ATOM     14  C   UNL     1       1.992   5.998   2.995  1.00  0.00     0.191 C 
BRANCH  14  15
ATOM     15  O   UNL     1       1.458   5.384   4.138  1.00  0.00    -0.394 OA
ATOM     16  H   UNL     1       2.060   5.615   4.892  1.00  0.00     0.210 HD
ENDBRANCH  14  15
ENDBRANCH   5  14
BRANCH   4  17
ATOM     17  O   UNL     1       4.499   4.647   3.769  1.00  0.00    -0.387 OA
ATOM     18  H   UNL     1       4.709   3.895   3.155  1.00  0.00     0.211 HD
ENDBRANCH   4  17
TORSDOF 7
ENDMDL
MODEL 4
REMARK VINA RESULT:    -2.628      1.512      4.109
REMARK INTER + INTRA:          -3.714
REMARK INTER:                  -3.414
REMARK INTRA:                  -0.299
REMARK UNBOUND:                -0.318
REMARK SMILES CCO[C@@H]1O[C@@H](CO)[C@H](O)[C@H](O)[C@@H]1O
REMARK SMILES IDX 4 1 13 2 11 3 9 4 6 5 5 6 3 7 2 8 1 9 14 10 12 12 7 14 8 15
REMARK SMILES IDX 10 17
REMARK H PARENT 14 11 12 13 8 16 10 18
REMARK Flexibility Score: inf
ROOT
ATOM      1  C   UNL     1       4.644   5.852   3.446  1.00  0.00     0.281 C 
ATOM      2  C   UNL     1       5.022   7.234   4.013  1.00  0.00     0.202 C 
ATOM      3  C   UNL     1       4.120   8.337   3.422  1.00  0.00     0.179 C 
ATOM      4  C   UNL     1       2.645   7.934   3.566  1.00  0.00     0.177 C 
ATOM      5  C   UNL     1       2.429   6.510   2.999  1.00  0.00     0.178 C 
ATOM      6  O   UNL     1       3.267   5.577   3.667  1.00  0.00    -0.341 OA
ENDROOT
BRANCH   1   7
ATOM      7  O   UNL     1       4.978   5.774   2.068  1.00  0.00    -0.350 OA
BRANCH   7   8
ATOM      8  C   UNL     1       6.063   4.889   1.878  1.00  0.00     0.160 C 
ATOM      9  C   UNL     1       5.625   3.481   2.250  1.00  0.00     0.035 C 
ENDBRANCH   7   8
ENDBRANCH   1   7
BRANCH   2  10
ATOM     10  O   UNL     1       6.375   7.500   3.750  1.00  0.00    -0.385 OA
ATOM     11  H   UNL     1       6.903   6.902   4.341  1.00  0.00     0.211 HD
ENDBRANCH   2  10
BRANCH   3  12
ATOM     12  O   UNL     1       4.425   8.552   2.066  1.00  0.00    -0.387 OA
ATOM     13  H   UNL     1       4.435   9.534   1.923  1.00  0.00     0.211 HD
ENDBRANCH   3  12
BRANCH   5  14
ATOM     14  C   UNL     1       0.971   6.062   3.182  1.00  0.00     0.191 C 
BRANCH  14  15
ATOM     15  O   UNL     1       0.349   6.818   4.187  1.00  0.00    -0.394 OA
ATOM     16  H   UNL     1      -0.574   7.004   3.873  1.00  0.00     0.210 HD
ENDBRANCH  14  15
ENDBRANCH   5  14
BRANCH   4  17
ATOM     17  O   UNL     1       1.845   8.865   2.881  1.00  0.00    -0.387 OA
ATOM     18  H   UNL     1       2.447   9.582   2.550  1.00  0.00     0.211 HD
ENDBRANCH   4  17
TORSDOF 7
ENDMDL
MODEL 5
REMARK VINA RESULT:    -2.569      1.783      3.233
REMARK INTER + INTRA:          -3.637
REMARK INTER:                  -3.160
REMARK INTRA:                  -0.477
REMARK UNBOUND:                -0.318
REMARK SMILES CCO[C@@H]1O[C@@H](CO)[C@H](O)[C@H](O)[C@@H]1O
REMARK SMILES IDX 4 1 13 2 11 3 9 4 6 5 5 6 3 7 2 8 1 9 14 10 12 12 7 14 8 15
REMARK SMILES IDX 10 17
REMARK H PARENT 14 11 12 13 8 16 10 18
REMARK Flexibility Score: inf
ROOT
ATOM      1  C   UNL     1       1.002   8.275   4.296  1.00  0.00     0.281 C 
ATOM      2  C   UNL     1       0.848   6.746   4.180  1.00  0.00     0.202 C 
ATOM      3  C   UNL     1       1.885   6.161   3.199  1.00  0.00     0.179 C 
ATOM      4  C   UNL     1       3.288   6.668   3.563  1.00  0.00     0.177 C 
ATOM      5  C   UNL     1       3.276   8.210   3.692  1.00  0.00     0.178 C 
ATOM      6  O   UNL     1       2.330   8.620   4.669  1.00  0.00    -0.341 OA
ENDROOT
BRANCH   1   7
ATOM      7  O   UNL     1       0.620   8.904   3.083  1.00  0.00    -0.350 OA
BRANCH   7   8
ATOM      8  C   UNL     1      -0.039  10.125   3.352  1.00  0.00     0.160 C 
ATOM      9  C   UNL     1      -1.013   9.920   4.501  1.00  0.00     0.035 C 
ENDBRANCH   7   8
ENDBRANCH   1   7
BRANCH   2  10
ATOM     10  O   UNL     1      -0.458   6.431   3.775  1.00  0.00    -0.385 OA
ATOM     11  H   UNL     1      -1.045   7.157   4.115  1.00  0.00     0.211 HD
ENDBRANCH   2  10
BRANCH   3  12
ATOM     12  O   UNL     1       1.575   6.527   1.876  1.00  0.00    -0.387 OA
ATOM     13  H   UNL     1       1.461   5.686   1.362  1.00  0.00     0.211 HD
ENDBRANCH   3  12
BRANCH   5  14
ATOM     14  C   UNL     1       4.656   8.736   4.110  1.00  0.00     0.191 C 
BRANCH  14  15
ATOM     15  O   UNL     1       5.341   7.771   4.864  1.00  0.00    -0.394 OA
ATOM     16  H   UNL     1       5.304   8.071   5.809  1.00  0.00     0.210 HD
ENDBRANCH  14  15
ENDBRANCH   5  14
BRANCH   4  17
ATOM     17  O   UNL     1       4.195   6.262   2.569  1.00  0.00    -0.387 OA
ATOM     18  H   UNL     1       4.101   5.279   2.469  1.00  0.00     0.211 HD
ENDBRANCH   4  17
TORSDOF 7
ENDMDL
MODEL 6
REMARK VINA RESULT:    -2.274      1.439      4.072
REMARK INTER + INTRA:          -3.257
REMARK INTER:                  -2.947
REMARK INTRA:                  -0.309
REMARK UNBOUND:                -0.318
REMARK SMILES CCO[C@@H]1O[C@@H](CO)[C@H](O)[C@H](O)[C@@H]1O
REMARK SMILES IDX 4 1 13 2 11 3 9 4 6 5 5 6 3 7 2 8 1 9 14 10 12 12 7 14 8 15
REMARK SMILES IDX 10 17
REMARK H PARENT 14 11 12 13 8 16 10 18
REMARK Flexibility Score: inf
ROOT
ATOM      1  C   UNL     1       3.944   6.726   3.471  1.00  0.00     0.281 C 
ATOM      2  C   UNL     1       3.899   7.999   4.338  1.00  0.00     0.202 C 
ATOM      3  C   UNL     1       2.836   8.985   3.814  1.00  0.00     0.179 C 
ATOM      4  C   UNL     1       1.498   8.255   3.628  1.00  0.00     0.177 C 
ATOM      5  C   UNL     1       1.708   6.977   2.781  1.00  0.00     0.178 C 
ATOM      6  O   UNL     1       2.659   6.122   3.399  1.00  0.00    -0.341 OA
ENDROOT
BRANCH   1   7
ATOM      7  O   UNL     1       4.454   7.024   2.180  1.00  0.00    -0.350 OA
BRANCH   7   8
ATOM      8  C   UNL     1       5.539   6.171   1.876  1.00  0.00     0.160 C 
ATOM      9  C   UNL     1       5.679   5.134   2.979  1.00  0.00     0.035 C 
ENDBRANCH   7   8
ENDBRANCH   1   7
BRANCH   2  10
ATOM     10  O   UNL     1       5.169   8.598   4.364  1.00  0.00    -0.385 OA
ATOM     11  H   UNL     1       5.206   9.151   5.189  1.00  0.00     0.211 HD
ENDBRANCH   2  10
BRANCH   3  12
ATOM     12  O   UNL     1       3.244   9.551   2.593  1.00  0.00    -0.387 OA
ATOM     13  H   UNL     1       3.218   8.826   1.915  1.00  0.00     0.211 HD
ENDBRANCH   3  12
BRANCH   5  14
ATOM     14  C   UNL     1       0.392   6.199   2.626  1.00  0.00     0.191 C 
BRANCH  14  15
ATOM     15  O   UNL     1      -0.483   6.504   3.679  1.00  0.00    -0.394 OA
ATOM     16  H   UNL     1      -1.259   6.974   3.277  1.00  0.00     0.210 HD
ENDBRANCH  14  15
ENDBRANCH   5  14
BRANCH   4  17
ATOM     17  O   UNL     1       0.586   9.120   2.999  1.00  0.00    -0.387 OA
ATOM     18  H   UNL     1       0.038   9.540   3.713  1.00  0.00     0.211 HD
ENDBRANCH   4  17
TORSDOF 7
ENDMDL
MODEL 7
REMARK VINA RESULT:    -2.108      1.818      4.795
REMARK INTER + INTRA:          -3.041
REMARK INTER:                  -2.624
REMARK INTRA:                  -0.418
REMARK UNBOUND:                -0.318
REMARK SMILES CCO[C@@H]1O[C@@H](CO)[C@H](O)[C@H](O)[C@@H]1O
REMARK SMILES IDX 4 1 13 2 11 3 9 4 6 5 5 6 3 7 2 8 1 9 14 10 12 12 7 14 8 15
REMARK SMILES IDX 10 17
REMARK H PARENT 14 11 12 13 8 16 10 18
REMARK Flexibility Score: inf
ROOT
ATOM      1  C   UNL     1       2.853   8.295   2.809  1.00  0.00     0.281 C 
ATOM      2  C   UNL     1       2.281   7.140   1.966  1.00  0.00     0.202 C 
ATOM      3  C   UNL     1       0.957   6.623   2.566  1.00  0.00     0.179 C 
ATOM      4  C   UNL     1       0.007   7.803   2.817  1.00  0.00     0.177 C 
ATOM      5  C   UNL     1       0.733   8.902   3.630  1.00  0.00     0.178 C 
ATOM      6  O   UNL     1       1.897   9.339   2.945  1.00  0.00    -0.341 OA
ENDROOT
BRANCH   1   7
ATOM      7  O   UNL     1       3.290   7.818   4.073  1.00  0.00    -0.350 OA
BRANCH   7   8
ATOM      8  C   UNL     1       4.601   8.271   4.339  1.00  0.00     0.160 C 
ATOM      9  C   UNL     1       5.568   7.106   4.192  1.00  0.00     0.035 C 
ENDBRANCH   7   8
ENDBRANCH   1   7
BRANCH   2  10
ATOM     10  O   UNL     1       3.227   6.106   1.877  1.00  0.00    -0.385 OA
ATOM     11  H   UNL     1       3.988   6.365   2.460  1.00  0.00     0.211 HD
ENDBRANCH   2  10
BRANCH   3  12
ATOM     12  O   UNL     1       1.194   5.937   3.771  1.00  0.00    -0.387 OA
ATOM     13  H   UNL     1       1.361   4.987   3.535  1.00  0.00     0.211 HD
ENDBRANCH   3  12
BRANCH   5  14
ATOM     14  C   UNL     1      -0.181  10.117   3.848  1.00  0.00     0.191 C 
BRANCH  14  15
ATOM     15  O   UNL     1      -1.029   9.902   4.944  1.00  0.00    -0.394 OA
ATOM     16  H   UNL     1      -0.495  10.093   5.759  1.00  0.00     0.210 HD
ENDBRANCH  14  15
ENDBRANCH   5  14
BRANCH   4  17
ATOM     17  O   UNL     1      -1.125   7.341   3.512  1.00  0.00    -0.387 OA
ATOM     18  H   UNL     1      -1.827   8.039   3.427  1.00  0.00     0.211 HD
ENDBRANCH   4  17
TORSDOF 7
ENDMDL
MODEL 8
REMARK VINA RESULT:    -2.100      1.717      3.222
REMARK INTER + INTRA:          -3.032
REMARK INTER:                  -2.781
REMARK INTRA:                  -0.250
REMARK UNBOUND:                -0.318
REMARK SMILES CCO[C@@H]1O[C@@H](CO)[C@H](O)[C@H](O)[C@@H]1O
REMARK SMILES IDX 4 1 13 2 11 3 9 4 6 5 5 6 3 7 2 8 1 9 14 10 12 12 7 14 8 15
REMARK SMILES IDX 10 17
REMARK H PARENT 14 11 12 13 8 16 10 18
REMARK Flexibility Score: inf
ROOT
ATOM      1  C   UNL     1       2.188   6.935   3.321  1.00  0.00     0.281 C 
ATOM      2  C   UNL     1       3.674   6.528   3.305  1.00  0.00     0.202 C 
ATOM      3  C   UNL     1       4.586   7.773   3.286  1.00  0.00     0.179 C 
ATOM      4  C   UNL     1       4.168   8.738   4.405  1.00  0.00     0.177 C 
ATOM      5  C   UNL     1       2.647   9.014   4.324  1.00  0.00     0.178 C 
ATOM      6  O   UNL     1       1.916   7.800   4.416  1.00  0.00    -0.341 OA
ENDROOT
BRANCH   1   7
ATOM      7  O   UNL     1       1.824   7.528   2.084  1.00  0.00    -0.350 OA
BRANCH   7   8
ATOM      8  C   UNL     1       0.431   7.407   1.876  1.00  0.00     0.160 C 
ATOM      9  C   UNL     1       0.029   5.950   2.047  1.00  0.00     0.035 C 
ENDBRANCH   7   8
ENDBRANCH   1   7
BRANCH   2  10
ATOM     10  O   UNL     1       3.928   5.706   2.195  1.00  0.00    -0.385 OA
ATOM     11  H   UNL     1       4.705   6.101   1.719  1.00  0.00     0.211 HD
ENDBRANCH   2  10
BRANCH   3  12
ATOM     12  O   UNL     1       4.509   8.424   2.042  1.00  0.00    -0.387 OA
ATOM     13  H   UNL     1       3.558   8.400   1.760  1.00  0.00     0.211 HD
ENDBRANCH   3  12
BRANCH   5  14
ATOM     14  C   UNL     1       2.196   9.935   5.467  1.00  0.00     0.191 C 
BRANCH  14  15
ATOM     15  O   UNL     1       1.895   9.183   6.612  1.00  0.00    -0.394 OA
ATOM     16  H   UNL     1       2.399   9.593   7.362  1.00  0.00     0.210 HD
ENDBRANCH  14  15
ENDBRANCH   5  14
BRANCH   4  17
ATOM     17  O   UNL     1       4.895   9.934   4.275  1.00  0.00    -0.387 OA
ATOM     18  H   UNL     1       5.624   9.910   4.950  1.00  0.00     0.211 HD
ENDBRANCH   4  17
TORSDOF 7
ENDMDL
