MODEL 1
REMARK VINA RESULT:    -7.817      0.000      0.000
REMARK INTER + INTRA:          -9.469
REMARK INTER:                  -9.188
REMARK INTRA:                  -0.281
REMARK UNBOUND:                -0.281
REMARK SMILES O=c1cc(-c2ccc(O)c(O)c2)oc2cc(O)cc(O)c12
REMARK SMILES IDX 4 1 3 2 2 3 1 4 21 5 19 6 18 7 16 8 15 9 14 10 13 11 5 12
REMARK SMILES IDX 6 13 7 14 8 15 12 16 10 17 9 18 11 20 20 22 17 24
REMARK H PARENT 9 19 11 21 20 23 17 25
REMARK Flexibility Score: inf
ROOT
ATOM      1  C   UNL     1     -13.440 -40.417 -17.997  1.00  0.00     0.138 A 
ATOM      2  C   UNL     1     -14.217 -41.498 -18.435  1.00  0.00     0.100 A 
ATOM      3  C   UNL     1     -15.393 -41.259 -19.148  1.00  0.00     0.197 A 
ATOM      4  O   UNL     1     -16.097 -42.248 -19.479  1.00  0.00    -0.289 OA
ATOM      5  C   UNL     1     -15.772 -39.930 -19.455  1.00  0.00     0.107 A 
ATOM      6  C   UNL     1     -16.931 -39.567 -20.205  1.00  0.00     0.134 A 
ATOM      7  C   UNL     1     -17.257 -38.213 -20.360  1.00  0.00     0.093 A 
ATOM      8  C   UNL     1     -16.437 -37.211 -19.844  1.00  0.00     0.123 A 
ATOM      9  C   UNL     1     -15.274 -37.554 -19.152  1.00  0.00     0.094 A 
ATOM     10  C   UNL     1     -14.940 -38.895 -18.950  1.00  0.00     0.146 A 
ATOM     11  O   UNL     1     -13.834 -39.179 -18.271  1.00  0.00    -0.456 OA
ENDROOT
BRANCH   1  12
ATOM     12  C   UNL     1     -12.179 -40.613 -17.237  1.00  0.00     0.021 A 
ATOM     13  C   UNL     1     -11.057 -39.786 -17.438  1.00  0.00     0.016 A 
ATOM     14  C   UNL     1      -9.881 -40.001 -16.715  1.00  0.00     0.051 A 
ATOM     15  C   UNL     1      -9.801 -41.047 -15.787  1.00  0.00     0.157 A 
ATOM     16  C   UNL     1     -12.086 -41.669 -16.314  1.00  0.00     0.062 A 
ATOM     17  C   UNL     1     -10.905 -41.884 -15.588  1.00  0.00     0.158 A 
BRANCH  15  18
ATOM     18  O   UNL     1      -8.629 -41.263 -15.065  1.00  0.00    -0.504 OA
ATOM     19  H   UNL     1      -7.851 -40.616 -15.111  1.00  0.00     0.293 HD
ENDBRANCH  15  18
BRANCH  17  20
ATOM     20  O   UNL     1     -10.822 -42.927 -14.667  1.00  0.00    -0.504 OA
ATOM     21  H   UNL     1     -10.752 -42.751 -13.671  1.00  0.00     0.293 HD
ENDBRANCH  17  20
ENDBRANCH   1  12
BRANCH   6  22
ATOM     22  O   UNL     1     -17.778 -40.485 -20.833  1.00  0.00    -0.507 OA
ATOM     23  H   UNL     1     -17.550 -41.449 -21.024  1.00  0.00     0.293 HD
ENDBRANCH   6  22
BRANCH   8  24
ATOM     24  O   UNL     1     -16.784 -35.875 -20.032  1.00  0.00    -0.508 OA
ATOM     25  H   UNL     1     -16.133 -35.124 -19.829  1.00  0.00     0.293 HD
ENDBRANCH   8  24
TORSDOF 5
ENDMDL
MODEL 2
REMARK VINA RESULT:    -7.317      1.268      2.756
REMARK INTER + INTRA:          -8.882
REMARK INTER:                  -8.571
REMARK INTRA:                  -0.311
REMARK UNBOUND:                -0.281
REMARK SMILES O=c1cc(-c2ccc(O)c(O)c2)oc2cc(O)cc(O)c12
REMARK SMILES IDX 4 1 3 2 2 3 1 4 21 5 19 6 18 7 16 8 15 9 14 10 13 11 5 12
REMARK SMILES IDX 6 13 7 14 8 15 12 16 10 17 9 18 11 20 20 22 17 24
REMARK H PARENT 9 19 11 21 20 23 17 25
REMARK Flexibility Score: inf
ROOT
ATOM      1  C   UNL     1     -13.293 -40.163 -17.762  1.00  0.00     0.138 A 
ATOM      2  C   UNL     1     -13.638 -38.847 -18.097  1.00  0.00     0.100 A 
ATOM      3  C   UNL     1     -14.859 -38.592 -18.725  1.00  0.00     0.197 A 
ATOM      4  O   UNL     1     -15.115 -37.408 -19.063  1.00  0.00    -0.289 OA
ATOM      5  C   UNL     1     -15.753 -39.658 -18.984  1.00  0.00     0.107 A 
ATOM      6  C   UNL     1     -17.039 -39.514 -19.587  1.00  0.00     0.134 A 
ATOM      7  C   UNL     1     -17.794 -40.656 -19.884  1.00  0.00     0.093 A 
ATOM      8  C   UNL     1     -17.338 -41.929 -19.548  1.00  0.00     0.123 A 
ATOM      9  C   UNL     1     -16.104 -42.079 -18.913  1.00  0.00     0.094 A 
ATOM     10  C   UNL     1     -15.312 -40.963 -18.634  1.00  0.00     0.146 A 
ATOM     11  O   UNL     1     -14.136 -41.150 -18.045  1.00  0.00    -0.456 OA
ENDROOT
BRANCH   1  12
ATOM     12  C   UNL     1     -12.009 -40.491 -17.091  1.00  0.00     0.021 A 
ATOM     13  C   UNL     1     -10.882 -39.654 -17.198  1.00  0.00     0.016 A 
ATOM     14  C   UNL     1      -9.684 -39.994 -16.564  1.00  0.00     0.051 A 
ATOM     15  C   UNL     1      -9.589 -41.176 -15.819  1.00  0.00     0.157 A 
ATOM     16  C   UNL     1     -11.900 -41.683 -16.352  1.00  0.00     0.062 A 
ATOM     17  C   UNL     1     -10.698 -42.023 -15.715  1.00  0.00     0.158 A 
BRANCH  15  18
ATOM     18  O   UNL     1      -8.395 -41.517 -15.185  1.00  0.00    -0.504 OA
ATOM     19  H   UNL     1      -7.594 -40.897 -15.194  1.00  0.00     0.293 HD
ENDBRANCH  15  18
BRANCH  17  20
ATOM     20  O   UNL     1     -10.599 -43.201 -14.977  1.00  0.00    -0.504 OA
ATOM     21  H   UNL     1      -9.754 -43.440 -14.471  1.00  0.00     0.293 HD
ENDBRANCH  17  20
ENDBRANCH   1  12
BRANCH   6  22
ATOM     22  O   UNL     1     -17.628 -38.283 -19.892  1.00  0.00    -0.507 OA
ATOM     23  H   UNL     1     -17.594 -37.831 -20.793  1.00  0.00     0.293 HD
ENDBRANCH   6  22
BRANCH   8  24
ATOM     24  O   UNL     1     -18.123 -43.041 -19.844  1.00  0.00    -0.508 OA
ATOM     25  H   UNL     1     -17.791 -43.778 -20.456  1.00  0.00     0.293 HD
ENDBRANCH   8  24
TORSDOF 5
ENDMDL
MODEL 3
REMARK VINA RESULT:    -7.215      1.525      1.592
REMARK INTER + INTRA:          -8.761
REMARK INTER:                  -8.483
REMARK INTRA:                  -0.278
REMARK UNBOUND:                -0.281
REMARK SMILES O=c1cc(-c2ccc(O)c(O)c2)oc2cc(O)cc(O)c12
REMARK SMILES IDX 4 1 3 2 2 3 1 4 21 5 19 6 18 7 16 8 15 9 14 10 13 11 5 12
REMARK SMILES IDX 6 13 7 14 8 15 12 16 10 17 9 18 11 20 20 22 17 24
REMARK H PARENT 9 19 11 21 20 23 17 25
REMARK Flexibility Score: inf
ROOT
ATOM      1  C   UNL     1     -13.311 -40.368 -17.741  1.00  0.00     0.138 A 
ATOM      2  C   UNL     1     -14.548 -40.585 -17.119  1.00  0.00     0.100 A 
ATOM      3  C   UNL     1     -15.727 -40.302 -17.810  1.00  0.00     0.197 A 
ATOM      4  O   UNL     1     -16.820 -40.454 -17.205  1.00  0.00    -0.289 OA
ATOM      5  C   UNL     1     -15.666 -39.832 -19.144  1.00  0.00     0.107 A 
ATOM      6  C   UNL     1     -16.802 -39.542 -19.958  1.00  0.00     0.134 A 
ATOM      7  C   UNL     1     -16.616 -38.988 -21.231  1.00  0.00     0.093 A 
ATOM      8  C   UNL     1     -15.338 -38.769 -21.741  1.00  0.00     0.123 A 
ATOM      9  C   UNL     1     -14.219 -39.095 -20.974  1.00  0.00     0.094 A 
ATOM     10  C   UNL     1     -14.371 -39.616 -19.687  1.00  0.00     0.146 A 
ATOM     11  O   UNL     1     -13.280 -39.897 -18.982  1.00  0.00    -0.456 OA
ENDROOT
BRANCH   1  12
ATOM     12  C   UNL     1     -12.026 -40.655 -17.054  1.00  0.00     0.021 A 
ATOM     13  C   UNL     1     -10.918 -39.793 -17.166  1.00  0.00     0.016 A 
ATOM     14  C   UNL     1      -9.718 -40.095 -16.516  1.00  0.00     0.051 A 
ATOM     15  C   UNL     1      -9.601 -41.262 -15.751  1.00  0.00     0.157 A 
ATOM     16  C   UNL     1     -11.896 -41.831 -16.294  1.00  0.00     0.062 A 
ATOM     17  C   UNL     1     -10.692 -42.132 -15.642  1.00  0.00     0.158 A 
BRANCH  15  18
ATOM     18  O   UNL     1      -8.406 -41.564 -15.101  1.00  0.00    -0.504 OA
ATOM     19  H   UNL     1      -8.136 -41.096 -14.243  1.00  0.00     0.293 HD
ENDBRANCH  15  18
BRANCH  17  20
ATOM     20  O   UNL     1     -10.571 -43.295 -14.883  1.00  0.00    -0.504 OA
ATOM     21  H   UNL     1     -10.256 -44.167 -15.294  1.00  0.00     0.293 HD
ENDBRANCH  17  20
ENDBRANCH   1  12
BRANCH   6  22
ATOM     22  O   UNL     1     -18.124 -39.797 -19.579  1.00  0.00    -0.507 OA
ATOM     23  H   UNL     1     -18.447 -40.643 -19.136  1.00  0.00     0.293 HD
ENDBRANCH   6  22
BRANCH   8  24
ATOM     24  O   UNL     1     -15.191 -38.231 -23.018  1.00  0.00    -0.508 OA
ATOM     25  H   UNL     1     -14.736 -38.748 -23.763  1.00  0.00     0.293 HD
ENDBRANCH   8  24
TORSDOF 5
ENDMDL
MODEL 4
REMARK VINA RESULT:    -7.149      3.413      4.766
REMARK INTER + INTRA:          -8.684
REMARK INTER:                  -8.400
REMARK INTRA:                  -0.284
REMARK UNBOUND:                -0.281
REMARK SMILES O=c1cc(-c2ccc(O)c(O)c2)oc2cc(O)cc(O)c12
REMARK SMILES IDX 4 1 3 2 2 3 1 4 21 5 19 6 18 7 16 8 15 9 14 10 13 11 5 12
REMARK SMILES IDX 6 13 7 14 8 15 12 16 10 17 9 18 11 20 20 22 17 24
REMARK H PARENT 9 19 11 21 20 23 17 25
REMARK Flexibility Score: inf
ROOT
ATOM      1  C   UNL     1     -13.917 -39.260 -18.833  1.00  0.00     0.138 A 
ATOM      2  C   UNL     1     -14.348 -38.488 -17.746  1.00  0.00     0.100 A 
ATOM      3  C   UNL     1     -15.479 -38.879 -17.028  1.00  0.00     0.197 A 
ATOM      4  O   UNL     1     -15.874 -38.135 -16.093  1.00  0.00    -0.289 OA
ATOM      5  C   UNL     1     -16.159 -40.070 -17.379  1.00  0.00     0.107 A 
ATOM      6  C   UNL     1     -17.303 -40.586 -16.698  1.00  0.00     0.134 A 
ATOM      7  C   UNL     1     -17.951 -41.722 -17.199  1.00  0.00     0.093 A 
ATOM      8  C   UNL     1     -17.464 -42.393 -18.319  1.00  0.00     0.123 A 
ATOM      9  C   UNL     1     -16.318 -41.927 -18.964  1.00  0.00     0.094 A 
ATOM     10  C   UNL     1     -15.669 -40.777 -18.509  1.00  0.00     0.146 A 
ATOM     11  O   UNL     1     -14.591 -40.356 -19.162  1.00  0.00    -0.456 OA
ENDROOT
BRANCH   1  12
ATOM     12  C   UNL     1     -12.718 -38.892 -19.631  1.00  0.00     0.021 A 
ATOM     13  C   UNL     1     -12.591 -37.627 -20.237  1.00  0.00     0.016 A 
ATOM     14  C   UNL     1     -11.457 -37.314 -20.989  1.00  0.00     0.051 A 
ATOM     15  C   UNL     1     -10.435 -38.257 -21.156  1.00  0.00     0.157 A 
ATOM     16  C   UNL     1     -11.694 -39.837 -19.814  1.00  0.00     0.062 A 
ATOM     17  C   UNL     1     -10.555 -39.522 -20.569  1.00  0.00     0.158 A 
BRANCH  15  18
ATOM     18  O   UNL     1      -9.302 -37.946 -21.906  1.00  0.00    -0.504 OA
ATOM     19  H   UNL     1      -8.505 -38.571 -21.946  1.00  0.00     0.293 HD
ENDBRANCH  15  18
BRANCH  17  20
ATOM     20  O   UNL     1      -9.538 -40.460 -20.740  1.00  0.00    -0.504 OA
ATOM     21  H   UNL     1      -8.604 -40.184 -21.021  1.00  0.00     0.293 HD
ENDBRANCH  17  20
ENDBRANCH   1  12
BRANCH   6  22
ATOM     22  O   UNL     1     -17.827 -40.040 -15.522  1.00  0.00    -0.507 OA
ATOM     23  H   UNL     1     -18.424 -39.228 -15.475  1.00  0.00     0.293 HD
ENDBRANCH   6  22
BRANCH   8  24
ATOM     24  O   UNL     1     -18.125 -43.530 -18.779  1.00  0.00    -0.508 OA
ATOM     25  H   UNL     1     -18.795 -44.026 -18.202  1.00  0.00     0.293 HD
ENDBRANCH   8  24
TORSDOF 5
ENDMDL
MODEL 5
REMARK VINA RESULT:    -7.019      2.346      3.388
REMARK INTER + INTRA:          -8.531
REMARK INTER:                  -8.235
REMARK INTRA:                  -0.296
REMARK UNBOUND:                -0.281
REMARK SMILES O=c1cc(-c2ccc(O)c(O)c2)oc2cc(O)cc(O)c12
REMARK SMILES IDX 4 1 3 2 2 3 1 4 21 5 19 6 18 7 16 8 15 9 14 10 13 11 5 12
REMARK SMILES IDX 6 13 7 14 8 15 12 16 10 17 9 18 11 20 20 22 17 24
REMARK H PARENT 9 19 11 21 20 23 17 25
REMARK Flexibility Score: inf
ROOT
ATOM      1  C   UNL     1     -12.419 -39.625 -17.917  1.00  0.00     0.138 A 
ATOM      2  C   UNL     1     -13.765 -39.286 -17.726  1.00  0.00     0.100 A 
ATOM      3  C   UNL     1     -14.359 -38.330 -18.551  1.00  0.00     0.197 A 
ATOM      4  O   UNL     1     -15.552 -38.006 -18.320  1.00  0.00    -0.289 OA
ATOM      5  C   UNL     1     -13.609 -37.739 -19.596  1.00  0.00     0.107 A 
ATOM      6  C   UNL     1     -14.119 -36.779 -20.522  1.00  0.00     0.134 A 
ATOM      7  C   UNL     1     -13.253 -36.190 -21.453  1.00  0.00     0.093 A 
ATOM      8  C   UNL     1     -11.914 -36.568 -21.531  1.00  0.00     0.123 A 
ATOM      9  C   UNL     1     -11.416 -37.541 -20.664  1.00  0.00     0.094 A 
ATOM     10  C   UNL     1     -12.245 -38.123 -19.702  1.00  0.00     0.146 A 
ATOM     11  O   UNL     1     -11.728 -39.033 -18.884  1.00  0.00    -0.456 OA
ENDROOT
BRANCH   1  12
ATOM     12  C   UNL     1     -11.737 -40.637 -17.069  1.00  0.00     0.021 A 
ATOM     13  C   UNL     1     -12.373 -41.834 -16.688  1.00  0.00     0.016 A 
ATOM     14  C   UNL     1     -11.709 -42.763 -15.882  1.00  0.00     0.051 A 
ATOM     15  C   UNL     1     -10.406 -42.511 -15.438  1.00  0.00     0.157 A 
ATOM     16  C   UNL     1     -10.433 -40.386 -16.608  1.00  0.00     0.062 A 
ATOM     17  C   UNL     1      -9.767 -41.319 -15.800  1.00  0.00     0.158 A 
BRANCH  15  18
ATOM     18  O   UNL     1      -9.742 -43.436 -14.635  1.00  0.00    -0.504 OA
ATOM     19  H   UNL     1      -9.319 -43.166 -13.754  1.00  0.00     0.293 HD
ENDBRANCH  15  18
BRANCH  17  20
ATOM     20  O   UNL     1      -8.471 -41.069 -15.353  1.00  0.00    -0.504 OA
ATOM     21  H   UNL     1      -8.238 -40.221 -14.849  1.00  0.00     0.293 HD
ENDBRANCH  17  20
ENDBRANCH   1  12
BRANCH   6  22
ATOM     22  O   UNL     1     -15.460 -36.386 -20.586  1.00  0.00    -0.507 OA
ATOM     23  H   UNL     1     -16.120 -36.691 -21.285  1.00  0.00     0.293 HD
ENDBRANCH   6  22
BRANCH   8  24
ATOM     24  O   UNL     1     -11.086 -35.972 -22.480  1.00  0.00    -0.508 OA
ATOM     25  H   UNL     1     -10.527 -35.156 -22.260  1.00  0.00     0.293 HD
ENDBRANCH   8  24
TORSDOF 5
ENDMDL
MODEL 6
REMARK VINA RESULT:    -6.937      3.622      4.858
REMARK INTER + INTRA:          -8.435
REMARK INTER:                  -8.131
REMARK INTRA:                  -0.304
REMARK UNBOUND:                -0.281
REMARK SMILES O=c1cc(-c2ccc(O)c(O)c2)oc2cc(O)cc(O)c12
REMARK SMILES IDX 4 1 3 2 2 3 1 4 21 5 19 6 18 7 16 8 15 9 14 10 13 11 5 12
REMARK SMILES IDX 6 13 7 14 8 15 12 16 10 17 9 18 11 20 20 22 17 24
REMARK H PARENT 9 19 11 21 20 23 17 25
REMARK Flexibility Score: inf
ROOT
ATOM      1  C   UNL     1     -11.599 -39.186 -18.953  1.00  0.00     0.138 A 
ATOM      2  C   UNL     1     -12.829 -38.597 -19.274  1.00  0.00     0.100 A 
ATOM      3  C   UNL     1     -12.914 -37.724 -20.360  1.00  0.00     0.197 A 
ATOM      4  O   UNL     1     -14.019 -37.168 -20.589  1.00  0.00    -0.289 OA
ATOM      5  C   UNL     1     -11.767 -37.470 -21.150  1.00  0.00     0.107 A 
ATOM      6  C   UNL     1     -11.742 -36.626 -22.301  1.00  0.00     0.134 A 
ATOM      7  C   UNL     1     -10.524 -36.372 -22.945  1.00  0.00     0.093 A 
ATOM      8  C   UNL     1      -9.343 -36.976 -22.516  1.00  0.00     0.123 A 
ATOM      9  C   UNL     1      -9.364 -37.842 -21.423  1.00  0.00     0.094 A 
ATOM     10  C   UNL     1     -10.557 -38.089 -20.738  1.00  0.00     0.146 A 
ATOM     11  O   UNL     1     -10.531 -38.906 -19.691  1.00  0.00    -0.456 OA
ENDROOT
BRANCH   1  12
ATOM     12  C   UNL     1     -11.452 -40.124 -17.810  1.00  0.00     0.021 A 
ATOM     13  C   UNL     1     -12.500 -40.975 -17.411  1.00  0.00     0.016 A 
ATOM     14  C   UNL     1     -12.335 -41.840 -16.326  1.00  0.00     0.051 A 
ATOM     15  C   UNL     1     -11.127 -41.864 -15.617  1.00  0.00     0.157 A 
ATOM     16  C   UNL     1     -10.247 -40.145 -17.085  1.00  0.00     0.062 A 
ATOM     17  C   UNL     1     -10.083 -41.013 -15.997  1.00  0.00     0.158 A 
BRANCH  15  18
ATOM     18  O   UNL     1     -10.960 -42.726 -14.535  1.00  0.00    -0.504 OA
ATOM     19  H   UNL     1     -11.745 -43.014 -13.961  1.00  0.00     0.293 HD
ENDBRANCH  15  18
BRANCH  17  20
ATOM     20  O   UNL     1      -8.883 -41.037 -15.287  1.00  0.00    -0.504 OA
ATOM     21  H   UNL     1      -8.866 -41.000 -14.274  1.00  0.00     0.293 HD
ENDBRANCH  17  20
ENDBRANCH   1  12
BRANCH   6  22
ATOM     22  O   UNL     1     -12.877 -36.033 -22.864  1.00  0.00    -0.507 OA
ATOM     23  H   UNL     1     -13.810 -36.414 -22.824  1.00  0.00     0.293 HD
ENDBRANCH   6  22
BRANCH   8  24
ATOM     24  O   UNL     1      -8.153 -36.713 -23.191  1.00  0.00    -0.508 OA
ATOM     25  H   UNL     1      -8.102 -36.017 -23.926  1.00  0.00     0.293 HD
ENDBRANCH   8  24
TORSDOF 5
ENDMDL
MODEL 7
REMARK VINA RESULT:    -6.841      3.926      6.129
REMARK INTER + INTRA:          -8.322
REMARK INTER:                  -8.056
REMARK INTRA:                  -0.265
REMARK UNBOUND:                -0.281
REMARK SMILES O=c1cc(-c2ccc(O)c(O)c2)oc2cc(O)cc(O)c12
REMARK SMILES IDX 4 1 3 2 2 3 1 4 21 5 19 6 18 7 16 8 15 9 14 10 13 11 5 12
REMARK SMILES IDX 6 13 7 14 8 15 12 16 10 17 9 18 11 20 20 22 17 24
REMARK H PARENT 9 19 11 21 20 23 17 25
REMARK Flexibility Score: inf
ROOT
ATOM      1  C   UNL     1     -13.176 -38.698 -19.506  1.00  0.00     0.138 A 
ATOM      2  C   UNL     1     -13.521 -37.520 -20.181  1.00  0.00     0.100 A 
ATOM      3  C   UNL     1     -12.665 -37.008 -21.157  1.00  0.00     0.197 A 
ATOM      4  O   UNL     1     -12.976 -35.919 -21.706  1.00  0.00    -0.289 OA
ATOM      5  C   UNL     1     -11.474 -37.700 -21.482  1.00  0.00     0.107 A 
ATOM      6  C   UNL     1     -10.541 -37.292 -22.483  1.00  0.00     0.134 A 
ATOM      7  C   UNL     1      -9.347 -38.005 -22.647  1.00  0.00     0.093 A 
ATOM      8  C   UNL     1      -9.078 -39.143 -21.889  1.00  0.00     0.123 A 
ATOM      9  C   UNL     1     -10.005 -39.581 -20.942  1.00  0.00     0.094 A 
ATOM     10  C   UNL     1     -11.189 -38.872 -20.731  1.00  0.00     0.146 A 
ATOM     11  O   UNL     1     -12.037 -39.312 -19.807  1.00  0.00    -0.456 OA
ENDROOT
BRANCH   1  12
ATOM     12  C   UNL     1     -14.051 -39.289 -18.461  1.00  0.00     0.021 A 
ATOM     13  C   UNL     1     -14.581 -40.588 -18.586  1.00  0.00     0.016 A 
ATOM     14  C   UNL     1     -15.409 -41.114 -17.591  1.00  0.00     0.051 A 
ATOM     15  C   UNL     1     -15.727 -40.352 -16.460  1.00  0.00     0.157 A 
ATOM     16  C   UNL     1     -14.386 -38.527 -17.328  1.00  0.00     0.062 A 
ATOM     17  C   UNL     1     -15.216 -39.055 -16.330  1.00  0.00     0.158 A 
BRANCH  15  18
ATOM     18  O   UNL     1     -16.552 -40.874 -15.466  1.00  0.00    -0.504 OA
ATOM     19  H   UNL     1     -17.281 -40.317 -15.034  1.00  0.00     0.293 HD
ENDBRANCH  15  18
BRANCH  17  20
ATOM     20  O   UNL     1     -15.539 -38.298 -15.205  1.00  0.00    -0.504 OA
ATOM     21  H   UNL     1     -15.706 -37.300 -15.267  1.00  0.00     0.293 HD
ENDBRANCH  17  20
ENDBRANCH   1  12
BRANCH   6  22
ATOM     22  O   UNL     1     -10.746 -36.215 -23.353  1.00  0.00    -0.507 OA
ATOM     23  H   UNL     1     -11.614 -36.004 -23.820  1.00  0.00     0.293 HD
ENDBRANCH   6  22
BRANCH   8  24
ATOM     24  O   UNL     1      -7.887 -39.837 -22.091  1.00  0.00    -0.508 OA
ATOM     25  H   UNL     1      -7.264 -39.611 -22.858  1.00  0.00     0.293 HD
ENDBRANCH   8  24
TORSDOF 5
ENDMDL
MODEL 8
REMARK VINA RESULT:    -6.810      3.796      5.697
REMARK INTER + INTRA:          -8.285
REMARK INTER:                  -7.979
REMARK INTRA:                  -0.306
REMARK UNBOUND:                -0.281
REMARK SMILES O=c1cc(-c2ccc(O)c(O)c2)oc2cc(O)cc(O)c12
REMARK SMILES IDX 4 1 3 2 2 3 1 4 21 5 19 6 18 7 16 8 15 9 14 10 13 11 5 12
REMARK SMILES IDX 6 13 7 14 8 15 12 16 10 17 9 18 11 20 20 22 17 24
REMARK H PARENT 9 19 11 21 20 23 17 25
REMARK Flexibility Score: inf
ROOT
ATOM      1  C   UNL     1     -13.040 -40.211 -19.265  1.00  0.00     0.138 A 
ATOM      2  C   UNL     1     -12.527 -41.339 -19.920  1.00  0.00     0.100 A 
ATOM      3  C   UNL     1     -11.464 -41.196 -20.813  1.00  0.00     0.197 A 
ATOM      4  O   UNL     1     -11.063 -42.218 -21.426  1.00  0.00    -0.289 OA
ATOM      5  C   UNL     1     -10.889 -39.919 -21.023  1.00  0.00     0.107 A 
ATOM      6  C   UNL     1      -9.780 -39.657 -21.883  1.00  0.00     0.134 A 
ATOM      7  C   UNL     1      -9.361 -38.336 -22.086  1.00  0.00     0.093 A 
ATOM      8  C   UNL     1      -9.971 -37.276 -21.418  1.00  0.00     0.123 A 
ATOM      9  C   UNL     1     -11.023 -37.525 -20.536  1.00  0.00     0.094 A 
ATOM     10  C   UNL     1     -11.487 -38.828 -20.338  1.00  0.00     0.146 A 
ATOM     11  O   UNL     1     -12.503 -39.020 -19.504  1.00  0.00    -0.456 OA
ENDROOT
BRANCH   1  12
ATOM     12  C   UNL     1     -14.168 -40.307 -18.303  1.00  0.00     0.021 A 
ATOM     13  C   UNL     1     -15.168 -41.289 -18.430  1.00  0.00     0.016 A 
ATOM     14  C   UNL     1     -16.223 -41.348 -17.515  1.00  0.00     0.051 A 
ATOM     15  C   UNL     1     -16.301 -40.425 -16.465  1.00  0.00     0.157 A 
ATOM     16  C   UNL     1     -14.261 -39.376 -17.253  1.00  0.00     0.062 A 
ATOM     17  C   UNL     1     -15.319 -39.436 -16.335  1.00  0.00     0.158 A 
BRANCH  15  18
ATOM     18  O   UNL     1     -17.351 -40.482 -15.551  1.00  0.00    -0.504 OA
ATOM     19  H   UNL     1     -17.811 -39.642 -15.219  1.00  0.00     0.293 HD
ENDBRANCH  15  18
BRANCH  17  20
ATOM     20  O   UNL     1     -15.401 -38.517 -15.291  1.00  0.00    -0.504 OA
ATOM     21  H   UNL     1     -16.265 -38.028 -15.082  1.00  0.00     0.293 HD
ENDBRANCH  17  20
ENDBRANCH   1  12
BRANCH   6  22
ATOM     22  O   UNL     1      -9.046 -40.650 -22.540  1.00  0.00    -0.507 OA
ATOM     23  H   UNL     1      -8.265 -41.151 -22.144  1.00  0.00     0.293 HD
ENDBRANCH   6  22
BRANCH   8  24
ATOM     24  O   UNL     1      -9.517 -35.976 -21.632  1.00  0.00    -0.508 OA
ATOM     25  H   UNL     1      -8.530 -35.746 -21.599  1.00  0.00     0.293 HD
ENDBRANCH   8  24
TORSDOF 5
ENDMDL
MODEL 9
REMARK VINA RESULT:    -6.787     13.016     15.549
REMARK INTER + INTRA:          -8.258
REMARK INTER:                  -7.987
REMARK INTRA:                  -0.271
REMARK UNBOUND:                -0.281
REMARK SMILES O=c1cc(-c2ccc(O)c(O)c2)oc2cc(O)cc(O)c12
REMARK SMILES IDX 4 1 3 2 2 3 1 4 21 5 19 6 18 7 16 8 15 9 14 10 13 11 5 12
REMARK SMILES IDX 6 13 7 14 8 15 12 16 10 17 9 18 11 20 20 22 17 24
REMARK H PARENT 9 19 11 21 20 23 17 25
REMARK Flexibility Score: inf
ROOT
ATOM      1  C   UNL     1      -0.767 -46.715 -20.646  1.00  0.00     0.138 A 
ATOM      2  C   UNL     1       0.412 -47.012 -19.949  1.00  0.00     0.100 A 
ATOM      3  C   UNL     1       0.928 -46.087 -19.039  1.00  0.00     0.197 A 
ATOM      4  O   UNL     1       2.016 -46.359 -18.471  1.00  0.00    -0.289 OA
ATOM      5  C   UNL     1       0.239 -44.874 -18.803  1.00  0.00     0.107 A 
ATOM      6  C   UNL     1       0.651 -43.871 -17.874  1.00  0.00     0.134 A 
ATOM      7  C   UNL     1      -0.059 -42.666 -17.798  1.00  0.00     0.093 A 
ATOM      8  C   UNL     1      -1.198 -42.451 -18.572  1.00  0.00     0.123 A 
ATOM      9  C   UNL     1      -1.640 -43.444 -19.447  1.00  0.00     0.094 A 
ATOM     10  C   UNL     1      -0.933 -44.643 -19.571  1.00  0.00     0.146 A 
ATOM     11  O   UNL     1      -1.377 -45.555 -20.429  1.00  0.00    -0.456 OA
ENDROOT
BRANCH   1  12
ATOM     12  C   UNL     1      -1.362 -47.663 -21.622  1.00  0.00     0.021 A 
ATOM     13  C   UNL     1      -1.717 -47.261 -22.924  1.00  0.00     0.016 A 
ATOM     14  C   UNL     1      -2.284 -48.173 -23.817  1.00  0.00     0.051 A 
ATOM     15  C   UNL     1      -2.513 -49.498 -23.426  1.00  0.00     0.157 A 
ATOM     16  C   UNL     1      -1.607 -48.992 -21.233  1.00  0.00     0.062 A 
ATOM     17  C   UNL     1      -2.175 -49.907 -22.130  1.00  0.00     0.158 A 
BRANCH  15  18
ATOM     18  O   UNL     1      -3.078 -50.410 -24.315  1.00  0.00    -0.504 OA
ATOM     19  H   UNL     1      -3.350 -51.341 -24.019  1.00  0.00     0.293 HD
ENDBRANCH  15  18
BRANCH  17  20
ATOM     20  O   UNL     1      -2.408 -51.226 -21.742  1.00  0.00    -0.504 OA
ATOM     21  H   UNL     1      -3.145 -51.464 -21.088  1.00  0.00     0.293 HD
ENDBRANCH  17  20
ENDBRANCH   1  12
BRANCH   6  22
ATOM     22  O   UNL     1       1.729 -44.013 -16.994  1.00  0.00    -0.507 OA
ATOM     23  H   UNL     1       1.940 -44.846 -16.466  1.00  0.00     0.293 HD
ENDBRANCH   6  22
BRANCH   8  24
ATOM     24  O   UNL     1      -1.888 -41.246 -18.459  1.00  0.00    -0.508 OA
ATOM     25  H   UNL     1      -1.866 -40.550 -19.195  1.00  0.00     0.293 HD
ENDBRANCH   8  24
TORSDOF 5
ENDMDL
