MODEL 1
REMARK VINA RESULT:    35.522      0.000      0.000
REMARK INTER + INTRA:          43.685
REMARK INTER:                  42.790
REMARK INTRA:                   0.895
REMARK UNBOUND:                 0.895
REMARK SMILES O=c1ccn([C@@H]2O[C@@H](CO)[C@@H](O)[C@@H]2O)c(=O)[nH]1
REMARK SMILES IDX 6 1 13 2 11 3 8 4 7 5 5 6 3 7 4 8 2 9 17 10 1 11 15 12 16 14
REMARK SMILES IDX 14 15 12 17 9 19 10 20
REMARK H PARENT 17 13 14 16 12 18 10 21
REMARK Flexibility Score: inf
ROOT
ATOM      1  C   UNL     1      25.569 -19.979  -0.855  1.00  0.00     0.255 C 
ATOM      2  C   UNL     1      24.403 -19.825   0.124  1.00  0.00     0.196 C 
ATOM      3  C   UNL     1      23.377 -20.764  -0.459  1.00  0.00     0.179 C 
ATOM      4  C   UNL     1      23.703 -20.694  -1.951  1.00  0.00     0.178 C 
ATOM      5  O   UNL     1      25.078 -20.419  -2.106  1.00  0.00    -0.347 OA
ENDROOT
BRANCH   1   6
ATOM      6  N   UNL     1      26.344 -18.726  -0.994  1.00  0.00    -0.271 N 
ATOM      7  C   UNL     1      27.654 -16.971  -0.011  1.00  0.00     0.090 A 
ATOM      8  C   UNL     1      26.900 -18.136   0.110  1.00  0.00     0.099 A 
ATOM      9  C   UNL     1      27.844 -16.428  -1.277  1.00  0.00     0.253 A 
ATOM     10  N   UNL     1      27.302 -17.040  -2.362  1.00  0.00    -0.274 N 
ATOM     11  O   UNL     1      28.521 -15.375  -1.416  1.00  0.00    -0.269 OA
ATOM     12  C   UNL     1      26.567 -18.179  -2.234  1.00  0.00     0.330 A 
ATOM     13  H   UNL     1      27.458 -16.630  -3.313  1.00  0.00     0.175 HD
ATOM     14  O   UNL     1      26.099 -18.727  -3.271  1.00  0.00    -0.248 OA
ENDBRANCH   1   6
BRANCH   2  15
ATOM     15  O   UNL     1      23.909 -18.508   0.118  1.00  0.00    -0.386 OA
ATOM     16  H   UNL     1      22.962 -18.559   0.413  1.00  0.00     0.211 HD
ENDBRANCH   2  15
BRANCH   3  17
ATOM     17  O   UNL     1      23.576 -22.062   0.045  1.00  0.00    -0.387 OA
ATOM     18  H   UNL     1      24.528 -22.116   0.319  1.00  0.00     0.211 HD
ENDBRANCH   3  17
BRANCH   4  19
ATOM     19  C   UNL     1      23.325 -21.965  -2.720  1.00  0.00     0.191 C 
BRANCH  19  20
ATOM     20  O   UNL     1      22.188 -22.543  -2.142  1.00  0.00    -0.394 OA
ATOM     21  H   UNL     1      21.666 -22.934  -2.890  1.00  0.00     0.210 HD
ENDBRANCH  19  20
ENDBRANCH   4  19
TORSDOF 5
ENDMDL
MODEL 2
REMARK VINA RESULT:    35.608      1.692      5.732
REMARK INTER + INTRA:          43.789
REMARK INTER:                  43.228
REMARK INTRA:                   0.561
REMARK UNBOUND:                 0.895
REMARK SMILES O=c1ccn([C@@H]2O[C@@H](CO)[C@@H](O)[C@@H]2O)c(=O)[nH]1
REMARK SMILES IDX 6 1 13 2 11 3 8 4 7 5 5 6 3 7 4 8 2 9 17 10 1 11 15 12 16 14
REMARK SMILES IDX 14 15 12 17 9 19 10 20
REMARK H PARENT 17 13 14 16 12 18 10 21
REMARK Flexibility Score: inf
ROOT
ATOM      1  C   UNL     1      26.622 -19.344  -1.423  1.00  0.00     0.255 C 
ATOM      2  C   UNL     1      26.432 -18.413  -2.622  1.00  0.00     0.196 C 
ATOM      3  C   UNL     1      27.161 -17.171  -2.176  1.00  0.00     0.179 C 
ATOM      4  C   UNL     1      26.967 -17.224  -0.660  1.00  0.00     0.178 C 
ATOM      5  O   UNL     1      26.853 -18.572  -0.261  1.00  0.00    -0.347 OA
ENDROOT
BRANCH   1   6
ATOM      6  N   UNL     1      25.470 -20.255  -1.241  1.00  0.00    -0.271 N 
ATOM      7  C   UNL     1      24.512 -22.451  -1.386  1.00  0.00     0.090 A 
ATOM      8  C   UNL     1      25.580 -21.577  -1.578  1.00  0.00     0.099 A 
ATOM      9  C   UNL     1      23.337 -21.956  -0.832  1.00  0.00     0.253 A 
ATOM     10  N   UNL     1      23.254 -20.645  -0.484  1.00  0.00    -0.274 N 
ATOM     11  O   UNL     1      22.355 -22.723  -0.648  1.00  0.00    -0.269 OA
ATOM     12  C   UNL     1      24.304 -19.799  -0.674  1.00  0.00     0.330 A 
ATOM     13  H   UNL     1      22.370 -20.282  -0.058  1.00  0.00     0.175 HD
ATOM     14  O   UNL     1      24.193 -18.593  -0.318  1.00  0.00    -0.248 OA
ENDBRANCH   1   6
BRANCH   2  15
ATOM     15  O   UNL     1      25.070 -18.124  -2.826  1.00  0.00    -0.386 OA
ATOM     16  H   UNL     1      24.889 -17.266  -2.361  1.00  0.00     0.211 HD
ENDBRANCH   2  15
BRANCH   3  17
ATOM     17  O   UNL     1      28.523 -17.267  -2.518  1.00  0.00    -0.387 OA
ATOM     18  H   UNL     1      28.759 -16.420  -2.978  1.00  0.00     0.211 HD
ENDBRANCH   3  17
BRANCH   4  19
ATOM     19  C   UNL     1      28.086 -16.530   0.125  1.00  0.00     0.191 C 
BRANCH  19  20
ATOM     20  O   UNL     1      28.506 -15.387  -0.569  1.00  0.00    -0.394 OA
ATOM     21  H   UNL     1      29.058 -14.864   0.069  1.00  0.00     0.210 HD
ENDBRANCH  19  20
ENDBRANCH   4  19
TORSDOF 5
ENDMDL
MODEL 3
REMARK VINA RESULT:    35.795      1.821      5.740
REMARK INTER + INTRA:          44.015
REMARK INTER:                  43.426
REMARK INTRA:                   0.588
REMARK UNBOUND:                 0.895
REMARK SMILES O=c1ccn([C@@H]2O[C@@H](CO)[C@@H](O)[C@@H]2O)c(=O)[nH]1
REMARK SMILES IDX 6 1 13 2 11 3 8 4 7 5 5 6 3 7 4 8 2 9 17 10 1 11 15 12 16 14
REMARK SMILES IDX 14 15 12 17 9 19 10 20
REMARK H PARENT 17 13 14 16 12 18 10 21
REMARK Flexibility Score: inf
ROOT
ATOM      1  C   UNL     1      26.680 -19.329  -1.422  1.00  0.00     0.255 C 
ATOM      2  C   UNL     1      26.446 -18.383  -2.601  1.00  0.00     0.196 C 
ATOM      3  C   UNL     1      27.176 -17.140  -2.157  1.00  0.00     0.179 C 
ATOM      4  C   UNL     1      27.027 -17.217  -0.637  1.00  0.00     0.178 C 
ATOM      5  O   UNL     1      26.938 -18.572  -0.255  1.00  0.00    -0.347 OA
ENDROOT
BRANCH   1   6
ATOM      6  N   UNL     1      25.543 -20.254  -1.220  1.00  0.00    -0.271 N 
ATOM      7  C   UNL     1      23.185 -20.629  -0.980  1.00  0.00     0.090 A 
ATOM      8  C   UNL     1      24.266 -19.767  -1.143  1.00  0.00     0.099 A 
ATOM      9  C   UNL     1      23.427 -21.996  -0.911  1.00  0.00     0.253 A 
ATOM     10  N   UNL     1      24.699 -22.463  -1.011  1.00  0.00    -0.274 N 
ATOM     11  O   UNL     1      22.468 -22.799  -0.763  1.00  0.00    -0.269 OA
ATOM     12  C   UNL     1      25.750 -21.612  -1.171  1.00  0.00     0.330 A 
ATOM     13  H   UNL     1      24.872 -23.494  -0.968  1.00  0.00     0.175 HD
ATOM     14  O   UNL     1      26.914 -22.088  -1.280  1.00  0.00    -0.248 OA
ENDBRANCH   1   6
BRANCH   2  15
ATOM     15  O   UNL     1      25.076 -18.105  -2.761  1.00  0.00    -0.386 OA
ATOM     16  H   UNL     1      24.659 -18.211  -1.866  1.00  0.00     0.211 HD
ENDBRANCH   2  15
BRANCH   3  17
ATOM     17  O   UNL     1      28.528 -17.217  -2.540  1.00  0.00    -0.387 OA
ATOM     18  H   UNL     1      28.730 -16.381  -3.034  1.00  0.00     0.211 HD
ENDBRANCH   3  17
BRANCH   4  19
ATOM     19  C   UNL     1      28.161 -16.523   0.125  1.00  0.00     0.191 C 
BRANCH  19  20
ATOM     20  O   UNL     1      28.588 -15.398  -0.592  1.00  0.00    -0.394 OA
ATOM     21  H   UNL     1      28.003 -15.341  -1.392  1.00  0.00     0.210 HD
ENDBRANCH  19  20
ENDBRANCH   4  19
TORSDOF 5
ENDMDL
MODEL 4
REMARK VINA RESULT:    35.991      1.137      1.329
REMARK INTER + INTRA:          44.251
REMARK INTER:                  43.790
REMARK INTRA:                   0.461
REMARK UNBOUND:                 0.895
REMARK SMILES O=c1ccn([C@@H]2O[C@@H](CO)[C@@H](O)[C@@H]2O)c(=O)[nH]1
REMARK SMILES IDX 6 1 13 2 11 3 8 4 7 5 5 6 3 7 4 8 2 9 17 10 1 11 15 12 16 14
REMARK SMILES IDX 14 15 12 17 9 19 10 20
REMARK H PARENT 17 13 14 16 12 18 10 21
REMARK Flexibility Score: inf
ROOT
ATOM      1  C   UNL     1      25.649 -20.038  -0.505  1.00  0.00     0.255 C 
ATOM      2  C   UNL     1      24.134 -19.842  -0.597  1.00  0.00     0.196 C 
ATOM      3  C   UNL     1      23.664 -21.213  -1.014  1.00  0.00     0.179 C 
ATOM      4  C   UNL     1      24.857 -21.717  -1.827  1.00  0.00     0.178 C 
ATOM      5  O   UNL     1      26.034 -21.120  -1.330  1.00  0.00    -0.347 OA
ENDROOT
BRANCH   1   6
ATOM      6  N   UNL     1      26.390 -18.806  -0.857  1.00  0.00    -0.271 N 
ATOM      7  C   UNL     1      27.690 -16.900  -0.195  1.00  0.00     0.090 A 
ATOM      8  C   UNL     1      26.968 -18.047   0.125  1.00  0.00     0.099 A 
ATOM      9  C   UNL     1      27.825 -16.549  -1.533  1.00  0.00     0.253 A 
ATOM     10  N   UNL     1      27.262 -17.326  -2.496  1.00  0.00    -0.274 N 
ATOM     11  O   UNL     1      28.472 -15.517  -1.852  1.00  0.00    -0.269 OA
ATOM     12  C   UNL     1      26.558 -18.447  -2.173  1.00  0.00     0.330 A 
ATOM     13  H   UNL     1      27.376 -17.061  -3.501  1.00  0.00     0.175 HD
ATOM     14  O   UNL     1      26.069 -19.152  -3.098  1.00  0.00    -0.248 OA
ENDBRANCH   1   6
BRANCH   2  15
ATOM     15  O   UNL     1      23.807 -18.898  -1.588  1.00  0.00    -0.386 OA
ATOM     16  H   UNL     1      22.815 -18.876  -1.640  1.00  0.00     0.211 HD
ENDBRANCH   2  15
BRANCH   3  17
ATOM     17  O   UNL     1      23.451 -22.011   0.125  1.00  0.00    -0.387 OA
ATOM     18  H   UNL     1      22.970 -22.822  -0.185  1.00  0.00     0.211 HD
ENDBRANCH   3  17
BRANCH   4  19
ATOM     19  C   UNL     1      24.994 -23.243  -1.829  1.00  0.00     0.191 C 
BRANCH  19  20
ATOM     20  O   UNL     1      25.617 -23.660  -0.646  1.00  0.00    -0.394 OA
ATOM     21  H   UNL     1      24.953 -23.523   0.079  1.00  0.00     0.210 HD
ENDBRANCH  19  20
ENDBRANCH   4  19
TORSDOF 5
ENDMDL
MODEL 5
REMARK VINA RESULT:    36.925      1.744      5.611
REMARK INTER + INTRA:          45.376
REMARK INTER:                  43.626
REMARK INTRA:                   1.750
REMARK UNBOUND:                 0.895
REMARK SMILES O=c1ccn([C@@H]2O[C@@H](CO)[C@@H](O)[C@@H]2O)c(=O)[nH]1
REMARK SMILES IDX 6 1 13 2 11 3 8 4 7 5 5 6 3 7 4 8 2 9 17 10 1 11 15 12 16 14
REMARK SMILES IDX 14 15 12 17 9 19 10 20
REMARK H PARENT 17 13 14 16 12 18 10 21
REMARK Flexibility Score: inf
ROOT
ATOM      1  C   UNL     1      26.084 -18.063  -0.836  1.00  0.00     0.255 C 
ATOM      2  C   UNL     1      27.274 -18.046   0.125  1.00  0.00     0.196 C 
ATOM      3  C   UNL     1      28.156 -16.984  -0.484  1.00  0.00     0.179 C 
ATOM      4  C   UNL     1      27.820 -17.116  -1.971  1.00  0.00     0.178 C 
ATOM      5  O   UNL     1      26.493 -17.576  -2.100  1.00  0.00    -0.347 OA
ENDROOT
BRANCH   1   6
ATOM      6  N   UNL     1      25.483 -19.411  -0.950  1.00  0.00    -0.271 N 
ATOM      7  C   UNL     1      23.570 -20.853  -0.809  1.00  0.00     0.090 A 
ATOM      8  C   UNL     1      24.153 -19.595  -0.681  1.00  0.00     0.099 A 
ATOM      9  C   UNL     1      24.361 -21.915  -1.232  1.00  0.00     0.253 A 
ATOM     10  N   UNL     1      25.674 -21.708  -1.515  1.00  0.00    -0.274 N 
ATOM     11  O   UNL     1      23.860 -23.064  -1.357  1.00  0.00    -0.269 OA
ATOM     12  C   UNL     1      26.236 -20.474  -1.387  1.00  0.00     0.330 A 
ATOM     13  H   UNL     1      26.261 -22.511  -1.841  1.00  0.00     0.175 HD
ATOM     14  O   UNL     1      27.454 -20.321  -1.680  1.00  0.00    -0.248 OA
ENDBRANCH   1   6
BRANCH   2  15
ATOM     15  O   UNL     1      27.941 -19.284   0.125  1.00  0.00    -0.386 OA
ATOM     16  H   UNL     1      28.569 -19.268  -0.644  1.00  0.00     0.211 HD
ENDBRANCH   2  15
BRANCH   3  17
ATOM     17  O   UNL     1      27.790 -15.718   0.009  1.00  0.00    -0.387 OA
ATOM     18  H   UNL     1      28.044 -15.706   0.968  1.00  0.00     0.211 HD
ENDBRANCH   3  17
BRANCH   4  19
ATOM     19  C   UNL     1      28.011 -15.816  -2.759  1.00  0.00     0.191 C 
BRANCH  19  20
ATOM     20  O   UNL     1      29.199 -15.193  -2.355  1.00  0.00    -0.394 OA
ATOM     21  H   UNL     1      29.594 -14.795  -3.174  1.00  0.00     0.210 HD
ENDBRANCH  19  20
ENDBRANCH   4  19
TORSDOF 5
ENDMDL
MODEL 6
REMARK VINA RESULT:    37.836      2.522      5.719
REMARK INTER + INTRA:          46.472
REMARK INTER:                  45.530
REMARK INTRA:                   0.943
REMARK UNBOUND:                 0.895
REMARK SMILES O=c1ccn([C@@H]2O[C@@H](CO)[C@@H](O)[C@@H]2O)c(=O)[nH]1
REMARK SMILES IDX 6 1 13 2 11 3 8 4 7 5 5 6 3 7 4 8 2 9 17 10 1 11 15 12 16 14
REMARK SMILES IDX 14 15 12 17 9 19 10 20
REMARK H PARENT 17 13 14 16 12 18 10 21
REMARK Flexibility Score: inf
ROOT
ATOM      1  C   UNL     1      25.189 -20.623  -1.805  1.00  0.00     0.255 C 
ATOM      2  C   UNL     1      25.267 -19.153  -1.385  1.00  0.00     0.196 C 
ATOM      3  C   UNL     1      26.754 -18.944  -1.244  1.00  0.00     0.179 C 
ATOM      4  C   UNL     1      27.225 -20.336  -0.821  1.00  0.00     0.178 C 
ATOM      5  O   UNL     1      26.351 -21.300  -1.365  1.00  0.00    -0.347 OA
ENDROOT
BRANCH   1   6
ATOM      6  N   UNL     1      23.963 -21.279  -1.302  1.00  0.00    -0.271 N 
ATOM      7  C   UNL     1      21.595 -21.240  -0.908  1.00  0.00     0.090 A 
ATOM      8  C   UNL     1      22.761 -20.624  -1.354  1.00  0.00     0.099 A 
ATOM      9  C   UNL     1      21.673 -22.540  -0.422  1.00  0.00     0.253 A 
ATOM     10  N   UNL     1      22.870 -23.183  -0.397  1.00  0.00    -0.274 N 
ATOM     11  O   UNL     1      20.634 -23.123  -0.011  1.00  0.00    -0.269 OA
ATOM     12  C   UNL     1      24.005 -22.572  -0.837  1.00  0.00     0.330 A 
ATOM     13  H   UNL     1      22.918 -24.165  -0.039  1.00  0.00     0.175 HD
ATOM     14  O   UNL     1      25.093 -23.211  -0.816  1.00  0.00    -0.248 OA
ENDBRANCH   1   6
BRANCH   2  15
ATOM     15  O   UNL     1      24.632 -18.949  -0.147  1.00  0.00    -0.386 OA
ATOM     16  H   UNL     1      23.673 -18.783  -0.344  1.00  0.00     0.211 HD
ENDBRANCH   2  15
BRANCH   3  17
ATOM     17  O   UNL     1      27.304 -18.576  -2.486  1.00  0.00    -0.387 OA
ATOM     18  H   UNL     1      28.255 -18.857  -2.467  1.00  0.00     0.211 HD
ENDBRANCH   3  17
BRANCH   4  19
ATOM     19  C   UNL     1      28.671 -20.641  -1.227  1.00  0.00     0.191 C 
BRANCH  19  20
ATOM     20  O   UNL     1      28.677 -21.524  -2.314  1.00  0.00    -0.394 OA
ATOM     21  H   UNL     1      28.200 -21.060  -3.050  1.00  0.00     0.210 HD
ENDBRANCH  19  20
ENDBRANCH   4  19
TORSDOF 5
ENDMDL
MODEL 7
REMARK VINA RESULT:    37.960     13.354     14.811
REMARK INTER + INTRA:          46.622
REMARK INTER:                  45.656
REMARK INTRA:                   0.966
REMARK UNBOUND:                 0.895
REMARK SMILES O=c1ccn([C@@H]2O[C@@H](CO)[C@@H](O)[C@@H]2O)c(=O)[nH]1
REMARK SMILES IDX 6 1 13 2 11 3 8 4 7 5 5 6 3 7 4 8 2 9 17 10 1 11 15 12 16 14
REMARK SMILES IDX 14 15 12 17 9 19 10 20
REMARK H PARENT 17 13 14 16 12 18 10 21
REMARK Flexibility Score: inf
ROOT
ATOM      1  C   UNL     1      21.360 -16.260 -14.137  1.00  0.00     0.255 C 
ATOM      2  C   UNL     1      20.093 -17.085 -13.899  1.00  0.00     0.196 C 
ATOM      3  C   UNL     1      20.391 -17.745 -12.577  1.00  0.00     0.179 C 
ATOM      4  C   UNL     1      21.913 -17.880 -12.631  1.00  0.00     0.178 C 
ATOM      5  O   UNL     1      22.436 -16.834 -13.421  1.00  0.00    -0.347 OA
ENDROOT
BRANCH   1   6
ATOM      6  N   UNL     1      21.679 -16.137 -15.576  1.00  0.00    -0.271 N 
ATOM      7  C   UNL     1      21.729 -17.080 -17.783  1.00  0.00     0.090 A 
ATOM      8  C   UNL     1      21.458 -17.191 -16.422  1.00  0.00     0.099 A 
ATOM      9  C   UNL     1      22.214 -15.872 -18.269  1.00  0.00     0.253 A 
ATOM     10  N   UNL     1      22.407 -14.830 -17.419  1.00  0.00    -0.274 N 
ATOM     11  O   UNL     1      22.468 -15.742 -19.497  1.00  0.00    -0.269 OA
ATOM     12  C   UNL     1      22.139 -14.948 -16.089  1.00  0.00     0.330 A 
ATOM     13  H   UNL     1      22.763 -13.920 -17.794  1.00  0.00     0.175 HD
ATOM     14  O   UNL     1      22.312 -13.949 -15.337  1.00  0.00    -0.248 OA
ENDBRANCH   1   6
BRANCH   2  15
ATOM     15  O   UNL     1      19.931 -18.061 -14.899  1.00  0.00    -0.386 OA
ATOM     16  H   UNL     1      19.818 -17.572 -15.756  1.00  0.00     0.211 HD
ENDBRANCH   2  15
BRANCH   3  17
ATOM     17  O   UNL     1      19.993 -16.904 -11.522  1.00  0.00    -0.387 OA
ATOM     18  H   UNL     1      19.300 -17.399 -11.013  1.00  0.00     0.211 HD
ENDBRANCH   3  17
BRANCH   4  19
ATOM     19  C   UNL     1      22.577 -17.887 -11.250  1.00  0.00     0.191 C 
BRANCH  19  20
ATOM     20  O   UNL     1      23.774 -17.159 -11.301  1.00  0.00    -0.394 OA
ATOM     21  H   UNL     1      24.394 -17.602 -10.665  1.00  0.00     0.210 HD
ENDBRANCH  19  20
ENDBRANCH   4  19
TORSDOF 5
ENDMDL
