MODEL 1
REMARK VINA RESULT:     0.965      0.000      0.000
REMARK INTER + INTRA:           1.400
REMARK INTER:                   2.433
REMARK INTRA:                  -1.033
REMARK UNBOUND:                -1.033
REMARK SMILES CCCCCCCCCCCCCCCCCCCCCCCCCCCC(=O)[O-]
REMARK SMILES IDX 15 1 16 2 17 3 18 4 19 5 20 6 21 7 22 8 23 9 24 10 25 11
REMARK SMILES IDX 26 12 27 13 28 14 29 15 30 16 14 17 13 18 12 19 11 20 10 21
REMARK SMILES IDX 9 22 8 23 7 24 6 25 5 26 4 27 3 28 2 29 1 30
REMARK H PARENT
REMARK Flexibility Score: inf
ROOT
ATOM      1  C   UNL     1      14.286 -29.661  14.577  1.00  0.00     0.000 C 
ENDROOT
BRANCH   1   2
ATOM      2  C   UNL     1      14.621 -30.776  13.570  1.00  0.00     0.000 C 
BRANCH   2   3
ATOM      3  C   UNL     1      13.644 -31.961  13.666  1.00  0.00     0.000 C 
BRANCH   3   4
ATOM      4  C   UNL     1      12.232 -31.527  14.096  1.00  0.00     0.000 C 
BRANCH   4   5
ATOM      5  C   UNL     1      11.137 -32.484  13.575  1.00  0.00     0.000 C 
BRANCH   5   6
ATOM      6  C   UNL     1       9.723 -31.873  13.585  1.00  0.00     0.000 C 
BRANCH   6   7
ATOM      7  C   UNL     1       8.642 -32.711  12.875  1.00  0.00     0.000 C 
BRANCH   7   8
ATOM      8  C   UNL     1       7.185 -32.408  13.287  1.00  0.00     0.000 C 
BRANCH   8   9
ATOM      9  C   UNL     1       6.917 -32.436  14.809  1.00  0.00     0.000 C 
BRANCH   9  10
ATOM     10  C   UNL     1       7.157 -33.807  15.470  1.00  0.00     0.000 C 
BRANCH  10  11
ATOM     11  C   UNL     1       8.610 -34.033  15.932  1.00  0.00     0.000 C 
BRANCH  11  12
ATOM     12  C   UNL     1       8.771 -33.845  17.452  1.00  0.00     0.006 C 
BRANCH  12  13
ATOM     13  C   UNL     1       8.109 -32.552  17.948  1.00  0.00     0.053 C 
BRANCH  13  14
ATOM     14  C   UNL     1       9.123 -31.558  18.426  1.00  0.00     0.041 C 
ATOM     15  O   UNL     1       9.439 -31.509  19.645  1.00  0.00    -0.550 OA
ATOM     16  O   UNL     1       9.742 -30.706  17.519  1.00  0.00    -0.550 OA
ENDBRANCH  13  14
ENDBRANCH  12  13
ENDBRANCH  11  12
ENDBRANCH  10  11
ENDBRANCH   9  10
ENDBRANCH   8   9
ENDBRANCH   7   8
ENDBRANCH   6   7
ENDBRANCH   5   6
ENDBRANCH   4   5
ENDBRANCH   3   4
ENDBRANCH   2   3
ENDBRANCH   1   2
BRANCH   1  17
ATOM     17  C   UNL     1      15.254 -28.469  14.495  1.00  0.00     0.000 C 
BRANCH  17  18
ATOM     18  C   UNL     1      15.628 -27.911  15.879  1.00  0.00     0.000 C 
BRANCH  18  19
ATOM     19  C   UNL     1      16.306 -26.533  15.794  1.00  0.00     0.000 C 
BRANCH  19  20
ATOM     20  C   UNL     1      17.254 -26.271  16.974  1.00  0.00     0.000 C 
BRANCH  20  21
ATOM     21  C   UNL     1      18.577 -25.656  16.499  1.00  0.00     0.000 C 
BRANCH  21  22
ATOM     22  C   UNL     1      18.393 -24.170  16.157  1.00  0.00    -0.000 C 
BRANCH  22  23
ATOM     23  C   UNL     1      19.718 -23.474  15.813  1.00  0.00    -0.000 C 
BRANCH  23  24
ATOM     24  C   UNL     1      19.758 -22.010  16.286  1.00  0.00    -0.000 C 
BRANCH  24  25
ATOM     25  C   UNL     1      20.198 -21.038  15.176  1.00  0.00    -0.000 C 
BRANCH  25  26
ATOM     26  C   UNL     1      19.142 -19.991  14.777  1.00  0.00    -0.000 C 
BRANCH  26  27
ATOM     27  C   UNL     1      19.758 -18.715  14.178  1.00  0.00    -0.000 C 
BRANCH  27  28
ATOM     28  C   UNL     1      19.409 -17.457  15.004  1.00  0.00    -0.000 C 
BRANCH  28  29
ATOM     29  C   UNL     1      19.024 -17.763  16.461  1.00  0.00    -0.003 C 
ATOM     30  C   UNL     1      19.777 -16.905  17.474  1.00  0.00     0.004 C 
ENDBRANCH  28  29
ENDBRANCH  27  28
ENDBRANCH  26  27
ENDBRANCH  25  26
ENDBRANCH  24  25
ENDBRANCH  23  24
ENDBRANCH  22  23
ENDBRANCH  21  22
ENDBRANCH  20  21
ENDBRANCH  19  20
ENDBRANCH  18  19
ENDBRANCH  17  18
ENDBRANCH   1  17
TORSDOF 26
ENDMDL
MODEL 2
REMARK VINA RESULT:     1.155      1.261      2.105
REMARK INTER + INTRA:           1.877
REMARK INTER:                   3.025
REMARK INTRA:                  -1.148
REMARK UNBOUND:                -1.033
REMARK SMILES CCCCCCCCCCCCCCCCCCCCCCCCCCCC(=O)[O-]
REMARK SMILES IDX 15 1 16 2 17 3 18 4 19 5 20 6 21 7 22 8 23 9 24 10 25 11
REMARK SMILES IDX 26 12 27 13 28 14 29 15 30 16 14 17 13 18 12 19 11 20 10 21
REMARK SMILES IDX 9 22 8 23 7 24 6 25 5 26 4 27 3 28 2 29 1 30
REMARK H PARENT
REMARK Flexibility Score: inf
ROOT
ATOM      1  C   UNL     1      13.081 -30.653  14.123  1.00  0.00     0.000 C 
ENDROOT
BRANCH   1   2
ATOM      2  C   UNL     1      12.848 -32.091  13.627  1.00  0.00     0.000 C 
BRANCH   2   3
ATOM      3  C   UNL     1      11.352 -32.440  13.533  1.00  0.00     0.000 C 
BRANCH   3   4
ATOM      4  C   UNL     1      11.105 -33.809  12.877  1.00  0.00     0.000 C 
BRANCH   4   5
ATOM      5  C   UNL     1      10.194 -34.717  13.731  1.00  0.00     0.000 C 
BRANCH   5   6
ATOM      6  C   UNL     1       9.007 -35.315  12.953  1.00  0.00     0.000 C 
BRANCH   6   7
ATOM      7  C   UNL     1       7.619 -35.048  13.568  1.00  0.00     0.000 C 
BRANCH   7   8
ATOM      8  C   UNL     1       6.999 -33.672  13.244  1.00  0.00     0.000 C 
BRANCH   8   9
ATOM      9  C   UNL     1       7.607 -32.482  14.021  1.00  0.00     0.000 C 
BRANCH   9  10
ATOM     10  C   UNL     1       7.275 -32.472  15.525  1.00  0.00     0.000 C 
BRANCH  10  11
ATOM     11  C   UNL     1       8.490 -32.730  16.437  1.00  0.00     0.000 C 
BRANCH  11  12
ATOM     12  C   UNL     1       9.576 -31.651  16.274  1.00  0.00     0.006 C 
BRANCH  12  13
ATOM     13  C   UNL     1       9.821 -30.874  17.576  1.00  0.00     0.053 C 
BRANCH  13  14
ATOM     14  C   UNL     1       8.919 -31.341  18.678  1.00  0.00     0.041 C 
ATOM     15  O   UNL     1       7.674 -31.168  18.596  1.00  0.00    -0.550 OA
ATOM     16  O   UNL     1       9.454 -31.996  19.782  1.00  0.00    -0.550 OA
ENDBRANCH  13  14
ENDBRANCH  12  13
ENDBRANCH  11  12
ENDBRANCH  10  11
ENDBRANCH   9  10
ENDBRANCH   8   9
ENDBRANCH   7   8
ENDBRANCH   6   7
ENDBRANCH   5   6
ENDBRANCH   4   5
ENDBRANCH   3   4
ENDBRANCH   2   3
ENDBRANCH   1   2
BRANCH   1  17
ATOM     17  C   UNL     1      14.493 -30.133  13.809  1.00  0.00     0.000 C 
BRANCH  17  18
ATOM     18  C   UNL     1      14.672 -28.647  14.166  1.00  0.00     0.000 C 
BRANCH  18  19
ATOM     19  C   UNL     1      15.557 -28.443  15.407  1.00  0.00     0.000 C 
BRANCH  19  20
ATOM     20  C   UNL     1      16.173 -27.036  15.466  1.00  0.00     0.000 C 
BRANCH  20  21
ATOM     21  C   UNL     1      16.370 -26.575  16.916  1.00  0.00     0.000 C 
BRANCH  21  22
ATOM     22  C   UNL     1      17.742 -25.910  17.092  1.00  0.00    -0.000 C 
BRANCH  22  23
ATOM     23  C   UNL     1      18.168 -25.095  15.862  1.00  0.00    -0.000 C 
BRANCH  23  24
ATOM     24  C   UNL     1      19.252 -24.053  16.188  1.00  0.00    -0.000 C 
BRANCH  24  25
ATOM     25  C   UNL     1      18.798 -22.611  15.898  1.00  0.00    -0.000 C 
BRANCH  25  26
ATOM     26  C   UNL     1      19.773 -21.785  15.039  1.00  0.00    -0.000 C 
BRANCH  26  27
ATOM     27  C   UNL     1      20.059 -20.393  15.626  1.00  0.00    -0.000 C 
BRANCH  27  28
ATOM     28  C   UNL     1      19.193 -19.295  14.968  1.00  0.00    -0.000 C 
BRANCH  28  29
ATOM     29  C   UNL     1      19.561 -17.870  15.415  1.00  0.00    -0.003 C 
ATOM     30  C   UNL     1      19.505 -17.682  16.928  1.00  0.00     0.004 C 
ENDBRANCH  28  29
ENDBRANCH  27  28
ENDBRANCH  26  27
ENDBRANCH  25  26
ENDBRANCH  24  25
ENDBRANCH  23  24
ENDBRANCH  22  23
ENDBRANCH  21  22
ENDBRANCH  20  21
ENDBRANCH  19  20
ENDBRANCH  18  19
ENDBRANCH  17  18
ENDBRANCH   1  17
TORSDOF 26
ENDMDL
MODEL 3
REMARK VINA RESULT:     1.166      1.287      2.155
REMARK INTER + INTRA:           1.905
REMARK INTER:                   3.472
REMARK INTRA:                  -1.568
REMARK UNBOUND:                -1.033
REMARK SMILES CCCCCCCCCCCCCCCCCCCCCCCCCCCC(=O)[O-]
REMARK SMILES IDX 15 1 16 2 17 3 18 4 19 5 20 6 21 7 22 8 23 9 24 10 25 11
REMARK SMILES IDX 26 12 27 13 28 14 29 15 30 16 14 17 13 18 12 19 11 20 10 21
REMARK SMILES IDX 9 22 8 23 7 24 6 25 5 26 4 27 3 28 2 29 1 30
REMARK H PARENT
REMARK Flexibility Score: inf
ROOT
ATOM      1  C   UNL     1      15.353 -28.595  15.591  1.00  0.00     0.000 C 
ENDROOT
BRANCH   1   2
ATOM      2  C   UNL     1      14.810 -29.371  14.378  1.00  0.00     0.000 C 
BRANCH   2   3
ATOM      3  C   UNL     1      14.144 -30.697  14.785  1.00  0.00     0.000 C 
BRANCH   3   4
ATOM      4  C   UNL     1      13.091 -31.165  13.767  1.00  0.00     0.000 C 
BRANCH   4   5
ATOM      5  C   UNL     1      11.662 -31.161  14.352  1.00  0.00     0.000 C 
BRANCH   5   6
ATOM      6  C   UNL     1      10.705 -32.150  13.662  1.00  0.00     0.000 C 
BRANCH   6   7
ATOM      7  C   UNL     1      11.261 -33.575  13.470  1.00  0.00     0.000 C 
BRANCH   7   8
ATOM      8  C   UNL     1      10.211 -34.705  13.458  1.00  0.00     0.000 C 
BRANCH   8   9
ATOM      9  C   UNL     1       8.745 -34.235  13.322  1.00  0.00     0.000 C 
BRANCH   9  10
ATOM     10  C   UNL     1       7.875 -34.505  14.565  1.00  0.00     0.000 C 
BRANCH  10  11
ATOM     11  C   UNL     1       6.874 -33.378  14.887  1.00  0.00     0.000 C 
BRANCH  11  12
ATOM     12  C   UNL     1       7.499 -32.284  15.772  1.00  0.00     0.006 C 
BRANCH  12  13
ATOM     13  C   UNL     1       8.633 -32.828  16.651  1.00  0.00     0.053 C 
BRANCH  13  14
ATOM     14  C   UNL     1       8.853 -31.975  17.864  1.00  0.00     0.041 C 
ATOM     15  O   UNL     1       8.395 -32.331  18.981  1.00  0.00    -0.550 OA
ATOM     16  O   UNL     1       9.591 -30.801  17.762  1.00  0.00    -0.550 OA
ENDBRANCH  13  14
ENDBRANCH  12  13
ENDBRANCH  11  12
ENDBRANCH  10  11
ENDBRANCH   9  10
ENDBRANCH   8   9
ENDBRANCH   7   8
ENDBRANCH   6   7
ENDBRANCH   5   6
ENDBRANCH   4   5
ENDBRANCH   3   4
ENDBRANCH   2   3
ENDBRANCH   1   2
BRANCH   1  17
ATOM     17  C   UNL     1      15.993 -27.251  15.205  1.00  0.00     0.000 C 
BRANCH  17  18
ATOM     18  C   UNL     1      16.236 -26.338  16.420  1.00  0.00     0.000 C 
BRANCH  18  19
ATOM     19  C   UNL     1      17.724 -26.251  16.801  1.00  0.00     0.000 C 
BRANCH  19  20
ATOM     20  C   UNL     1      18.503 -25.274  15.907  1.00  0.00     0.000 C 
BRANCH  20  21
ATOM     21  C   UNL     1      18.615 -23.891  16.561  1.00  0.00     0.000 C 
BRANCH  21  22
ATOM     22  C   UNL     1      19.618 -23.010  15.800  1.00  0.00    -0.000 C 
BRANCH  22  23
ATOM     23  C   UNL     1      18.985 -21.714  15.271  1.00  0.00    -0.000 C 
BRANCH  23  24
ATOM     24  C   UNL     1      19.865 -20.478  15.524  1.00  0.00    -0.000 C 
BRANCH  24  25
ATOM     25  C   UNL     1      19.044 -19.220  15.859  1.00  0.00    -0.000 C 
BRANCH  25  26
ATOM     26  C   UNL     1      19.880 -17.971  16.193  1.00  0.00    -0.000 C 
BRANCH  26  27
ATOM     27  C   UNL     1      19.352 -17.206  17.418  1.00  0.00    -0.000 C 
BRANCH  27  28
ATOM     28  C   UNL     1      17.820 -17.015  17.370  1.00  0.00    -0.000 C 
BRANCH  28  29
ATOM     29  C   UNL     1      17.146 -17.090  18.750  1.00  0.00    -0.003 C 
ATOM     30  C   UNL     1      18.141 -17.241  19.897  1.00  0.00     0.004 C 
ENDBRANCH  28  29
ENDBRANCH  27  28
ENDBRANCH  26  27
ENDBRANCH  25  26
ENDBRANCH  24  25
ENDBRANCH  23  24
ENDBRANCH  22  23
ENDBRANCH  21  22
ENDBRANCH  20  21
ENDBRANCH  19  20
ENDBRANCH  18  19
ENDBRANCH  17  18
ENDBRANCH   1  17
TORSDOF 26
ENDMDL
MODEL 4
REMARK VINA RESULT:     1.214      1.304      3.085
REMARK INTER + INTRA:           2.027
REMARK INTER:                   3.383
REMARK INTRA:                  -1.355
REMARK UNBOUND:                -1.033
REMARK SMILES CCCCCCCCCCCCCCCCCCCCCCCCCCCC(=O)[O-]
REMARK SMILES IDX 15 1 16 2 17 3 18 4 19 5 20 6 21 7 22 8 23 9 24 10 25 11
REMARK SMILES IDX 26 12 27 13 28 14 29 15 30 16 14 17 13 18 12 19 11 20 10 21
REMARK SMILES IDX 9 22 8 23 7 24 6 25 5 26 4 27 3 28 2 29 1 30
REMARK H PARENT
REMARK Flexibility Score: inf
ROOT
ATOM      1  C   UNL     1      15.979 -26.518  15.568  1.00  0.00     0.000 C 
ENDROOT
BRANCH   1   2
ATOM      2  C   UNL     1      15.753 -28.008  15.252  1.00  0.00     0.000 C 
BRANCH   2   3
ATOM      3  C   UNL     1      14.760 -28.213  14.094  1.00  0.00     0.000 C 
BRANCH   3   4
ATOM      4  C   UNL     1      14.621 -29.691  13.691  1.00  0.00     0.000 C 
BRANCH   4   5
ATOM      5  C   UNL     1      14.051 -30.562  14.831  1.00  0.00     0.000 C 
BRANCH   5   6
ATOM      6  C   UNL     1      13.042 -31.625  14.356  1.00  0.00     0.000 C 
BRANCH   6   7
ATOM      7  C   UNL     1      11.589 -31.132  14.215  1.00  0.00     0.000 C 
BRANCH   7   8
ATOM      8  C   UNL     1      10.677 -31.993  13.314  1.00  0.00     0.000 C 
BRANCH   8   9
ATOM      9  C   UNL     1      10.627 -33.494  13.678  1.00  0.00     0.000 C 
BRANCH   9  10
ATOM     10  C   UNL     1       9.372 -33.913  14.468  1.00  0.00     0.000 C 
BRANCH  10  11
ATOM     11  C   UNL     1       8.360 -32.771  14.688  1.00  0.00     0.000 C 
BRANCH  11  12
ATOM     12  C   UNL     1       7.950 -32.636  16.166  1.00  0.00     0.006 C 
BRANCH  12  13
ATOM     13  C   UNL     1       8.919 -31.747  16.957  1.00  0.00     0.053 C 
BRANCH  13  14
ATOM     14  C   UNL     1       8.664 -31.823  18.431  1.00  0.00     0.041 C 
ATOM     15  O   UNL     1       8.188 -32.872  18.940  1.00  0.00    -0.550 OA
ATOM     16  O   UNL     1       8.983 -30.743  19.248  1.00  0.00    -0.550 OA
ENDBRANCH  13  14
ENDBRANCH  12  13
ENDBRANCH  11  12
ENDBRANCH  10  11
ENDBRANCH   9  10
ENDBRANCH   8   9
ENDBRANCH   7   8
ENDBRANCH   6   7
ENDBRANCH   5   6
ENDBRANCH   4   5
ENDBRANCH   3   4
ENDBRANCH   2   3
ENDBRANCH   1   2
BRANCH   1  17
ATOM     17  C   UNL     1      16.774 -26.296  16.865  1.00  0.00     0.000 C 
BRANCH  17  18
ATOM     18  C   UNL     1      18.238 -25.900  16.604  1.00  0.00     0.000 C 
BRANCH  18  19
ATOM     19  C   UNL     1      18.360 -24.573  15.836  1.00  0.00     0.000 C 
BRANCH  19  20
ATOM     20  C   UNL     1      19.678 -23.841  16.132  1.00  0.00     0.000 C 
BRANCH  20  21
ATOM     21  C   UNL     1      19.491 -22.319  16.094  1.00  0.00     0.000 C 
BRANCH  21  22
ATOM     22  C   UNL     1      18.532 -21.918  14.963  1.00  0.00    -0.000 C 
BRANCH  22  23
ATOM     23  C   UNL     1      18.275 -20.405  14.914  1.00  0.00    -0.000 C 
BRANCH  23  24
ATOM     24  C   UNL     1      19.400 -19.590  15.575  1.00  0.00    -0.000 C 
BRANCH  24  25
ATOM     25  C   UNL     1      19.336 -18.093  15.225  1.00  0.00    -0.000 C 
BRANCH  25  26
ATOM     26  C   UNL     1      20.105 -17.170  16.188  1.00  0.00    -0.000 C 
BRANCH  26  27
ATOM     27  C   UNL     1      19.412 -17.016  17.552  1.00  0.00    -0.000 C 
BRANCH  27  28
ATOM     28  C   UNL     1      17.917 -17.402  17.493  1.00  0.00    -0.000 C 
BRANCH  28  29
ATOM     29  C   UNL     1      17.098 -16.877  18.684  1.00  0.00    -0.003 C 
ATOM     30  C   UNL     1      17.744 -17.174  20.035  1.00  0.00     0.004 C 
ENDBRANCH  28  29
ENDBRANCH  27  28
ENDBRANCH  26  27
ENDBRANCH  25  26
ENDBRANCH  24  25
ENDBRANCH  23  24
ENDBRANCH  22  23
ENDBRANCH  21  22
ENDBRANCH  20  21
ENDBRANCH  19  20
ENDBRANCH  18  19
ENDBRANCH  17  18
ENDBRANCH   1  17
TORSDOF 26
ENDMDL
MODEL 5
REMARK VINA RESULT:     1.469      4.234     14.625
REMARK INTER + INTRA:           2.669
REMARK INTER:                   4.168
REMARK INTRA:                  -1.499
REMARK UNBOUND:                -1.033
REMARK SMILES CCCCCCCCCCCCCCCCCCCCCCCCCCCC(=O)[O-]
REMARK SMILES IDX 15 1 16 2 17 3 18 4 19 5 20 6 21 7 22 8 23 9 24 10 25 11
REMARK SMILES IDX 26 12 27 13 28 14 29 15 30 16 14 17 13 18 12 19 11 20 10 21
REMARK SMILES IDX 9 22 8 23 7 24 6 25 5 26 4 27 3 28 2 29 1 30
REMARK H PARENT
REMARK Flexibility Score: inf
ROOT
ATOM      1  C   UNL     1      16.151 -28.009  15.321  1.00  0.00     0.000 C 
ENDROOT
BRANCH   1   2
ATOM      2  C   UNL     1      15.785 -26.713  16.067  1.00  0.00     0.000 C 
BRANCH   2   3
ATOM      3  C   UNL     1      16.838 -26.331  17.122  1.00  0.00     0.000 C 
BRANCH   3   4
ATOM      4  C   UNL     1      18.130 -25.782  16.494  1.00  0.00     0.000 C 
BRANCH   4   5
ATOM      5  C   UNL     1      17.955 -24.353  15.936  1.00  0.00     0.000 C 
BRANCH   5   6
ATOM      6  C   UNL     1      19.240 -23.505  15.984  1.00  0.00     0.000 C 
BRANCH   6   7
ATOM      7  C   UNL     1      19.101 -22.072  15.435  1.00  0.00     0.000 C 
BRANCH   7   8
ATOM      8  C   UNL     1      20.408 -21.421  14.933  1.00  0.00     0.000 C 
BRANCH   8   9
ATOM      9  C   UNL     1      20.529 -19.904  15.206  1.00  0.00     0.000 C 
BRANCH   9  10
ATOM     10  C   UNL     1      19.208 -19.227  15.617  1.00  0.00     0.000 C 
BRANCH  10  11
ATOM     11  C   UNL     1      19.173 -17.709  15.352  1.00  0.00     0.000 C 
BRANCH  11  12
ATOM     12  C   UNL     1      19.296 -16.891  16.650  1.00  0.00     0.006 C 
BRANCH  12  13
ATOM     13  C   UNL     1      18.945 -17.721  17.893  1.00  0.00     0.053 C 
BRANCH  13  14
ATOM     14  C   UNL     1      17.798 -17.126  18.652  1.00  0.00     0.041 C 
ATOM     15  O   UNL     1      16.712 -16.875  18.067  1.00  0.00    -0.550 OA
ATOM     16  O   UNL     1      17.922 -16.877  20.014  1.00  0.00    -0.550 OA
ENDBRANCH  13  14
ENDBRANCH  12  13
ENDBRANCH  11  12
ENDBRANCH  10  11
ENDBRANCH   9  10
ENDBRANCH   8   9
ENDBRANCH   7   8
ENDBRANCH   6   7
ENDBRANCH   5   6
ENDBRANCH   4   5
ENDBRANCH   3   4
ENDBRANCH   2   3
ENDBRANCH   1   2
BRANCH   1  17
ATOM     17  C   UNL     1      15.034 -28.497  14.384  1.00  0.00     0.000 C 
BRANCH  17  18
ATOM     18  C   UNL     1      14.475 -29.871  14.793  1.00  0.00     0.000 C 
BRANCH  18  19
ATOM     19  C   UNL     1      13.831 -30.618  13.612  1.00  0.00     0.000 C 
BRANCH  19  20
ATOM     20  C   UNL     1      12.885 -31.738  14.070  1.00  0.00     0.000 C 
BRANCH  20  21
ATOM     21  C   UNL     1      11.488 -31.190  14.388  1.00  0.00     0.000 C 
BRANCH  21  22
ATOM     22  C   UNL     1      10.445 -31.765  13.417  1.00  0.00    -0.000 C 
BRANCH  22  23
ATOM     23  C   UNL     1      10.726 -33.228  13.044  1.00  0.00    -0.000 C 
BRANCH  23  24
ATOM     24  C   UNL     1      10.010 -34.224  13.973  1.00  0.00    -0.000 C 
BRANCH  24  25
ATOM     25  C   UNL     1       8.681 -34.734  13.387  1.00  0.00    -0.000 C 
BRANCH  25  26
ATOM     26  C   UNL     1       7.428 -34.349  14.194  1.00  0.00    -0.000 C 
BRANCH  26  27
ATOM     27  C   UNL     1       7.188 -32.831  14.242  1.00  0.00    -0.000 C 
BRANCH  27  28
ATOM     28  C   UNL     1       7.242 -32.278  15.683  1.00  0.00    -0.000 C 
BRANCH  28  29
ATOM     29  C   UNL     1       8.654 -32.283  16.292  1.00  0.00    -0.003 C 
ATOM     30  C   UNL     1       8.652 -32.420  17.812  1.00  0.00     0.004 C 
ENDBRANCH  28  29
ENDBRANCH  27  28
ENDBRANCH  26  27
ENDBRANCH  25  26
ENDBRANCH  24  25
ENDBRANCH  23  24
ENDBRANCH  22  23
ENDBRANCH  21  22
ENDBRANCH  20  21
ENDBRANCH  19  20
ENDBRANCH  18  19
ENDBRANCH  17  18
ENDBRANCH   1  17
TORSDOF 26
ENDMDL
MODEL 6
REMARK VINA RESULT:     1.772      4.449     14.100
REMARK INTER + INTRA:           3.432
REMARK INTER:                   4.258
REMARK INTRA:                  -0.825
REMARK UNBOUND:                -1.033
REMARK SMILES CCCCCCCCCCCCCCCCCCCCCCCCCCCC(=O)[O-]
REMARK SMILES IDX 15 1 16 2 17 3 18 4 19 5 20 6 21 7 22 8 23 9 24 10 25 11
REMARK SMILES IDX 26 12 27 13 28 14 29 15 30 16 14 17 13 18 12 19 11 20 10 21
REMARK SMILES IDX 9 22 8 23 7 24 6 25 5 26 4 27 3 28 2 29 1 30
REMARK H PARENT
REMARK Flexibility Score: inf
ROOT
ATOM      1  C   UNL     1      14.423 -29.751  14.093  1.00  0.00     0.000 C 
ENDROOT
BRANCH   1   2
ATOM      2  C   UNL     1      15.053 -29.178  15.375  1.00  0.00     0.000 C 
BRANCH   2   3
ATOM      3  C   UNL     1      15.632 -27.768  15.160  1.00  0.00     0.000 C 
BRANCH   3   4
ATOM      4  C   UNL     1      16.417 -27.260  16.381  1.00  0.00     0.000 C 
BRANCH   4   5
ATOM      5  C   UNL     1      16.673 -25.738  16.326  1.00  0.00     0.000 C 
BRANCH   5   6
ATOM      6  C   UNL     1      18.164 -25.357  16.385  1.00  0.00     0.000 C 
BRANCH   6   7
ATOM      7  C   UNL     1      18.541 -24.067  15.630  1.00  0.00     0.000 C 
BRANCH   7   8
ATOM      8  C   UNL     1      19.767 -23.307  16.180  1.00  0.00     0.000 C 
BRANCH   8   9
ATOM      9  C   UNL     1      19.815 -21.802  15.830  1.00  0.00     0.000 C 
BRANCH   9  10
ATOM     10  C   UNL     1      18.577 -21.289  15.069  1.00  0.00     0.000 C 
BRANCH  10  11
ATOM     11  C   UNL     1      18.414 -19.757  15.098  1.00  0.00     0.000 C 
BRANCH  11  12
ATOM     12  C   UNL     1      19.765 -19.033  15.242  1.00  0.00     0.006 C 
BRANCH  12  13
ATOM     13  C   UNL     1      19.595 -17.515  15.399  1.00  0.00     0.053 C 
BRANCH  13  14
ATOM     14  C   UNL     1      19.395 -17.126  16.832  1.00  0.00     0.041 C 
ATOM     15  O   UNL     1      20.386 -16.875  17.567  1.00  0.00    -0.550 OA
ATOM     16  O   UNL     1      18.108 -17.009  17.347  1.00  0.00    -0.550 OA
ENDBRANCH  13  14
ENDBRANCH  12  13
ENDBRANCH  11  12
ENDBRANCH  10  11
ENDBRANCH   9  10
ENDBRANCH   8   9
ENDBRANCH   7   8
ENDBRANCH   6   7
ENDBRANCH   5   6
ENDBRANCH   4   5
ENDBRANCH   3   4
ENDBRANCH   2   3
ENDBRANCH   1   2
BRANCH   1  17
ATOM     17  C   UNL     1      13.473 -30.929  14.367  1.00  0.00     0.000 C 
BRANCH  17  18
ATOM     18  C   UNL     1      13.654 -32.083  13.367  1.00  0.00     0.000 C 
BRANCH  18  19
ATOM     19  C   UNL     1      12.410 -32.983  13.277  1.00  0.00     0.000 C 
BRANCH  19  20
ATOM     20  C   UNL     1      11.104 -32.177  13.215  1.00  0.00     0.000 C 
BRANCH  20  21
ATOM     21  C   UNL     1       9.940 -32.955  13.841  1.00  0.00     0.000 C 
BRANCH  21  22
ATOM     22  C   UNL     1       8.651 -32.749  13.032  1.00  0.00    -0.000 C 
BRANCH  22  23
ATOM     23  C   UNL     1       7.442 -32.414  13.918  1.00  0.00    -0.000 C 
BRANCH  23  24
ATOM     24  C   UNL     1       7.393 -33.264  15.199  1.00  0.00    -0.000 C 
BRANCH  24  25
ATOM     25  C   UNL     1       7.490 -32.417  16.480  1.00  0.00    -0.000 C 
BRANCH  25  26
ATOM     26  C   UNL     1       8.006 -33.172  17.719  1.00  0.00    -0.000 C 
BRANCH  26  27
ATOM     27  C   UNL     1       8.426 -32.234  18.862  1.00  0.00    -0.000 C 
BRANCH  27  28
ATOM     28  C   UNL     1       9.698 -31.427  18.515  1.00  0.00    -0.000 C 
BRANCH  28  29
ATOM     29  C   UNL     1       9.821 -31.083  17.021  1.00  0.00    -0.003 C 
ATOM     30  C   UNL     1      11.114 -30.348  16.679  1.00  0.00     0.004 C 
ENDBRANCH  28  29
ENDBRANCH  27  28
ENDBRANCH  26  27
ENDBRANCH  25  26
ENDBRANCH  24  25
ENDBRANCH  23  24
ENDBRANCH  22  23
ENDBRANCH  21  22
ENDBRANCH  20  21
ENDBRANCH  19  20
ENDBRANCH  18  19
ENDBRANCH  17  18
ENDBRANCH   1  17
TORSDOF 26
ENDMDL
MODEL 7
REMARK VINA RESULT:     1.904     14.814     16.701
REMARK INTER + INTRA:           3.765
REMARK INTER:                   3.534
REMARK INTRA:                   0.231
REMARK UNBOUND:                -1.033
REMARK SMILES CCCCCCCCCCCCCCCCCCCCCCCCCCCC(=O)[O-]
REMARK SMILES IDX 15 1 16 2 17 3 18 4 19 5 20 6 21 7 22 8 23 9 24 10 25 11
REMARK SMILES IDX 26 12 27 13 28 14 29 15 30 16 14 17 13 18 12 19 11 20 10 21
REMARK SMILES IDX 9 22 8 23 7 24 6 25 5 26 4 27 3 28 2 29 1 30
REMARK H PARENT
REMARK Flexibility Score: inf
ROOT
ATOM      1  C   UNL     1      17.407 -27.291  30.115  1.00  0.00     0.000 C 
ENDROOT
BRANCH   1   2
ATOM      2  C   UNL     1      17.078 -28.298  31.233  1.00  0.00     0.000 C 
BRANCH   2   3
ATOM      3  C   UNL     1      16.889 -29.727  30.693  1.00  0.00     0.000 C 
BRANCH   3   4
ATOM      4  C   UNL     1      16.652 -30.754  31.813  1.00  0.00     0.000 C 
BRANCH   4   5
ATOM      5  C   UNL     1      15.540 -31.766  31.459  1.00  0.00     0.000 C 
BRANCH   5   6
ATOM      6  C   UNL     1      15.384 -32.901  32.488  1.00  0.00     0.000 C 
BRANCH   6   7
ATOM      7  C   UNL     1      14.834 -34.226  31.924  1.00  0.00     0.000 C 
BRANCH   7   8
ATOM      8  C   UNL     1      13.708 -34.886  32.749  1.00  0.00     0.000 C 
BRANCH   8   9
ATOM      9  C   UNL     1      13.892 -36.397  33.016  1.00  0.00     0.000 C 
BRANCH   9  10
ATOM     10  C   UNL     1      14.755 -37.125  31.968  1.00  0.00     0.000 C 
BRANCH  10  11
ATOM     11  C   UNL     1      15.949 -36.296  31.453  1.00  0.00     0.000 C 
BRANCH  11  12
ATOM     12  C   UNL     1      16.800 -37.077  30.435  1.00  0.00     0.006 C 
BRANCH  12  13
ATOM     13  C   UNL     1      16.456 -36.705  28.986  1.00  0.00     0.053 C 
BRANCH  13  14
ATOM     14  C   UNL     1      17.622 -36.082  28.281  1.00  0.00     0.041 C 
ATOM     15  O   UNL     1      18.304 -35.189  28.849  1.00  0.00    -0.550 OA
ATOM     16  O   UNL     1      17.974 -36.513  27.007  1.00  0.00    -0.550 OA
ENDBRANCH  13  14
ENDBRANCH  12  13
ENDBRANCH  11  12
ENDBRANCH  10  11
ENDBRANCH   9  10
ENDBRANCH   8   9
ENDBRANCH   7   8
ENDBRANCH   6   7
ENDBRANCH   5   6
ENDBRANCH   4   5
ENDBRANCH   3   4
ENDBRANCH   2   3
ENDBRANCH   1   2
BRANCH   1  17
ATOM     17  C   UNL     1      17.122 -25.835  30.517  1.00  0.00     0.000 C 
BRANCH  17  18
ATOM     18  C   UNL     1      18.341 -25.146  31.154  1.00  0.00     0.000 C 
BRANCH  18  19
ATOM     19  C   UNL     1      18.123 -23.637  31.359  1.00  0.00     0.000 C 
BRANCH  19  20
ATOM     20  C   UNL     1      19.249 -22.985  32.175  1.00  0.00     0.000 C 
BRANCH  20  21
ATOM     21  C   UNL     1      20.138 -24.043  32.840  1.00  0.00     0.000 C 
BRANCH  21  22
ATOM     22  C   UNL     1      21.609 -23.600  32.831  1.00  0.00    -0.000 C 
BRANCH  22  23
ATOM     23  C   UNL     1      21.851 -22.366  31.951  1.00  0.00    -0.000 C 
BRANCH  23  24
ATOM     24  C   UNL     1      22.654 -21.270  32.673  1.00  0.00    -0.000 C 
BRANCH  24  25
ATOM     25  C   UNL     1      23.754 -20.657  31.788  1.00  0.00    -0.000 C 
BRANCH  25  26
ATOM     26  C   UNL     1      23.746 -21.131  30.324  1.00  0.00    -0.000 C 
BRANCH  26  27
ATOM     27  C   UNL     1      24.831 -22.180  30.027  1.00  0.00    -0.000 C 
BRANCH  27  28
ATOM     28  C   UNL     1      25.914 -21.641  29.065  1.00  0.00    -0.000 C 
BRANCH  28  29
ATOM     29  C   UNL     1      25.515 -21.721  27.582  1.00  0.00    -0.003 C 
ATOM     30  C   UNL     1      26.047 -20.555  26.753  1.00  0.00     0.004 C 
ENDBRANCH  28  29
ENDBRANCH  27  28
ENDBRANCH  26  27
ENDBRANCH  25  26
ENDBRANCH  24  25
ENDBRANCH  23  24
ENDBRANCH  22  23
ENDBRANCH  21  22
ENDBRANCH  20  21
ENDBRANCH  19  20
ENDBRANCH  18  19
ENDBRANCH  17  18
ENDBRANCH   1  17
TORSDOF 26
ENDMDL
MODEL 8
REMARK VINA RESULT:     2.123      1.928      3.103
REMARK INTER + INTRA:           4.318
REMARK INTER:                   5.489
REMARK INTRA:                  -1.172
REMARK UNBOUND:                -1.033
REMARK SMILES CCCCCCCCCCCCCCCCCCCCCCCCCCCC(=O)[O-]
REMARK SMILES IDX 15 1 16 2 17 3 18 4 19 5 20 6 21 7 22 8 23 9 24 10 25 11
REMARK SMILES IDX 26 12 27 13 28 14 29 15 30 16 14 17 13 18 12 19 11 20 10 21
REMARK SMILES IDX 9 22 8 23 7 24 6 25 5 26 4 27 3 28 2 29 1 30
REMARK H PARENT
REMARK Flexibility Score: inf
ROOT
ATOM      1  C   UNL     1      14.955 -28.523  15.424  1.00  0.00     0.000 C 
ENDROOT
BRANCH   1   2
ATOM      2  C   UNL     1      15.184 -29.776  14.559  1.00  0.00     0.000 C 
BRANCH   2   3
ATOM      3  C   UNL     1      13.972 -30.096  13.666  1.00  0.00     0.000 C 
BRANCH   3   4
ATOM      4  C   UNL     1      13.249 -31.385  14.091  1.00  0.00     0.000 C 
BRANCH   4   5
ATOM      5  C   UNL     1      11.810 -31.120  14.585  1.00  0.00     0.000 C 
BRANCH   5   6
ATOM      6  C   UNL     1      11.726 -30.740  16.075  1.00  0.00     0.000 C 
BRANCH   6   7
ATOM      7  C   UNL     1      10.297 -30.575  16.629  1.00  0.00     0.000 C 
BRANCH   7   8
ATOM      8  C   UNL     1      10.011 -31.298  17.962  1.00  0.00     0.000 C 
BRANCH   8   9
ATOM      9  C   UNL     1       8.599 -31.915  18.081  1.00  0.00     0.000 C 
BRANCH   9  10
ATOM     10  C   UNL     1       8.271 -32.960  16.998  1.00  0.00     0.000 C 
BRANCH  10  11
ATOM     11  C   UNL     1       7.600 -32.371  15.741  1.00  0.00     0.000 C 
BRANCH  11  12
ATOM     12  C   UNL     1       6.571 -33.337  15.126  1.00  0.00     0.006 C 
BRANCH  12  13
ATOM     13  C   UNL     1       6.910 -33.696  13.672  1.00  0.00     0.053 C 
BRANCH  13  14
ATOM     14  C   UNL     1       8.257 -34.344  13.561  1.00  0.00     0.041 C 
ATOM     15  O   UNL     1       8.371 -35.593  13.672  1.00  0.00    -0.550 OA
ATOM     16  O   UNL     1       9.381 -33.568  13.303  1.00  0.00    -0.550 OA
ENDBRANCH  13  14
ENDBRANCH  12  13
ENDBRANCH  11  12
ENDBRANCH  10  11
ENDBRANCH   9  10
ENDBRANCH   8   9
ENDBRANCH   7   8
ENDBRANCH   6   7
ENDBRANCH   5   6
ENDBRANCH   4   5
ENDBRANCH   3   4
ENDBRANCH   2   3
ENDBRANCH   1   2
BRANCH   1  17
ATOM     17  C   UNL     1      15.590 -27.258  14.824  1.00  0.00     0.000 C 
BRANCH  17  18
ATOM     18  C   UNL     1      16.075 -26.270  15.900  1.00  0.00     0.000 C 
BRANCH  18  19
ATOM     19  C   UNL     1      17.441 -26.664  16.486  1.00  0.00     0.000 C 
BRANCH  19  20
ATOM     20  C   UNL     1      18.258 -25.445  16.942  1.00  0.00     0.000 C 
BRANCH  20  21
ATOM     21  C   UNL     1      18.298 -24.364  15.855  1.00  0.00     0.000 C 
BRANCH  21  22
ATOM     22  C   UNL     1      19.365 -23.307  16.178  1.00  0.00    -0.000 C 
BRANCH  22  23
ATOM     23  C   UNL     1      18.997 -21.913  15.651  1.00  0.00    -0.000 C 
BRANCH  23  24
ATOM     24  C   UNL     1      20.182 -21.203  14.974  1.00  0.00    -0.000 C 
BRANCH  24  25
ATOM     25  C   UNL     1      19.987 -19.679  14.876  1.00  0.00    -0.000 C 
BRANCH  25  26
ATOM     26  C   UNL     1      19.110 -19.067  15.984  1.00  0.00    -0.000 C 
BRANCH  26  27
ATOM     27  C   UNL     1      19.195 -17.532  16.035  1.00  0.00    -0.000 C 
BRANCH  27  28
ATOM     28  C   UNL     1      19.142 -16.994  17.483  1.00  0.00    -0.000 C 
BRANCH  28  29
ATOM     29  C   UNL     1      17.754 -17.114  18.135  1.00  0.00    -0.003 C 
ATOM     30  C   UNL     1      17.808 -17.142  19.660  1.00  0.00     0.004 C 
ENDBRANCH  28  29
ENDBRANCH  27  28
ENDBRANCH  26  27
ENDBRANCH  25  26
ENDBRANCH  24  25
ENDBRANCH  23  24
ENDBRANCH  22  23
ENDBRANCH  21  22
ENDBRANCH  20  21
ENDBRANCH  19  20
ENDBRANCH  18  19
ENDBRANCH  17  18
ENDBRANCH   1  17
TORSDOF 26
ENDMDL
MODEL 9
REMARK VINA RESULT:     2.296      4.275     14.753
REMARK INTER + INTRA:           4.753
REMARK INTER:                   6.251
REMARK INTRA:                  -1.498
REMARK UNBOUND:                -1.033
REMARK SMILES CCCCCCCCCCCCCCCCCCCCCCCCCCCC(=O)[O-]
REMARK SMILES IDX 15 1 16 2 17 3 18 4 19 5 20 6 21 7 22 8 23 9 24 10 25 11
REMARK SMILES IDX 26 12 27 13 28 14 29 15 30 16 14 17 13 18 12 19 11 20 10 21
REMARK SMILES IDX 9 22 8 23 7 24 6 25 5 26 4 27 3 28 2 29 1 30
REMARK H PARENT
REMARK Flexibility Score: inf
ROOT
ATOM      1  C   UNL     1      14.543 -29.634  14.064  1.00  0.00     0.000 C 
ENDROOT
BRANCH   1   2
ATOM      2  C   UNL     1      14.668 -28.596  15.194  1.00  0.00     0.000 C 
BRANCH   2   3
ATOM      3  C   UNL     1      16.015 -27.853  15.155  1.00  0.00     0.000 C 
BRANCH   3   4
ATOM      4  C   UNL     1      16.114 -26.753  16.226  1.00  0.00     0.000 C 
BRANCH   4   5
ATOM      5  C   UNL     1      17.574 -26.361  16.536  1.00  0.00     0.000 C 
BRANCH   5   6
ATOM      6  C   UNL     1      17.791 -24.844  16.688  1.00  0.00     0.000 C 
BRANCH   6   7
ATOM      7  C   UNL     1      18.967 -24.265  15.879  1.00  0.00     0.000 C 
BRANCH   7   8
ATOM      8  C   UNL     1      19.326 -22.794  16.182  1.00  0.00     0.000 C 
BRANCH   8   9
ATOM      9  C   UNL     1      18.973 -21.790  15.062  1.00  0.00     0.000 C 
BRANCH   9  10
ATOM     10  C   UNL     1      19.820 -20.503  15.075  1.00  0.00     0.000 C 
BRANCH  10  11
ATOM     11  C   UNL     1      19.252 -19.388  15.976  1.00  0.00     0.000 C 
BRANCH  11  12
ATOM     12  C   UNL     1      19.619 -17.984  15.461  1.00  0.00     0.006 C 
BRANCH  12  13
ATOM     13  C   UNL     1      19.689 -16.951  16.595  1.00  0.00     0.053 C 
BRANCH  13  14
ATOM     14  C   UNL     1      18.688 -17.241  17.672  1.00  0.00     0.041 C 
ATOM     15  O   UNL     1      17.456 -17.123  17.441  1.00  0.00    -0.550 OA
ATOM     16  O   UNL     1      19.118 -17.673  18.922  1.00  0.00    -0.550 OA
ENDBRANCH  13  14
ENDBRANCH  12  13
ENDBRANCH  11  12
ENDBRANCH  10  11
ENDBRANCH   9  10
ENDBRANCH   8   9
ENDBRANCH   7   8
ENDBRANCH   6   7
ENDBRANCH   5   6
ENDBRANCH   4   5
ENDBRANCH   3   4
ENDBRANCH   2   3
ENDBRANCH   1   2
BRANCH   1  17
ATOM     17  C   UNL     1      14.165 -31.034  14.575  1.00  0.00     0.000 C 
BRANCH  17  18
ATOM     18  C   UNL     1      14.081 -32.076  13.447  1.00  0.00     0.000 C 
BRANCH  18  19
ATOM     19  C   UNL     1      12.704 -32.758  13.378  1.00  0.00     0.000 C 
BRANCH  19  20
ATOM     20  C   UNL     1      11.593 -31.906  14.011  1.00  0.00     0.000 C 
BRANCH  20  21
ATOM     21  C   UNL     1      10.424 -31.703  13.039  1.00  0.00     0.000 C 
BRANCH  21  22
ATOM     22  C   UNL     1       9.081 -31.905  13.755  1.00  0.00    -0.000 C 
BRANCH  22  23
ATOM     23  C   UNL     1       8.070 -32.693  12.909  1.00  0.00    -0.000 C 
BRANCH  23  24
ATOM     24  C   UNL     1       8.374 -34.201  12.875  1.00  0.00    -0.000 C 
BRANCH  24  25
ATOM     25  C   UNL     1       7.111 -35.066  13.030  1.00  0.00    -0.000 C 
BRANCH  25  26
ATOM     26  C   UNL     1       6.552 -35.146  14.462  1.00  0.00    -0.000 C 
BRANCH  26  27
ATOM     27  C   UNL     1       7.623 -35.505  15.505  1.00  0.00    -0.000 C 
BRANCH  27  28
ATOM     28  C   UNL     1       7.572 -34.574  16.737  1.00  0.00    -0.000 C 
BRANCH  28  29
ATOM     29  C   UNL     1       8.732 -33.566  16.795  1.00  0.00    -0.003 C 
ATOM     30  C   UNL     1       8.296 -32.175  17.249  1.00  0.00     0.004 C 
ENDBRANCH  28  29
ENDBRANCH  27  28
ENDBRANCH  26  27
ENDBRANCH  25  26
ENDBRANCH  24  25
ENDBRANCH  23  24
ENDBRANCH  22  23
ENDBRANCH  21  22
ENDBRANCH  20  21
ENDBRANCH  19  20
ENDBRANCH  18  19
ENDBRANCH  17  18
ENDBRANCH   1  17
TORSDOF 26
ENDMDL
