MODEL 1
REMARK VINA RESULT:    -5.441      0.000      0.000
REMARK INTER + INTRA:          -5.931
REMARK INTER:                  -5.918
REMARK INTRA:                  -0.013
REMARK UNBOUND:                -0.013
REMARK SMILES COc1ccccc1O
REMARK SMILES IDX 3 1 4 2 5 3 6 4 7 5 8 6 2 7 1 8 9 9
REMARK H PARENT 9 10
REMARK Flexibility Score: inf
ROOT
ATOM      1  C   UNL     1      10.930 -12.164  29.478  1.00  0.00     0.160 A 
ATOM      2  C   UNL     1      12.279 -11.956  29.831  1.00  0.00     0.050 A 
ATOM      3  C   UNL     1      13.303 -12.551  29.087  1.00  0.00     0.004 A 
ATOM      4  C   UNL     1      12.994 -13.356  27.989  1.00  0.00     0.004 A 
ATOM      5  C   UNL     1      11.661 -13.568  27.631  1.00  0.00     0.050 A 
ATOM      6  C   UNL     1      10.628 -12.978  28.368  1.00  0.00     0.157 A 
ENDROOT
BRANCH   1   7
ATOM      7  O   UNL     1       9.876 -11.584  30.201  1.00  0.00    -0.493 OA
ATOM      8  C   UNL     1       9.241 -10.356  29.857  1.00  0.00     0.278 C 
ENDBRANCH   1   7
BRANCH   6   9
ATOM      9  O   UNL     1       9.308 -13.210  27.984  1.00  0.00    -0.504 OA
ATOM     10  H   UNL     1       8.620 -12.469  27.940  1.00  0.00     0.293 HD
ENDBRANCH   6   9
TORSDOF 2
ENDMDL
MODEL 2
REMARK VINA RESULT:    -5.365      1.489      2.495
REMARK INTER + INTRA:          -5.849
REMARK INTER:                  -5.802
REMARK INTRA:                  -0.046
REMARK UNBOUND:                -0.013
REMARK SMILES COc1ccccc1O
REMARK SMILES IDX 3 1 4 2 5 3 6 4 7 5 8 6 2 7 1 8 9 9
REMARK H PARENT 9 10
REMARK Flexibility Score: inf
ROOT
ATOM      1  C   UNL     1      11.341 -12.305  29.802  1.00  0.00     0.160 A 
ATOM      2  C   UNL     1      12.077 -13.068  28.873  1.00  0.00     0.050 A 
ATOM      3  C   UNL     1      11.545 -13.348  27.611  1.00  0.00     0.004 A 
ATOM      4  C   UNL     1      10.279 -12.874  27.264  1.00  0.00     0.004 A 
ATOM      5  C   UNL     1       9.541 -12.118  28.177  1.00  0.00     0.050 A 
ATOM      6  C   UNL     1      10.064 -11.831  29.443  1.00  0.00     0.157 A 
ENDROOT
BRANCH   1   7
ATOM      7  O   UNL     1      11.842 -12.004  31.079  1.00  0.00    -0.493 OA
ATOM      8  C   UNL     1      12.751 -10.943  31.359  1.00  0.00     0.278 C 
ENDBRANCH   1   7
BRANCH   6   9
ATOM      9  O   UNL     1       9.301 -11.072  30.331  1.00  0.00    -0.504 OA
ATOM     10  H   UNL     1       8.664 -10.351  30.016  1.00  0.00     0.293 HD
ENDBRANCH   6   9
TORSDOF 2
ENDMDL
MODEL 3
REMARK VINA RESULT:    -5.336      1.465      3.171
REMARK INTER + INTRA:          -5.817
REMARK INTER:                  -5.789
REMARK INTRA:                  -0.028
REMARK UNBOUND:                -0.013
REMARK SMILES COc1ccccc1O
REMARK SMILES IDX 3 1 4 2 5 3 6 4 7 5 8 6 2 7 1 8 9 9
REMARK H PARENT 9 10
REMARK Flexibility Score: inf
ROOT
ATOM      1  C   UNL     1      11.320 -12.604  28.304  1.00  0.00     0.160 A 
ATOM      2  C   UNL     1      12.186 -11.634  28.847  1.00  0.00     0.050 A 
ATOM      3  C   UNL     1      11.671 -10.453  29.391  1.00  0.00     0.004 A 
ATOM      4  C   UNL     1      10.294 -10.228  29.398  1.00  0.00     0.004 A 
ATOM      5  C   UNL     1       9.427 -11.183  28.863  1.00  0.00     0.050 A 
ATOM      6  C   UNL     1       9.931 -12.368  28.317  1.00  0.00     0.157 A 
ENDROOT
BRANCH   1   7
ATOM      7  O   UNL     1      11.800 -13.801  27.750  1.00  0.00    -0.493 OA
ATOM      8  C   UNL     1      12.962 -14.491  28.201  1.00  0.00     0.278 C 
ENDBRANCH   1   7
BRANCH   6   9
ATOM      9  O   UNL     1       9.037 -13.302  27.791  1.00  0.00    -0.504 OA
ATOM     10  H   UNL     1       8.056 -13.311  28.042  1.00  0.00     0.293 HD
ENDBRANCH   6   9
TORSDOF 2
ENDMDL
MODEL 4
REMARK VINA RESULT:    -5.327      1.393      2.399
REMARK INTER + INTRA:          -5.807
REMARK INTER:                  -5.775
REMARK INTRA:                  -0.032
REMARK UNBOUND:                -0.013
REMARK SMILES COc1ccccc1O
REMARK SMILES IDX 3 1 4 2 5 3 6 4 7 5 8 6 2 7 1 8 9 9
REMARK H PARENT 9 10
REMARK Flexibility Score: inf
ROOT
ATOM      1  C   UNL     1      10.711 -11.466  28.717  1.00  0.00     0.160 A 
ATOM      2  C   UNL     1      10.103 -12.286  27.744  1.00  0.00     0.050 A 
ATOM      3  C   UNL     1      10.793 -13.382  27.214  1.00  0.00     0.004 A 
ATOM      4  C   UNL     1      12.088 -13.670  27.647  1.00  0.00     0.004 A 
ATOM      5  C   UNL     1      12.698 -12.864  28.611  1.00  0.00     0.050 A 
ATOM      6  C   UNL     1      12.018 -11.765  29.147  1.00  0.00     0.157 A 
ENDROOT
BRANCH   1   7
ATOM      7  O   UNL     1      10.051 -10.358  29.271  1.00  0.00    -0.493 OA
ATOM      8  C   UNL     1       8.709 -10.374  29.751  1.00  0.00     0.278 C 
ENDBRANCH   1   7
BRANCH   6   9
ATOM      9  O   UNL     1      12.657 -10.982  30.109  1.00  0.00    -0.504 OA
ATOM     10  H   UNL     1      13.459 -10.404  29.889  1.00  0.00     0.293 HD
ENDBRANCH   6   9
TORSDOF 2
ENDMDL
MODEL 5
REMARK VINA RESULT:    -5.124     11.740     12.325
REMARK INTER + INTRA:          -5.587
REMARK INTER:                  -5.542
REMARK INTRA:                  -0.045
REMARK UNBOUND:                -0.013
REMARK SMILES COc1ccccc1O
REMARK SMILES IDX 3 1 4 2 5 3 6 4 7 5 8 6 2 7 1 8 9 9
REMARK H PARENT 9 10
REMARK Flexibility Score: inf
ROOT
ATOM      1  C   UNL     1      15.911  -1.053  26.378  1.00  0.00     0.160 A 
ATOM      2  C   UNL     1      17.238  -1.038  25.900  1.00  0.00     0.050 A 
ATOM      3  C   UNL     1      18.152  -2.007  26.325  1.00  0.00     0.004 A 
ATOM      4  C   UNL     1      17.756  -2.996  27.227  1.00  0.00     0.004 A 
ATOM      5  C   UNL     1      16.444  -3.020  27.706  1.00  0.00     0.050 A 
ATOM      6  C   UNL     1      15.521  -2.055  27.287  1.00  0.00     0.157 A 
ENDROOT
BRANCH   1   7
ATOM      7  O   UNL     1      14.966  -0.097  25.975  1.00  0.00    -0.493 OA
ATOM      8  C   UNL     1      14.820   1.192  26.564  1.00  0.00     0.278 C 
ENDBRANCH   1   7
BRANCH   6   9
ATOM      9  O   UNL     1      14.218  -2.108  27.785  1.00  0.00    -0.504 OA
ATOM     10  H   UNL     1      13.655  -2.948  27.735  1.00  0.00     0.293 HD
ENDBRANCH   6   9
TORSDOF 2
ENDMDL
MODEL 6
REMARK VINA RESULT:    -5.102      1.320      2.661
REMARK INTER + INTRA:          -5.563
REMARK INTER:                  -5.521
REMARK INTRA:                  -0.042
REMARK UNBOUND:                -0.013
REMARK SMILES COc1ccccc1O
REMARK SMILES IDX 3 1 4 2 5 3 6 4 7 5 8 6 2 7 1 8 9 9
REMARK H PARENT 9 10
REMARK Flexibility Score: inf
ROOT
ATOM      1  C   UNL     1      11.363 -12.593  29.135  1.00  0.00     0.160 A 
ATOM      2  C   UNL     1      12.718 -12.688  28.756  1.00  0.00     0.050 A 
ATOM      3  C   UNL     1      13.716 -12.127  29.559  1.00  0.00     0.004 A 
ATOM      4  C   UNL     1      13.375 -11.467  30.740  1.00  0.00     0.004 A 
ATOM      5  C   UNL     1      12.036 -11.367  31.125  1.00  0.00     0.050 A 
ATOM      6  C   UNL     1      11.029 -11.925  30.330  1.00  0.00     0.157 A 
ENDROOT
BRANCH   1   7
ATOM      7  O   UNL     1      10.333 -13.143  28.355  1.00  0.00    -0.493 OA
ATOM      8  C   UNL     1       9.699 -12.474  27.268  1.00  0.00     0.278 C 
ENDBRANCH   1   7
BRANCH   6   9
ATOM      9  O   UNL     1       9.702 -11.807  30.742  1.00  0.00    -0.504 OA
ATOM     10  H   UNL     1       9.382 -12.155  31.638  1.00  0.00     0.293 HD
ENDBRANCH   6   9
TORSDOF 2
ENDMDL
MODEL 7
REMARK VINA RESULT:    -5.043      1.779      2.573
REMARK INTER + INTRA:          -5.498
REMARK INTER:                  -5.452
REMARK INTRA:                  -0.046
REMARK UNBOUND:                -0.013
REMARK SMILES COc1ccccc1O
REMARK SMILES IDX 3 1 4 2 5 3 6 4 7 5 8 6 2 7 1 8 9 9
REMARK H PARENT 9 10
REMARK Flexibility Score: inf
ROOT
ATOM      1  C   UNL     1      11.197 -11.756  29.491  1.00  0.00     0.160 A 
ATOM      2  C   UNL     1      10.013 -11.787  28.727  1.00  0.00     0.050 A 
ATOM      3  C   UNL     1       9.919 -12.614  27.604  1.00  0.00     0.004 A 
ATOM      4  C   UNL     1      10.999 -13.416  27.233  1.00  0.00     0.004 A 
ATOM      5  C   UNL     1      12.177 -13.393  27.983  1.00  0.00     0.050 A 
ATOM      6  C   UNL     1      12.282 -12.568  29.108  1.00  0.00     0.157 A 
ENDROOT
BRANCH   1   7
ATOM      7  O   UNL     1      11.329 -10.937  30.624  1.00  0.00    -0.493 OA
ATOM      8  C   UNL     1      11.643  -9.548  30.583  1.00  0.00     0.278 C 
ENDBRANCH   1   7
BRANCH   6   9
ATOM      9  O   UNL     1      13.473 -12.570  29.836  1.00  0.00    -0.504 OA
ATOM     10  H   UNL     1      13.937 -11.714  30.114  1.00  0.00     0.293 HD
ENDBRANCH   6   9
TORSDOF 2
ENDMDL
MODEL 8
REMARK VINA RESULT:    -4.995      2.004      3.934
REMARK INTER + INTRA:          -5.446
REMARK INTER:                  -5.401
REMARK INTRA:                  -0.045
REMARK UNBOUND:                -0.013
REMARK SMILES COc1ccccc1O
REMARK SMILES IDX 3 1 4 2 5 3 6 4 7 5 8 6 2 7 1 8 9 9
REMARK H PARENT 9 10
REMARK Flexibility Score: inf
ROOT
ATOM      1  C   UNL     1      12.030 -13.236  28.154  1.00  0.00     0.160 A 
ATOM      2  C   UNL     1      10.947 -13.428  27.272  1.00  0.00     0.050 A 
ATOM      3  C   UNL     1       9.827 -12.593  27.337  1.00  0.00     0.004 A 
ATOM      4  C   UNL     1       9.776 -11.563  28.277  1.00  0.00     0.004 A 
ATOM      5  C   UNL     1      10.843 -11.364  29.156  1.00  0.00     0.050 A 
ATOM      6  C   UNL     1      11.968 -12.194  29.100  1.00  0.00     0.157 A 
ENDROOT
BRANCH   1   7
ATOM      7  O   UNL     1      13.170 -14.055  28.120  1.00  0.00    -0.493 OA
ATOM      8  C   UNL     1      14.279 -13.858  27.247  1.00  0.00     0.278 C 
ENDBRANCH   1   7
BRANCH   6   9
ATOM      9  O   UNL     1      13.017 -11.967  29.991  1.00  0.00    -0.504 OA
ATOM     10  H   UNL     1      13.075 -12.435  30.888  1.00  0.00     0.293 HD
ENDBRANCH   6   9
TORSDOF 2
ENDMDL
MODEL 9
REMARK VINA RESULT:    -4.924     11.951     12.544
REMARK INTER + INTRA:          -5.369
REMARK INTER:                  -5.324
REMARK INTRA:                  -0.045
REMARK UNBOUND:                -0.013
REMARK SMILES COc1ccccc1O
REMARK SMILES IDX 3 1 4 2 5 3 6 4 7 5 8 6 2 7 1 8 9 9
REMARK H PARENT 9 10
REMARK Flexibility Score: inf
ROOT
ATOM      1  C   UNL     1      15.885  -1.272  26.481  1.00  0.00     0.160 A 
ATOM      2  C   UNL     1      15.411  -2.140  27.485  1.00  0.00     0.050 A 
ATOM      3  C   UNL     1      16.248  -3.123  28.022  1.00  0.00     0.004 A 
ATOM      4  C   UNL     1      17.561  -3.250  27.565  1.00  0.00     0.004 A 
ATOM      5  C   UNL     1      18.040  -2.395  26.570  1.00  0.00     0.050 A 
ATOM      6  C   UNL     1      17.211  -1.408  26.026  1.00  0.00     0.157 A 
ENDROOT
BRANCH   1   7
ATOM      7  O   UNL     1      15.074  -0.274  25.917  1.00  0.00    -0.493 OA
ATOM      8  C   UNL     1      14.720   0.942  26.569  1.00  0.00     0.278 C 
ENDBRANCH   1   7
BRANCH   6   9
ATOM      9  O   UNL     1      17.722  -0.571  25.034  1.00  0.00    -0.504 OA
ATOM     10  H   UNL     1      17.328   0.342  24.842  1.00  0.00     0.293 HD
ENDBRANCH   6   9
TORSDOF 2
ENDMDL
