MODEL 1
REMARK VINA RESULT:    -3.477      0.000      0.000
REMARK INTER + INTRA:          -4.427
REMARK INTER:                  -4.290
REMARK INTRA:                  -0.137
REMARK UNBOUND:                -0.137
REMARK SMILES Oc1cc(O)c2cc(O)c(-c3cc(O)c(O)c(O)c3)[o+]c2c1
REMARK SMILES IDX 10 1 20 2 21 3 22 4 2 5 3 6 4 7 6 8 7 9 8 10 11 11 12 12
REMARK SMILES IDX 13 13 19 14 15 15 17 16 14 17 16 19 18 21 9 23 1 25 5 27
REMARK H PARENT 14 18 16 20 18 22 9 24 1 26 5 28
REMARK Flexibility Score: inf
ROOT
ATOM      1  C   UNL     1      -4.463 -13.380  32.433  1.00  0.00     0.402 A 
ATOM      2  O   UNL     1      -4.495 -12.347  33.270  1.00  0.00    -0.202 OA
ATOM      3  C   UNL     1      -5.344 -12.258  34.289  1.00  0.00     0.368 A 
ATOM      4  C   UNL     1      -5.303 -11.129  35.112  1.00  0.00     0.162 A 
ATOM      5  C   UNL     1      -6.185 -11.007  36.186  1.00  0.00     0.128 A 
ATOM      6  C   UNL     1      -7.116 -12.020  36.441  1.00  0.00     0.093 A 
ATOM      7  C   UNL     1      -7.178 -13.161  35.631  1.00  0.00     0.136 A 
ATOM      8  C   UNL     1      -6.281 -13.290  34.539  1.00  0.00     0.125 A 
ATOM      9  C   UNL     1      -6.261 -14.402  33.682  1.00  0.00     0.078 A 
ATOM     10  C   UNL     1      -5.344 -14.460  32.629  1.00  0.00     0.223 A 
ENDROOT
BRANCH   1  11
ATOM     11  C   UNL     1      -3.475 -13.359  31.330  1.00  0.00     0.091 A 
ATOM     12  C   UNL     1      -3.866 -13.549  29.995  1.00  0.00     0.068 A 
ATOM     13  C   UNL     1      -2.929 -13.504  28.957  1.00  0.00     0.162 A 
ATOM     14  C   UNL     1      -2.131 -13.085  31.614  1.00  0.00     0.068 A 
ATOM     15  C   UNL     1      -1.568 -13.253  29.255  1.00  0.00     0.200 A 
ATOM     16  C   UNL     1      -1.180 -13.040  30.586  1.00  0.00     0.162 A 
BRANCH  13  17
ATOM     17  O   UNL     1      -3.390 -13.703  27.654  1.00  0.00    -0.504 OA
ATOM     18  H   UNL     1      -3.419 -14.601  27.195  1.00  0.00     0.293 HD
ENDBRANCH  13  17
BRANCH  15  19
ATOM     19  O   UNL     1      -0.580 -13.205  28.269  1.00  0.00    -0.502 OA
ATOM     20  H   UNL     1      -0.150 -14.021  27.858  1.00  0.00     0.293 HD
ENDBRANCH  15  19
BRANCH  16  21
ATOM     21  O   UNL     1       0.157 -12.783  30.880  1.00  0.00    -0.504 OA
ATOM     22  H   UNL     1       0.755 -12.275  30.238  1.00  0.00     0.293 HD
ENDBRANCH  16  21
ENDBRANCH   1  11
BRANCH  10  23
ATOM     23  O   UNL     1      -5.292 -15.587  31.808  1.00  0.00    -0.500 OA
ATOM     24  H   UNL     1      -6.073 -16.228  31.733  1.00  0.00     0.294 HD
ENDBRANCH  10  23
BRANCH   5  25
ATOM     25  O   UNL     1      -6.127  -9.876  36.996  1.00  0.00    -0.507 OA
ATOM     26  H   UNL     1      -6.885  -9.202  37.021  1.00  0.00     0.293 HD
ENDBRANCH   5  25
BRANCH   7  27
ATOM     27  O   UNL     1      -8.139 -14.125  35.949  1.00  0.00    -0.507 OA
ATOM     28  H   UNL     1      -7.961 -15.118  35.982  1.00  0.00     0.293 HD
ENDBRANCH   7  27
TORSDOF 7
ENDMDL
MODEL 2
REMARK VINA RESULT:    -2.347      3.923      5.649
REMARK INTER + INTRA:          -3.033
REMARK INTER:                  -2.659
REMARK INTRA:                  -0.374
REMARK UNBOUND:                -0.137
REMARK SMILES Oc1cc(O)c2cc(O)c(-c3cc(O)c(O)c(O)c3)[o+]c2c1
REMARK SMILES IDX 10 1 20 2 21 3 22 4 2 5 3 6 4 7 6 8 7 9 8 10 11 11 12 12
REMARK SMILES IDX 13 13 19 14 15 15 17 16 14 17 16 19 18 21 9 23 1 25 5 27
REMARK H PARENT 14 18 16 20 18 22 9 24 1 26 5 28
REMARK Flexibility Score: inf
ROOT
ATOM      1  C   UNL     1      -4.487 -13.562  29.425  1.00  0.00     0.402 A 
ATOM      2  O   UNL     1      -4.803 -14.686  30.062  1.00  0.00    -0.202 OA
ATOM      3  C   UNL     1      -5.880 -15.410  29.773  1.00  0.00     0.368 A 
ATOM      4  C   UNL     1      -6.130 -16.577  30.501  1.00  0.00     0.162 A 
ATOM      5  C   UNL     1      -7.254 -17.355  30.222  1.00  0.00     0.128 A 
ATOM      6  C   UNL     1      -8.137 -16.964  29.209  1.00  0.00     0.093 A 
ATOM      7  C   UNL     1      -7.909 -15.800  28.465  1.00  0.00     0.136 A 
ATOM      8  C   UNL     1      -6.765 -15.008  28.744  1.00  0.00     0.125 A 
ATOM      9  C   UNL     1      -6.450 -13.833  28.042  1.00  0.00     0.078 A 
ATOM     10  C   UNL     1      -5.301 -13.107  28.372  1.00  0.00     0.223 A 
ENDROOT
BRANCH   1  11
ATOM     11  C   UNL     1      -3.264 -12.838  29.845  1.00  0.00     0.091 A 
ATOM     12  C   UNL     1      -2.006 -13.161  29.314  1.00  0.00     0.068 A 
ATOM     13  C   UNL     1      -0.859 -12.456  29.700  1.00  0.00     0.162 A 
ATOM     14  C   UNL     1      -3.371 -11.771  30.747  1.00  0.00     0.068 A 
ATOM     15  C   UNL     1      -0.972 -11.397  30.632  1.00  0.00     0.200 A 
ATOM     16  C   UNL     1      -2.232 -11.059  31.146  1.00  0.00     0.162 A 
BRANCH  13  17
ATOM     17  O   UNL     1       0.359 -12.833  29.131  1.00  0.00    -0.504 OA
ATOM     18  H   UNL     1       0.934 -12.224  28.569  1.00  0.00     0.293 HD
ENDBRANCH  13  17
BRANCH  15  19
ATOM     19  O   UNL     1       0.133 -10.660  31.068  1.00  0.00    -0.502 OA
ATOM     20  H   UNL     1       0.125 -10.053  31.874  1.00  0.00     0.293 HD
ENDBRANCH  15  19
BRANCH  16  21
ATOM     21  O   UNL     1      -2.346 -10.010  32.055  1.00  0.00    -0.504 OA
ATOM     22  H   UNL     1      -2.982 -10.055  32.843  1.00  0.00     0.293 HD
ENDBRANCH  16  21
ENDBRANCH   1  11
BRANCH  10  23
ATOM     23  O   UNL     1      -4.961 -11.967  27.642  1.00  0.00    -0.500 OA
ATOM     24  H   UNL     1      -5.246 -11.847  26.677  1.00  0.00     0.294 HD
ENDBRANCH  10  23
BRANCH   5  25
ATOM     25  O   UNL     1      -7.485 -18.515  30.958  1.00  0.00    -0.507 OA
ATOM     26  H   UNL     1      -7.190 -19.424  30.621  1.00  0.00     0.293 HD
ENDBRANCH   5  25
BRANCH   7  27
ATOM     27  O   UNL     1      -8.840 -15.477  27.474  1.00  0.00    -0.507 OA
ATOM     28  H   UNL     1      -8.598 -15.139  26.553  1.00  0.00     0.293 HD
ENDBRANCH   7  27
TORSDOF 7
ENDMDL
MODEL 3
REMARK VINA RESULT:    -2.244      3.949      5.658
REMARK INTER + INTRA:          -2.905
REMARK INTER:                  -2.521
REMARK INTRA:                  -0.384
REMARK UNBOUND:                -0.137
REMARK SMILES Oc1cc(O)c2cc(O)c(-c3cc(O)c(O)c(O)c3)[o+]c2c1
REMARK SMILES IDX 10 1 20 2 21 3 22 4 2 5 3 6 4 7 6 8 7 9 8 10 11 11 12 12
REMARK SMILES IDX 13 13 19 14 15 15 17 16 14 17 16 19 18 21 9 23 1 25 5 27
REMARK H PARENT 14 18 16 20 18 22 9 24 1 26 5 28
REMARK Flexibility Score: inf
ROOT
ATOM      1  C   UNL     1      -4.422 -13.591  29.401  1.00  0.00     0.402 A 
ATOM      2  O   UNL     1      -4.748 -14.710  30.042  1.00  0.00    -0.202 OA
ATOM      3  C   UNL     1      -5.839 -15.417  29.767  1.00  0.00     0.368 A 
ATOM      4  C   UNL     1      -6.098 -16.580  30.499  1.00  0.00     0.162 A 
ATOM      5  C   UNL     1      -7.238 -17.340  30.234  1.00  0.00     0.128 A 
ATOM      6  C   UNL     1      -8.127 -16.936  29.232  1.00  0.00     0.093 A 
ATOM      7  C   UNL     1      -7.891 -15.776  28.485  1.00  0.00     0.136 A 
ATOM      8  C   UNL     1      -6.731 -15.001  28.749  1.00  0.00     0.125 A 
ATOM      9  C   UNL     1      -6.406 -13.832  28.043  1.00  0.00     0.078 A 
ATOM     10  C   UNL     1      -5.242 -13.124  28.357  1.00  0.00     0.223 A 
ENDROOT
BRANCH   1  11
ATOM     11  C   UNL     1      -3.183 -12.887  29.805  1.00  0.00     0.091 A 
ATOM     12  C   UNL     1      -3.206 -11.858  30.760  1.00  0.00     0.068 A 
ATOM     13  C   UNL     1      -2.026 -11.214  31.153  1.00  0.00     0.162 A 
ATOM     14  C   UNL     1      -1.954 -13.292  29.269  1.00  0.00     0.068 A 
ATOM     15  C   UNL     1      -0.792 -11.613  30.587  1.00  0.00     0.200 A 
ATOM     16  C   UNL     1      -0.766 -12.655  29.649  1.00  0.00     0.162 A 
BRANCH  13  17
ATOM     17  O   UNL     1      -2.125 -10.199  32.107  1.00  0.00    -0.504 OA
ATOM     18  H   UNL     1      -1.356  -9.882  32.677  1.00  0.00     0.293 HD
ENDBRANCH  13  17
BRANCH  15  19
ATOM     19  O   UNL     1       0.420 -11.005  30.926  1.00  0.00    -0.502 OA
ATOM     20  H   UNL     1       0.709 -10.809  31.873  1.00  0.00     0.293 HD
ENDBRANCH  15  19
BRANCH  16  21
ATOM     21  O   UNL     1       0.450 -13.055  29.098  1.00  0.00    -0.504 OA
ATOM     22  H   UNL     1       0.619 -14.015  28.822  1.00  0.00     0.293 HD
ENDBRANCH  16  21
ENDBRANCH   1  11
BRANCH  10  23
ATOM     23  O   UNL     1      -4.894 -11.989  27.623  1.00  0.00    -0.500 OA
ATOM     24  H   UNL     1      -4.265 -11.287  27.994  1.00  0.00     0.294 HD
ENDBRANCH  10  23
BRANCH   5  25
ATOM     25  O   UNL     1      -7.478 -18.496  30.973  1.00  0.00    -0.507 OA
ATOM     26  H   UNL     1      -8.304 -19.062  30.819  1.00  0.00     0.293 HD
ENDBRANCH   5  25
BRANCH   7  27
ATOM     27  O   UNL     1      -8.828 -15.439  27.505  1.00  0.00    -0.507 OA
ATOM     28  H   UNL     1      -9.759 -15.827  27.449  1.00  0.00     0.293 HD
ENDBRANCH   7  27
TORSDOF 7
ENDMDL
MODEL 4
REMARK VINA RESULT:    -1.659      1.459      7.055
REMARK INTER + INTRA:          -2.185
REMARK INTER:                  -2.599
REMARK INTRA:                   0.414
REMARK UNBOUND:                -0.137
REMARK SMILES Oc1cc(O)c2cc(O)c(-c3cc(O)c(O)c(O)c3)[o+]c2c1
REMARK SMILES IDX 10 1 20 2 21 3 22 4 2 5 3 6 4 7 6 8 7 9 8 10 11 11 12 12
REMARK SMILES IDX 13 13 19 14 15 15 17 16 14 17 16 19 18 21 9 23 1 25 5 27
REMARK H PARENT 14 18 16 20 18 22 9 24 1 26 5 28
REMARK Flexibility Score: inf
ROOT
ATOM      1  C   UNL     1      -4.999 -12.738  33.184  1.00  0.00     0.402 A 
ATOM      2  O   UNL     1      -4.287 -11.767  32.617  1.00  0.00    -0.202 OA
ATOM      3  C   UNL     1      -3.641 -11.914  31.465  1.00  0.00     0.368 A 
ATOM      4  C   UNL     1      -2.916 -10.836  30.950  1.00  0.00     0.162 A 
ATOM      5  C   UNL     1      -2.225 -10.962  29.745  1.00  0.00     0.128 A 
ATOM      6  C   UNL     1      -2.257 -12.175  29.048  1.00  0.00     0.093 A 
ATOM      7  C   UNL     1      -2.975 -13.271  29.542  1.00  0.00     0.136 A 
ATOM      8  C   UNL     1      -3.682 -13.145  30.767  1.00  0.00     0.125 A 
ATOM      9  C   UNL     1      -4.438 -14.185  31.332  1.00  0.00     0.078 A 
ATOM     10  C   UNL     1      -5.111 -13.984  32.541  1.00  0.00     0.223 A 
ENDROOT
BRANCH   1  11
ATOM     11  C   UNL     1      -5.667 -12.454  34.475  1.00  0.00     0.091 A 
ATOM     12  C   UNL     1      -5.357 -11.307  35.222  1.00  0.00     0.068 A 
ATOM     13  C   UNL     1      -6.011 -11.035  36.430  1.00  0.00     0.162 A 
ATOM     14  C   UNL     1      -6.671 -13.316  34.936  1.00  0.00     0.068 A 
ATOM     15  C   UNL     1      -7.006 -11.925  36.900  1.00  0.00     0.200 A 
ATOM     16  C   UNL     1      -7.332 -13.060  36.144  1.00  0.00     0.162 A 
BRANCH  13  17
ATOM     17  O   UNL     1      -5.650  -9.876  37.119  1.00  0.00    -0.504 OA
ATOM     18  H   UNL     1      -5.607  -8.959  36.701  1.00  0.00     0.293 HD
ENDBRANCH  13  17
BRANCH  15  19
ATOM     19  O   UNL     1      -7.689 -11.720  38.102  1.00  0.00    -0.502 OA
ATOM     20  H   UNL     1      -7.655 -10.862  38.633  1.00  0.00     0.293 HD
ENDBRANCH  15  19
BRANCH  16  21
ATOM     21  O   UNL     1      -8.318 -13.932  36.601  1.00  0.00    -0.504 OA
ATOM     22  H   UNL     1      -8.695 -14.665  36.012  1.00  0.00     0.293 HD
ENDBRANCH  16  21
ENDBRANCH   1  11
BRANCH  10  23
ATOM     23  O   UNL     1      -5.903 -15.000  33.077  1.00  0.00    -0.500 OA
ATOM     24  H   UNL     1      -6.907 -14.900  33.171  1.00  0.00     0.294 HD
ENDBRANCH  10  23
BRANCH   5  25
ATOM     25  O   UNL     1      -1.510  -9.876  29.247  1.00  0.00    -0.507 OA
ATOM     26  H   UNL     1      -1.626  -9.557  28.292  1.00  0.00     0.293 HD
ENDBRANCH   5  25
BRANCH   7  27
ATOM     27  O   UNL     1      -2.953 -14.448  28.789  1.00  0.00    -0.507 OA
ATOM     28  H   UNL     1      -2.846 -14.481  27.785  1.00  0.00     0.293 HD
ENDBRANCH   7  27
TORSDOF 7
ENDMDL
MODEL 5
REMARK VINA RESULT:    -1.507      1.496      6.899
REMARK INTER + INTRA:          -1.996
REMARK INTER:                  -2.296
REMARK INTRA:                   0.299
REMARK UNBOUND:                -0.137
REMARK SMILES Oc1cc(O)c2cc(O)c(-c3cc(O)c(O)c(O)c3)[o+]c2c1
REMARK SMILES IDX 10 1 20 2 21 3 22 4 2 5 3 6 4 7 6 8 7 9 8 10 11 11 12 12
REMARK SMILES IDX 13 13 19 14 15 15 17 16 14 17 16 19 18 21 9 23 1 25 5 27
REMARK H PARENT 14 18 16 20 18 22 9 24 1 26 5 28
REMARK Flexibility Score: inf
ROOT
ATOM      1  C   UNL     1      -5.041 -12.727  33.104  1.00  0.00     0.402 A 
ATOM      2  O   UNL     1      -4.434 -11.744  32.444  1.00  0.00    -0.202 OA
ATOM      3  C   UNL     1      -3.817 -11.919  31.280  1.00  0.00     0.368 A 
ATOM      4  C   UNL     1      -3.204 -10.824  30.664  1.00  0.00     0.162 A 
ATOM      5  C   UNL     1      -2.545 -10.979  29.444  1.00  0.00     0.128 A 
ATOM      6  C   UNL     1      -2.497 -12.238  28.834  1.00  0.00     0.093 A 
ATOM      7  C   UNL     1      -3.102 -13.350  29.431  1.00  0.00     0.136 A 
ATOM      8  C   UNL     1      -3.776 -13.196  30.670  1.00  0.00     0.125 A 
ATOM      9  C   UNL     1      -4.421 -14.251  31.335  1.00  0.00     0.078 A 
ATOM     10  C   UNL     1      -5.068 -14.021  32.553  1.00  0.00     0.223 A 
ENDROOT
BRANCH   1  11
ATOM     11  C   UNL     1      -5.688 -12.408  34.398  1.00  0.00     0.091 A 
ATOM     12  C   UNL     1      -6.696 -13.225  34.933  1.00  0.00     0.068 A 
ATOM     13  C   UNL     1      -7.284 -12.928  36.168  1.00  0.00     0.162 A 
ATOM     14  C   UNL     1      -5.246 -11.300  35.135  1.00  0.00     0.068 A 
ATOM     15  C   UNL     1      -6.850 -11.792  36.892  1.00  0.00     0.200 A 
ATOM     16  C   UNL     1      -5.828 -10.988  36.370  1.00  0.00     0.162 A 
BRANCH  13  17
ATOM     17  O   UNL     1      -8.282 -13.785  36.637  1.00  0.00    -0.504 OA
ATOM     18  H   UNL     1      -8.735 -14.487  36.072  1.00  0.00     0.293 HD
ENDBRANCH  13  17
BRANCH  15  19
ATOM     19  O   UNL     1      -7.402 -11.432  38.125  1.00  0.00    -0.502 OA
ATOM     20  H   UNL     1      -7.675 -10.492  38.369  1.00  0.00     0.293 HD
ENDBRANCH  15  19
BRANCH  16  21
ATOM     21  O   UNL     1      -5.392  -9.876  37.087  1.00  0.00    -0.504 OA
ATOM     22  H   UNL     1      -5.191  -9.927  38.079  1.00  0.00     0.293 HD
ENDBRANCH  16  21
ENDBRANCH   1  11
BRANCH  10  23
ATOM     23  O   UNL     1      -5.752 -15.058  33.189  1.00  0.00    -0.500 OA
ATOM     24  H   UNL     1      -6.361 -14.888  33.980  1.00  0.00     0.294 HD
ENDBRANCH  10  23
BRANCH   5  25
ATOM     25  O   UNL     1      -1.943  -9.876  28.845  1.00  0.00    -0.507 OA
ATOM     26  H   UNL     1      -2.008  -8.950  29.253  1.00  0.00     0.293 HD
ENDBRANCH   5  25
BRANCH   7  27
ATOM     27  O   UNL     1      -3.006 -14.573  28.760  1.00  0.00    -0.507 OA
ATOM     28  H   UNL     1      -2.166 -14.914  28.315  1.00  0.00     0.293 HD
ENDBRANCH   7  27
TORSDOF 7
ENDMDL
MODEL 6
REMARK VINA RESULT:    -1.413      1.588      6.943
REMARK INTER + INTRA:          -1.881
REMARK INTER:                  -1.834
REMARK INTRA:                  -0.047
REMARK UNBOUND:                -0.137
REMARK SMILES Oc1cc(O)c2cc(O)c(-c3cc(O)c(O)c(O)c3)[o+]c2c1
REMARK SMILES IDX 10 1 20 2 21 3 22 4 2 5 3 6 4 7 6 8 7 9 8 10 11 11 12 12
REMARK SMILES IDX 13 13 19 14 15 15 17 16 14 17 16 19 18 21 9 23 1 25 5 27
REMARK H PARENT 14 18 16 20 18 22 9 24 1 26 5 28
REMARK Flexibility Score: inf
ROOT
ATOM      1  C   UNL     1      -4.489 -12.720  32.524  1.00  0.00     0.402 A 
ATOM      2  O   UNL     1      -4.386 -11.762  31.607  1.00  0.00    -0.202 OA
ATOM      3  C   UNL     1      -3.701 -11.904  30.477  1.00  0.00     0.368 A 
ATOM      4  C   UNL     1      -3.648 -10.837  29.576  1.00  0.00     0.162 A 
ATOM      5  C   UNL     1      -2.934 -10.956  28.383  1.00  0.00     0.128 A 
ATOM      6  C   UNL     1      -2.266 -12.149  28.088  1.00  0.00     0.093 A 
ATOM      7  C   UNL     1      -2.302 -13.233  28.974  1.00  0.00     0.136 A 
ATOM      8  C   UNL     1      -3.030 -13.117  30.187  1.00  0.00     0.125 A 
ATOM      9  C   UNL     1      -3.134 -14.154  31.128  1.00  0.00     0.078 A 
ATOM     10  C   UNL     1      -3.874 -13.966  32.300  1.00  0.00     0.223 A 
ENDROOT
BRANCH   1  11
ATOM     11  C   UNL     1      -5.274 -12.438  33.748  1.00  0.00     0.091 A 
ATOM     12  C   UNL     1      -6.270 -13.320  34.197  1.00  0.00     0.068 A 
ATOM     13  C   UNL     1      -6.990 -13.056  35.368  1.00  0.00     0.162 A 
ATOM     14  C   UNL     1      -4.980 -11.299  34.508  1.00  0.00     0.068 A 
ATOM     15  C   UNL     1      -6.705 -11.889  36.115  1.00  0.00     0.200 A 
ATOM     16  C   UNL     1      -5.695 -11.019  35.680  1.00  0.00     0.162 A 
BRANCH  13  17
ATOM     17  O   UNL     1      -7.967 -13.977  35.753  1.00  0.00    -0.504 OA
ATOM     18  H   UNL     1      -8.663 -13.800  36.461  1.00  0.00     0.293 HD
ENDBRANCH  13  17
BRANCH  15  19
ATOM     19  O   UNL     1      -7.393 -11.560  37.286  1.00  0.00    -0.502 OA
ATOM     20  H   UNL     1      -7.475 -12.172  38.084  1.00  0.00     0.293 HD
ENDBRANCH  15  19
BRANCH  16  21
ATOM     21  O   UNL     1      -5.405  -9.875  36.420  1.00  0.00    -0.504 OA
ATOM     22  H   UNL     1      -6.133  -9.235  36.717  1.00  0.00     0.293 HD
ENDBRANCH  16  21
ENDBRANCH   1  11
BRANCH  10  23
ATOM     23  O   UNL     1      -4.017 -15.012  33.211  1.00  0.00    -0.500 OA
ATOM     24  H   UNL     1      -4.735 -15.719  33.103  1.00  0.00     0.294 HD
ENDBRANCH  10  23
BRANCH   5  25
ATOM     25  O   UNL     1      -2.894  -9.882  27.497  1.00  0.00    -0.507 OA
ATOM     26  H   UNL     1      -2.017  -9.463  27.210  1.00  0.00     0.293 HD
ENDBRANCH   5  25
BRANCH   7  27
ATOM     27  O   UNL     1      -1.606 -14.388  28.608  1.00  0.00    -0.507 OA
ATOM     28  H   UNL     1      -1.953 -15.328  28.736  1.00  0.00     0.293 HD
ENDBRANCH   7  27
TORSDOF 7
ENDMDL
MODEL 7
REMARK VINA RESULT:    -1.090      1.086      2.571
REMARK INTER + INTRA:          -1.482
REMARK INTER:                  -1.304
REMARK INTRA:                  -0.179
REMARK UNBOUND:                -0.137
REMARK SMILES Oc1cc(O)c2cc(O)c(-c3cc(O)c(O)c(O)c3)[o+]c2c1
REMARK SMILES IDX 10 1 20 2 21 3 22 4 2 5 3 6 4 7 6 8 7 9 8 10 11 11 12 12
REMARK SMILES IDX 13 13 19 14 15 15 17 16 14 17 16 19 18 21 9 23 1 25 5 27
REMARK H PARENT 14 18 16 20 18 22 9 24 1 26 5 28
REMARK Flexibility Score: inf
ROOT
ATOM      1  C   UNL     1      -4.069 -12.175  32.293  1.00  0.00     0.402 A 
ATOM      2  O   UNL     1      -4.874 -13.054  32.883  1.00  0.00    -0.202 OA
ATOM      3  C   UNL     1      -5.665 -12.748  33.906  1.00  0.00     0.368 A 
ATOM      4  C   UNL     1      -6.474 -13.743  34.461  1.00  0.00     0.162 A 
ATOM      5  C   UNL     1      -7.312 -13.451  35.538  1.00  0.00     0.128 A 
ATOM      6  C   UNL     1      -7.342 -12.156  36.065  1.00  0.00     0.093 A 
ATOM      7  C   UNL     1      -6.541 -11.141  35.528  1.00  0.00     0.136 A 
ATOM      8  C   UNL     1      -5.690 -11.433  34.430  1.00  0.00     0.125 A 
ATOM      9  C   UNL     1      -4.863 -10.477  33.819  1.00  0.00     0.078 A 
ATOM     10  C   UNL     1      -4.053 -10.840  32.738  1.00  0.00     0.223 A 
ENDROOT
BRANCH   1  11
ATOM     11  C   UNL     1      -3.227 -12.640  31.166  1.00  0.00     0.091 A 
ATOM     12  C   UNL     1      -3.798 -13.135  29.983  1.00  0.00     0.068 A 
ATOM     13  C   UNL     1      -2.995 -13.550  28.915  1.00  0.00     0.162 A 
ATOM     14  C   UNL     1      -1.833 -12.531  31.257  1.00  0.00     0.068 A 
ATOM     15  C   UNL     1      -1.587 -13.461  29.025  1.00  0.00     0.200 A 
ATOM     16  C   UNL     1      -1.016 -12.946  30.198  1.00  0.00     0.162 A 
BRANCH  13  17
ATOM     17  O   UNL     1      -3.633 -14.033  27.770  1.00  0.00    -0.504 OA
ATOM     18  H   UNL     1      -4.016 -13.445  27.046  1.00  0.00     0.293 HD
ENDBRANCH  13  17
BRANCH  15  19
ATOM     19  O   UNL     1      -0.727 -13.869  28.001  1.00  0.00    -0.502 OA
ATOM     20  H   UNL     1      -0.496 -13.303  27.198  1.00  0.00     0.293 HD
ENDBRANCH  15  19
BRANCH  16  21
ATOM     21  O   UNL     1       0.370 -12.849  30.303  1.00  0.00    -0.504 OA
ATOM     22  H   UNL     1       0.818 -12.019  30.674  1.00  0.00     0.293 HD
ENDBRANCH  16  21
ENDBRANCH   1  11
BRANCH  10  23
ATOM     23  O   UNL     1      -3.268  -9.879  32.099  1.00  0.00    -0.500 OA
ATOM     24  H   UNL     1      -2.261  -9.968  32.039  1.00  0.00     0.294 HD
ENDBRANCH  10  23
BRANCH   5  25
ATOM     25  O   UNL     1      -8.112 -14.456  36.076  1.00  0.00    -0.507 OA
ATOM     26  H   UNL     1      -7.716 -15.328  36.409  1.00  0.00     0.293 HD
ENDBRANCH   5  25
BRANCH   7  27
ATOM     27  O   UNL     1      -6.626  -9.875  36.114  1.00  0.00    -0.507 OA
ATOM     28  H   UNL     1      -6.977  -9.052  35.645  1.00  0.00     0.293 HD
ENDBRANCH   7  27
TORSDOF 7
ENDMDL
MODEL 8
REMARK VINA RESULT:    -0.503      1.769      7.274
REMARK INTER + INTRA:          -0.757
REMARK INTER:                  -0.429
REMARK INTRA:                  -0.329
REMARK UNBOUND:                -0.137
REMARK SMILES Oc1cc(O)c2cc(O)c(-c3cc(O)c(O)c(O)c3)[o+]c2c1
REMARK SMILES IDX 10 1 20 2 21 3 22 4 2 5 3 6 4 7 6 8 7 9 8 10 11 11 12 12
REMARK SMILES IDX 13 13 19 14 15 15 17 16 14 17 16 19 18 21 9 23 1 25 5 27
REMARK H PARENT 14 18 16 20 18 22 9 24 1 26 5 28
REMARK Flexibility Score: inf
ROOT
ATOM      1  C   UNL     1      -3.744 -12.692  31.705  1.00  0.00     0.402 A 
ATOM      2  O   UNL     1      -4.148 -12.109  30.580  1.00  0.00    -0.202 OA
ATOM      3  C   UNL     1      -3.489 -12.205  29.430  1.00  0.00     0.368 A 
ATOM      4  C   UNL     1      -3.991 -11.553  28.300  1.00  0.00     0.162 A 
ATOM      5  C   UNL     1      -3.318 -11.634  27.081  1.00  0.00     0.128 A 
ATOM      6  C   UNL     1      -2.133 -12.372  26.988  1.00  0.00     0.093 A 
ATOM      7  C   UNL     1      -1.608 -13.034  28.104  1.00  0.00     0.136 A 
ATOM      8  C   UNL     1      -2.291 -12.956  29.346  1.00  0.00     0.125 A 
ATOM      9  C   UNL     1      -1.847 -13.598  30.513  1.00  0.00     0.078 A 
ATOM     10  C   UNL     1      -2.577 -13.478  31.700  1.00  0.00     0.223 A 
ENDROOT
BRANCH   1  11
ATOM     11  C   UNL     1      -4.561 -12.502  32.926  1.00  0.00     0.091 A 
ATOM     12  C   UNL     1      -4.538 -11.294  33.640  1.00  0.00     0.068 A 
ATOM     13  C   UNL     1      -5.332 -11.116  34.779  1.00  0.00     0.162 A 
ATOM     14  C   UNL     1      -5.421 -13.526  33.346  1.00  0.00     0.068 A 
ATOM     15  C   UNL     1      -6.177 -12.165  35.212  1.00  0.00     0.200 A 
ATOM     16  C   UNL     1      -6.218 -13.364  34.486  1.00  0.00     0.162 A 
BRANCH  13  17
ATOM     17  O   UNL     1      -5.256  -9.888  35.441  1.00  0.00    -0.504 OA
ATOM     18  H   UNL     1      -5.265  -9.785  36.444  1.00  0.00     0.293 HD
ENDBRANCH  13  17
BRANCH  15  19
ATOM     19  O   UNL     1      -6.987 -12.058  36.346  1.00  0.00    -0.502 OA
ATOM     20  H   UNL     1      -7.988 -11.939  36.317  1.00  0.00     0.293 HD
ENDBRANCH  15  19
BRANCH  16  21
ATOM     21  O   UNL     1      -7.057 -14.394  34.904  1.00  0.00    -0.504 OA
ATOM     22  H   UNL     1      -8.062 -14.271  34.965  1.00  0.00     0.293 HD
ENDBRANCH  16  21
ENDBRANCH   1  11
BRANCH  10  23
ATOM     23  O   UNL     1      -2.163 -14.156  32.847  1.00  0.00    -0.500 OA
ATOM     24  H   UNL     1      -1.435 -13.788  33.449  1.00  0.00     0.294 HD
ENDBRANCH  10  23
BRANCH   5  25
ATOM     25  O   UNL     1      -3.836 -10.978  25.967  1.00  0.00    -0.507 OA
ATOM     26  H   UNL     1      -4.231 -11.490  25.186  1.00  0.00     0.293 HD
ENDBRANCH   5  25
BRANCH   7  27
ATOM     27  O   UNL     1      -0.418 -13.746  27.930  1.00  0.00    -0.507 OA
ATOM     28  H   UNL     1       0.168 -14.071  28.685  1.00  0.00     0.293 HD
ENDBRANCH   7  27
TORSDOF 7
ENDMDL
