MODEL 1
REMARK VINA RESULT:    -4.583      0.000      0.000
REMARK INTER + INTRA:          -7.117
REMARK INTER:                  -6.191
REMARK INTRA:                  -0.927
REMARK UNBOUND:                -0.927
REMARK SMILES CC(=O)OCC=C(C)CCC=C(C)C
REMARK SMILES IDX 7 1 6 2 8 3 9 4 10 5 11 6 13 7 12 8 14 9 5 10 4 11 2 12 3 13
REMARK SMILES IDX 1 14
REMARK H PARENT
REMARK Flexibility Score: inf
ROOT
ATOM      1  C   UNL     1     -19.769  31.187  -2.295  1.00  0.00    -0.074 C 
ATOM      2  C   UNL     1     -20.130  32.487  -2.351  1.00  0.00     0.013 C 
ATOM      3  C   UNL     1     -20.449  30.139  -3.145  1.00  0.00     0.039 C 
ENDROOT
BRANCH   1   4
ATOM      4  C   UNL     1     -18.652  30.769  -1.364  1.00  0.00     0.034 C 
BRANCH   4   5
ATOM      5  C   UNL     1     -17.352  31.504  -1.709  1.00  0.00     0.032 C 
BRANCH   5   6
ATOM      6  C   UNL     1     -16.566  30.742  -2.747  1.00  0.00    -0.028 C 
ATOM      7  C   UNL     1     -17.036  32.405  -4.558  1.00  0.00     0.039 C 
ATOM      8  C   UNL     1     -16.435  31.121  -4.037  1.00  0.00    -0.080 C 
ATOM      9  C   UNL     1     -15.651  30.235  -4.970  1.00  0.00     0.039 C 
ENDBRANCH   5   6
ENDBRANCH   4   5
ENDBRANCH   1   4
BRANCH   2  10
ATOM     10  C   UNL     1     -21.223  33.015  -3.238  1.00  0.00     0.260 C 
BRANCH  10  11
ATOM     11  O   UNL     1     -22.201  33.686  -2.451  1.00  0.00    -0.462 OA
BRANCH  11  12
ATOM     12  C   UNL     1     -23.162  33.004  -1.701  1.00  0.00     0.302 C 
ATOM     13  O   UNL     1     -23.447  31.802  -1.959  1.00  0.00    -0.253 OA
ATOM     14  C   UNL     1     -23.820  33.689  -0.552  1.00  0.00     0.139 C 
ENDBRANCH  11  12
ENDBRANCH  10  11
ENDBRANCH   2  10
TORSDOF 6
ENDMDL
MODEL 2
REMARK VINA RESULT:    -4.472      2.958      6.596
REMARK INTER + INTRA:          -6.967
REMARK INTER:                  -6.431
REMARK INTRA:                  -0.536
REMARK UNBOUND:                -0.927
REMARK SMILES CC(=O)OCC=C(C)CCC=C(C)C
REMARK SMILES IDX 7 1 6 2 8 3 9 4 10 5 11 6 13 7 12 8 14 9 5 10 4 11 2 12 3 13
REMARK SMILES IDX 1 14
REMARK H PARENT
REMARK Flexibility Score: inf
ROOT
ATOM      1  C   UNL     1     -19.367  31.847  -2.680  1.00  0.00    -0.074 C 
ATOM      2  C   UNL     1     -18.457  31.309  -1.838  1.00  0.00     0.013 C 
ATOM      3  C   UNL     1     -18.953  32.518  -3.969  1.00  0.00     0.039 C 
ENDROOT
BRANCH   1   4
ATOM      4  C   UNL     1     -20.837  31.769  -2.329  1.00  0.00     0.034 C 
BRANCH   4   5
ATOM      5  C   UNL     1     -21.566  33.049  -2.751  1.00  0.00     0.032 C 
BRANCH   5   6
ATOM      6  C   UNL     1     -22.301  33.656  -1.582  1.00  0.00    -0.028 C 
ATOM      7  C   UNL     1     -24.296  32.167  -1.856  1.00  0.00     0.039 C 
ATOM      8  C   UNL     1     -23.539  33.288  -1.183  1.00  0.00    -0.080 C 
ATOM      9  C   UNL     1     -24.164  34.013  -0.020  1.00  0.00     0.039 C 
ENDBRANCH   5   6
ENDBRANCH   4   5
ENDBRANCH   1   4
BRANCH   2  10
ATOM     10  C   UNL     1     -16.974  31.327  -2.085  1.00  0.00     0.260 C 
BRANCH  10  11
ATOM     11  O   UNL     1     -16.546  30.048  -2.537  1.00  0.00    -0.462 OA
BRANCH  11  12
ATOM     12  C   UNL     1     -16.161  29.804  -3.857  1.00  0.00     0.302 C 
ATOM     13  O   UNL     1     -16.294  28.658  -4.366  1.00  0.00    -0.253 OA
ATOM     14  C   UNL     1     -15.635  30.924  -4.688  1.00  0.00     0.139 C 
ENDBRANCH  11  12
ENDBRANCH  10  11
ENDBRANCH   2  10
TORSDOF 6
ENDMDL
MODEL 3
REMARK VINA RESULT:    -4.451      1.345      1.629
REMARK INTER + INTRA:          -6.939
REMARK INTER:                  -5.924
REMARK INTRA:                  -1.014
REMARK UNBOUND:                -0.927
REMARK SMILES CC(=O)OCC=C(C)CCC=C(C)C
REMARK SMILES IDX 7 1 6 2 8 3 9 4 10 5 11 6 13 7 12 8 14 9 5 10 4 11 2 12 3 13
REMARK SMILES IDX 1 14
REMARK H PARENT
REMARK Flexibility Score: inf
ROOT
ATOM      1  C   UNL     1     -19.089  31.540  -2.155  1.00  0.00    -0.074 C 
ATOM      2  C   UNL     1     -19.579  32.398  -3.076  1.00  0.00     0.013 C 
ATOM      3  C   UNL     1     -19.930  30.418  -1.591  1.00  0.00     0.039 C 
ENDROOT
BRANCH   1   4
ATOM      4  C   UNL     1     -17.661  31.701  -1.680  1.00  0.00     0.034 C 
BRANCH   4   5
ATOM      5  C   UNL     1     -16.820  30.477  -2.059  1.00  0.00     0.032 C 
BRANCH   5   6
ATOM      6  C   UNL     1     -16.245  30.632  -3.445  1.00  0.00    -0.028 C 
ATOM      7  C   UNL     1     -17.768  28.913  -4.444  1.00  0.00     0.039 C 
ATOM      8  C   UNL     1     -16.643  29.919  -4.522  1.00  0.00    -0.080 C 
ATOM      9  C   UNL     1     -15.948  30.155  -5.838  1.00  0.00     0.039 C 
ENDBRANCH   5   6
ENDBRANCH   4   5
ENDBRANCH   1   4
BRANCH   2  10
ATOM     10  C   UNL     1     -20.980  32.332  -3.620  1.00  0.00     0.260 C 
BRANCH  10  11
ATOM     11  O   UNL     1     -21.747  33.415  -3.106  1.00  0.00    -0.462 OA
BRANCH  11  12
ATOM     12  C   UNL     1     -22.548  33.298  -1.967  1.00  0.00     0.302 C 
ATOM     13  O   UNL     1     -22.702  34.274  -1.184  1.00  0.00    -0.253 OA
ATOM     14  C   UNL     1     -23.270  32.019  -1.705  1.00  0.00     0.139 C 
ENDBRANCH  11  12
ENDBRANCH  10  11
ENDBRANCH   2  10
TORSDOF 6
ENDMDL
MODEL 4
REMARK VINA RESULT:    -4.442      2.396      5.724
REMARK INTER + INTRA:          -6.927
REMARK INTER:                  -5.905
REMARK INTRA:                  -1.022
REMARK UNBOUND:                -0.927
REMARK SMILES CC(=O)OCC=C(C)CCC=C(C)C
REMARK SMILES IDX 7 1 6 2 8 3 9 4 10 5 11 6 13 7 12 8 14 9 5 10 4 11 2 12 3 13
REMARK SMILES IDX 1 14
REMARK H PARENT
REMARK Flexibility Score: inf
ROOT
ATOM      1  C   UNL     1     -21.081  29.994  -2.540  1.00  0.00    -0.074 C 
ATOM      2  C   UNL     1     -20.264  30.533  -1.608  1.00  0.00     0.013 C 
ATOM      3  C   UNL     1     -20.544  29.463  -3.850  1.00  0.00     0.039 C 
ENDROOT
BRANCH   1   4
ATOM      4  C   UNL     1     -22.566  29.913  -2.264  1.00  0.00     0.034 C 
BRANCH   4   5
ATOM      5  C   UNL     1     -23.300  31.107  -2.885  1.00  0.00     0.032 C 
BRANCH   5   6
ATOM      6  C   UNL     1     -23.919  31.969  -1.812  1.00  0.00    -0.028 C 
ATOM      7  C   UNL     1     -22.069  33.655  -1.873  1.00  0.00     0.039 C 
ATOM      8  C   UNL     1     -23.366  33.104  -1.330  1.00  0.00    -0.080 C 
ATOM      9  C   UNL     1     -24.083  33.840  -0.228  1.00  0.00     0.039 C 
ENDBRANCH   5   6
ENDBRANCH   4   5
ENDBRANCH   1   4
BRANCH   2  10
ATOM     10  C   UNL     1     -18.775  30.663  -1.773  1.00  0.00     0.260 C 
BRANCH  10  11
ATOM     11  O   UNL     1     -18.452  31.980  -2.204  1.00  0.00    -0.462 OA
BRANCH  11  12
ATOM     12  C   UNL     1     -18.200  32.296  -3.541  1.00  0.00     0.302 C 
ATOM     13  O   UNL     1     -17.095  32.006  -4.074  1.00  0.00    -0.253 OA
ATOM     14  C   UNL     1     -19.270  32.935  -4.359  1.00  0.00     0.139 C 
ENDBRANCH  11  12
ENDBRANCH  10  11
ENDBRANCH   2  10
TORSDOF 6
ENDMDL
MODEL 5
REMARK VINA RESULT:    -4.318      3.186      6.721
REMARK INTER + INTRA:          -6.760
REMARK INTER:                  -6.379
REMARK INTRA:                  -0.380
REMARK UNBOUND:                -0.927
REMARK SMILES CC(=O)OCC=C(C)CCC=C(C)C
REMARK SMILES IDX 7 1 6 2 8 3 9 4 10 5 11 6 13 7 12 8 14 9 5 10 4 11 2 12 3 13
REMARK SMILES IDX 1 14
REMARK H PARENT
REMARK Flexibility Score: inf
ROOT
ATOM      1  C   UNL     1     -18.563  31.836  -2.712  1.00  0.00    -0.074 C 
ATOM      2  C   UNL     1     -18.303  32.259  -3.969  1.00  0.00     0.013 C 
ATOM      3  C   UNL     1     -17.454  31.592  -1.714  1.00  0.00     0.039 C 
ENDROOT
BRANCH   1   4
ATOM      4  C   UNL     1     -19.998  31.608  -2.290  1.00  0.00     0.034 C 
BRANCH   4   5
ATOM      5  C   UNL     1     -20.938  32.580  -3.012  1.00  0.00     0.032 C 
BRANCH   5   6
ATOM      6  C   UNL     1     -21.791  33.333  -2.021  1.00  0.00    -0.028 C 
ATOM      7  C   UNL     1     -23.646  31.653  -2.096  1.00  0.00     0.039 C 
ATOM      8  C   UNL     1     -23.020  32.943  -1.619  1.00  0.00    -0.080 C 
ATOM      9  C   UNL     1     -23.773  33.821  -0.652  1.00  0.00     0.039 C 
ENDBRANCH   5   6
ENDBRANCH   4   5
ENDBRANCH   1   4
BRANCH   2  10
ATOM     10  C   UNL     1     -16.919  32.518  -4.496  1.00  0.00     0.260 C 
BRANCH  10  11
ATOM     11  O   UNL     1     -16.821  32.057  -5.839  1.00  0.00    -0.462 OA
BRANCH  11  12
ATOM     12  C   UNL     1     -15.670  32.228  -6.613  1.00  0.00     0.302 C 
ATOM     13  O   UNL     1     -15.641  31.851  -7.816  1.00  0.00    -0.253 OA
ATOM     14  C   UNL     1     -14.483  32.909  -6.023  1.00  0.00     0.139 C 
ENDBRANCH  11  12
ENDBRANCH  10  11
ENDBRANCH   2  10
TORSDOF 6
ENDMDL
MODEL 6
REMARK VINA RESULT:    -4.284      2.967      6.104
REMARK INTER + INTRA:          -6.714
REMARK INTER:                  -5.827
REMARK INTRA:                  -0.887
REMARK UNBOUND:                -0.927
REMARK SMILES CC(=O)OCC=C(C)CCC=C(C)C
REMARK SMILES IDX 7 1 6 2 8 3 9 4 10 5 11 6 13 7 12 8 14 9 5 10 4 11 2 12 3 13
REMARK SMILES IDX 1 14
REMARK H PARENT
REMARK Flexibility Score: inf
ROOT
ATOM      1  C   UNL     1     -18.719  31.211  -2.330  1.00  0.00    -0.074 C 
ATOM      2  C   UNL     1     -18.827  31.241  -3.677  1.00  0.00     0.013 C 
ATOM      3  C   UNL     1     -17.589  31.912  -1.612  1.00  0.00     0.039 C 
ENDROOT
BRANCH   1   4
ATOM      4  C   UNL     1     -19.757  30.465  -1.521  1.00  0.00     0.034 C 
BRANCH   4   5
ATOM      5  C   UNL     1     -21.120  30.498  -2.222  1.00  0.00     0.032 C 
BRANCH   5   6
ATOM      6  C   UNL     1     -22.047  31.474  -1.540  1.00  0.00    -0.028 C 
ATOM      7  C   UNL     1     -21.679  33.266  -3.250  1.00  0.00     0.039 C 
ATOM      8  C   UNL     1     -22.289  32.730  -1.976  1.00  0.00    -0.080 C 
ATOM      9  C   UNL     1     -23.211  33.606  -1.167  1.00  0.00     0.039 C 
ENDBRANCH   5   6
ENDBRANCH   4   5
ENDBRANCH   1   4
BRANCH   2  10
ATOM     10  C   UNL     1     -17.856  31.950  -4.580  1.00  0.00     0.260 C 
BRANCH  10  11
ATOM     11  O   UNL     1     -17.094  30.997  -5.312  1.00  0.00    -0.462 OA
BRANCH  11  12
ATOM     12  C   UNL     1     -15.905  30.449  -4.826  1.00  0.00     0.302 C 
ATOM     13  O   UNL     1     -14.833  31.114  -4.848  1.00  0.00    -0.253 OA
ATOM     14  C   UNL     1     -15.915  29.084  -4.228  1.00  0.00     0.139 C 
ENDBRANCH  11  12
ENDBRANCH  10  11
ENDBRANCH   2  10
TORSDOF 6
ENDMDL
MODEL 7
REMARK VINA RESULT:    -4.212      2.712      5.654
REMARK INTER + INTRA:          -6.616
REMARK INTER:                  -5.910
REMARK INTRA:                  -0.706
REMARK UNBOUND:                -0.927
REMARK SMILES CC(=O)OCC=C(C)CCC=C(C)C
REMARK SMILES IDX 7 1 6 2 8 3 9 4 10 5 11 6 13 7 12 8 14 9 5 10 4 11 2 12 3 13
REMARK SMILES IDX 1 14
REMARK H PARENT
REMARK Flexibility Score: inf
ROOT
ATOM      1  C   UNL     1     -19.256  30.602  -2.178  1.00  0.00    -0.074 C 
ATOM      2  C   UNL     1     -19.467  30.426  -3.502  1.00  0.00     0.013 C 
ATOM      3  C   UNL     1     -17.918  31.057  -1.643  1.00  0.00     0.039 C 
ENDROOT
BRANCH   1   4
ATOM      4  C   UNL     1     -20.389  30.343  -1.209  1.00  0.00     0.034 C 
BRANCH   4   5
ATOM      5  C   UNL     1     -21.743  30.399  -1.926  1.00  0.00     0.032 C 
BRANCH   5   6
ATOM      6  C   UNL     1     -22.640  31.433  -1.292  1.00  0.00    -0.028 C 
ATOM      7  C   UNL     1     -21.822  33.283  -2.767  1.00  0.00     0.039 C 
ATOM      8  C   UNL     1     -22.670  32.737  -1.642  1.00  0.00    -0.080 C 
ATOM      9  C   UNL     1     -23.592  33.663  -0.890  1.00  0.00     0.039 C 
ENDBRANCH   5   6
ENDBRANCH   4   5
ENDBRANCH   1   4
BRANCH   2  10
ATOM     10  C   UNL     1     -18.417  30.654  -4.554  1.00  0.00     0.260 C 
BRANCH  10  11
ATOM     11  O   UNL     1     -18.741  31.813  -5.314  1.00  0.00    -0.462 OA
BRANCH  11  12
ATOM     12  C   UNL     1     -19.132  31.750  -6.653  1.00  0.00     0.302 C 
ATOM     13  O   UNL     1     -18.852  32.686  -7.451  1.00  0.00    -0.253 OA
ATOM     14  C   UNL     1     -19.846  30.541  -7.155  1.00  0.00     0.139 C 
ENDBRANCH  11  12
ENDBRANCH  10  11
ENDBRANCH   2  10
TORSDOF 6
ENDMDL
MODEL 8
REMARK VINA RESULT:    -4.134      2.908      5.582
REMARK INTER + INTRA:          -6.511
REMARK INTER:                  -5.528
REMARK INTRA:                  -0.983
REMARK UNBOUND:                -0.927
REMARK SMILES CC(=O)OCC=C(C)CCC=C(C)C
REMARK SMILES IDX 7 1 6 2 8 3 9 4 10 5 11 6 13 7 12 8 14 9 5 10 4 11 2 12 3 13
REMARK SMILES IDX 1 14
REMARK H PARENT
REMARK Flexibility Score: inf
ROOT
ATOM      1  C   UNL     1     -20.298  32.336  -4.192  1.00  0.00    -0.074 C 
ATOM      2  C   UNL     1     -19.083  32.920  -4.102  1.00  0.00     0.013 C 
ATOM      3  C   UNL     1     -20.472  30.960  -4.793  1.00  0.00     0.039 C 
ENDROOT
BRANCH   1   4
ATOM      4  C   UNL     1     -21.514  33.072  -3.672  1.00  0.00     0.034 C 
BRANCH   4   5
ATOM      5  C   UNL     1     -21.748  32.757  -2.191  1.00  0.00     0.032 C 
BRANCH   5   6
ATOM      6  C   UNL     1     -22.808  31.695  -2.032  1.00  0.00    -0.028 C 
ATOM      7  C   UNL     1     -21.169  29.940  -1.322  1.00  0.00     0.039 C 
ATOM      8  C   UNL     1     -22.560  30.418  -1.666  1.00  0.00    -0.080 C 
ATOM      9  C   UNL     1     -23.718  29.456  -1.588  1.00  0.00     0.039 C 
ENDBRANCH   5   6
ENDBRANCH   4   5
ENDBRANCH   1   4
BRANCH   2  10
ATOM     10  C   UNL     1     -17.809  32.283  -4.584  1.00  0.00     0.260 C 
BRANCH  10  11
ATOM     11  O   UNL     1     -16.985  31.955  -3.471  1.00  0.00    -0.462 OA
BRANCH  11  12
ATOM     12  C   UNL     1     -17.084  30.738  -2.792  1.00  0.00     0.302 C 
ATOM     13  O   UNL     1     -16.582  29.687  -3.277  1.00  0.00    -0.253 OA
ATOM     14  C   UNL     1     -17.745  30.693  -1.457  1.00  0.00     0.139 C 
ENDBRANCH  11  12
ENDBRANCH  10  11
ENDBRANCH   2  10
TORSDOF 6
ENDMDL
MODEL 9
REMARK VINA RESULT:    -4.114      2.767      4.783
REMARK INTER + INTRA:          -6.484
REMARK INTER:                  -5.208
REMARK INTRA:                  -1.275
REMARK UNBOUND:                -0.927
REMARK SMILES CC(=O)OCC=C(C)CCC=C(C)C
REMARK SMILES IDX 7 1 6 2 8 3 9 4 10 5 11 6 13 7 12 8 14 9 5 10 4 11 2 12 3 13
REMARK SMILES IDX 1 14
REMARK H PARENT
REMARK Flexibility Score: inf
ROOT
ATOM      1  C   UNL     1     -16.936  30.628  -3.808  1.00  0.00    -0.074 C 
ATOM      2  C   UNL     1     -16.975  31.785  -4.505  1.00  0.00     0.013 C 
ATOM      3  C   UNL     1     -17.170  29.293  -4.477  1.00  0.00     0.039 C 
ENDROOT
BRANCH   1   4
ATOM      4  C   UNL     1     -16.644  30.668  -2.324  1.00  0.00     0.034 C 
BRANCH   4   5
ATOM      5  C   UNL     1     -17.714  31.476  -1.581  1.00  0.00     0.032 C 
BRANCH   5   6
ATOM      6  C   UNL     1     -19.038  30.752  -1.598  1.00  0.00    -0.028 C 
ATOM      7  C   UNL     1     -20.231  32.629  -2.748  1.00  0.00     0.039 C 
ATOM      8  C   UNL     1     -20.183  31.267  -2.097  1.00  0.00    -0.080 C 
ATOM      9  C   UNL     1     -21.441  30.441  -2.008  1.00  0.00     0.039 C 
ENDBRANCH   5   6
ENDBRANCH   4   5
ENDBRANCH   1   4
BRANCH   2  10
ATOM     10  C   UNL     1     -17.254  31.865  -5.980  1.00  0.00     0.260 C 
BRANCH  10  11
ATOM     11  O   UNL     1     -18.617  32.215  -6.194  1.00  0.00    -0.462 OA
BRANCH  11  12
ATOM     12  C   UNL     1     -19.549  31.322  -6.729  1.00  0.00     0.302 C 
ATOM     13  O   UNL     1     -19.612  31.125  -7.973  1.00  0.00    -0.253 OA
ATOM     14  C   UNL     1     -20.444  30.558  -5.814  1.00  0.00     0.139 C 
ENDBRANCH  11  12
ENDBRANCH  10  11
ENDBRANCH   2  10
TORSDOF 6
ENDMDL
