MODEL 1
REMARK VINA RESULT:    -4.018      0.000      0.000
REMARK INTER + INTRA:          -4.135
REMARK INTER:                  -4.135
REMARK INTRA:                   0.000
REMARK UNBOUND:                 0.000
REMARK SMILES Nc1ncnc2nc[nH]c12
REMARK SMILES IDX 8 1 7 2 6 3 5 4 4 5 3 6 2 7 10 8 9 9 1 11
REMARK H PARENT 9 10 1 12 1 13
REMARK Flexibility Score: inf
ROOT
ATOM      1  C   UNL     1      12.561  46.642  26.623  1.00  0.00     0.199 A 
ATOM      2  N   UNL     1      11.351  46.252  26.137  1.00  0.00    -0.217 NA
ATOM      3  C   UNL     1      11.574  46.212  24.813  1.00  0.00     0.182 A 
ATOM      4  N   UNL     1      10.681  45.875  23.852  1.00  0.00    -0.215 NA
ATOM      5  C   UNL     1      11.095  45.894  22.550  1.00  0.00     0.226 A 
ATOM      6  N   UNL     1      12.384  46.244  22.235  1.00  0.00    -0.217 NA
ATOM      7  C   UNL     1      13.287  46.584  23.202  1.00  0.00     0.152 A 
ATOM      8  C   UNL     1      12.849  46.560  24.523  1.00  0.00     0.127 A 
ATOM      9  N   UNL     1      13.498  46.839  25.660  1.00  0.00    -0.340 N 
ATOM     10  H   UNL     1      14.489  47.139  25.790  1.00  0.00     0.168 HD
ENDROOT
BRANCH   7  11
ATOM     11  N   UNL     1      14.623  46.946  22.850  1.00  0.00    -0.382 N 
ATOM     12  H   UNL     1      14.998  46.775  21.891  1.00  0.00     0.158 HD
ATOM     13  H   UNL     1      15.248  47.390  23.559  1.00  0.00     0.158 HD
ENDBRANCH   7  11
TORSDOF 1
ENDMDL
MODEL 2
REMARK VINA RESULT:    -3.763      1.033      3.022
REMARK INTER + INTRA:          -3.873
REMARK INTER:                  -3.873
REMARK INTRA:                   0.000
REMARK UNBOUND:                 0.000
REMARK SMILES Nc1ncnc2nc[nH]c12
REMARK SMILES IDX 8 1 7 2 6 3 5 4 4 5 3 6 2 7 10 8 9 9 1 11
REMARK H PARENT 9 10 1 12 1 13
REMARK Flexibility Score: inf
ROOT
ATOM      1  C   UNL     1      13.763  46.330  22.883  1.00  0.00     0.199 A 
ATOM      2  N   UNL     1      12.449  46.371  22.534  1.00  0.00    -0.217 NA
ATOM      3  C   UNL     1      11.835  46.353  23.729  1.00  0.00     0.182 A 
ATOM      4  N   UNL     1      10.499  46.380  23.953  1.00  0.00    -0.215 NA
ATOM      5  C   UNL     1      10.061  46.353  25.247  1.00  0.00     0.226 A 
ATOM      6  N   UNL     1      10.957  46.303  26.285  1.00  0.00    -0.217 NA
ATOM      7  C   UNL     1      12.305  46.277  26.062  1.00  0.00     0.152 A 
ATOM      8  C   UNL     1      12.735  46.304  24.738  1.00  0.00     0.127 A 
ATOM      9  N   UNL     1      13.971  46.288  24.224  1.00  0.00    -0.340 N 
ATOM     10  H   UNL     1      14.887  46.252  24.725  1.00  0.00     0.168 HD
ENDROOT
BRANCH   7  11
ATOM     11  N   UNL     1      13.220  46.224  27.158  1.00  0.00    -0.382 N 
ATOM     12  H   UNL     1      12.898  46.364  28.141  1.00  0.00     0.158 HD
ATOM     13  H   UNL     1      14.233  46.044  26.984  1.00  0.00     0.158 HD
ENDBRANCH   7  11
TORSDOF 1
ENDMDL
MODEL 3
REMARK VINA RESULT:    -3.605      3.305      5.591
REMARK INTER + INTRA:          -3.711
REMARK INTER:                  -3.711
REMARK INTRA:                   0.000
REMARK UNBOUND:                 0.000
REMARK SMILES Nc1ncnc2nc[nH]c12
REMARK SMILES IDX 8 1 7 2 6 3 5 4 4 5 3 6 2 7 10 8 9 9 1 11
REMARK H PARENT 9 10 1 12 1 13
REMARK Flexibility Score: inf
ROOT
ATOM      1  C   UNL     1      13.498  46.025  26.675  1.00  0.00     0.199 A 
ATOM      2  N   UNL     1      12.984  47.274  26.503  1.00  0.00    -0.217 NA
ATOM      3  C   UNL     1      13.409  47.912  27.606  1.00  0.00     0.182 A 
ATOM      4  N   UNL     1      13.172  49.204  27.935  1.00  0.00    -0.215 NA
ATOM      5  C   UNL     1      13.691  49.678  29.107  1.00  0.00     0.226 A 
ATOM      6  N   UNL     1      14.432  48.859  29.922  1.00  0.00    -0.217 NA
ATOM      7  C   UNL     1      14.673  47.555  29.592  1.00  0.00     0.152 A 
ATOM      8  C   UNL     1      14.138  47.088  28.395  1.00  0.00     0.127 A 
ATOM      9  N   UNL     1      14.208  45.880  27.823  1.00  0.00    -0.340 N 
ATOM     10  H   UNL     1      14.690  45.021  28.168  1.00  0.00     0.168 HD
ENDROOT
BRANCH   7  11
ATOM     11  N   UNL     1      15.447  46.722  30.456  1.00  0.00    -0.382 N 
ATOM     12  H   UNL     1      16.408  46.410  30.193  1.00  0.00     0.158 HD
ATOM     13  H   UNL     1      15.054  46.410  31.371  1.00  0.00     0.158 HD
ENDBRANCH   7  11
TORSDOF 1
ENDMDL
MODEL 4
REMARK VINA RESULT:    -3.592     16.753     17.809
REMARK INTER + INTRA:          -3.697
REMARK INTER:                  -3.697
REMARK INTRA:                   0.000
REMARK UNBOUND:                 0.000
REMARK SMILES Nc1ncnc2nc[nH]c12
REMARK SMILES IDX 8 1 7 2 6 3 5 4 4 5 3 6 2 7 10 8 9 9 1 11
REMARK H PARENT 9 10 1 12 1 13
REMARK Flexibility Score: inf
ROOT
ATOM      1  C   UNL     1      15.704  64.565  27.997  1.00  0.00     0.199 A 
ATOM      2  N   UNL     1      15.535  63.305  27.510  1.00  0.00    -0.217 NA
ATOM      3  C   UNL     1      15.311  62.594  28.628  1.00  0.00     0.182 A 
ATOM      4  N   UNL     1      15.077  61.263  28.706  1.00  0.00    -0.215 NA
ATOM      5  C   UNL     1      14.871  60.715  29.942  1.00  0.00     0.226 A 
ATOM      6  N   UNL     1      14.902  61.501  31.066  1.00  0.00    -0.217 NA
ATOM      7  C   UNL     1      15.137  62.845  30.990  1.00  0.00     0.152 A 
ATOM      8  C   UNL     1      15.345  63.387  29.724  1.00  0.00     0.127 A 
ATOM      9  N   UNL     1      15.594  64.647  29.347  1.00  0.00    -0.340 N 
ATOM     10  H   UNL     1      15.685  65.501  29.942  1.00  0.00     0.168 HD
ENDROOT
BRANCH   7  11
ATOM     11  N   UNL     1      15.164  63.644  32.173  1.00  0.00    -0.382 N 
ATOM     12  H   UNL     1      15.641  63.313  33.041  1.00  0.00     0.158 HD
ATOM     13  H   UNL     1      14.701  64.579  32.183  1.00  0.00     0.158 HD
ENDBRANCH   7  11
TORSDOF 1
ENDMDL
MODEL 5
REMARK VINA RESULT:    -3.581      1.292      2.235
REMARK INTER + INTRA:          -3.685
REMARK INTER:                  -3.685
REMARK INTRA:                   0.000
REMARK UNBOUND:                 0.000
REMARK SMILES Nc1ncnc2nc[nH]c12
REMARK SMILES IDX 8 1 7 2 6 3 5 4 4 5 3 6 2 7 10 8 9 9 1 11
REMARK H PARENT 9 10 1 12 1 13
REMARK Flexibility Score: inf
ROOT
ATOM      1  C   UNL     1       9.536  46.049  25.940  1.00  0.00     0.199 A 
ATOM      2  N   UNL     1       9.389  46.170  24.593  1.00  0.00    -0.217 NA
ATOM      3  C   UNL     1      10.663  46.159  24.165  1.00  0.00     0.182 A 
ATOM      4  N   UNL     1      11.085  46.252  22.881  1.00  0.00    -0.215 NA
ATOM      5  C   UNL     1      12.430  46.223  22.640  1.00  0.00     0.226 A 
ATOM      6  N   UNL     1      13.320  46.101  23.677  1.00  0.00    -0.217 NA
ATOM      7  C   UNL     1      12.897  46.006  24.973  1.00  0.00     0.152 A 
ATOM      8  C   UNL     1      11.524  46.038  25.201  1.00  0.00     0.127 A 
ATOM      9  N   UNL     1      10.830  45.966  26.343  1.00  0.00    -0.340 N 
ATOM     10  H   UNL     1      11.187  45.870  27.320  1.00  0.00     0.168 HD
ENDROOT
BRANCH   7  11
ATOM     11  N   UNL     1      13.843  45.880  26.036  1.00  0.00    -0.382 N 
ATOM     12  H   UNL     1      14.710  46.459  26.063  1.00  0.00     0.158 HD
ATOM     13  H   UNL     1      13.673  45.196  26.806  1.00  0.00     0.158 HD
ENDBRANCH   7  11
TORSDOF 1
ENDMDL
MODEL 6
REMARK VINA RESULT:    -3.533     17.137     18.005
REMARK INTER + INTRA:          -3.636
REMARK INTER:                  -3.636
REMARK INTRA:                   0.000
REMARK UNBOUND:                 0.000
REMARK SMILES Nc1ncnc2nc[nH]c12
REMARK SMILES IDX 8 1 7 2 6 3 5 4 4 5 3 6 2 7 10 8 9 9 1 11
REMARK H PARENT 9 10 1 12 1 13
REMARK Flexibility Score: inf
ROOT
ATOM      1  C   UNL     1      15.494  62.737  31.875  1.00  0.00     0.199 A 
ATOM      2  N   UNL     1      15.785  61.681  31.069  1.00  0.00    -0.217 NA
ATOM      3  C   UNL     1      15.828  62.252  29.854  1.00  0.00     0.182 A 
ATOM      4  N   UNL     1      16.085  61.632  28.677  1.00  0.00    -0.215 NA
ATOM      5  C   UNL     1      16.085  62.386  27.537  1.00  0.00     0.226 A 
ATOM      6  N   UNL     1      15.832  63.733  27.593  1.00  0.00    -0.217 NA
ATOM      7  C   UNL     1      15.573  64.362  28.778  1.00  0.00     0.152 A 
ATOM      8  C   UNL     1      15.577  63.579  29.931  1.00  0.00     0.127 A 
ATOM      9  N   UNL     1      15.361  63.913  31.209  1.00  0.00    -0.340 N 
ATOM     10  H   UNL     1      15.140  64.850  31.611  1.00  0.00     0.168 HD
ENDROOT
BRANCH   7  11
ATOM     11  N   UNL     1      15.313  65.765  28.812  1.00  0.00    -0.382 N 
ATOM     12  H   UNL     1      15.259  66.286  29.715  1.00  0.00     0.158 HD
ATOM     13  H   UNL     1      15.170  66.292  27.922  1.00  0.00     0.158 HD
ENDBRANCH   7  11
TORSDOF 1
ENDMDL
MODEL 7
REMARK VINA RESULT:    -3.477     15.844     16.948
REMARK INTER + INTRA:          -3.579
REMARK INTER:                  -3.579
REMARK INTRA:                   0.000
REMARK UNBOUND:                 0.000
REMARK SMILES Nc1ncnc2nc[nH]c12
REMARK SMILES IDX 8 1 7 2 6 3 5 4 4 5 3 6 2 7 10 8 9 9 1 11
REMARK H PARENT 9 10 1 12 1 13
REMARK Flexibility Score: inf
ROOT
ATOM      1  C   UNL     1      15.649  59.418  31.068  1.00  0.00     0.199 A 
ATOM      2  N   UNL     1      15.982  59.595  29.760  1.00  0.00    -0.217 NA
ATOM      3  C   UNL     1      15.890  60.928  29.621  1.00  0.00     0.182 A 
ATOM      4  N   UNL     1      16.125  61.641  28.493  1.00  0.00    -0.215 NA
ATOM      5  C   UNL     1      15.978  62.999  28.545  1.00  0.00     0.226 A 
ATOM      6  N   UNL     1      15.605  63.614  29.714  1.00  0.00    -0.217 NA
ATOM      7  C   UNL     1      15.369  62.898  30.853  1.00  0.00     0.152 A 
ATOM      8  C   UNL     1      15.522  61.515  30.782  1.00  0.00     0.127 A 
ATOM      9  N   UNL     1      15.362  60.573  31.720  1.00  0.00    -0.340 N 
ATOM     10  H   UNL     1      15.082  60.687  32.719  1.00  0.00     0.168 HD
ENDROOT
BRANCH   7  11
ATOM     11  N   UNL     1      14.982  63.560  32.058  1.00  0.00    -0.382 N 
ATOM     12  H   UNL     1      14.065  64.052  32.136  1.00  0.00     0.158 HD
ATOM     13  H   UNL     1      15.621  63.559  32.883  1.00  0.00     0.158 HD
ENDBRANCH   7  11
TORSDOF 1
ENDMDL
MODEL 8
REMARK VINA RESULT:    -3.477      0.943      2.939
REMARK INTER + INTRA:          -3.578
REMARK INTER:                  -3.578
REMARK INTRA:                   0.000
REMARK UNBOUND:                 0.000
REMARK SMILES Nc1ncnc2nc[nH]c12
REMARK SMILES IDX 8 1 7 2 6 3 5 4 4 5 3 6 2 7 10 8 9 9 1 11
REMARK H PARENT 9 10 1 12 1 13
REMARK Flexibility Score: inf
ROOT
ATOM      1  C   UNL     1      10.081  45.875  22.231  1.00  0.00     0.199 A 
ATOM      2  N   UNL     1       9.576  45.953  23.492  1.00  0.00    -0.217 NA
ATOM      3  C   UNL     1      10.686  46.095  24.236  1.00  0.00     0.182 A 
ATOM      4  N   UNL     1      10.746  46.221  25.583  1.00  0.00    -0.215 NA
ATOM      5  C   UNL     1      11.976  46.356  26.165  1.00  0.00     0.226 A 
ATOM      6  N   UNL     1      13.112  46.365  25.396  1.00  0.00    -0.217 NA
ATOM      7  C   UNL     1      13.054  46.239  24.037  1.00  0.00     0.152 A 
ATOM      8  C   UNL     1      11.794  46.102  23.460  1.00  0.00     0.127 A 
ATOM      9  N   UNL     1      11.434  45.963  22.178  1.00  0.00    -0.340 N 
ATOM     10  H   UNL     1      12.041  45.928  21.329  1.00  0.00     0.168 HD
ENDROOT
BRANCH   7  11
ATOM     11  N   UNL     1      14.251  46.250  23.257  1.00  0.00    -0.382 N 
ATOM     12  H   UNL     1      14.355  46.881  22.432  1.00  0.00     0.158 HD
ATOM     13  H   UNL     1      15.043  45.618  23.507  1.00  0.00     0.158 HD
ENDBRANCH   7  11
TORSDOF 1
ENDMDL
MODEL 9
REMARK VINA RESULT:    -3.381      3.326      5.725
REMARK INTER + INTRA:          -3.480
REMARK INTER:                  -3.480
REMARK INTRA:                   0.000
REMARK UNBOUND:                 0.000
REMARK SMILES Nc1ncnc2nc[nH]c12
REMARK SMILES IDX 8 1 7 2 6 3 5 4 4 5 3 6 2 7 10 8 9 9 1 11
REMARK H PARENT 9 10 1 12 1 13
REMARK Flexibility Score: inf
ROOT
ATOM      1  C   UNL     1      12.764  47.027  26.518  1.00  0.00     0.199 A 
ATOM      2  N   UNL     1      13.619  46.013  26.821  1.00  0.00    -0.217 NA
ATOM      3  C   UNL     1      14.270  46.498  27.892  1.00  0.00     0.182 A 
ATOM      4  N   UNL     1      15.245  45.875  28.596  1.00  0.00    -0.215 NA
ATOM      5  C   UNL     1      15.792  46.533  29.662  1.00  0.00     0.226 A 
ATOM      6  N   UNL     1      15.356  47.789  30.003  1.00  0.00    -0.217 NA
ATOM      7  C   UNL     1      14.372  48.419  29.295  1.00  0.00     0.152 A 
ATOM      8  C   UNL     1      13.826  47.735  28.212  1.00  0.00     0.127 A 
ATOM      9  N   UNL     1      12.866  48.095  27.351  1.00  0.00    -0.340 N 
ATOM     10  H   UNL     1      12.318  48.983  27.316  1.00  0.00     0.168 HD
ENDROOT
BRANCH   7  11
ATOM     11  N   UNL     1      13.935  49.726  29.669  1.00  0.00    -0.382 N 
ATOM     12  H   UNL     1      14.481  50.577  29.410  1.00  0.00     0.158 HD
ATOM     13  H   UNL     1      13.052  49.846  30.213  1.00  0.00     0.158 HD
ENDBRANCH   7  11
TORSDOF 1
ENDMDL
