MODEL 1
REMARK VINA RESULT:    -0.565      0.000      0.000
REMARK INTER + INTRA:          -0.692
REMARK INTER:                  -0.664
REMARK INTRA:                  -0.028
REMARK UNBOUND:                -0.028
REMARK SMILES O=c1c(O)c(-c2ccc(O)cc2)oc2cc(O)cc(O)c12
REMARK SMILES IDX 5 1 3 2 2 3 1 4 21 5 19 6 18 7 16 8 15 9 14 10 13 11 6 12
REMARK SMILES IDX 7 13 8 14 9 15 12 16 11 17 10 18 4 20 20 22 17 24
REMARK H PARENT 10 19 4 21 20 23 17 25
REMARK Flexibility Score: inf
ROOT
ATOM      1  C   UNL     1     -37.358 -35.433 -34.107  1.00  0.00     0.180 A 
ATOM      2  C   UNL     1     -35.956 -35.369 -34.208  1.00  0.00     0.208 A 
ATOM      3  C   UNL     1     -35.357 -35.524 -35.468  1.00  0.00     0.238 A 
ATOM      4  O   UNL     1     -34.107 -35.412 -35.559  1.00  0.00    -0.285 OA
ATOM      5  C   UNL     1     -36.163 -35.758 -36.608  1.00  0.00     0.111 A 
ATOM      6  C   UNL     1     -35.660 -35.970 -37.927  1.00  0.00     0.134 A 
ATOM      7  C   UNL     1     -36.553 -36.061 -39.000  1.00  0.00     0.093 A 
ATOM      8  C   UNL     1     -37.934 -36.014 -38.794  1.00  0.00     0.123 A 
ATOM      9  C   UNL     1     -38.436 -35.867 -37.504  1.00  0.00     0.094 A 
ATOM     10  C   UNL     1     -37.569 -35.736 -36.417  1.00  0.00     0.146 A 
ATOM     11  O   UNL     1     -38.090 -35.587 -35.204  1.00  0.00    -0.452 OA
ENDROOT
BRANCH   1  12
ATOM     12  C   UNL     1     -38.061 -35.303 -32.811  1.00  0.00     0.021 A 
ATOM     13  C   UNL     1     -37.722 -36.109 -31.709  1.00  0.00     0.016 A 
ATOM     14  C   UNL     1     -38.417 -35.986 -30.501  1.00  0.00     0.047 A 
ATOM     15  C   UNL     1     -39.465 -35.067 -30.383  1.00  0.00     0.115 A 
ATOM     16  C   UNL     1     -39.129 -34.397 -32.690  1.00  0.00     0.016 A 
ATOM     17  C   UNL     1     -39.820 -34.275 -31.482  1.00  0.00     0.047 A 
BRANCH  15  18
ATOM     18  O   UNL     1     -40.147 -34.955 -29.173  1.00  0.00    -0.508 OA
ATOM     19  H   UNL     1     -40.483 -34.060 -28.838  1.00  0.00     0.293 HD
ENDBRANCH  15  18
ENDBRANCH   1  12
BRANCH   2  20
ATOM     20  O   UNL     1     -35.181 -35.115 -33.073  1.00  0.00    -0.502 OA
ATOM     21  H   UNL     1     -35.412 -35.492 -32.162  1.00  0.00     0.293 HD
ENDBRANCH   2  20
BRANCH   6  22
ATOM     22  O   UNL     1     -34.303 -36.125 -38.228  1.00  0.00    -0.507 OA
ATOM     23  H   UNL     1     -33.717 -36.867 -37.878  1.00  0.00     0.293 HD
ENDBRANCH   6  22
BRANCH   8  24
ATOM     24  O   UNL     1     -38.817 -36.121 -39.866  1.00  0.00    -0.508 OA
ATOM     25  H   UNL     1     -38.998 -37.010 -40.317  1.00  0.00     0.293 HD
ENDBRANCH   8  24
TORSDOF 5
ENDMDL
