MODEL 1
REMARK VINA RESULT:    -6.288      0.000      0.000
REMARK INTER + INTRA:          -7.803
REMARK INTER:                  -7.574
REMARK INTRA:                  -0.228
REMARK UNBOUND:                -0.228
REMARK SMILES O=c1c(O)c(-c2ccc(O)c(O)c2)oc2cc(O)cc(O)c12
REMARK SMILES IDX 5 1 3 2 2 3 1 4 22 5 20 6 19 7 17 8 16 9 15 10 14 11 6 12
REMARK SMILES IDX 7 13 8 14 9 15 13 16 11 17 10 18 12 20 4 22 21 24 18 26
REMARK H PARENT 10 19 12 21 4 23 21 25 18 27
REMARK Flexibility Score: inf
ROOT
ATOM      1  C   UNL     1       8.095  25.543  11.831  1.00  0.00     0.180 A 
ATOM      2  C   UNL     1       6.739  25.885  11.963  1.00  0.00     0.208 A 
ATOM      3  C   UNL     1       6.364  26.810  12.951  1.00  0.00     0.238 A 
ATOM      4  O   UNL     1       5.159  27.168  13.015  1.00  0.00    -0.285 OA
ATOM      5  C   UNL     1       7.340  27.338  13.831  1.00  0.00     0.111 A 
ATOM      6  C   UNL     1       7.066  28.248  14.896  1.00  0.00     0.134 A 
ATOM      7  C   UNL     1       8.128  28.786  15.635  1.00  0.00     0.093 A 
ATOM      8  C   UNL     1       9.445  28.401  15.389  1.00  0.00     0.123 A 
ATOM      9  C   UNL     1       9.719  27.471  14.386  1.00  0.00     0.094 A 
ATOM     10  C   UNL     1       8.686  26.945  13.607  1.00  0.00     0.146 A 
ATOM     11  O   UNL     1       8.993  26.079  12.648  1.00  0.00    -0.452 OA
ENDROOT
BRANCH   1  12
ATOM     12  C   UNL     1       8.570  24.587  10.805  1.00  0.00     0.025 A 
ATOM     13  C   UNL     1       8.285  23.215  10.896  1.00  0.00     0.016 A 
ATOM     14  C   UNL     1       8.723  22.336   9.902  1.00  0.00     0.051 A 
ATOM     15  C   UNL     1       9.438  22.807   8.797  1.00  0.00     0.157 A 
ATOM     16  C   UNL     1       9.269  25.064   9.685  1.00  0.00     0.062 A 
ATOM     17  C   UNL     1       9.712  24.191   8.684  1.00  0.00     0.158 A 
BRANCH  15  18
ATOM     18  O   UNL     1       9.851  21.876   7.842  1.00  0.00    -0.504 OA
ATOM     19  H   UNL     1       9.370  21.009   7.653  1.00  0.00     0.293 HD
ENDBRANCH  15  18
BRANCH  17  20
ATOM     20  O   UNL     1      10.411  24.736   7.606  1.00  0.00    -0.504 OA
ATOM     21  H   UNL     1      11.108  25.463   7.694  1.00  0.00     0.293 HD
ENDBRANCH  17  20
ENDBRANCH   1  12
BRANCH   2  22
ATOM     22  O   UNL     1       5.780  25.295  11.136  1.00  0.00    -0.502 OA
ATOM     23  H   UNL     1       5.916  24.387  10.709  1.00  0.00     0.293 HD
ENDBRANCH   2  22
BRANCH   6  24
ATOM     24  O   UNL     1       5.780  28.634  15.286  1.00  0.00    -0.507 OA
ATOM     25  H   UNL     1       5.259  28.224  16.046  1.00  0.00     0.293 HD
ENDBRANCH   6  24
BRANCH   8  26
ATOM     26  O   UNL     1      10.475  28.944  16.155  1.00  0.00    -0.508 OA
ATOM     27  H   UNL     1      10.286  29.569  16.929  1.00  0.00     0.293 HD
ENDBRANCH   8  26
TORSDOF 6
ENDMDL
MODEL 2
REMARK VINA RESULT:    -6.051      1.570      6.835
REMARK INTER + INTRA:          -7.517
REMARK INTER:                  -7.199
REMARK INTRA:                  -0.318
REMARK UNBOUND:                -0.228
REMARK SMILES O=c1c(O)c(-c2ccc(O)c(O)c2)oc2cc(O)cc(O)c12
REMARK SMILES IDX 5 1 3 2 2 3 1 4 22 5 20 6 19 7 17 8 16 9 15 10 14 11 6 12
REMARK SMILES IDX 7 13 8 14 9 15 13 16 11 17 10 18 12 20 4 22 21 24 18 26
REMARK H PARENT 10 19 12 21 4 23 21 25 18 27
REMARK Flexibility Score: inf
ROOT
ATOM      1  C   UNL     1       8.471  25.860  13.040  1.00  0.00     0.180 A 
ATOM      2  C   UNL     1       7.768  24.651  13.178  1.00  0.00     0.208 A 
ATOM      3  C   UNL     1       7.866  23.686  12.162  1.00  0.00     0.238 A 
ATOM      4  O   UNL     1       7.294  22.578  12.327  1.00  0.00    -0.285 OA
ATOM      5  C   UNL     1       8.619  23.964  10.996  1.00  0.00     0.111 A 
ATOM      6  C   UNL     1       8.752  23.078   9.884  1.00  0.00     0.134 A 
ATOM      7  C   UNL     1       9.611  23.415   8.830  1.00  0.00     0.093 A 
ATOM      8  C   UNL     1      10.292  24.631   8.817  1.00  0.00     0.123 A 
ATOM      9  C   UNL     1      10.127  25.529   9.872  1.00  0.00     0.094 A 
ATOM     10  C   UNL     1       9.308  25.206  10.956  1.00  0.00     0.146 A 
ATOM     11  O   UNL     1       9.197  26.079  11.949  1.00  0.00    -0.452 OA
ENDROOT
BRANCH   1  12
ATOM     12  C   UNL     1       8.429  26.919  14.073  1.00  0.00     0.025 A 
ATOM     13  C   UNL     1       9.432  27.029  15.050  1.00  0.00     0.016 A 
ATOM     14  C   UNL     1       9.383  28.052  15.999  1.00  0.00     0.051 A 
ATOM     15  C   UNL     1       8.345  28.990  15.986  1.00  0.00     0.157 A 
ATOM     16  C   UNL     1       7.399  27.873  14.044  1.00  0.00     0.062 A 
ATOM     17  C   UNL     1       7.341  28.902  14.992  1.00  0.00     0.158 A 
BRANCH  15  18
ATOM     18  O   UNL     1       8.352  29.985  16.965  1.00  0.00    -0.504 OA
ATOM     19  H   UNL     1       7.630  30.097  17.662  1.00  0.00     0.293 HD
ENDBRANCH  15  18
BRANCH  17  20
ATOM     20  O   UNL     1       6.281  29.805  14.909  1.00  0.00    -0.504 OA
ATOM     21  H   UNL     1       5.591  29.936  15.635  1.00  0.00     0.293 HD
ENDBRANCH  17  20
ENDBRANCH   1  12
BRANCH   2  22
ATOM     22  O   UNL     1       6.967  24.428  14.301  1.00  0.00    -0.502 OA
ATOM     23  H   UNL     1       6.989  23.558  14.820  1.00  0.00     0.293 HD
ENDBRANCH   2  22
BRANCH   6  24
ATOM     24  O   UNL     1       8.049  21.876   9.752  1.00  0.00    -0.507 OA
ATOM     25  H   UNL     1       7.199  21.647  10.244  1.00  0.00     0.293 HD
ENDBRANCH   6  24
BRANCH   8  26
ATOM     26  O   UNL     1      11.125  24.942   7.743  1.00  0.00    -0.508 OA
ATOM     27  H   UNL     1      10.865  24.718   6.790  1.00  0.00     0.293 HD
ENDBRANCH   8  26
TORSDOF 6
ENDMDL
MODEL 3
REMARK VINA RESULT:    -5.978      3.826      6.902
REMARK INTER + INTRA:          -7.430
REMARK INTER:                  -7.231
REMARK INTRA:                  -0.199
REMARK UNBOUND:                -0.228
REMARK SMILES O=c1c(O)c(-c2ccc(O)c(O)c2)oc2cc(O)cc(O)c12
REMARK SMILES IDX 5 1 3 2 2 3 1 4 22 5 20 6 19 7 17 8 16 9 15 10 14 11 6 12
REMARK SMILES IDX 7 13 8 14 9 15 13 16 11 17 10 18 12 20 4 22 21 24 18 26
REMARK H PARENT 10 19 12 21 4 23 21 25 18 27
REMARK Flexibility Score: inf
ROOT
ATOM      1  C   UNL     1       7.462  26.774  14.533  1.00  0.00     0.180 A 
ATOM      2  C   UNL     1       7.320  25.529  15.170  1.00  0.00     0.208 A 
ATOM      3  C   UNL     1       6.406  24.598  14.649  1.00  0.00     0.238 A 
ATOM      4  O   UNL     1       6.339  23.459  15.179  1.00  0.00    -0.285 OA
ATOM      5  C   UNL     1       5.606  24.945  13.533  1.00  0.00     0.111 A 
ATOM      6  C   UNL     1       4.617  24.096  12.949  1.00  0.00     0.134 A 
ATOM      7  C   UNL     1       3.960  24.504  11.781  1.00  0.00     0.093 A 
ATOM      8  C   UNL     1       4.210  25.751  11.212  1.00  0.00     0.123 A 
ATOM      9  C   UNL     1       5.135  26.611  11.805  1.00  0.00     0.094 A 
ATOM     10  C   UNL     1       5.834  26.219  12.949  1.00  0.00     0.146 A 
ATOM     11  O   UNL     1       6.721  27.058  13.468  1.00  0.00    -0.452 OA
ENDROOT
BRANCH   1  12
ATOM     12  C   UNL     1       8.413  27.802  15.014  1.00  0.00     0.025 A 
ATOM     13  C   UNL     1       9.801  27.593  14.967  1.00  0.00     0.016 A 
ATOM     14  C   UNL     1      10.679  28.588  15.404  1.00  0.00     0.051 A 
ATOM     15  C   UNL     1      10.194  29.809  15.882  1.00  0.00     0.157 A 
ATOM     16  C   UNL     1       7.925  29.035  15.473  1.00  0.00     0.062 A 
ATOM     17  C   UNL     1       8.798  30.038  15.913  1.00  0.00     0.158 A 
BRANCH  15  18
ATOM     18  O   UNL     1      11.124  30.759  16.308  1.00  0.00    -0.504 OA
ATOM     19  H   UNL     1      11.078  31.236  17.196  1.00  0.00     0.293 HD
ENDBRANCH  15  18
BRANCH  17  20
ATOM     20  O   UNL     1       8.240  31.234  16.368  1.00  0.00    -0.504 OA
ATOM     21  H   UNL     1       7.804  31.919  15.767  1.00  0.00     0.293 HD
ENDBRANCH  17  20
ENDBRANCH   1  12
BRANCH   2  22
ATOM     22  O   UNL     1       8.063  25.237  16.316  1.00  0.00    -0.502 OA
ATOM     23  H   UNL     1       7.760  24.555  17.002  1.00  0.00     0.293 HD
ENDBRANCH   2  22
BRANCH   6  24
ATOM     24  O   UNL     1       4.224  22.866  13.485  1.00  0.00    -0.507 OA
ATOM     25  H   UNL     1       3.270  22.560  13.592  1.00  0.00     0.293 HD
ENDBRANCH   6  24
BRANCH   8  26
ATOM     26  O   UNL     1       3.525  26.131  10.058  1.00  0.00    -0.508 OA
ATOM     27  H   UNL     1       2.576  25.826   9.882  1.00  0.00     0.293 HD
ENDBRANCH   8  26
TORSDOF 6
ENDMDL
MODEL 4
REMARK VINA RESULT:    -5.815      1.937      6.936
REMARK INTER + INTRA:          -7.233
REMARK INTER:                  -7.195
REMARK INTRA:                  -0.038
REMARK UNBOUND:                -0.228
REMARK SMILES O=c1c(O)c(-c2ccc(O)c(O)c2)oc2cc(O)cc(O)c12
REMARK SMILES IDX 5 1 3 2 2 3 1 4 22 5 20 6 19 7 17 8 16 9 15 10 14 11 6 12
REMARK SMILES IDX 7 13 8 14 9 15 13 16 11 17 10 18 12 20 4 22 21 24 18 26
REMARK H PARENT 10 19 12 21 4 23 21 25 18 27
REMARK Flexibility Score: inf
ROOT
ATOM      1  C   UNL     1       7.251  26.319  14.011  1.00  0.00     0.180 A 
ATOM      2  C   UNL     1       6.240  25.467  14.487  1.00  0.00     0.208 A 
ATOM      3  C   UNL     1       5.982  24.268  13.802  1.00  0.00     0.238 A 
ATOM      4  O   UNL     1       5.128  23.476  14.276  1.00  0.00    -0.285 OA
ATOM      5  C   UNL     1       6.698  23.964  12.619  1.00  0.00     0.111 A 
ATOM      6  C   UNL     1       6.488  22.799  11.820  1.00  0.00     0.134 A 
ATOM      7  C   UNL     1       7.329  22.550  10.728  1.00  0.00     0.093 A 
ATOM      8  C   UNL     1       8.330  23.451  10.369  1.00  0.00     0.123 A 
ATOM      9  C   UNL     1       8.508  24.620  11.110  1.00  0.00     0.094 A 
ATOM     10  C   UNL     1       7.711  24.879  12.227  1.00  0.00     0.146 A 
ATOM     11  O   UNL     1       7.929  25.991  12.917  1.00  0.00    -0.452 OA
ENDROOT
BRANCH   1  12
ATOM     12  C   UNL     1       7.591  27.592  14.686  1.00  0.00     0.025 A 
ATOM     13  C   UNL     1       8.909  27.885  15.075  1.00  0.00     0.016 A 
ATOM     14  C   UNL     1       9.208  29.104  15.687  1.00  0.00     0.051 A 
ATOM     15  C   UNL     1       8.209  30.055  15.912  1.00  0.00     0.157 A 
ATOM     16  C   UNL     1       6.591  28.555  14.890  1.00  0.00     0.062 A 
ATOM     17  C   UNL     1       6.882  29.780  15.504  1.00  0.00     0.158 A 
BRANCH  15  18
ATOM     18  O   UNL     1       8.574  31.252  16.533  1.00  0.00    -0.504 OA
ATOM     19  H   UNL     1       9.346  31.830  16.236  1.00  0.00     0.293 HD
ENDBRANCH  15  18
BRANCH  17  20
ATOM     20  O   UNL     1       5.834  30.683  15.686  1.00  0.00    -0.504 OA
ATOM     21  H   UNL     1       5.018  30.729  15.092  1.00  0.00     0.293 HD
ENDBRANCH  17  20
ENDBRANCH   1  12
BRANCH   2  22
ATOM     22  O   UNL     1       5.493  25.822  15.613  1.00  0.00    -0.502 OA
ATOM     23  H   UNL     1       4.850  26.606  15.613  1.00  0.00     0.293 HD
ENDBRANCH   2  22
BRANCH   6  24
ATOM     24  O   UNL     1       5.460  21.876  12.036  1.00  0.00    -0.507 OA
ATOM     25  H   UNL     1       5.075  21.265  11.333  1.00  0.00     0.293 HD
ENDBRANCH   6  24
BRANCH   8  26
ATOM     26  O   UNL     1       9.137  23.179   9.265  1.00  0.00    -0.508 OA
ATOM     27  H   UNL     1       8.775  22.702   8.449  1.00  0.00     0.293 HD
ENDBRANCH   8  26
TORSDOF 6
ENDMDL
MODEL 5
REMARK VINA RESULT:    -5.812      3.931      6.691
REMARK INTER + INTRA:          -7.229
REMARK INTER:                  -7.055
REMARK INTRA:                  -0.174
REMARK UNBOUND:                -0.228
REMARK SMILES O=c1c(O)c(-c2ccc(O)c(O)c2)oc2cc(O)cc(O)c12
REMARK SMILES IDX 5 1 3 2 2 3 1 4 22 5 20 6 19 7 17 8 16 9 15 10 14 11 6 12
REMARK SMILES IDX 7 13 8 14 9 15 13 16 11 17 10 18 12 20 4 22 21 24 18 26
REMARK H PARENT 10 19 12 21 4 23 21 25 18 27
REMARK Flexibility Score: inf
ROOT
ATOM      1  C   UNL     1       6.997  27.103  14.090  1.00  0.00     0.180 A 
ATOM      2  C   UNL     1       6.309  27.533  12.942  1.00  0.00     0.208 A 
ATOM      3  C   UNL     1       5.296  26.719  12.410  1.00  0.00     0.238 A 
ATOM      4  O   UNL     1       4.635  27.144  11.427  1.00  0.00    -0.285 OA
ATOM      5  C   UNL     1       5.022  25.460  12.998  1.00  0.00     0.111 A 
ATOM      6  C   UNL     1       4.048  24.534  12.516  1.00  0.00     0.134 A 
ATOM      7  C   UNL     1       3.788  23.364  13.242  1.00  0.00     0.093 A 
ATOM      8  C   UNL     1       4.509  23.057  14.395  1.00  0.00     0.123 A 
ATOM      9  C   UNL     1       5.501  23.928  14.845  1.00  0.00     0.094 A 
ATOM     10  C   UNL     1       5.757  25.121  14.164  1.00  0.00     0.146 A 
ATOM     11  O   UNL     1       6.695  25.932  14.639  1.00  0.00    -0.452 OA
ENDROOT
BRANCH   1  12
ATOM     12  C   UNL     1       8.067  27.911  14.717  1.00  0.00     0.025 A 
ATOM     13  C   UNL     1       9.407  27.494  14.694  1.00  0.00     0.016 A 
ATOM     14  C   UNL     1      10.402  28.287  15.271  1.00  0.00     0.051 A 
ATOM     15  C   UNL     1      10.084  29.511  15.867  1.00  0.00     0.157 A 
ATOM     16  C   UNL     1       7.748  29.150  15.295  1.00  0.00     0.062 A 
ATOM     17  C   UNL     1       8.739  29.951  15.876  1.00  0.00     0.158 A 
BRANCH  15  18
ATOM     18  O   UNL     1      11.125  30.253  16.430  1.00  0.00    -0.504 OA
ATOM     19  H   UNL     1      11.032  31.207  16.745  1.00  0.00     0.293 HD
ENDBRANCH  15  18
BRANCH  17  20
ATOM     20  O   UNL     1       8.347  31.164  16.443  1.00  0.00    -0.504 OA
ATOM     21  H   UNL     1       7.435  31.580  16.315  1.00  0.00     0.293 HD
ENDBRANCH  17  20
ENDBRANCH   1  12
BRANCH   2  22
ATOM     22  O   UNL     1       6.648  28.743  12.331  1.00  0.00    -0.502 OA
ATOM     23  H   UNL     1       6.709  28.846  11.325  1.00  0.00     0.293 HD
ENDBRANCH   2  22
BRANCH   6  24
ATOM     24  O   UNL     1       3.331  24.698  11.326  1.00  0.00    -0.507 OA
ATOM     25  H   UNL     1       3.733  24.971  10.443  1.00  0.00     0.293 HD
ENDBRANCH   6  24
BRANCH   8  26
ATOM     26  O   UNL     1       4.236  21.875  15.082  1.00  0.00    -0.508 OA
ATOM     27  H   UNL     1       4.978  21.275  15.418  1.00  0.00     0.293 HD
ENDBRANCH   8  26
TORSDOF 6
ENDMDL
MODEL 6
REMARK VINA RESULT:    -5.773     20.714     22.118
REMARK INTER + INTRA:          -7.182
REMARK INTER:                  -6.851
REMARK INTRA:                  -0.331
REMARK UNBOUND:                -0.228
REMARK SMILES O=c1c(O)c(-c2ccc(O)c(O)c2)oc2cc(O)cc(O)c12
REMARK SMILES IDX 5 1 3 2 2 3 1 4 22 5 20 6 19 7 17 8 16 9 15 10 14 11 6 12
REMARK SMILES IDX 7 13 8 14 9 15 13 16 11 17 10 18 12 20 4 22 21 24 18 26
REMARK H PARENT 10 19 12 21 4 23 21 25 18 27
REMARK Flexibility Score: inf
ROOT
ATOM      1  C   UNL     1      -3.922  38.913  -0.151  1.00  0.00     0.180 A 
ATOM      2  C   UNL     1      -3.485  39.059   1.177  1.00  0.00     0.208 A 
ATOM      3  C   UNL     1      -2.330  39.815   1.435  1.00  0.00     0.238 A 
ATOM      4  O   UNL     1      -1.988  40.004   2.630  1.00  0.00    -0.285 OA
ATOM      5  C   UNL     1      -1.595  40.367   0.358  1.00  0.00     0.111 A 
ATOM      6  C   UNL     1      -0.386  41.114   0.499  1.00  0.00     0.134 A 
ATOM      7  C   UNL     1       0.198  41.703  -0.630  1.00  0.00     0.093 A 
ATOM      8  C   UNL     1      -0.347  41.522  -1.900  1.00  0.00     0.123 A 
ATOM      9  C   UNL     1      -1.498  40.749  -2.057  1.00  0.00     0.094 A 
ATOM     10  C   UNL     1      -2.125  40.180  -0.946  1.00  0.00     0.146 A 
ATOM     11  O   UNL     1      -3.230  39.470  -1.137  1.00  0.00    -0.452 OA
ENDROOT
BRANCH   1  12
ATOM     12  C   UNL     1      -5.138  38.143  -0.500  1.00  0.00     0.025 A 
ATOM     13  C   UNL     1      -6.409  38.741  -0.497  1.00  0.00     0.016 A 
ATOM     14  C   UNL     1      -7.537  38.000  -0.855  1.00  0.00     0.051 A 
ATOM     15  C   UNL     1      -7.421  36.659  -1.233  1.00  0.00     0.157 A 
ATOM     16  C   UNL     1      -5.016  36.803  -0.901  1.00  0.00     0.062 A 
ATOM     17  C   UNL     1      -6.142  36.053  -1.261  1.00  0.00     0.158 A 
BRANCH  15  18
ATOM     18  O   UNL     1      -8.589  35.973  -1.575  1.00  0.00    -0.504 OA
ATOM     19  H   UNL     1      -9.072  35.339  -0.957  1.00  0.00     0.293 HD
ENDBRANCH  15  18
BRANCH  17  20
ATOM     20  O   UNL     1      -5.946  34.723  -1.637  1.00  0.00    -0.504 OA
ATOM     21  H   UNL     1      -6.166  34.356  -2.552  1.00  0.00     0.293 HD
ENDBRANCH  17  20
ENDBRANCH   1  12
BRANCH   2  22
ATOM     22  O   UNL     1      -4.182  38.441   2.219  1.00  0.00    -0.502 OA
ATOM     23  H   UNL     1      -4.794  38.954   2.843  1.00  0.00     0.293 HD
ENDBRANCH   2  22
BRANCH   6  24
ATOM     24  O   UNL     1       0.294  41.284   1.709  1.00  0.00    -0.507 OA
ATOM     25  H   UNL     1       0.820  40.566   2.182  1.00  0.00     0.293 HD
ENDBRANCH   6  24
BRANCH   8  26
ATOM     26  O   UNL     1       0.270  42.109  -3.004  1.00  0.00    -0.508 OA
ATOM     27  H   UNL     1       0.690  43.029  -2.948  1.00  0.00     0.293 HD
ENDBRANCH   8  26
TORSDOF 6
ENDMDL
MODEL 7
REMARK VINA RESULT:    -5.755      3.450      4.539
REMARK INTER + INTRA:          -7.161
REMARK INTER:                  -6.881
REMARK INTRA:                  -0.280
REMARK UNBOUND:                -0.228
REMARK SMILES O=c1c(O)c(-c2ccc(O)c(O)c2)oc2cc(O)cc(O)c12
REMARK SMILES IDX 5 1 3 2 2 3 1 4 22 5 20 6 19 7 17 8 16 9 15 10 14 11 6 12
REMARK SMILES IDX 7 13 8 14 9 15 13 16 11 17 10 18 12 20 4 22 21 24 18 26
REMARK H PARENT 10 19 12 21 4 23 21 25 18 27
REMARK Flexibility Score: inf
ROOT
ATOM      1  C   UNL     1       6.445  26.240  13.982  1.00  0.00     0.180 A 
ATOM      2  C   UNL     1       7.849  26.293  13.963  1.00  0.00     0.208 A 
ATOM      3  C   UNL     1       8.498  27.373  14.585  1.00  0.00     0.238 A 
ATOM      4  O   UNL     1       9.755  27.376  14.628  1.00  0.00    -0.285 OA
ATOM      5  C   UNL     1       7.735  28.413  15.168  1.00  0.00     0.111 A 
ATOM      6  C   UNL     1       8.286  29.576  15.786  1.00  0.00     0.134 A 
ATOM      7  C   UNL     1       7.435  30.488  16.425  1.00  0.00     0.093 A 
ATOM      8  C   UNL     1       6.053  30.312  16.414  1.00  0.00     0.123 A 
ATOM      9  C   UNL     1       5.499  29.208  15.766  1.00  0.00     0.094 A 
ATOM     10  C   UNL     1       6.323  28.261  15.153  1.00  0.00     0.146 A 
ATOM     11  O   UNL     1       5.756  27.213  14.566  1.00  0.00    -0.452 OA
ENDROOT
BRANCH   1  12
ATOM     12  C   UNL     1       5.690  25.128  13.361  1.00  0.00     0.025 A 
ATOM     13  C   UNL     1       5.609  23.867  13.974  1.00  0.00     0.016 A 
ATOM     14  C   UNL     1       4.870  22.841  13.380  1.00  0.00     0.051 A 
ATOM     15  C   UNL     1       4.190  23.055  12.177  1.00  0.00     0.157 A 
ATOM     16  C   UNL     1       4.990  25.351  12.165  1.00  0.00     0.062 A 
ATOM     17  C   UNL     1       4.247  24.328  11.563  1.00  0.00     0.158 A 
BRANCH  15  18
ATOM     18  O   UNL     1       3.473  21.986  11.634  1.00  0.00    -0.504 OA
ATOM     19  H   UNL     1       3.194  21.928  10.666  1.00  0.00     0.293 HD
ENDBRANCH  15  18
BRANCH  17  20
ATOM     20  O   UNL     1       3.587  24.619  10.368  1.00  0.00    -0.504 OA
ATOM     21  H   UNL     1       3.969  24.433   9.451  1.00  0.00     0.293 HD
ENDBRANCH  17  20
ENDBRANCH   1  12
BRANCH   2  22
ATOM     22  O   UNL     1       8.583  25.296  13.315  1.00  0.00    -0.502 OA
ATOM     23  H   UNL     1       8.145  24.587  12.739  1.00  0.00     0.293 HD
ENDBRANCH   2  22
BRANCH   6  24
ATOM     24  O   UNL     1       9.647  29.896  15.780  1.00  0.00    -0.507 OA
ATOM     25  H   UNL     1      10.227  29.939  14.956  1.00  0.00     0.293 HD
ENDBRANCH   6  24
BRANCH   8  26
ATOM     26  O   UNL     1       5.235  31.249  17.045  1.00  0.00    -0.508 OA
ATOM     27  H   UNL     1       5.460  32.236  17.039  1.00  0.00     0.293 HD
ENDBRANCH   8  26
TORSDOF 6
ENDMDL
MODEL 8
REMARK VINA RESULT:    -5.588      2.514      7.156
REMARK INTER + INTRA:          -6.959
REMARK INTER:                  -6.983
REMARK INTRA:                   0.024
REMARK UNBOUND:                -0.228
REMARK SMILES O=c1c(O)c(-c2ccc(O)c(O)c2)oc2cc(O)cc(O)c12
REMARK SMILES IDX 5 1 3 2 2 3 1 4 22 5 20 6 19 7 17 8 16 9 15 10 14 11 6 12
REMARK SMILES IDX 7 13 8 14 9 15 13 16 11 17 10 18 12 20 4 22 21 24 18 26
REMARK H PARENT 10 19 12 21 4 23 21 25 18 27
REMARK Flexibility Score: inf
ROOT
ATOM      1  C   UNL     1       7.161  26.099  13.728  1.00  0.00     0.180 A 
ATOM      2  C   UNL     1       7.926  25.666  12.632  1.00  0.00     0.208 A 
ATOM      3  C   UNL     1       7.532  24.507  11.943  1.00  0.00     0.238 A 
ATOM      4  O   UNL     1       8.177  24.167  10.918  1.00  0.00    -0.285 OA
ATOM      5  C   UNL     1       6.414  23.765  12.393  1.00  0.00     0.111 A 
ATOM      6  C   UNL     1       5.951  22.551  11.799  1.00  0.00     0.134 A 
ATOM      7  C   UNL     1       4.769  21.961  12.264  1.00  0.00     0.093 A 
ATOM      8  C   UNL     1       4.068  22.503  13.340  1.00  0.00     0.123 A 
ATOM      9  C   UNL     1       4.541  23.658  13.964  1.00  0.00     0.094 A 
ATOM     10  C   UNL     1       5.695  24.292  13.499  1.00  0.00     0.146 A 
ATOM     11  O   UNL     1       6.098  25.401  14.108  1.00  0.00    -0.452 OA
ENDROOT
BRANCH   1  12
ATOM     12  C   UNL     1       7.504  27.318  14.495  1.00  0.00     0.025 A 
ATOM     13  C   UNL     1       8.810  27.548  14.959  1.00  0.00     0.016 A 
ATOM     14  C   UNL     1       9.114  28.718  15.659  1.00  0.00     0.051 A 
ATOM     15  C   UNL     1       8.131  29.683  15.898  1.00  0.00     0.157 A 
ATOM     16  C   UNL     1       6.521  28.296  14.716  1.00  0.00     0.062 A 
ATOM     17  C   UNL     1       6.817  29.472  15.417  1.00  0.00     0.158 A 
BRANCH  15  18
ATOM     18  O   UNL     1       8.499  30.828  16.609  1.00  0.00    -0.504 OA
ATOM     19  H   UNL     1       9.454  31.119  16.754  1.00  0.00     0.293 HD
ENDBRANCH  15  18
BRANCH  17  20
ATOM     20  O   UNL     1       5.786  30.393  15.608  1.00  0.00    -0.504 OA
ATOM     21  H   UNL     1       4.944  30.423  15.051  1.00  0.00     0.293 HD
ENDBRANCH  17  20
ENDBRANCH   1  12
BRANCH   2  22
ATOM     22  O   UNL     1       9.071  26.370  12.250  1.00  0.00    -0.502 OA
ATOM     23  H   UNL     1       9.682  26.053  11.507  1.00  0.00     0.293 HD
ENDBRANCH   2  22
BRANCH   6  24
ATOM     24  O   UNL     1       6.622  21.875  10.775  1.00  0.00    -0.507 OA
ATOM     25  H   UNL     1       6.594  20.879  10.625  1.00  0.00     0.293 HD
ENDBRANCH   6  24
BRANCH   8  26
ATOM     26  O   UNL     1       2.905  21.878  13.788  1.00  0.00    -0.508 OA
ATOM     27  H   UNL     1       2.835  21.500  14.725  1.00  0.00     0.293 HD
ENDBRANCH   8  26
TORSDOF 6
ENDMDL
MODEL 9
REMARK VINA RESULT:    -5.462     21.318     21.880
REMARK INTER + INTRA:          -6.808
REMARK INTER:                  -7.053
REMARK INTRA:                   0.245
REMARK UNBOUND:                -0.228
REMARK SMILES O=c1c(O)c(-c2ccc(O)c(O)c2)oc2cc(O)cc(O)c12
REMARK SMILES IDX 5 1 3 2 2 3 1 4 22 5 20 6 19 7 17 8 16 9 15 10 14 11 6 12
REMARK SMILES IDX 7 13 8 14 9 15 13 16 11 17 10 18 12 20 4 22 21 24 18 26
REMARK H PARENT 10 19 12 21 4 23 21 25 18 27
REMARK Flexibility Score: inf
ROOT
ATOM      1  C   UNL     1      -3.629  39.752   0.398  1.00  0.00     0.180 A 
ATOM      2  C   UNL     1      -4.439  38.660   0.042  1.00  0.00     0.208 A 
ATOM      3  C   UNL     1      -5.398  38.196   0.958  1.00  0.00     0.238 A 
ATOM      4  O   UNL     1      -6.168  37.267   0.603  1.00  0.00    -0.285 OA
ATOM      5  C   UNL     1      -5.495  38.792   2.239  1.00  0.00     0.111 A 
ATOM      6  C   UNL     1      -6.400  38.373   3.261  1.00  0.00     0.134 A 
ATOM      7  C   UNL     1      -6.482  39.106   4.452  1.00  0.00     0.093 A 
ATOM      8  C   UNL     1      -5.652  40.202   4.683  1.00  0.00     0.123 A 
ATOM      9  C   UNL     1      -4.727  40.587   3.713  1.00  0.00     0.094 A 
ATOM     10  C   UNL     1      -4.646  39.899   2.499  1.00  0.00     0.146 A 
ATOM     11  O   UNL     1      -3.767  40.312   1.594  1.00  0.00    -0.452 OA
ENDROOT
BRANCH   1  12
ATOM     12  C   UNL     1      -2.607  40.308  -0.518  1.00  0.00     0.025 A 
ATOM     13  C   UNL     1      -2.769  40.256  -1.912  1.00  0.00     0.016 A 
ATOM     14  C   UNL     1      -1.802  40.809  -2.754  1.00  0.00     0.051 A 
ATOM     15  C   UNL     1      -0.667  41.433  -2.227  1.00  0.00     0.157 A 
ATOM     16  C   UNL     1      -1.480  40.953   0.014  1.00  0.00     0.062 A 
ATOM     17  C   UNL     1      -0.505  41.510  -0.823  1.00  0.00     0.158 A 
BRANCH  15  18
ATOM     18  O   UNL     1       0.264  41.962  -3.124  1.00  0.00    -0.504 OA
ATOM     19  H   UNL     1       1.194  41.593  -3.255  1.00  0.00     0.293 HD
ENDBRANCH  15  18
BRANCH  17  20
ATOM     20  O   UNL     1       0.595  42.125  -0.223  1.00  0.00    -0.504 OA
ATOM     21  H   UNL     1       1.035  42.964  -0.574  1.00  0.00     0.293 HD
ENDBRANCH  17  20
ENDBRANCH   1  12
BRANCH   2  22
ATOM     22  O   UNL     1      -4.274  38.037  -1.198  1.00  0.00    -0.502 OA
ATOM     23  H   UNL     1      -5.055  37.679  -1.735  1.00  0.00     0.293 HD
ENDBRANCH   2  22
BRANCH   6  24
ATOM     24  O   UNL     1      -7.214  37.240   3.172  1.00  0.00    -0.507 OA
ATOM     25  H   UNL     1      -7.711  36.823   3.944  1.00  0.00     0.293 HD
ENDBRANCH   6  24
BRANCH   8  26
ATOM     26  O   UNL     1      -5.750  40.897   5.887  1.00  0.00    -0.508 OA
ATOM     27  H   UNL     1      -5.678  41.907   5.923  1.00  0.00     0.293 HD
ENDBRANCH   8  26
TORSDOF 6
ENDMDL
