MODEL 1
REMARK VINA RESULT:    17.228      0.000      0.000
REMARK INTER + INTRA:          19.026
REMARK INTER:                  19.243
REMARK INTRA:                  -0.216
REMARK UNBOUND:                -0.216
REMARK SMILES O=C([O-])c1ccccc1C(=O)[O-]
REMARK SMILES IDX 4 1 9 2 5 3 8 4 6 5 7 6 2 7 1 8 3 9 10 10 11 11 12 12
REMARK H PARENT
REMARK Flexibility Score: inf
ROOT
ATOM      1  C   UNL     1      -8.002 -16.910  27.026  1.00  0.00     0.006 A 
ATOM      2  C   UNL     1      -9.136 -17.317  27.781  1.00  0.00     0.006 A 
ATOM      3  C   UNL     1      -8.041 -15.678  26.345  1.00  0.00     0.010 A 
ATOM      4  C   UNL     1     -10.240 -16.450  27.880  1.00  0.00     0.010 A 
ATOM      5  C   UNL     1      -9.156 -14.845  26.438  1.00  0.00     0.001 A 
ATOM      6  C   UNL     1     -10.248 -15.225  27.215  1.00  0.00     0.001 A 
ENDROOT
BRANCH   1   7
ATOM      7  C   UNL     1      -6.746 -17.693  26.984  1.00  0.00     0.072 C 
ATOM      8  O   UNL     1      -5.874 -17.540  27.879  1.00  0.00    -0.545 OA
ATOM      9  O   UNL     1      -6.541 -18.650  25.997  1.00  0.00    -0.545 OA
ENDBRANCH   1   7
BRANCH   2  10
ATOM     10  C   UNL     1      -9.236 -18.653  28.413  1.00  0.00     0.072 C 
ATOM     11  O   UNL     1      -9.163 -18.771  29.665  1.00  0.00    -0.545 OA
ATOM     12  O   UNL     1      -9.476 -19.785  27.642  1.00  0.00    -0.545 OA
ENDBRANCH   2  10
TORSDOF 2
ENDMDL
MODEL 2
REMARK VINA RESULT:    17.431      0.136      2.862
REMARK INTER + INTRA:          19.252
REMARK INTER:                  19.474
REMARK INTRA:                  -0.222
REMARK UNBOUND:                -0.216
REMARK SMILES O=C([O-])c1ccccc1C(=O)[O-]
REMARK SMILES IDX 4 1 9 2 5 3 8 4 6 5 7 6 2 7 1 8 3 9 10 10 11 11 12 12
REMARK H PARENT
REMARK Flexibility Score: inf
ROOT
ATOM      1  C   UNL     1      -9.253 -17.283  27.805  1.00  0.00     0.006 A 
ATOM      2  C   UNL     1      -8.110 -16.851  27.079  1.00  0.00     0.006 A 
ATOM      3  C   UNL     1     -10.370 -16.429  27.894  1.00  0.00     0.010 A 
ATOM      4  C   UNL     1      -8.148 -15.610  26.416  1.00  0.00     0.010 A 
ATOM      5  C   UNL     1     -10.376 -15.192  27.248  1.00  0.00     0.001 A 
ATOM      6  C   UNL     1      -9.272 -14.789  26.501  1.00  0.00     0.001 A 
ENDROOT
BRANCH   1   7
ATOM      7  C   UNL     1      -9.353 -18.630  28.412  1.00  0.00     0.072 C 
ATOM      8  O   UNL     1      -9.250 -18.772  29.659  1.00  0.00    -0.545 OA
ATOM      9  O   UNL     1      -9.624 -19.743  27.626  1.00  0.00    -0.545 OA
ENDBRANCH   1   7
BRANCH   2  10
ATOM     10  C   UNL     1      -6.845 -17.622  27.049  1.00  0.00     0.072 C 
ATOM     11  O   UNL     1      -6.005 -17.498  27.979  1.00  0.00    -0.545 OA
ATOM     12  O   UNL     1      -6.596 -18.536  26.033  1.00  0.00    -0.545 OA
ENDBRANCH   2  10
TORSDOF 2
ENDMDL
MODEL 3
REMARK VINA RESULT:    19.252      2.181      3.538
REMARK INTER + INTRA:          21.287
REMARK INTER:                  21.403
REMARK INTRA:                  -0.116
REMARK UNBOUND:                -0.216
REMARK SMILES O=C([O-])c1ccccc1C(=O)[O-]
REMARK SMILES IDX 4 1 9 2 5 3 8 4 6 5 7 6 2 7 1 8 3 9 10 10 11 11 12 12
REMARK H PARENT
REMARK Flexibility Score: inf
ROOT
ATOM      1  C   UNL     1      -8.215 -17.569  27.303  1.00  0.00     0.006 A 
ATOM      2  C   UNL     1      -8.252 -18.732  26.486  1.00  0.00     0.006 A 
ATOM      3  C   UNL     1      -6.974 -16.954  27.561  1.00  0.00     0.010 A 
ATOM      4  C   UNL     1      -7.058 -19.200  25.906  1.00  0.00     0.010 A 
ATOM      5  C   UNL     1      -5.800 -17.450  26.994  1.00  0.00     0.001 A 
ATOM      6  C   UNL     1      -5.844 -18.563  26.158  1.00  0.00     0.001 A 
ENDROOT
BRANCH   1   7
ATOM      7  C   UNL     1      -9.438 -16.927  27.836  1.00  0.00     0.072 C 
ATOM      8  O   UNL     1      -9.992 -17.381  28.872  1.00  0.00    -0.545 OA
ATOM      9  O   UNL     1      -9.953 -15.781  27.242  1.00  0.00    -0.545 OA
ENDBRANCH   1   7
BRANCH   2  10
ATOM     10  C   UNL     1      -9.489 -19.520  26.275  1.00  0.00     0.072 C 
ATOM     11  O   UNL     1      -9.961 -20.221  27.210  1.00  0.00    -0.545 OA
ATOM     12  O   UNL     1     -10.178 -19.449  25.071  1.00  0.00    -0.545 OA
ENDBRANCH   2  10
TORSDOF 2
ENDMDL
MODEL 4
REMARK VINA RESULT:    19.294      2.185      3.564
REMARK INTER + INTRA:          21.333
REMARK INTER:                  21.449
REMARK INTRA:                  -0.117
REMARK UNBOUND:                -0.216
REMARK SMILES O=C([O-])c1ccccc1C(=O)[O-]
REMARK SMILES IDX 4 1 9 2 5 3 8 4 6 5 7 6 2 7 1 8 3 9 10 10 11 11 12 12
REMARK H PARENT
REMARK Flexibility Score: inf
ROOT
ATOM      1  C   UNL     1      -8.267 -18.729  26.501  1.00  0.00     0.006 A 
ATOM      2  C   UNL     1      -8.228 -17.562  27.312  1.00  0.00     0.006 A 
ATOM      3  C   UNL     1      -7.072 -19.202  25.924  1.00  0.00     0.010 A 
ATOM      4  C   UNL     1      -6.988 -16.947  27.568  1.00  0.00     0.010 A 
ATOM      5  C   UNL     1      -5.857 -18.562  26.173  1.00  0.00     0.001 A 
ATOM      6  C   UNL     1      -5.814 -17.444  27.003  1.00  0.00     0.001 A 
ENDROOT
BRANCH   1   7
ATOM      7  C   UNL     1      -9.502 -19.519  26.296  1.00  0.00     0.072 C 
ATOM      8  O   UNL     1      -9.970 -20.219  27.234  1.00  0.00    -0.545 OA
ATOM      9  O   UNL     1     -10.196 -19.451  25.094  1.00  0.00    -0.545 OA
ENDBRANCH   1   7
BRANCH   2  10
ATOM     10  C   UNL     1      -9.451 -16.918  27.843  1.00  0.00     0.072 C 
ATOM     11  O   UNL     1     -10.009 -17.371  28.878  1.00  0.00    -0.545 OA
ATOM     12  O   UNL     1      -9.962 -15.770  27.248  1.00  0.00    -0.545 OA
ENDBRANCH   2  10
TORSDOF 2
ENDMDL
