MODEL 1
REMARK VINA RESULT:    -5.380      0.000      0.000
REMARK INTER + INTRA:          -5.784
REMARK INTER:                  -5.695
REMARK INTRA:                  -0.090
REMARK UNBOUND:                -0.090
REMARK SMILES C=C(C)[C@@H]1CC=C(C)C(=O)C1
REMARK SMILES IDX 8 1 7 2 6 3 5 4 4 5 11 6 9 7 10 8 2 9 1 10 3 11
REMARK H PARENT
REMARK Flexibility Score: inf
ROOT
ATOM      1  C   UNL     1       1.298 -25.856 -10.878  1.00  0.00     0.048 C 
ATOM      2  C   UNL     1       0.206 -24.838 -11.052  1.00  0.00    -0.012 C 
ATOM      3  C   UNL     1       0.036 -24.235 -12.241  1.00  0.00    -0.019 C 
ATOM      4  C   UNL     1      -1.053 -23.221 -12.474  1.00  0.00     0.036 C 
ATOM      5  C   UNL     1      -1.344 -22.416 -11.194  1.00  0.00     0.025 C 
ATOM      6  C   UNL     1      -1.672 -23.366 -10.027  1.00  0.00     0.089 C 
ATOM      7  C   UNL     1      -0.600 -24.411  -9.881  1.00  0.00     0.158 C 
ATOM      8  O   UNL     1      -0.418 -24.950  -8.755  1.00  0.00    -0.295 OA
ENDROOT
BRANCH   5   9
ATOM      9  C   UNL     1      -2.452 -21.393 -11.413  1.00  0.00    -0.077 C 
ATOM     10  C   UNL     1      -2.213 -20.226 -12.034  1.00  0.00     0.008 C 
ATOM     11  C   UNL     1      -3.850 -21.679 -10.929  1.00  0.00     0.039 C 
ENDBRANCH   5   9
TORSDOF 1
ENDMDL
MODEL 2
REMARK VINA RESULT:    -5.328      1.665      4.269
REMARK INTER + INTRA:          -5.730
REMARK INTER:                  -5.635
REMARK INTRA:                  -0.095
REMARK UNBOUND:                -0.090
REMARK SMILES C=C(C)[C@@H]1CC=C(C)C(=O)C1
REMARK SMILES IDX 8 1 7 2 6 3 5 4 4 5 11 6 9 7 10 8 2 9 1 10 3 11
REMARK H PARENT
REMARK Flexibility Score: inf
ROOT
ATOM      1  C   UNL     1      -4.369 -21.002 -11.631  1.00  0.00     0.048 C 
ATOM      2  C   UNL     1      -3.113 -21.813 -11.472  1.00  0.00    -0.012 C 
ATOM      3  C   UNL     1      -2.392 -22.149 -12.554  1.00  0.00    -0.019 C 
ATOM      4  C   UNL     1      -1.117 -22.945 -12.449  1.00  0.00     0.036 C 
ATOM      5  C   UNL     1      -1.176 -23.934 -11.270  1.00  0.00     0.025 C 
ATOM      6  C   UNL     1      -1.508 -23.189  -9.963  1.00  0.00     0.089 C 
ATOM      7  C   UNL     1      -2.740 -22.344 -10.136  1.00  0.00     0.158 C 
ATOM      8  O   UNL     1      -3.436 -22.059  -9.124  1.00  0.00    -0.295 OA
ENDROOT
BRANCH   5   9
ATOM      9  C   UNL     1       0.112 -24.738 -11.146  1.00  0.00    -0.077 C 
ATOM     10  C   UNL     1       0.765 -25.185 -12.232  1.00  0.00     0.008 C 
ATOM     11  C   UNL     1       0.679 -25.050  -9.785  1.00  0.00     0.039 C 
ENDBRANCH   5   9
TORSDOF 1
ENDMDL
MODEL 3
REMARK VINA RESULT:    -5.328      2.072      4.618
REMARK INTER + INTRA:          -5.729
REMARK INTER:                  -5.636
REMARK INTRA:                  -0.093
REMARK UNBOUND:                -0.090
REMARK SMILES C=C(C)[C@@H]1CC=C(C)C(=O)C1
REMARK SMILES IDX 8 1 7 2 6 3 5 4 4 5 11 6 9 7 10 8 2 9 1 10 3 11
REMARK H PARENT
REMARK Flexibility Score: inf
ROOT
ATOM      1  C   UNL     1      -3.384 -20.378 -12.514  1.00  0.00     0.048 C 
ATOM      2  C   UNL     1      -2.574 -21.417 -11.789  1.00  0.00    -0.012 C 
ATOM      3  C   UNL     1      -1.615 -21.036 -10.928  1.00  0.00    -0.019 C 
ATOM      4  C   UNL     1      -0.787 -22.036 -10.163  1.00  0.00     0.036 C 
ATOM      5  C   UNL     1      -0.568 -23.319 -10.984  1.00  0.00     0.025 C 
ATOM      6  C   UNL     1      -1.921 -23.905 -11.433  1.00  0.00     0.089 C 
ATOM      7  C   UNL     1      -2.749 -22.854 -12.119  1.00  0.00     0.158 C 
ATOM      8  O   UNL     1      -3.623 -23.211 -12.954  1.00  0.00    -0.295 OA
ENDROOT
BRANCH   5   9
ATOM      9  C   UNL     1       0.260 -24.343 -10.218  1.00  0.00    -0.077 C 
ATOM     10  C   UNL     1      -0.232 -24.973  -9.138  1.00  0.00     0.008 C 
ATOM     11  C   UNL     1       1.662 -24.668 -10.666  1.00  0.00     0.039 C 
ENDBRANCH   5   9
TORSDOF 1
ENDMDL
MODEL 4
REMARK VINA RESULT:    -5.322      1.025      1.107
REMARK INTER + INTRA:          -5.723
REMARK INTER:                  -5.631
REMARK INTRA:                  -0.092
REMARK UNBOUND:                -0.090
REMARK SMILES C=C(C)[C@@H]1CC=C(C)C(=O)C1
REMARK SMILES IDX 8 1 7 2 6 3 5 4 4 5 11 6 9 7 10 8 2 9 1 10 3 11
REMARK H PARENT
REMARK Flexibility Score: inf
ROOT
ATOM      1  C   UNL     1       1.790 -26.345 -11.774  1.00  0.00     0.048 C 
ATOM      2  C   UNL     1       0.727 -25.323 -11.483  1.00  0.00    -0.012 C 
ATOM      3  C   UNL     1       0.172 -24.628 -12.491  1.00  0.00    -0.019 C 
ATOM      4  C   UNL     1      -0.909 -23.606 -12.255  1.00  0.00     0.036 C 
ATOM      5  C   UNL     1      -0.724 -22.906 -10.896  1.00  0.00     0.025 C 
ATOM      6  C   UNL     1      -0.651 -23.948  -9.764  1.00  0.00     0.089 C 
ATOM      7  C   UNL     1       0.383 -24.995 -10.076  1.00  0.00     0.158 C 
ATOM      8  O   UNL     1       0.929 -25.620  -9.127  1.00  0.00    -0.295 OA
ENDROOT
BRANCH   5   9
ATOM      9  C   UNL     1      -1.817 -21.876 -10.641  1.00  0.00    -0.077 C 
ATOM     10  C   UNL     1      -1.898 -20.747 -11.367  1.00  0.00     0.008 C 
ATOM     11  C   UNL     1      -2.837 -22.109  -9.556  1.00  0.00     0.039 C 
ENDBRANCH   5   9
TORSDOF 1
ENDMDL
MODEL 5
REMARK VINA RESULT:    -5.282      1.631      2.338
REMARK INTER + INTRA:          -5.681
REMARK INTER:                  -5.585
REMARK INTRA:                  -0.096
REMARK UNBOUND:                -0.090
REMARK SMILES C=C(C)[C@@H]1CC=C(C)C(=O)C1
REMARK SMILES IDX 8 1 7 2 6 3 5 4 4 5 11 6 9 7 10 8 2 9 1 10 3 11
REMARK H PARENT
REMARK Flexibility Score: inf
ROOT
ATOM      1  C   UNL     1       1.149 -25.859  -9.505  1.00  0.00     0.048 C 
ATOM      2  C   UNL     1       0.134 -24.884 -10.033  1.00  0.00    -0.012 C 
ATOM      3  C   UNL     1      -0.827 -24.412  -9.221  1.00  0.00    -0.019 C 
ATOM      4  C   UNL     1      -1.858 -23.421  -9.695  1.00  0.00     0.036 C 
ATOM      5  C   UNL     1      -2.195 -23.640 -11.181  1.00  0.00     0.025 C 
ATOM      6  C   UNL     1      -0.912 -23.599 -12.033  1.00  0.00     0.089 C 
ATOM      7  C   UNL     1       0.119 -24.542 -11.478  1.00  0.00     0.158 C 
ATOM      8  O   UNL     1       0.998 -25.012 -12.250  1.00  0.00    -0.295 OA
ENDROOT
BRANCH   5   9
ATOM      9  C   UNL     1      -3.230 -22.637 -11.676  1.00  0.00    -0.077 C 
ATOM     10  C   UNL     1      -3.868 -21.813 -10.827  1.00  0.00     0.008 C 
ATOM     11  C   UNL     1      -3.558 -22.553 -13.144  1.00  0.00     0.039 C 
ENDBRANCH   5   9
TORSDOF 1
ENDMDL
MODEL 6
REMARK VINA RESULT:    -5.231      1.836      4.699
REMARK INTER + INTRA:          -5.626
REMARK INTER:                  -5.535
REMARK INTRA:                  -0.091
REMARK UNBOUND:                -0.090
REMARK SMILES C=C(C)[C@@H]1CC=C(C)C(=O)C1
REMARK SMILES IDX 8 1 7 2 6 3 5 4 4 5 11 6 9 7 10 8 2 9 1 10 3 11
REMARK H PARENT
REMARK Flexibility Score: inf
ROOT
ATOM      1  C   UNL     1      -3.336 -21.894 -10.809  1.00  0.00     0.048 C 
ATOM      2  C   UNL     1      -2.172 -22.838 -10.687  1.00  0.00    -0.012 C 
ATOM      3  C   UNL     1      -1.870 -23.377  -9.494  1.00  0.00    -0.019 C 
ATOM      4  C   UNL     1      -0.726 -24.342  -9.320  1.00  0.00     0.036 C 
ATOM      5  C   UNL     1       0.424 -24.019 -10.291  1.00  0.00     0.025 C 
ATOM      6  C   UNL     1      -0.094 -23.985 -11.742  1.00  0.00     0.089 C 
ATOM      7  C   UNL     1      -1.286 -23.074 -11.855  1.00  0.00     0.158 C 
ATOM      8  O   UNL     1      -1.546 -22.540 -12.967  1.00  0.00    -0.295 OA
ENDROOT
BRANCH   5   9
ATOM      9  C   UNL     1       1.584 -24.994 -10.133  1.00  0.00    -0.077 C 
ATOM     10  C   UNL     1       2.860 -24.585 -10.238  1.00  0.00     0.008 C 
ATOM     11  C   UNL     1       1.314 -26.450  -9.853  1.00  0.00     0.039 C 
ENDBRANCH   5   9
TORSDOF 1
ENDMDL
MODEL 7
REMARK VINA RESULT:    -4.999      2.141      5.528
REMARK INTER + INTRA:          -5.381
REMARK INTER:                  -5.291
REMARK INTRA:                  -0.090
REMARK UNBOUND:                -0.090
REMARK SMILES C=C(C)[C@@H]1CC=C(C)C(=O)C1
REMARK SMILES IDX 8 1 7 2 6 3 5 4 4 5 11 6 9 7 10 8 2 9 1 10 3 11
REMARK H PARENT
REMARK Flexibility Score: inf
ROOT
ATOM      1  C   UNL     1      -0.444 -23.204 -10.719  1.00  0.00     0.048 C 
ATOM      2  C   UNL     1       0.287 -24.447 -11.144  1.00  0.00    -0.012 C 
ATOM      3  C   UNL     1       0.397 -24.744 -12.450  1.00  0.00    -0.019 C 
ATOM      4  C   UNL     1       1.134 -25.968 -12.931  1.00  0.00     0.036 C 
ATOM      5  C   UNL     1       1.004 -27.125 -11.923  1.00  0.00     0.025 C 
ATOM      6  C   UNL     1       1.473 -26.673 -10.527  1.00  0.00     0.089 C 
ATOM      7  C   UNL     1       0.774 -25.405 -10.120  1.00  0.00     0.158 C 
ATOM      8  O   UNL     1       0.639 -25.146  -8.894  1.00  0.00    -0.295 OA
ENDROOT
BRANCH   5   9
ATOM      9  C   UNL     1       1.753 -28.365 -12.392  1.00  0.00    -0.077 C 
ATOM     10  C   UNL     1       1.233 -29.187 -13.321  1.00  0.00     0.008 C 
ATOM     11  C   UNL     1       3.105 -28.695 -11.815  1.00  0.00     0.039 C 
ENDBRANCH   5   9
TORSDOF 1
ENDMDL
MODEL 8
REMARK VINA RESULT:    -4.945      2.356      3.491
REMARK INTER + INTRA:          -5.324
REMARK INTER:                  -5.229
REMARK INTRA:                  -0.096
REMARK UNBOUND:                -0.090
REMARK SMILES C=C(C)[C@@H]1CC=C(C)C(=O)C1
REMARK SMILES IDX 8 1 7 2 6 3 5 4 4 5 11 6 9 7 10 8 2 9 1 10 3 11
REMARK H PARENT
REMARK Flexibility Score: inf
ROOT
ATOM      1  C   UNL     1       2.265 -28.406 -11.066  1.00  0.00     0.048 C 
ATOM      2  C   UNL     1       1.678 -27.023 -11.130  1.00  0.00    -0.012 C 
ATOM      3  C   UNL     1       1.444 -26.343  -9.995  1.00  0.00    -0.019 C 
ATOM      4  C   UNL     1       0.873 -24.949 -10.002  1.00  0.00     0.036 C 
ATOM      5  C   UNL     1      -0.088 -24.749 -11.189  1.00  0.00     0.025 C 
ATOM      6  C   UNL     1       0.619 -25.098 -12.513  1.00  0.00     0.089 C 
ATOM      7  C   UNL     1       1.244 -26.463 -12.434  1.00  0.00     0.158 C 
ATOM      8  O   UNL     1       1.429 -27.115 -13.498  1.00  0.00    -0.295 OA
ENDROOT
BRANCH   5   9
ATOM      9  C   UNL     1      -0.664 -23.340 -11.215  1.00  0.00    -0.077 C 
ATOM     10  C   UNL     1      -0.700 -22.578 -10.108  1.00  0.00     0.008 C 
ATOM     11  C   UNL     1      -1.211 -22.770 -12.498  1.00  0.00     0.039 C 
ENDBRANCH   5   9
TORSDOF 1
ENDMDL
MODEL 9
REMARK VINA RESULT:    -4.885      2.496      5.741
REMARK INTER + INTRA:          -5.261
REMARK INTER:                  -5.171
REMARK INTRA:                  -0.090
REMARK UNBOUND:                -0.090
REMARK SMILES C=C(C)[C@@H]1CC=C(C)C(=O)C1
REMARK SMILES IDX 8 1 7 2 6 3 5 4 4 5 11 6 9 7 10 8 2 9 1 10 3 11
REMARK H PARENT
REMARK Flexibility Score: inf
ROOT
ATOM      1  C   UNL     1      -0.353 -23.096 -10.101  1.00  0.00     0.048 C 
ATOM      2  C   UNL     1       0.197 -24.420 -10.552  1.00  0.00    -0.012 C 
ATOM      3  C   UNL     1       0.818 -25.222  -9.671  1.00  0.00    -0.019 C 
ATOM      4  C   UNL     1       1.372 -26.566 -10.068  1.00  0.00     0.036 C 
ATOM      5  C   UNL     1       1.868 -26.554 -11.525  1.00  0.00     0.025 C 
ATOM      6  C   UNL     1       0.743 -26.085 -12.469  1.00  0.00     0.089 C 
ATOM      7  C   UNL     1       0.163 -24.782 -11.992  1.00  0.00     0.158 C 
ATOM      8  O   UNL     1      -0.387 -24.014 -12.827  1.00  0.00    -0.295 OA
ENDROOT
BRANCH   5   9
ATOM      9  C   UNL     1       2.421 -27.910 -11.942  1.00  0.00    -0.077 C 
ATOM     10  C   UNL     1       3.644 -28.315 -11.557  1.00  0.00     0.008 C 
ATOM     11  C   UNL     1       1.596 -28.830 -12.805  1.00  0.00     0.039 C 
ENDBRANCH   5   9
TORSDOF 1
ENDMDL
