MODEL 1
REMARK VINA RESULT:    -4.642      0.000      0.000
REMARK INTER + INTRA:          -6.021
REMARK INTER:                  -6.542
REMARK INTRA:                   0.521
REMARK UNBOUND:                 0.521
REMARK SMILES CC1=CCC(=C(C)C)C(=O)CC(C)=CCC1
REMARK SMILES IDX 12 1 14 2 13 3 15 4 16 5 2 6 1 7 3 8 11 10 9 11 10 12 5 13
REMARK SMILES IDX 6 14 7 15 8 16 4 17
REMARK H PARENT
REMARK Flexibility Score: 60.00
ROOT
ATOM      1  C   UNL     1       3.685  18.886   7.070  1.00  0.00    -0.070 C 
ATOM      2  C   UNL     1       5.010  18.670   6.917  1.00  0.00    -0.027 C 
ATOM      3  C   UNL     1       2.731  17.913   6.424  1.00  0.00     0.039 C 
ENDROOT
BRANCH   2   4
ATOM      4  C   UNL     1       6.115  19.579   7.404  1.00  0.00     0.032 C 
BRANCH   4   5
ATOM      5  C   UNL     1       6.970  20.218   6.289  1.00  0.00     0.034 C 
BRANCH   5   6
ATOM      6  C   UNL     1       6.140  20.776   5.146  1.00  0.00    -0.077 C 
ATOM      7  C   UNL     1       6.354  20.190   3.773  1.00  0.00     0.039 C 
ATOM      8  C   UNL     1       5.273  21.811   5.266  1.00  0.00    -0.023 CG0
ATOM      9  G   UNL     1       4.888  22.538   6.539  1.00  0.00     0.000 G0
ENDBRANCH   5   6
ENDBRANCH   4   5
ENDBRANCH   2   4
BRANCH   1  10
ATOM     10  C   UNL     1       3.117  20.100   7.776  1.00  0.00     0.111 C 
BRANCH  10  11
ATOM     11  C   UNL     1       2.735  21.182   6.801  1.00  0.00     0.163 C 
ATOM     12  O   UNL     1       1.863  20.916   5.930  1.00  0.00    -0.294 OA
BRANCH  11  13
ATOM     13  C   UNL     1       3.392  22.523   6.795  1.00  0.00    -0.002 C 
ATOM     14  C   UNL     1       2.652  23.665   6.934  1.00  0.00    -0.069 C 
ATOM     15  C   UNL     1       1.174  23.607   7.255  1.00  0.00     0.039 C 
ATOM     16  C   UNL     1       3.263  25.039   6.773  1.00  0.00     0.039 C 
BRANCH  13  17
ATOM     17  C   UNL     1       4.888  22.563   6.533  1.00  0.00     0.066 CG0
ATOM     18  G   UNL     1       5.275  21.801   5.281  1.00  0.00     0.000 G0
ENDBRANCH  13  17
ENDBRANCH  11  13
ENDBRANCH  10  11
ENDBRANCH   1  10
TORSDOF 0
ENDMDL
MODEL 2
REMARK VINA RESULT:    -4.542      2.012      3.554
REMARK INTER + INTRA:          -5.880
REMARK INTER:                  -6.426
REMARK INTRA:                   0.546
REMARK UNBOUND:                 0.521
REMARK SMILES CC1=CCC(=C(C)C)C(=O)CC(C)=CCC1
REMARK SMILES IDX 12 1 14 2 13 3 15 4 16 5 2 6 1 7 3 8 11 10 9 11 10 12 5 13
REMARK SMILES IDX 6 14 7 15 8 16 4 17
REMARK H PARENT
REMARK Flexibility Score: 60.00
ROOT
ATOM      1  C   UNL     1       3.600  21.706   7.024  1.00  0.00    -0.070 C 
ATOM      2  C   UNL     1       4.805  21.592   7.625  1.00  0.00    -0.027 C 
ATOM      3  C   UNL     1       2.398  21.139   7.736  1.00  0.00     0.039 C 
ENDROOT
BRANCH   2   4
ATOM      4  C   UNL     1       6.132  22.009   7.032  1.00  0.00     0.032 C 
BRANCH   4   5
ATOM      5  C   UNL     1       7.073  20.843   6.663  1.00  0.00     0.034 C 
BRANCH   5   6
ATOM      6  C   UNL     1       6.345  19.656   6.059  1.00  0.00    -0.077 C 
ATOM      7  C   UNL     1       6.217  18.410   6.900  1.00  0.00     0.039 C 
ATOM      8  C   UNL     1       5.866  19.618   4.792  1.00  0.00    -0.023 CG0
ATOM      9  G   UNL     1       5.866  20.746   3.780  1.00  0.00     0.000 G0
ENDBRANCH   5   6
ENDBRANCH   4   5
ENDBRANCH   2   4
BRANCH   1  10
ATOM     10  C   UNL     1       3.415  22.289   5.638  1.00  0.00     0.111 C 
BRANCH  10  11
ATOM     11  C   UNL     1       3.468  21.223   4.575  1.00  0.00     0.163 C 
ATOM     12  O   UNL     1       2.661  20.258   4.661  1.00  0.00    -0.294 OA
BRANCH  11  13
ATOM     13  C   UNL     1       4.473  21.242   3.470  1.00  0.00    -0.002 C 
ATOM     14  C   UNL     1       4.114  21.615   2.205  1.00  0.00    -0.069 C 
ATOM     15  C   UNL     1       2.737  22.168   1.911  1.00  0.00     0.039 C 
ATOM     16  C   UNL     1       5.065  21.493   1.034  1.00  0.00     0.039 C 
BRANCH  13  17
ATOM     17  C   UNL     1       5.871  20.742   3.794  1.00  0.00     0.066 CG0
ATOM     18  G   UNL     1       5.858  19.609   4.801  1.00  0.00     0.000 G0
ENDBRANCH  13  17
ENDBRANCH  11  13
ENDBRANCH  10  11
ENDBRANCH   1  10
TORSDOF 0
ENDMDL
MODEL 3
REMARK VINA RESULT:    -4.510      1.885      3.682
REMARK INTER + INTRA:          -5.834
REMARK INTER:                  -6.376
REMARK INTRA:                   0.542
REMARK UNBOUND:                 0.521
REMARK SMILES CC1=CCC(=C(C)C)C(=O)CC(C)=CCC1
REMARK SMILES IDX 12 1 14 2 13 3 15 4 16 5 2 6 1 7 3 8 11 10 9 11 10 12 5 13
REMARK SMILES IDX 6 14 7 15 8 16 4 17
REMARK H PARENT
REMARK Flexibility Score: 60.00
ROOT
ATOM      1  C   UNL     1       5.021  21.639   4.806  1.00  0.00    -0.070 C 
ATOM      2  C   UNL     1       6.181  21.224   5.363  1.00  0.00    -0.027 C 
ATOM      3  C   UNL     1       4.780  21.317   3.353  1.00  0.00     0.039 C 
ENDROOT
BRANCH   2   4
ATOM      4  C   UNL     1       6.645  21.531   6.769  1.00  0.00     0.032 C 
BRANCH   4   5
ATOM      5  C   UNL     1       6.013  20.650   7.867  1.00  0.00     0.034 C 
BRANCH   5   6
ATOM      6  C   UNL     1       5.499  19.320   7.344  1.00  0.00    -0.077 C 
ATOM      7  C   UNL     1       6.513  18.238   7.065  1.00  0.00     0.039 C 
ATOM      8  C   UNL     1       4.202  19.066   7.047  1.00  0.00    -0.023 CG0
ATOM      9  G   UNL     1       3.018  19.987   7.260  1.00  0.00     0.000 G0
ENDBRANCH   5   6
ENDBRANCH   4   5
ENDBRANCH   2   4
BRANCH   1  10
ATOM     10  C   UNL     1       4.003  22.487   5.541  1.00  0.00     0.111 C 
BRANCH  10  11
ATOM     11  C   UNL     1       2.634  21.861   5.513  1.00  0.00     0.163 C 
ATOM     12  O   UNL     1       1.657  22.583   5.176  1.00  0.00    -0.294 OA
BRANCH  11  13
ATOM     13  C   UNL     1       2.392  20.446   5.925  1.00  0.00    -0.002 C 
ATOM     14  C   UNL     1       1.576  19.633   5.188  1.00  0.00    -0.069 C 
ATOM     15  C   UNL     1       1.020  20.081   3.854  1.00  0.00     0.039 C 
ATOM     16  C   UNL     1       1.184  18.250   5.662  1.00  0.00     0.039 C 
BRANCH  13  17
ATOM     17  C   UNL     1       3.008  19.989   7.238  1.00  0.00     0.066 CG0
ATOM     18  G   UNL     1       4.193  19.068   7.028  1.00  0.00     0.000 G0
ENDBRANCH  13  17
ENDBRANCH  11  13
ENDBRANCH  10  11
ENDBRANCH   1  10
TORSDOF 0
ENDMDL
MODEL 4
REMARK VINA RESULT:    -4.283      1.647      2.958
REMARK INTER + INTRA:          -5.515
REMARK INTER:                  -6.261
REMARK INTRA:                   0.746
REMARK UNBOUND:                 0.521
REMARK SMILES CC1=CCC(=C(C)C)C(=O)CC(C)=CCC1
REMARK SMILES IDX 12 1 14 2 13 3 15 4 16 5 2 6 1 7 3 8 11 10 9 11 10 12 5 13
REMARK SMILES IDX 6 14 7 15 8 16 4 17
REMARK H PARENT
REMARK Flexibility Score: 60.00
ROOT
ATOM      1  C   UNL     1       5.741  21.008   4.385  1.00  0.00    -0.070 C 
ATOM      2  C   UNL     1       6.670  20.866   5.357  1.00  0.00    -0.027 C 
ATOM      3  C   UNL     1       5.958  20.272   3.087  1.00  0.00     0.039 C 
ENDROOT
BRANCH   2   4
ATOM      4  C   UNL     1       6.679  21.593   6.683  1.00  0.00     0.032 C 
BRANCH   4   5
ATOM      5  C   UNL     1       6.286  20.729   7.899  1.00  0.00     0.034 C 
BRANCH   5   6
ATOM      6  C   UNL     1       5.330  19.602   7.547  1.00  0.00    -0.077 C 
ATOM      7  C   UNL     1       5.922  18.245   7.261  1.00  0.00     0.039 C 
ATOM      8  C   UNL     1       3.991  19.753   7.407  1.00  0.00    -0.023 CG0
ATOM      9  G   UNL     1       3.180  21.009   7.659  1.00  0.00     0.000 G0
ENDBRANCH   5   6
ENDBRANCH   4   5
ENDBRANCH   2   4
BRANCH   1  10
ATOM     10  C   UNL     1       4.551  21.938   4.503  1.00  0.00     0.111 C 
BRANCH  10  11
ATOM     11  C   UNL     1       3.359  21.242   5.104  1.00  0.00     0.163 C 
ATOM     12  O   UNL     1       2.852  20.278   4.471  1.00  0.00    -0.294 OA
BRANCH  11  13
ATOM     13  C   UNL     1       2.729  21.693   6.381  1.00  0.00    -0.002 C 
ATOM     14  C   UNL     1       1.840  22.732   6.394  1.00  0.00    -0.069 C 
ATOM     15  C   UNL     1       1.345  23.356   5.107  1.00  0.00     0.039 C 
ATOM     16  C   UNL     1       1.308  23.315   7.684  1.00  0.00     0.039 C 
BRANCH  13  17
ATOM     17  C   UNL     1       3.190  21.015   7.661  1.00  0.00     0.066 CG0
ATOM     18  G   UNL     1       3.983  19.752   7.391  1.00  0.00     0.000 G0
ENDBRANCH  13  17
ENDBRANCH  11  13
ENDBRANCH  10  11
ENDBRANCH   1  10
TORSDOF 0
ENDMDL
MODEL 5
REMARK VINA RESULT:    -4.282      2.048      2.988
REMARK INTER + INTRA:          -5.513
REMARK INTER:                  -5.865
REMARK INTRA:                   0.352
REMARK UNBOUND:                 0.521
REMARK SMILES CC1=CCC(=C(C)C)C(=O)CC(C)=CCC1
REMARK SMILES IDX 12 1 14 2 13 3 15 4 16 5 2 6 1 7 3 8 11 10 9 11 10 12 5 13
REMARK SMILES IDX 6 14 7 15 8 16 4 17
REMARK H PARENT
REMARK Flexibility Score: 60.00
ROOT
ATOM      1  C   UNL     1       5.885  21.285   6.833  1.00  0.00    -0.070 C 
ATOM      2  C   UNL     1       6.464  20.801   5.711  1.00  0.00    -0.027 C 
ATOM      3  C   UNL     1       6.059  20.504   8.111  1.00  0.00     0.039 C 
ENDROOT
BRANCH   2   4
ATOM      4  C   UNL     1       6.324  21.385   4.323  1.00  0.00     0.032 C 
BRANCH   4   5
ATOM      5  C   UNL     1       5.500  20.528   3.339  1.00  0.00     0.034 C 
BRANCH   5   6
ATOM      6  C   UNL     1       4.418  21.316   2.623  1.00  0.00    -0.077 C 
ATOM      7  C   UNL     1       4.720  21.819   1.233  1.00  0.00     0.039 C 
ATOM      8  C   UNL     1       3.228  21.655   3.175  1.00  0.00    -0.023 CG0
ATOM      9  G   UNL     1       2.704  21.250   4.538  1.00  0.00     0.000 G0
ENDBRANCH   5   6
ENDBRANCH   4   5
ENDBRANCH   2   4
BRANCH   1  10
ATOM     10  C   UNL     1       5.000  22.515   6.847  1.00  0.00     0.111 C 
BRANCH  10  11
ATOM     11  C   UNL     1       3.541  22.150   6.776  1.00  0.00     0.163 C 
ATOM     12  O   UNL     1       3.017  21.597   7.780  1.00  0.00    -0.294 OA
BRANCH  11  13
ATOM     13  C   UNL     1       2.721  22.365   5.546  1.00  0.00    -0.002 C 
ATOM     14  C   UNL     1       1.967  23.496   5.396  1.00  0.00    -0.069 C 
ATOM     15  C   UNL     1       2.057  24.634   6.389  1.00  0.00     0.039 C 
ATOM     16  C   UNL     1       1.006  23.671   4.241  1.00  0.00     0.039 C 
BRANCH  13  17
ATOM     17  C   UNL     1       2.689  21.238   4.526  1.00  0.00     0.066 CG0
ATOM     18  G   UNL     1       3.244  21.662   3.181  1.00  0.00     0.000 G0
ENDBRANCH  13  17
ENDBRANCH  11  13
ENDBRANCH  10  11
ENDBRANCH   1  10
TORSDOF 0
ENDMDL
MODEL 6
REMARK VINA RESULT:    -4.213      2.059      4.095
REMARK INTER + INTRA:          -5.416
REMARK INTER:                  -5.838
REMARK INTRA:                   0.422
REMARK UNBOUND:                 0.521
REMARK SMILES CC1=CCC(=C(C)C)C(=O)CC(C)=CCC1
REMARK SMILES IDX 12 1 14 2 13 3 15 4 16 5 2 6 1 7 3 8 11 10 9 11 10 12 5 13
REMARK SMILES IDX 6 14 7 15 8 16 4 17
REMARK H PARENT
REMARK Flexibility Score: 60.00
ROOT
ATOM      1  C   UNL     1       5.147  19.772   7.043  1.00  0.00    -0.070 C 
ATOM      2  C   UNL     1       3.898  19.534   7.502  1.00  0.00    -0.027 C 
ATOM      3  C   UNL     1       6.022  18.585   6.729  1.00  0.00     0.039 C 
ENDROOT
BRANCH   2   4
ATOM      4  C   UNL     1       2.911  20.584   7.960  1.00  0.00     0.032 C 
BRANCH   4   5
ATOM      5  C   UNL     1       1.646  20.710   7.085  1.00  0.00     0.034 C 
BRANCH   5   6
ATOM      6  C   UNL     1       1.703  19.862   5.827  1.00  0.00    -0.077 C 
ATOM      7  C   UNL     1       1.105  18.478   5.886  1.00  0.00     0.039 C 
ATOM      8  C   UNL     1       2.315  20.239   4.678  1.00  0.00    -0.023 CG0
ATOM      9  G   UNL     1       2.961  21.579   4.385  1.00  0.00     0.000 G0
ENDBRANCH   5   6
ENDBRANCH   4   5
ENDBRANCH   2   4
BRANCH   1  10
ATOM     10  C   UNL     1       5.736  21.162   6.917  1.00  0.00     0.111 C 
BRANCH  10  11
ATOM     11  C   UNL     1       4.918  22.032   5.999  1.00  0.00     0.163 C 
ATOM     12  O   UNL     1       4.555  23.163   6.419  1.00  0.00    -0.294 OA
BRANCH  11  13
ATOM     13  C   UNL     1       4.477  21.577   4.646  1.00  0.00    -0.002 C 
ATOM     14  C   UNL     1       5.394  21.261   3.682  1.00  0.00    -0.069 C 
ATOM     15  C   UNL     1       6.874  21.208   3.994  1.00  0.00     0.039 C 
ATOM     16  C   UNL     1       4.985  20.951   2.259  1.00  0.00     0.039 C 
BRANCH  13  17
ATOM     17  C   UNL     1       2.983  21.575   4.366  1.00  0.00     0.066 CG0
ATOM     18  G   UNL     1       2.341  20.238   4.676  1.00  0.00     0.000 G0
ENDBRANCH  13  17
ENDBRANCH  11  13
ENDBRANCH  10  11
ENDBRANCH   1  10
TORSDOF 0
ENDMDL
MODEL 7
REMARK VINA RESULT:    -3.932      2.325      4.564
REMARK INTER + INTRA:          -5.020
REMARK INTER:                  -6.118
REMARK INTRA:                   1.097
REMARK UNBOUND:                 0.521
REMARK SMILES CC1=CCC(=C(C)C)C(=O)CC(C)=CCC1
REMARK SMILES IDX 12 1 14 2 13 3 15 4 16 5 2 6 1 7 3 8 11 10 9 11 10 12 5 13
REMARK SMILES IDX 6 14 7 15 8 16 4 17
REMARK H PARENT
REMARK Flexibility Score: 60.00
ROOT
ATOM      1  C   UNL     1       6.188  20.789   6.161  1.00  0.00    -0.070 C 
ATOM      2  C   UNL     1       5.490  21.455   7.107  1.00  0.00    -0.027 C 
ATOM      3  C   UNL     1       6.797  19.461   6.536  1.00  0.00     0.039 C 
ENDROOT
BRANCH   2   4
ATOM      4  C   UNL     1       4.890  22.835   6.954  1.00  0.00     0.032 C 
BRANCH   4   5
ATOM      5  C   UNL     1       3.349  22.884   7.019  1.00  0.00     0.034 C 
BRANCH   5   6
ATOM      6  C   UNL     1       2.686  21.687   6.361  1.00  0.00    -0.077 C 
ATOM      7  C   UNL     1       1.874  20.766   7.238  1.00  0.00     0.039 C 
ATOM      8  C   UNL     1       2.832  21.354   5.056  1.00  0.00    -0.023 CG0
ATOM      9  G   UNL     1       3.579  22.132   3.992  1.00  0.00     0.000 G0
ENDBRANCH   5   6
ENDBRANCH   4   5
ENDBRANCH   2   4
BRANCH   1  10
ATOM     10  C   UNL     1       6.467  21.351   4.782  1.00  0.00     0.111 C 
BRANCH  10  11
ATOM     11  C   UNL     1       5.667  20.643   3.720  1.00  0.00     0.163 C 
ATOM     12  O   UNL     1       6.085  19.529   3.306  1.00  0.00    -0.294 OA
BRANCH  11  13
ATOM     13  C   UNL     1       4.443  21.241   3.107  1.00  0.00    -0.002 C 
ATOM     14  C   UNL     1       4.165  21.057   1.781  1.00  0.00    -0.069 C 
ATOM     15  C   UNL     1       4.992  20.120   0.929  1.00  0.00     0.039 C 
ATOM     16  C   UNL     1       3.024  21.777   1.095  1.00  0.00     0.039 C 
BRANCH  13  17
ATOM     17  C   UNL     1       3.586  22.132   3.992  1.00  0.00     0.066 CG0
ATOM     18  G   UNL     1       2.843  21.345   5.053  1.00  0.00     0.000 G0
ENDBRANCH  13  17
ENDBRANCH  11  13
ENDBRANCH  10  11
ENDBRANCH   1  10
TORSDOF 0
ENDMDL
MODEL 8
REMARK VINA RESULT:    -3.898      2.326      4.511
REMARK INTER + INTRA:          -4.972
REMARK INTER:                  -5.632
REMARK INTRA:                   0.660
REMARK UNBOUND:                 0.521
REMARK SMILES CC1=CCC(=C(C)C)C(=O)CC(C)=CCC1
REMARK SMILES IDX 12 1 14 2 13 3 15 4 16 5 2 6 1 7 3 8 11 10 9 11 10 12 5 13
REMARK SMILES IDX 6 14 7 15 8 16 4 17
REMARK H PARENT
REMARK Flexibility Score: 60.00
ROOT
ATOM      1  C   UNL     1       6.043  20.391   3.430  1.00  0.00    -0.070 C 
ATOM      2  C   UNL     1       5.186  20.534   2.395  1.00  0.00    -0.027 C 
ATOM      3  C   UNL     1       6.537  19.004   3.753  1.00  0.00     0.039 C 
ENDROOT
BRANCH   2   4
ATOM      4  C   UNL     1       4.509  21.820   1.979  1.00  0.00     0.032 C 
BRANCH   4   5
ATOM      5  C   UNL     1       3.576  22.435   3.043  1.00  0.00     0.034 C 
BRANCH   5   6
ATOM      6  C   UNL     1       2.696  21.407   3.732  1.00  0.00    -0.077 C 
ATOM      7  C   UNL     1       1.642  20.717   2.902  1.00  0.00     0.039 C 
ATOM      8  C   UNL     1       2.749  21.121   5.055  1.00  0.00    -0.023 CG0
ATOM      9  G   UNL     1       3.729  21.673   6.072  1.00  0.00     0.000 G0
ENDBRANCH   5   6
ENDBRANCH   4   5
ENDBRANCH   2   4
BRANCH   1  10
ATOM     10  C   UNL     1       6.453  21.537   4.334  1.00  0.00     0.111 C 
BRANCH  10  11
ATOM     11  C   UNL     1       6.238  21.204   5.786  1.00  0.00     0.163 C 
ATOM     12  O   UNL     1       7.233  21.249   6.559  1.00  0.00    -0.294 OA
BRANCH  11  13
ATOM     13  C   UNL     1       4.913  20.768   6.321  1.00  0.00    -0.002 C 
ATOM     14  C   UNL     1       4.773  19.556   6.938  1.00  0.00    -0.069 C 
ATOM     15  C   UNL     1       5.974  18.686   7.241  1.00  0.00     0.039 C 
ATOM     16  C   UNL     1       3.420  19.017   7.347  1.00  0.00     0.039 C 
BRANCH  13  17
ATOM     17  C   UNL     1       3.725  21.680   6.064  1.00  0.00     0.066 CG0
ATOM     18  G   UNL     1       2.760  21.097   5.051  1.00  0.00     0.000 G0
ENDBRANCH  13  17
ENDBRANCH  11  13
ENDBRANCH  10  11
ENDBRANCH   1  10
TORSDOF 0
ENDMDL
MODEL 9
REMARK VINA RESULT:    -3.783      2.255      3.632
REMARK INTER + INTRA:          -4.810
REMARK INTER:                  -5.401
REMARK INTRA:                   0.592
REMARK UNBOUND:                 0.521
REMARK SMILES CC1=CCC(=C(C)C)C(=O)CC(C)=CCC1
REMARK SMILES IDX 12 1 14 2 13 3 15 4 16 5 2 6 1 7 3 8 11 10 9 11 10 12 5 13
REMARK SMILES IDX 6 14 7 15 8 16 4 17
REMARK H PARENT
REMARK Flexibility Score: 60.00
ROOT
ATOM      1  C   UNL     1       5.910  20.329   5.701  1.00  0.00    -0.070 C 
ATOM      2  C   UNL     1       6.175  20.118   4.392  1.00  0.00    -0.027 C 
ATOM      3  C   UNL     1       5.941  19.140   6.628  1.00  0.00     0.039 C 
ENDROOT
BRANCH   2   4
ATOM      4  C   UNL     1       6.100  21.159   3.297  1.00  0.00     0.032 C 
BRANCH   4   5
ATOM      5  C   UNL     1       5.026  20.891   2.222  1.00  0.00     0.034 C 
BRANCH   5   6
ATOM      6  C   UNL     1       3.837  21.831   2.318  1.00  0.00    -0.077 C 
ATOM      7  C   UNL     1       3.799  23.012   1.381  1.00  0.00     0.039 C 
ATOM      8  C   UNL     1       2.845  21.717   3.235  1.00  0.00    -0.023 CG0
ATOM      9  G   UNL     1       2.667  20.611   4.256  1.00  0.00     0.000 G0
ENDBRANCH   5   6
ENDBRANCH   4   5
ENDBRANCH   2   4
BRANCH   1  10
ATOM     10  C   UNL     1       5.495  21.675   6.259  1.00  0.00     0.111 C 
BRANCH  10  11
ATOM     11  C   UNL     1       4.095  22.042   5.842  1.00  0.00     0.163 C 
ATOM     12  O   UNL     1       3.826  23.262   5.676  1.00  0.00    -0.294 OA
BRANCH  11  13
ATOM     13  C   UNL     1       3.014  21.024   5.679  1.00  0.00    -0.002 C 
ATOM     14  C   UNL     1       2.435  20.440   6.772  1.00  0.00    -0.069 C 
ATOM     15  C   UNL     1       2.751  20.913   8.174  1.00  0.00     0.039 C 
ATOM     16  C   UNL     1       1.454  19.295   6.642  1.00  0.00     0.039 C 
BRANCH  13  17
ATOM     17  C   UNL     1       2.663  20.603   4.262  1.00  0.00     0.066 CG0
ATOM     18  G   UNL     1       2.866  21.723   3.261  1.00  0.00     0.000 G0
ENDBRANCH  13  17
ENDBRANCH  11  13
ENDBRANCH  10  11
ENDBRANCH   1  10
TORSDOF 0
ENDMDL
