MODEL 1
REMARK VINA RESULT:    -4.865      0.000      0.000
REMARK INTER + INTRA:          -7.681
REMARK INTER:                  -7.141
REMARK INTRA:                  -0.541
REMARK UNBOUND:                -0.541
REMARK SMILES O=C([O-])CCCCCCCC(=O)[O-]
REMARK SMILES IDX 7 1 6 2 5 3 4 4 2 5 1 6 3 7 8 8 9 9 10 10 11 11 12 12 13 13
REMARK H PARENT
REMARK Flexibility Score: inf
ROOT
ATOM      1  C   UNL     1     134.042 135.851 115.012  1.00  0.00     0.000 C 
ENDROOT
BRANCH   1   2
ATOM      2  C   UNL     1     133.730 134.354 115.166  1.00  0.00     0.000 C 
BRANCH   2   3
ATOM      3  C   UNL     1     134.260 133.514 113.992  1.00  0.00     0.006 C 
BRANCH   3   4
ATOM      4  C   UNL     1     135.782 133.630 113.838  1.00  0.00     0.053 C 
BRANCH   4   5
ATOM      5  C   UNL     1     136.507 132.920 114.941  1.00  0.00     0.041 C 
ATOM      6  O   UNL     1     136.603 131.665 114.934  1.00  0.00    -0.550 OA
ATOM      7  O   UNL     1     137.104 133.650 115.962  1.00  0.00    -0.550 OA
ENDBRANCH   4   5
ENDBRANCH   3   4
ENDBRANCH   2   3
ENDBRANCH   1   2
BRANCH   1   8
ATOM      8  C   UNL     1     134.572 136.483 116.308  1.00  0.00     0.000 C 
BRANCH   8   9
ATOM      9  C   UNL     1     134.753 135.420 117.402  1.00  0.00     0.006 C 
BRANCH   9  10
ATOM     10  C   UNL     1     134.916 136.043 118.794  1.00  0.00     0.053 C 
BRANCH  10  11
ATOM     11  C   UNL     1     136.247 135.715 119.398  1.00  0.00     0.041 C 
ATOM     12  O   UNL     1     137.213 135.386 118.661  1.00  0.00    -0.550 OA
ATOM     13  O   UNL     1     136.429 135.803 120.772  1.00  0.00    -0.550 OA
ENDBRANCH  10  11
ENDBRANCH   9  10
ENDBRANCH   8   9
ENDBRANCH   1   8
TORSDOF 8
ENDMDL
MODEL 2
REMARK VINA RESULT:    -4.844      8.736     10.063
REMARK INTER + INTRA:          -7.650
REMARK INTER:                  -6.996
REMARK INTRA:                  -0.653
REMARK UNBOUND:                -0.541
REMARK SMILES O=C([O-])CCCCCCCC(=O)[O-]
REMARK SMILES IDX 7 1 6 2 5 3 4 4 2 5 1 6 3 7 8 8 9 9 10 10 11 11 12 12 13 13
REMARK H PARENT
REMARK Flexibility Score: inf
ROOT
ATOM      1  C   UNL     1     143.235 140.570 114.696  1.00  0.00     0.000 C 
ENDROOT
BRANCH   1   2
ATOM      2  C   UNL     1     141.872 139.888 114.503  1.00  0.00     0.000 C 
BRANCH   2   3
ATOM      3  C   UNL     1     141.099 139.725 115.823  1.00  0.00     0.006 C 
BRANCH   3   4
ATOM      4  C   UNL     1     142.007 139.888 117.049  1.00  0.00     0.053 C 
BRANCH   4   5
ATOM      5  C   UNL     1     141.371 140.745 118.101  1.00  0.00     0.041 C 
ATOM      6  O   UNL     1     141.454 141.999 118.035  1.00  0.00    -0.550 OA
ATOM      7  O   UNL     1     140.662 140.156 119.141  1.00  0.00    -0.550 OA
ENDBRANCH   4   5
ENDBRANCH   3   4
ENDBRANCH   2   3
ENDBRANCH   1   2
BRANCH   1   8
ATOM      8  C   UNL     1     143.290 141.974 114.075  1.00  0.00     0.000 C 
BRANCH   8   9
ATOM      9  C   UNL     1     142.446 142.967 114.891  1.00  0.00     0.006 C 
BRANCH   9  10
ATOM     10  C   UNL     1     141.230 143.475 114.106  1.00  0.00     0.053 C 
BRANCH  10  11
ATOM     11  C   UNL     1     140.020 143.602 114.980  1.00  0.00     0.041 C 
ATOM     12  O   UNL     1     139.520 142.582 115.523  1.00  0.00    -0.550 OA
ATOM     13  O   UNL     1     139.463 144.852 115.220  1.00  0.00    -0.550 OA
ENDBRANCH  10  11
ENDBRANCH   9  10
ENDBRANCH   8   9
ENDBRANCH   1   8
TORSDOF 8
ENDMDL
MODEL 3
REMARK VINA RESULT:    -4.831      8.280      9.205
REMARK INTER + INTRA:          -7.630
REMARK INTER:                  -6.982
REMARK INTRA:                  -0.649
REMARK UNBOUND:                -0.541
REMARK SMILES O=C([O-])CCCCCCCC(=O)[O-]
REMARK SMILES IDX 7 1 6 2 5 3 4 4 2 5 1 6 3 7 8 8 9 9 10 10 11 11 12 12 13 13
REMARK H PARENT
REMARK Flexibility Score: inf
ROOT
ATOM      1  C   UNL     1     140.640 139.713 114.907  1.00  0.00     0.000 C 
ENDROOT
BRANCH   1   2
ATOM      2  C   UNL     1     142.035 139.917 115.518  1.00  0.00     0.000 C 
BRANCH   2   3
ATOM      3  C   UNL     1     143.029 140.549 114.529  1.00  0.00     0.006 C 
BRANCH   3   4
ATOM      4  C   UNL     1     143.173 142.062 114.740  1.00  0.00     0.053 C 
BRANCH   4   5
ATOM      5  C   UNL     1     142.153 142.831 113.957  1.00  0.00     0.041 C 
ATOM      6  O   UNL     1     141.639 143.875 114.436  1.00  0.00    -0.550 OA
ATOM      7  O   UNL     1     141.793 142.409 112.682  1.00  0.00    -0.550 OA
ENDBRANCH   4   5
ENDBRANCH   3   4
ENDBRANCH   2   3
ENDBRANCH   1   2
BRANCH   1   8
ATOM      8  C   UNL     1     139.529 140.379 115.732  1.00  0.00     0.000 C 
BRANCH   8   9
ATOM      9  C   UNL     1     140.121 141.330 116.784  1.00  0.00     0.006 C 
BRANCH   9  10
ATOM     10  C   UNL     1     139.433 141.185 118.148  1.00  0.00     0.053 C 
BRANCH  10  11
ATOM     11  C   UNL     1     140.390 140.727 119.206  1.00  0.00     0.041 C 
ATOM     12  O   UNL     1     141.577 140.434 118.903  1.00  0.00    -0.550 OA
ATOM     13  O   UNL     1     139.980 140.655 120.531  1.00  0.00    -0.550 OA
ENDBRANCH  10  11
ENDBRANCH   9  10
ENDBRANCH   8   9
ENDBRANCH   1   8
TORSDOF 8
ENDMDL
MODEL 4
REMARK VINA RESULT:    -4.791      8.316      9.201
REMARK INTER + INTRA:          -7.572
REMARK INTER:                  -6.960
REMARK INTRA:                  -0.611
REMARK UNBOUND:                -0.541
REMARK SMILES O=C([O-])CCCCCCCC(=O)[O-]
REMARK SMILES IDX 7 1 6 2 5 3 4 4 2 5 1 6 3 7 8 8 9 9 10 10 11 11 12 12 13 13
REMARK H PARENT
REMARK Flexibility Score: inf
ROOT
ATOM      1  C   UNL     1     139.622 141.054 114.989  1.00  0.00     0.000 C 
ENDROOT
BRANCH   1   2
ATOM      2  C   UNL     1     140.330 140.957 113.628  1.00  0.00     0.000 C 
BRANCH   2   3
ATOM      3  C   UNL     1     141.023 142.270 113.225  1.00  0.00     0.006 C 
BRANCH   3   4
ATOM      4  C   UNL     1     142.501 142.060 112.874  1.00  0.00     0.053 C 
BRANCH   4   5
ATOM      5  C   UNL     1     143.332 141.810 114.096  1.00  0.00     0.041 C 
ATOM      6  O   UNL     1     143.205 142.543 115.111  1.00  0.00    -0.550 OA
ATOM      7  O   UNL     1     144.226 140.747 114.123  1.00  0.00    -0.550 OA
ENDBRANCH   4   5
ENDBRANCH   3   4
ENDBRANCH   2   3
ENDBRANCH   1   2
BRANCH   1   8
ATOM      8  C   UNL     1     139.736 142.451 115.618  1.00  0.00     0.000 C 
BRANCH   8   9
ATOM      9  C   UNL     1     140.236 142.361 117.068  1.00  0.00     0.006 C 
BRANCH   9  10
ATOM     10  C   UNL     1     139.538 141.243 117.853  1.00  0.00     0.053 C 
BRANCH  10  11
ATOM     11  C   UNL     1     140.470 140.578 118.819  1.00  0.00     0.041 C 
ATOM     12  O   UNL     1     140.126 140.412 120.019  1.00  0.00    -0.550 OA
ATOM     13  O   UNL     1     141.704 140.112 118.387  1.00  0.00    -0.550 OA
ENDBRANCH  10  11
ENDBRANCH   9  10
ENDBRANCH   8   9
ENDBRANCH   1   8
TORSDOF 8
ENDMDL
MODEL 5
REMARK VINA RESULT:    -4.760      8.645      9.872
REMARK INTER + INTRA:          -7.527
REMARK INTER:                  -6.975
REMARK INTRA:                  -0.551
REMARK UNBOUND:                -0.541
REMARK SMILES O=C([O-])CCCCCCCC(=O)[O-]
REMARK SMILES IDX 7 1 6 2 5 3 4 4 2 5 1 6 3 7 8 8 9 9 10 10 11 11 12 12 13 13
REMARK H PARENT
REMARK Flexibility Score: inf
ROOT
ATOM      1  C   UNL     1     143.232 140.621 114.754  1.00  0.00     0.000 C 
ENDROOT
BRANCH   1   2
ATOM      2  C   UNL     1     143.106 141.934 113.965  1.00  0.00     0.000 C 
BRANCH   2   3
ATOM      3  C   UNL     1     142.288 142.999 114.713  1.00  0.00     0.006 C 
BRANCH   3   4
ATOM      4  C   UNL     1     140.948 143.290 114.024  1.00  0.00     0.053 C 
BRANCH   4   5
ATOM      5  C   UNL     1     139.918 143.781 114.996  1.00  0.00     0.041 C 
ATOM      6  O   UNL     1     139.369 142.981 115.798  1.00  0.00    -0.550 OA
ATOM      7  O   UNL     1     139.588 145.130 115.035  1.00  0.00    -0.550 OA
ENDBRANCH   4   5
ENDBRANCH   3   4
ENDBRANCH   2   3
ENDBRANCH   1   2
BRANCH   1   8
ATOM      8  C   UNL     1     141.909 140.189 115.402  1.00  0.00     0.000 C 
BRANCH   8   9
ATOM      9  C   UNL     1     142.087 139.954 116.910  1.00  0.00     0.006 C 
BRANCH   9  10
ATOM     10  C   UNL     1     141.606 141.148 117.744  1.00  0.00     0.053 C 
BRANCH  10  11
ATOM     11  C   UNL     1     140.505 140.762 118.684  1.00  0.00     0.041 C 
ATOM     12  O   UNL     1     139.318 140.681 118.270  1.00  0.00    -0.550 OA
ATOM     13  O   UNL     1     140.794 140.459 120.008  1.00  0.00    -0.550 OA
ENDBRANCH  10  11
ENDBRANCH   9  10
ENDBRANCH   8   9
ENDBRANCH   1   8
TORSDOF 8
ENDMDL
MODEL 6
REMARK VINA RESULT:    -4.715      2.302      2.458
REMARK INTER + INTRA:          -7.461
REMARK INTER:                  -6.981
REMARK INTRA:                  -0.480
REMARK UNBOUND:                -0.541
REMARK SMILES O=C([O-])CCCCCCCC(=O)[O-]
REMARK SMILES IDX 7 1 6 2 5 3 4 4 2 5 1 6 3 7 8 8 9 9 10 10 11 11 12 12 13 13
REMARK H PARENT
REMARK Flexibility Score: inf
ROOT
ATOM      1  C   UNL     1     133.487 135.879 115.053  1.00  0.00     0.000 C 
ENDROOT
BRANCH   1   2
ATOM      2  C   UNL     1     133.517 134.345 114.973  1.00  0.00     0.000 C 
BRANCH   2   3
ATOM      3  C   UNL     1     133.769 133.830 113.546  1.00  0.00     0.006 C 
BRANCH   3   4
ATOM      4  C   UNL     1     135.171 134.192 113.040  1.00  0.00     0.053 C 
BRANCH   4   5
ATOM      5  C   UNL     1     135.117 134.978 111.765  1.00  0.00     0.041 C 
ATOM      6  O   UNL     1     134.021 135.149 111.171  1.00  0.00    -0.550 OA
ATOM      7  O   UNL     1     136.275 135.546 111.250  1.00  0.00    -0.550 OA
ENDBRANCH   4   5
ENDBRANCH   3   4
ENDBRANCH   2   3
ENDBRANCH   1   2
BRANCH   1   8
ATOM      8  C   UNL     1     134.550 136.445 116.006  1.00  0.00     0.000 C 
BRANCH   8   9
ATOM      9  C   UNL     1     134.997 135.382 117.022  1.00  0.00     0.006 C 
BRANCH   9  10
ATOM     10  C   UNL     1     134.978 135.912 118.461  1.00  0.00     0.053 C 
BRANCH  10  11
ATOM     11  C   UNL     1     136.275 135.654 119.165  1.00  0.00     0.041 C 
ATOM     12  O   UNL     1     137.283 135.267 118.516  1.00  0.00    -0.550 OA
ATOM     13  O   UNL     1     136.380 135.871 120.533  1.00  0.00    -0.550 OA
ENDBRANCH  10  11
ENDBRANCH   9  10
ENDBRANCH   8   9
ENDBRANCH   1   8
TORSDOF 8
ENDMDL
MODEL 7
REMARK VINA RESULT:    -4.713      8.525      9.375
REMARK INTER + INTRA:          -7.458
REMARK INTER:                  -6.588
REMARK INTRA:                  -0.869
REMARK UNBOUND:                -0.541
REMARK SMILES O=C([O-])CCCCCCCC(=O)[O-]
REMARK SMILES IDX 7 1 6 2 5 3 4 4 2 5 1 6 3 7 8 8 9 9 10 10 11 11 12 12 13 13
REMARK H PARENT
REMARK Flexibility Score: inf
ROOT
ATOM      1  C   UNL     1     141.044 139.114 113.693  1.00  0.00     0.000 C 
ENDROOT
BRANCH   1   2
ATOM      2  C   UNL     1     142.273 139.470 112.842  1.00  0.00     0.000 C 
BRANCH   2   3
ATOM      3  C   UNL     1     143.313 140.294 113.619  1.00  0.00     0.006 C 
BRANCH   3   4
ATOM      4  C   UNL     1     143.324 141.767 113.189  1.00  0.00     0.053 C 
BRANCH   4   5
ATOM      5  C   UNL     1     142.555 142.630 114.143  1.00  0.00     0.041 C 
ATOM      6  O   UNL     1     141.507 143.215 113.767  1.00  0.00    -0.550 OA
ATOM      7  O   UNL     1     142.984 142.763 115.458  1.00  0.00    -0.550 OA
ENDBRANCH   4   5
ENDBRANCH   3   4
ENDBRANCH   2   3
ENDBRANCH   1   2
BRANCH   1   8
ATOM      8  C   UNL     1     139.886 140.106 113.506  1.00  0.00     0.000 C 
BRANCH   8   9
ATOM      9  C   UNL     1     139.153 140.350 114.834  1.00  0.00     0.006 C 
BRANCH   9  10
ATOM     10  C   UNL     1     140.119 140.439 116.022  1.00  0.00     0.053 C 
BRANCH  10  11
ATOM     11  C   UNL     1     139.762 141.564 116.944  1.00  0.00     0.041 C 
ATOM     12  O   UNL     1     139.784 142.754 116.531  1.00  0.00    -0.550 OA
ATOM     13  O   UNL     1     139.375 141.297 118.251  1.00  0.00    -0.550 OA
ENDBRANCH  10  11
ENDBRANCH   9  10
ENDBRANCH   8   9
ENDBRANCH   1   8
TORSDOF 8
ENDMDL
MODEL 8
REMARK VINA RESULT:    -4.706      2.095      4.656
REMARK INTER + INTRA:          -7.448
REMARK INTER:                  -6.688
REMARK INTRA:                  -0.760
REMARK UNBOUND:                -0.541
REMARK SMILES O=C([O-])CCCCCCCC(=O)[O-]
REMARK SMILES IDX 7 1 6 2 5 3 4 4 2 5 1 6 3 7 8 8 9 9 10 10 11 11 12 12 13 13
REMARK H PARENT
REMARK Flexibility Score: inf
ROOT
ATOM      1  C   UNL     1     135.505 137.267 113.721  1.00  0.00     0.000 C 
ENDROOT
BRANCH   1   2
ATOM      2  C   UNL     1     135.700 136.770 115.162  1.00  0.00     0.000 C 
BRANCH   2   3
ATOM      3  C   UNL     1     137.016 135.997 115.350  1.00  0.00     0.006 C 
BRANCH   3   4
ATOM      4  C   UNL     1     136.793 134.625 115.999  1.00  0.00     0.053 C 
BRANCH   4   5
ATOM      5  C   UNL     1     136.382 134.749 117.434  1.00  0.00     0.041 C 
ATOM      6  O   UNL     1     137.168 135.252 118.280  1.00  0.00    -0.550 OA
ATOM      7  O   UNL     1     135.117 134.334 117.833  1.00  0.00    -0.550 OA
ENDBRANCH   4   5
ENDBRANCH   3   4
ENDBRANCH   2   3
ENDBRANCH   1   2
BRANCH   1   8
ATOM      8  C   UNL     1     134.090 136.999 113.187  1.00  0.00     0.000 C 
BRANCH   8   9
ATOM      9  C   UNL     1     133.333 136.025 114.104  1.00  0.00     0.006 C 
BRANCH   9  10
ATOM     10  C   UNL     1     133.060 134.679 113.421  1.00  0.00     0.053 C 
BRANCH  10  11
ATOM     11  C   UNL     1     134.204 133.727 113.594  1.00  0.00     0.041 C 
ATOM     12  O   UNL     1     134.140 132.809 114.454  1.00  0.00    -0.550 OA
ATOM     13  O   UNL     1     135.326 133.832 112.782  1.00  0.00    -0.550 OA
ENDBRANCH  10  11
ENDBRANCH   9  10
ENDBRANCH   8   9
ENDBRANCH   1   8
TORSDOF 8
ENDMDL
MODEL 9
REMARK VINA RESULT:    -4.625      8.999     10.532
REMARK INTER + INTRA:          -7.329
REMARK INTER:                  -6.615
REMARK INTRA:                  -0.714
REMARK UNBOUND:                -0.541
REMARK SMILES O=C([O-])CCCCCCCC(=O)[O-]
REMARK SMILES IDX 7 1 6 2 5 3 4 4 2 5 1 6 3 7 8 8 9 9 10 10 11 11 12 12 13 13
REMARK H PARENT
REMARK Flexibility Score: inf
ROOT
ATOM      1  C   UNL     1     142.192 143.240 114.289  1.00  0.00     0.000 C 
ENDROOT
BRANCH   1   2
ATOM      2  C   UNL     1     140.667 143.053 114.314  1.00  0.00     0.000 C 
BRANCH   2   3
ATOM      3  C   UNL     1     140.235 141.814 115.117  1.00  0.00     0.006 C 
BRANCH   3   4
ATOM      4  C   UNL     1     139.500 142.190 116.410  1.00  0.00     0.053 C 
BRANCH   4   5
ATOM      5  C   UNL     1     140.199 141.654 117.622  1.00  0.00     0.041 C 
ATOM      6  O   UNL     1     141.317 142.117 117.968  1.00  0.00    -0.550 OA
ATOM      7  O   UNL     1     139.599 140.661 118.388  1.00  0.00    -0.550 OA
ENDBRANCH   4   5
ENDBRANCH   3   4
ENDBRANCH   2   3
ENDBRANCH   1   2
BRANCH   1   8
ATOM      8  C   UNL     1     142.948 142.032 114.861  1.00  0.00     0.000 C 
BRANCH   8   9
ATOM      9  C   UNL     1     143.906 141.439 113.815  1.00  0.00     0.006 C 
BRANCH   9  10
ATOM     10  C   UNL     1     143.354 140.155 113.185  1.00  0.00     0.053 C 
BRANCH  10  11
ATOM     11  C   UNL     1     142.318 140.448 112.143  1.00  0.00     0.041 C 
ATOM     12  O   UNL     1     142.586 141.214 111.180  1.00  0.00    -0.550 OA
ATOM     13  O   UNL     1     141.067 139.848 112.217  1.00  0.00    -0.550 OA
ENDBRANCH  10  11
ENDBRANCH   9  10
ENDBRANCH   8   9
ENDBRANCH   1   8
TORSDOF 8
ENDMDL
