MODEL 1
REMARK VINA RESULT:    -5.247      0.000      0.000
REMARK INTER + INTRA:          -6.391
REMARK INTER:                  -6.320
REMARK INTRA:                  -0.070
REMARK UNBOUND:                -0.070
REMARK SMILES CC[C@@H](C)[C@@H]([NH3+])C(=O)[O-]
REMARK SMILES IDX 3 1 4 2 5 3 6 4 7 8 8 9 9 10 2 11 1 12
REMARK H PARENT 6 5 6 6 6 7
REMARK Flexibility Score: inf
ROOT
ATOM      1  C   UNL     1     -21.395  70.108  -0.083  1.00  0.00     0.050 C 
ATOM      2  C   UNL     1     -22.805  69.484  -0.093  1.00  0.00     0.014 C 
ENDROOT
BRANCH   1   3
ATOM      3  C   UNL     1     -20.526  69.667  -1.302  1.00  0.00     0.230 C 
BRANCH   3   4
ATOM      4  N   UNL     1     -19.175  70.248  -1.256  1.00  0.00    -0.350 N 
ATOM      5  H   UNL     1     -18.824  70.387  -2.232  1.00  0.00     0.345 HD
ATOM      6  H   UNL     1     -18.504  69.627  -0.750  1.00  0.00     0.345 HD
ATOM      7  H   UNL     1     -19.201  71.183  -0.786  1.00  0.00     0.345 HD
ENDBRANCH   3   4
BRANCH   3   8
ATOM      8  C   UNL     1     -20.461  68.166  -1.456  1.00  0.00     0.099 C 
ATOM      9  O   UNL     1     -19.751  67.469  -0.684  1.00  0.00    -0.544 OA
ATOM     10  O   UNL     1     -21.219  67.540  -2.438  1.00  0.00    -0.544 OA
ENDBRANCH   3   8
ENDBRANCH   1   3
BRANCH   1  11
ATOM     11  C   UNL     1     -21.469  71.655   0.003  1.00  0.00     0.006 C 
ATOM     12  C   UNL     1     -22.016  72.156   1.340  1.00  0.00     0.004 C 
ENDBRANCH   1  11
TORSDOF 4
ENDMDL
MODEL 2
REMARK VINA RESULT:    -5.196      2.783      4.186
REMARK INTER + INTRA:          -6.329
REMARK INTER:                  -6.233
REMARK INTRA:                  -0.096
REMARK UNBOUND:                -0.070
REMARK SMILES CC[C@@H](C)[C@@H]([NH3+])C(=O)[O-]
REMARK SMILES IDX 3 1 4 2 5 3 6 4 7 8 8 9 9 10 2 11 1 12
REMARK H PARENT 6 5 6 6 6 7
REMARK Flexibility Score: inf
ROOT
ATOM      1  C   UNL     1     -20.786  68.980  -0.787  1.00  0.00     0.050 C 
ATOM      2  C   UNL     1     -19.596  69.886  -1.162  1.00  0.00     0.014 C 
ENDROOT
BRANCH   1   3
ATOM      3  C   UNL     1     -22.074  69.785  -0.425  1.00  0.00     0.230 C 
BRANCH   3   4
ATOM      4  N   UNL     1     -23.288  68.962  -0.531  1.00  0.00    -0.350 N 
ATOM      5  H   UNL     1     -24.072  69.433  -0.024  1.00  0.00     0.345 HD
ATOM      6  H   UNL     1     -23.150  68.013  -0.115  1.00  0.00     0.345 HD
ATOM      7  H   UNL     1     -23.568  68.861  -1.534  1.00  0.00     0.345 HD
ENDBRANCH   3   4
BRANCH   3   8
ATOM      8  C   UNL     1     -21.986  70.442   0.932  1.00  0.00     0.099 C 
ATOM      9  O   UNL     1     -21.834  69.751   1.974  1.00  0.00    -0.544 OA
ATOM     10  O   UNL     1     -22.038  71.826   1.033  1.00  0.00    -0.544 OA
ENDBRANCH   3   8
ENDBRANCH   1   3
BRANCH   1  11
ATOM     11  C   UNL     1     -21.083  67.952  -1.910  1.00  0.00     0.006 C 
ATOM     12  C   UNL     1     -20.091  66.789  -1.936  1.00  0.00     0.004 C 
ENDBRANCH   1  11
TORSDOF 4
ENDMDL
MODEL 3
REMARK VINA RESULT:    -5.196      0.754      1.512
REMARK INTER + INTRA:          -6.329
REMARK INTER:                  -6.327
REMARK INTRA:                  -0.002
REMARK UNBOUND:                -0.070
REMARK SMILES CC[C@@H](C)[C@@H]([NH3+])C(=O)[O-]
REMARK SMILES IDX 3 1 4 2 5 3 6 4 7 8 8 9 9 10 2 11 1 12
REMARK H PARENT 6 5 6 6 6 7
REMARK Flexibility Score: inf
ROOT
ATOM      1  C   UNL     1     -21.628  70.387  -0.706  1.00  0.00     0.050 C 
ATOM      2  C   UNL     1     -21.361  71.765  -0.068  1.00  0.00     0.014 C 
ENDROOT
BRANCH   1   3
ATOM      3  C   UNL     1     -20.358  69.769  -1.372  1.00  0.00     0.230 C 
BRANCH   3   4
ATOM      4  N   UNL     1     -19.117  70.231  -0.730  1.00  0.00    -0.350 N 
ATOM      5  H   UNL     1     -18.684  70.982  -1.315  1.00  0.00     0.345 HD
ATOM      6  H   UNL     1     -18.426  69.456  -0.623  1.00  0.00     0.345 HD
ATOM      7  H   UNL     1     -19.329  70.637   0.211  1.00  0.00     0.345 HD
ENDBRANCH   3   4
BRANCH   3   8
ATOM      8  C   UNL     1     -20.407  68.260  -1.424  1.00  0.00     0.099 C 
ATOM      9  O   UNL     1     -19.713  67.565  -0.635  1.00  0.00    -0.544 OA
ATOM     10  O   UNL     1     -21.250  67.628  -2.329  1.00  0.00    -0.544 OA
ENDBRANCH   3   8
ENDBRANCH   1   3
BRANCH   1  11
ATOM     11  C   UNL     1     -22.238  69.402   0.324  1.00  0.00     0.006 C 
ATOM     12  C   UNL     1     -21.727  69.629   1.747  1.00  0.00     0.004 C 
ENDBRANCH   1  11
TORSDOF 4
ENDMDL
MODEL 4
REMARK VINA RESULT:    -5.119      2.817      3.737
REMARK INTER + INTRA:          -6.237
REMARK INTER:                  -6.341
REMARK INTRA:                   0.104
REMARK UNBOUND:                -0.070
REMARK SMILES CC[C@@H](C)[C@@H]([NH3+])C(=O)[O-]
REMARK SMILES IDX 3 1 4 2 5 3 6 4 7 8 8 9 9 10 2 11 1 12
REMARK H PARENT 6 5 6 6 6 7
REMARK Flexibility Score: inf
ROOT
ATOM      1  C   UNL     1     -21.150  69.725  -1.279  1.00  0.00     0.050 C 
ATOM      2  C   UNL     1     -21.137  68.231  -1.659  1.00  0.00     0.014 C 
ENDROOT
BRANCH   1   3
ATOM      3  C   UNL     1     -22.383  70.120  -0.407  1.00  0.00     0.230 C 
BRANCH   3   4
ATOM      4  N   UNL     1     -23.389  69.048  -0.355  1.00  0.00    -0.350 N 
ATOM      5  H   UNL     1     -22.917  68.122  -0.474  1.00  0.00     0.345 HD
ATOM      6  H   UNL     1     -24.105  69.152  -1.108  1.00  0.00     0.345 HD
ATOM      7  H   UNL     1     -23.867  69.048   0.577  1.00  0.00     0.345 HD
ENDBRANCH   3   4
BRANCH   3   8
ATOM      8  C   UNL     1     -21.993  70.560   0.984  1.00  0.00     0.099 C 
ATOM      9  O   UNL     1     -21.972  71.781   1.293  1.00  0.00    -0.544 OA
ATOM     10  O   UNL     1     -21.685  69.608   1.948  1.00  0.00    -0.544 OA
ENDBRANCH   3   8
ENDBRANCH   1   3
BRANCH   1  11
ATOM     11  C   UNL     1     -19.831  70.136  -0.577  1.00  0.00     0.006 C 
ATOM     12  C   UNL     1     -18.942  68.942  -0.224  1.00  0.00     0.004 C 
ENDBRANCH   1  11
TORSDOF 4
ENDMDL
MODEL 5
REMARK VINA RESULT:    -4.959      2.445      3.688
REMARK INTER + INTRA:          -6.044
REMARK INTER:                  -5.885
REMARK INTRA:                  -0.159
REMARK UNBOUND:                -0.070
REMARK SMILES CC[C@@H](C)[C@@H]([NH3+])C(=O)[O-]
REMARK SMILES IDX 3 1 4 2 5 3 6 4 7 8 8 9 9 10 2 11 1 12
REMARK H PARENT 6 5 6 6 6 7
REMARK Flexibility Score: inf
ROOT
ATOM      1  C   UNL     1     -20.291  68.658  -0.073  1.00  0.00     0.050 C 
ATOM      2  C   UNL     1     -19.596  68.001   1.136  1.00  0.00     0.014 C 
ENDROOT
BRANCH   1   3
ATOM      3  C   UNL     1     -20.003  70.189  -0.182  1.00  0.00     0.230 C 
BRANCH   3   4
ATOM      4  N   UNL     1     -19.156  70.511  -1.341  1.00  0.00    -0.350 N 
ATOM      5  H   UNL     1     -18.288  69.929  -1.308  1.00  0.00     0.345 HD
ATOM      6  H   UNL     1     -18.878  71.518  -1.348  1.00  0.00     0.345 HD
ATOM      7  H   UNL     1     -19.662  70.287  -2.229  1.00  0.00     0.345 HD
ENDBRANCH   3   4
BRANCH   3   8
ATOM      8  C   UNL     1     -21.266  71.017  -0.192  1.00  0.00     0.099 C 
ATOM      9  O   UNL     1     -21.212  72.275  -0.153  1.00  0.00    -0.544 OA
ATOM     10  O   UNL     1     -22.502  70.390  -0.279  1.00  0.00    -0.544 OA
ENDBRANCH   3   8
ENDBRANCH   1   3
BRANCH   1  11
ATOM     11  C   UNL     1     -19.915  67.938  -1.393  1.00  0.00     0.006 C 
ATOM     12  C   UNL     1     -21.132  67.565  -2.242  1.00  0.00     0.004 C 
ENDBRANCH   1  11
TORSDOF 4
ENDMDL
MODEL 6
REMARK VINA RESULT:    -4.683      1.679      1.842
REMARK INTER + INTRA:          -5.712
REMARK INTER:                  -5.795
REMARK INTRA:                   0.084
REMARK UNBOUND:                -0.070
REMARK SMILES CC[C@@H](C)[C@@H]([NH3+])C(=O)[O-]
REMARK SMILES IDX 3 1 4 2 5 3 6 4 7 8 8 9 9 10 2 11 1 12
REMARK H PARENT 6 5 6 6 6 7
REMARK Flexibility Score: inf
ROOT
ATOM      1  C   UNL     1     -21.896  69.493   0.632  1.00  0.00     0.050 C 
ATOM      2  C   UNL     1     -22.709  69.158  -0.635  1.00  0.00     0.014 C 
ENDROOT
BRANCH   1   3
ATOM      3  C   UNL     1     -20.368  69.224   0.463  1.00  0.00     0.230 C 
BRANCH   3   4
ATOM      4  N   UNL     1     -19.886  68.178   1.378  1.00  0.00    -0.350 N 
ATOM      5  H   UNL     1     -20.361  68.281   2.304  1.00  0.00     0.345 HD
ATOM      6  H   UNL     1     -18.855  68.240   1.528  1.00  0.00     0.345 HD
ATOM      7  H   UNL     1     -20.123  67.232   0.998  1.00  0.00     0.345 HD
ENDBRANCH   3   4
BRANCH   3   8
ATOM      8  C   UNL     1     -19.989  68.907  -0.964  1.00  0.00     0.099 C 
ATOM      9  O   UNL     1     -19.601  69.816  -1.745  1.00  0.00    -0.544 OA
ATOM     10  O   UNL     1     -20.034  67.594  -1.415  1.00  0.00    -0.544 OA
ENDBRANCH   3   8
ENDBRANCH   1   3
BRANCH   1  11
ATOM     11  C   UNL     1     -22.146  70.954   1.087  1.00  0.00     0.006 C 
ATOM     12  C   UNL     1     -21.493  71.989   0.170  1.00  0.00     0.004 C 
ENDBRANCH   1  11
TORSDOF 4
ENDMDL
MODEL 7
REMARK VINA RESULT:    -4.630      1.759      2.068
REMARK INTER + INTRA:          -5.648
REMARK INTER:                  -5.560
REMARK INTRA:                  -0.087
REMARK UNBOUND:                -0.070
REMARK SMILES CC[C@@H](C)[C@@H]([NH3+])C(=O)[O-]
REMARK SMILES IDX 3 1 4 2 5 3 6 4 7 8 8 9 9 10 2 11 1 12
REMARK H PARENT 6 5 6 6 6 7
REMARK Flexibility Score: inf
ROOT
ATOM      1  C   UNL     1     -21.267  69.822   0.590  1.00  0.00     0.050 C 
ATOM      2  C   UNL     1     -21.524  69.513   2.079  1.00  0.00     0.014 C 
ENDROOT
BRANCH   1   3
ATOM      3  C   UNL     1     -21.765  68.688  -0.361  1.00  0.00     0.230 C 
BRANCH   3   4
ATOM      4  N   UNL     1     -23.088  68.986  -0.931  1.00  0.00    -0.350 N 
ATOM      5  H   UNL     1     -23.494  69.820  -0.447  1.00  0.00     0.345 HD
ATOM      6  H   UNL     1     -23.748  68.185  -0.817  1.00  0.00     0.345 HD
ATOM      7  H   UNL     1     -22.997  69.216  -1.948  1.00  0.00     0.345 HD
ENDBRANCH   3   4
BRANCH   3   8
ATOM      8  C   UNL     1     -20.770  68.365  -1.450  1.00  0.00     0.099 C 
ATOM      9  O   UNL     1     -21.074  67.585  -2.391  1.00  0.00    -0.544 OA
ATOM     10  O   UNL     1     -19.515  68.960  -1.437  1.00  0.00    -0.544 OA
ENDBRANCH   3   8
ENDBRANCH   1   3
BRANCH   1  11
ATOM     11  C   UNL     1     -21.888  71.184   0.186  1.00  0.00     0.006 C 
ATOM     12  C   UNL     1     -21.971  72.174   1.349  1.00  0.00     0.004 C 
ENDBRANCH   1  11
TORSDOF 4
ENDMDL
MODEL 8
REMARK VINA RESULT:    -4.486      1.618      2.048
REMARK INTER + INTRA:          -5.474
REMARK INTER:                  -5.503
REMARK INTRA:                   0.029
REMARK UNBOUND:                -0.070
REMARK SMILES CC[C@@H](C)[C@@H]([NH3+])C(=O)[O-]
REMARK SMILES IDX 3 1 4 2 5 3 6 4 7 8 8 9 9 10 2 11 1 12
REMARK H PARENT 6 5 6 6 6 7
REMARK Flexibility Score: inf
ROOT
ATOM      1  C   UNL     1     -20.839  70.702  -0.813  1.00  0.00     0.050 C 
ATOM      2  C   UNL     1     -19.303  70.821  -0.878  1.00  0.00     0.014 C 
ENDROOT
BRANCH   1   3
ATOM      3  C   UNL     1     -21.318  69.377  -0.140  1.00  0.00     0.230 C 
BRANCH   3   4
ATOM      4  N   UNL     1     -22.645  68.962  -0.619  1.00  0.00    -0.350 N 
ATOM      5  H   UNL     1     -23.176  69.804  -0.943  1.00  0.00     0.345 HD
ATOM      6  H   UNL     1     -23.198  68.493   0.132  1.00  0.00     0.345 HD
ATOM      7  H   UNL     1     -22.546  68.311  -1.432  1.00  0.00     0.345 HD
ENDBRANCH   3   4
BRANCH   3   8
ATOM      8  C   UNL     1     -20.317  68.256  -0.288  1.00  0.00     0.099 C 
ATOM      9  O   UNL     1     -19.583  67.914   0.677  1.00  0.00    -0.544 OA
ATOM     10  O   UNL     1     -20.226  67.566  -1.491  1.00  0.00    -0.544 OA
ENDBRANCH   3   8
ENDBRANCH   1   3
BRANCH   1  11
ATOM     11  C   UNL     1     -21.466  71.931  -0.105  1.00  0.00     0.006 C 
ATOM     12  C   UNL     1     -21.848  71.656   1.350  1.00  0.00     0.004 C 
ENDBRANCH   1  11
TORSDOF 4
ENDMDL
MODEL 9
REMARK VINA RESULT:    -4.479      2.505      3.348
REMARK INTER + INTRA:          -5.466
REMARK INTER:                  -5.343
REMARK INTRA:                  -0.123
REMARK UNBOUND:                -0.070
REMARK SMILES CC[C@@H](C)[C@@H]([NH3+])C(=O)[O-]
REMARK SMILES IDX 3 1 4 2 5 3 6 4 7 8 8 9 9 10 2 11 1 12
REMARK H PARENT 6 5 6 6 6 7
REMARK Flexibility Score: inf
ROOT
ATOM      1  C   UNL     1     -20.023  69.834  -0.463  1.00  0.00     0.050 C 
ATOM      2  C   UNL     1     -19.133  70.844  -1.214  1.00  0.00     0.014 C 
ENDROOT
BRANCH   1   3
ATOM      3  C   UNL     1     -21.294  69.424  -1.272  1.00  0.00     0.230 C 
BRANCH   3   4
ATOM      4  N   UNL     1     -21.152  68.095  -1.887  1.00  0.00    -0.350 N 
ATOM      5  H   UNL     1     -20.211  68.021  -2.338  1.00  0.00     0.345 HD
ATOM      6  H   UNL     1     -21.881  67.927  -2.616  1.00  0.00     0.345 HD
ATOM      7  H   UNL     1     -21.219  67.351  -1.154  1.00  0.00     0.345 HD
ENDBRANCH   3   4
BRANCH   3   8
ATOM      8  C   UNL     1     -22.557  69.503  -0.448  1.00  0.00     0.099 C 
ATOM      9  O   UNL     1     -22.669  70.346   0.483  1.00  0.00    -0.544 OA
ATOM     10  O   UNL     1     -23.624  68.663  -0.738  1.00  0.00    -0.544 OA
ENDBRANCH   3   8
ENDBRANCH   1   3
BRANCH   1  11
ATOM     11  C   UNL     1     -19.215  68.579  -0.044  1.00  0.00     0.006 C 
ATOM     12  C   UNL     1     -19.639  68.017   1.314  1.00  0.00     0.004 C 
ENDBRANCH   1  11
TORSDOF 4
ENDMDL
