MODEL 1
REMARK VINA RESULT:    49.402      0.000      0.000
REMARK INTER + INTRA:          70.015
REMARK INTER:                  66.730
REMARK INTRA:                   3.285
REMARK UNBOUND:                 3.285
REMARK SMILES O=c1c(-c2ccc(O)cc2)coc2c([C@H]3O[C@@H](CO)[C@H](O)[C@@H](O)[C@@H]3O)c(O)ccc12
REMARK SMILES IDX 3 1 11 2 12 3 13 4 30 5 2 6 1 7 29 8 28 9 26 10 14 11 4 12
REMARK SMILES IDX 5 13 6 14 7 15 10 16 9 17 8 18 15 20 24 21 16 22 22 23 17 24
REMARK SMILES IDX 20 25 25 26 23 28 18 30 19 31 21 33 27 35
REMARK H PARENT 8 19 25 27 23 29 19 32 21 34 27 36
REMARK Flexibility Score: inf
ROOT
ATOM      1  C   UNL     1     -32.117  50.169 -14.983  1.00  0.00     0.065 A 
ATOM      2  C   UNL     1     -30.776  50.246 -15.385  1.00  0.00     0.208 A 
ATOM      3  O   UNL     1     -30.281  49.396 -16.277  1.00  0.00    -0.463 OA
ATOM      4  C   UNL     1     -31.004  48.430 -16.842  1.00  0.00     0.147 A 
ATOM      5  C   UNL     1     -32.367  48.282 -16.494  1.00  0.00     0.066 A 
ATOM      6  C   UNL     1     -32.921  49.161 -15.545  1.00  0.00     0.200 A 
ATOM      7  O   UNL     1     -34.125  49.035 -15.187  1.00  0.00    -0.288 OA
ATOM      8  C   UNL     1     -33.130  47.270 -17.096  1.00  0.00     0.020 A 
ATOM      9  C   UNL     1     -32.553  46.426 -18.043  1.00  0.00     0.047 A 
ATOM     10  C   UNL     1     -31.207  46.567 -18.400  1.00  0.00     0.125 A 
ATOM     11  C   UNL     1     -30.410  47.561 -17.787  1.00  0.00     0.069 A 
ENDROOT
BRANCH   1  12
ATOM     12  C   UNL     1     -32.648  51.135 -13.988  1.00  0.00    -0.011 A 
ATOM     13  C   UNL     1     -32.513  50.881 -12.612  1.00  0.00     0.013 A 
ATOM     14  C   UNL     1     -33.005  51.793 -11.672  1.00  0.00     0.047 A 
ATOM     15  C   UNL     1     -33.630  52.971 -12.097  1.00  0.00     0.115 A 
ATOM     16  C   UNL     1     -33.272  52.324 -14.405  1.00  0.00     0.013 A 
ATOM     17  C   UNL     1     -33.762  53.234 -13.465  1.00  0.00     0.047 A 
BRANCH  15  18
ATOM     18  O   UNL     1     -34.124  53.888 -11.171  1.00  0.00    -0.508 OA
ATOM     19  H   UNL     1     -35.117  54.067 -11.081  1.00  0.00     0.293 HD
ENDBRANCH  15  18
ENDBRANCH   1  12
BRANCH  11  20
ATOM     20  C   UNL     1     -28.950  47.736 -18.183  1.00  0.00     0.188 C 
ATOM     21  C   UNL     1     -28.410  46.435 -18.816  1.00  0.00     0.179 C 
ATOM     22  O   UNL     1     -28.193  48.088 -17.035  1.00  0.00    -0.362 OA
ATOM     23  C   UNL     1     -26.917  46.611 -19.157  1.00  0.00     0.177 C 
ATOM     24  C   UNL     1     -26.853  48.398 -17.383  1.00  0.00     0.176 C 
ATOM     25  C   UNL     1     -26.140  47.143 -17.940  1.00  0.00     0.177 C 
BRANCH  21  26
ATOM     26  O   UNL     1     -29.134  46.146 -19.985  1.00  0.00    -0.387 OA
ATOM     27  H   UNL     1     -29.650  45.317 -19.806  1.00  0.00     0.211 HD
ENDBRANCH  21  26
BRANCH  23  28
ATOM     28  O   UNL     1     -26.359  45.405 -19.618  1.00  0.00    -0.387 OA
ATOM     29  H   UNL     1     -26.432  45.397 -20.608  1.00  0.00     0.211 HD
ENDBRANCH  23  28
BRANCH  24  30
ATOM     30  C   UNL     1     -26.138  48.924 -16.129  1.00  0.00     0.191 C 
BRANCH  30  31
ATOM     31  O   UNL     1     -24.858  49.393 -16.456  1.00  0.00    -0.394 OA
ATOM     32  H   UNL     1     -24.216  48.695 -16.163  1.00  0.00     0.210 HD
ENDBRANCH  30  31
ENDBRANCH  24  30
BRANCH  25  33
ATOM     33  O   UNL     1     -24.831  47.463 -18.342  1.00  0.00    -0.388 OA
ATOM     34  H   UNL     1     -24.833  48.419 -18.612  1.00  0.00     0.211 HD
ENDBRANCH  25  33
ENDBRANCH  11  20
BRANCH  10  35
ATOM     35  O   UNL     1     -30.662  45.720 -19.366  1.00  0.00    -0.507 OA
ATOM     36  H   UNL     1     -30.265  46.079 -20.227  1.00  0.00     0.293 HD
ENDBRANCH  10  35
TORSDOF 9
ENDMDL
MODEL 2
REMARK VINA RESULT:    51.426     14.339     17.132
REMARK INTER + INTRA:          72.749
REMARK INTER:                  70.601
REMARK INTRA:                   2.148
REMARK UNBOUND:                 3.285
REMARK SMILES O=c1c(-c2ccc(O)cc2)coc2c([C@H]3O[C@@H](CO)[C@H](O)[C@@H](O)[C@@H]3O)c(O)ccc12
REMARK SMILES IDX 3 1 11 2 12 3 13 4 30 5 2 6 1 7 29 8 28 9 26 10 14 11 4 12
REMARK SMILES IDX 5 13 6 14 7 15 10 16 9 17 8 18 15 20 24 21 16 22 22 23 17 24
REMARK SMILES IDX 20 25 25 26 23 28 18 30 19 31 21 33 27 35
REMARK H PARENT 8 19 25 27 23 29 19 32 21 34 27 36
REMARK Flexibility Score: inf
ROOT
ATOM      1  C   UNL     1     -22.648  49.701  -1.574  1.00  0.00     0.065 A 
ATOM      2  C   UNL     1     -23.166  50.432  -2.652  1.00  0.00     0.208 A 
ATOM      3  O   UNL     1     -22.632  51.594  -3.008  1.00  0.00    -0.463 OA
ATOM      4  C   UNL     1     -21.591  52.139  -2.382  1.00  0.00     0.147 A 
ATOM      5  C   UNL     1     -21.006  51.468  -1.283  1.00  0.00     0.066 A 
ATOM      6  C   UNL     1     -21.553  50.238  -0.874  1.00  0.00     0.200 A 
ATOM      7  O   UNL     1     -21.076  49.629   0.124  1.00  0.00    -0.288 OA
ATOM      8  C   UNL     1     -19.903  52.038  -0.629  1.00  0.00     0.020 A 
ATOM      9  C   UNL     1     -19.377  53.251  -1.069  1.00  0.00     0.047 A 
ATOM     10  C   UNL     1     -19.943  53.922  -2.159  1.00  0.00     0.125 A 
ATOM     11  C   UNL     1     -21.073  53.381  -2.817  1.00  0.00     0.069 A 
ENDROOT
BRANCH   1  12
ATOM     12  C   UNL     1     -23.260  48.401  -1.199  1.00  0.00    -0.011 A 
ATOM     13  C   UNL     1     -22.468  47.378  -0.646  1.00  0.00     0.013 A 
ATOM     14  C   UNL     1     -23.043  46.156  -0.285  1.00  0.00     0.047 A 
ATOM     15  C   UNL     1     -24.415  45.943  -0.466  1.00  0.00     0.115 A 
ATOM     16  C   UNL     1     -24.638  48.180  -1.371  1.00  0.00     0.013 A 
ATOM     17  C   UNL     1     -25.210  46.958  -1.009  1.00  0.00     0.047 A 
BRANCH  15  18
ATOM     18  O   UNL     1     -24.999  44.729  -0.109  1.00  0.00    -0.508 OA
ATOM     19  H   UNL     1     -24.445  43.963   0.257  1.00  0.00     0.293 HD
ENDBRANCH  15  18
ENDBRANCH   1  12
BRANCH  11  20
ATOM     20  C   UNL     1     -21.684  54.093  -4.017  1.00  0.00     0.188 C 
ATOM     21  C   UNL     1     -22.964  53.359  -4.477  1.00  0.00     0.179 C 
ATOM     22  O   UNL     1     -20.730  54.145  -5.066  1.00  0.00    -0.362 OA
ATOM     23  C   UNL     1     -23.536  54.059  -5.725  1.00  0.00     0.177 C 
ATOM     24  C   UNL     1     -21.208  54.923  -6.152  1.00  0.00     0.176 C 
ATOM     25  C   UNL     1     -22.443  54.246  -6.793  1.00  0.00     0.177 C 
BRANCH  21  26
ATOM     26  O   UNL     1     -23.914  53.380  -3.443  1.00  0.00    -0.387 OA
ATOM     27  H   UNL     1     -23.413  53.302  -2.589  1.00  0.00     0.211 HD
ENDBRANCH  21  26
BRANCH  23  28
ATOM     28  O   UNL     1     -24.628  53.345  -6.247  1.00  0.00    -0.387 OA
ATOM     29  H   UNL     1     -24.438  52.377  -6.136  1.00  0.00     0.211 HD
ENDBRANCH  23  28
BRANCH  24  30
ATOM     30  C   UNL     1     -20.072  55.072  -7.175  1.00  0.00     0.191 C 
BRANCH  30  31
ATOM     31  O   UNL     1     -19.178  53.997  -7.075  1.00  0.00    -0.394 OA
ATOM     32  H   UNL     1     -19.660  53.195  -7.409  1.00  0.00     0.210 HD
ENDBRANCH  30  31
ENDBRANCH  24  30
BRANCH  25  33
ATOM     33  O   UNL     1     -22.955  55.046  -7.830  1.00  0.00    -0.388 OA
ATOM     34  H   UNL     1     -23.602  54.490  -8.338  1.00  0.00     0.211 HD
ENDBRANCH  25  33
ENDBRANCH  11  20
BRANCH  10  35
ATOM     35  O   UNL     1     -19.383  55.124  -2.590  1.00  0.00    -0.507 OA
ATOM     36  H   UNL     1     -19.875  56.006  -2.499  1.00  0.00     0.293 HD
ENDBRANCH  10  35
TORSDOF 9
ENDMDL
