MODEL 1
REMARK VINA RESULT:    -3.279      0.000      0.000
REMARK INTER + INTRA:          -3.971
REMARK INTER:                  -3.855
REMARK INTRA:                  -0.116
REMARK UNBOUND:                -0.116
REMARK SMILES O=C([O-])CCC(=O)[O-]
REMARK SMILES IDX 4 1 2 2 1 3 3 4 5 5 6 6 7 7 8 8
REMARK H PARENT
REMARK Flexibility Score: inf
ROOT
ATOM      1  C   UNL     1      -8.494  25.868  24.759  1.00  0.00     0.059 C 
ENDROOT
BRANCH   1   2
ATOM      2  C   UNL     1      -8.769  27.152  25.479  1.00  0.00     0.042 C 
ATOM      3  O   UNL     1      -9.149  27.137  26.679  1.00  0.00    -0.550 OA
ATOM      4  O   UNL     1      -8.566  28.367  24.836  1.00  0.00    -0.550 OA
ENDBRANCH   1   2
BRANCH   1   5
ATOM      5  C   UNL     1      -7.273  25.986  23.840  1.00  0.00     0.059 C 
BRANCH   5   6
ATOM      6  C   UNL     1      -7.655  25.848  22.397  1.00  0.00     0.042 C 
ATOM      7  O   UNL     1      -7.591  24.726  21.828  1.00  0.00    -0.550 OA
ATOM      8  O   UNL     1      -8.117  26.952  21.693  1.00  0.00    -0.550 OA
ENDBRANCH   5   6
ENDBRANCH   1   5
TORSDOF 3
ENDMDL
MODEL 2
REMARK VINA RESULT:    -3.260      0.101      3.926
REMARK INTER + INTRA:          -3.948
REMARK INTER:                  -3.831
REMARK INTRA:                  -0.116
REMARK UNBOUND:                -0.116
REMARK SMILES O=C([O-])CCC(=O)[O-]
REMARK SMILES IDX 4 1 2 2 1 3 3 4 5 5 6 6 7 7 8 8
REMARK H PARENT
REMARK Flexibility Score: inf
ROOT
ATOM      1  C   UNL     1      -7.277  25.995  23.776  1.00  0.00     0.059 C 
ENDROOT
BRANCH   1   2
ATOM      2  C   UNL     1      -7.745  25.840  22.361  1.00  0.00     0.042 C 
ATOM      3  O   UNL     1      -8.124  26.846  21.705  1.00  0.00    -0.550 OA
ATOM      4  O   UNL     1      -7.725  24.590  21.755  1.00  0.00    -0.550 OA
ENDBRANCH   1   2
BRANCH   1   5
ATOM      5  C   UNL     1      -8.429  25.836  24.773  1.00  0.00     0.059 C 
BRANCH   5   6
ATOM      6  C   UNL     1      -8.727  27.124  25.479  1.00  0.00     0.042 C 
ATOM      7  O   UNL     1      -9.155  27.113  26.664  1.00  0.00    -0.550 OA
ATOM      8  O   UNL     1      -8.496  28.336  24.842  1.00  0.00    -0.550 OA
ENDBRANCH   5   6
ENDBRANCH   1   5
TORSDOF 3
ENDMDL
MODEL 3
REMARK VINA RESULT:    -3.259      0.127      3.924
REMARK INTER + INTRA:          -3.946
REMARK INTER:                  -3.831
REMARK INTRA:                  -0.115
REMARK UNBOUND:                -0.116
REMARK SMILES O=C([O-])CCC(=O)[O-]
REMARK SMILES IDX 4 1 2 2 1 3 3 4 5 5 6 6 7 7 8 8
REMARK H PARENT
REMARK Flexibility Score: inf
ROOT
ATOM      1  C   UNL     1      -7.224  25.986  23.704  1.00  0.00     0.059 C 
ENDROOT
BRANCH   1   2
ATOM      2  C   UNL     1      -7.692  25.835  22.289  1.00  0.00     0.042 C 
ATOM      3  O   UNL     1      -7.684  24.704  21.736  1.00  0.00    -0.550 OA
ATOM      4  O   UNL     1      -8.175  26.937  21.596  1.00  0.00    -0.550 OA
ENDBRANCH   1   2
BRANCH   1   5
ATOM      5  C   UNL     1      -8.382  25.850  24.699  1.00  0.00     0.059 C 
BRANCH   5   6
ATOM      6  C   UNL     1      -8.644  27.139  25.417  1.00  0.00     0.042 C 
ATOM      7  O   UNL     1      -8.472  28.239  24.829  1.00  0.00    -0.550 OA
ATOM      8  O   UNL     1      -9.114  27.124  26.723  1.00  0.00    -0.550 OA
ENDBRANCH   5   6
ENDBRANCH   1   5
TORSDOF 3
ENDMDL
MODEL 4
REMARK VINA RESULT:    -3.245      0.095      1.147
REMARK INTER + INTRA:          -3.931
REMARK INTER:                  -3.812
REMARK INTRA:                  -0.119
REMARK UNBOUND:                -0.116
REMARK SMILES O=C([O-])CCC(=O)[O-]
REMARK SMILES IDX 4 1 2 2 1 3 3 4 5 5 6 6 7 7 8 8
REMARK H PARENT
REMARK Flexibility Score: inf
ROOT
ATOM      1  C   UNL     1      -8.476  25.861  24.746  1.00  0.00     0.059 C 
ENDROOT
BRANCH   1   2
ATOM      2  C   UNL     1      -8.770  27.138  25.472  1.00  0.00     0.042 C 
ATOM      3  O   UNL     1      -9.173  27.111  26.664  1.00  0.00    -0.550 OA
ATOM      4  O   UNL     1      -8.559  28.359  24.844  1.00  0.00    -0.550 OA
ENDBRANCH   1   2
BRANCH   1   5
ATOM      5  C   UNL     1      -7.311  26.025  23.764  1.00  0.00     0.059 C 
BRANCH   5   6
ATOM      6  C   UNL     1      -7.769  25.914  22.342  1.00  0.00     0.042 C 
ATOM      7  O   UNL     1      -8.177  26.934  21.726  1.00  0.00    -0.550 OA
ATOM      8  O   UNL     1      -7.710  24.692  21.686  1.00  0.00    -0.550 OA
ENDBRANCH   5   6
ENDBRANCH   1   5
TORSDOF 3
ENDMDL
MODEL 5
REMARK VINA RESULT:    -3.240      2.018      2.424
REMARK INTER + INTRA:          -3.925
REMARK INTER:                  -3.741
REMARK INTRA:                  -0.184
REMARK UNBOUND:                -0.116
REMARK SMILES O=C([O-])CCC(=O)[O-]
REMARK SMILES IDX 4 1 2 2 1 3 3 4 5 5 6 6 7 7 8 8
REMARK H PARENT
REMARK Flexibility Score: inf
ROOT
ATOM      1  C   UNL     1      -7.982  26.335  23.521  1.00  0.00     0.059 C 
ENDROOT
BRANCH   1   2
ATOM      2  C   UNL     1      -9.114  27.152  22.977  1.00  0.00     0.042 C 
ATOM      3  O   UNL     1     -10.297  26.920  23.343  1.00  0.00    -0.550 OA
ATOM      4  O   UNL     1      -8.858  28.197  22.099  1.00  0.00    -0.550 OA
ENDBRANCH   1   2
BRANCH   1   5
ATOM      5  C   UNL     1      -7.180  25.665  22.401  1.00  0.00     0.059 C 
BRANCH   5   6
ATOM      6  C   UNL     1      -8.030  24.722  21.604  1.00  0.00     0.042 C 
ATOM      7  O   UNL     1      -8.229  24.929  20.378  1.00  0.00    -0.550 OA
ATOM      8  O   UNL     1      -8.569  23.594  22.207  1.00  0.00    -0.550 OA
ENDBRANCH   5   6
ENDBRANCH   1   5
TORSDOF 3
ENDMDL
MODEL 6
REMARK VINA RESULT:    -3.239      2.051      3.991
REMARK INTER + INTRA:          -3.923
REMARK INTER:                  -3.749
REMARK INTRA:                  -0.175
REMARK UNBOUND:                -0.116
REMARK SMILES O=C([O-])CCC(=O)[O-]
REMARK SMILES IDX 4 1 2 2 1 3 3 4 5 5 6 6 7 7 8 8
REMARK H PARENT
REMARK Flexibility Score: inf
ROOT
ATOM      1  C   UNL     1      -7.196  25.601  22.379  1.00  0.00     0.059 C 
ENDROOT
BRANCH   1   2
ATOM      2  C   UNL     1      -8.029  24.656  21.568  1.00  0.00     0.042 C 
ATOM      3  O   UNL     1      -8.239  24.883  20.347  1.00  0.00    -0.550 OA
ATOM      4  O   UNL     1      -8.540  23.503  22.152  1.00  0.00    -0.550 OA
ENDBRANCH   1   2
BRANCH   1   5
ATOM      5  C   UNL     1      -8.023  26.290  23.470  1.00  0.00     0.059 C 
BRANCH   5   6
ATOM      6  C   UNL     1      -9.134  27.107  22.884  1.00  0.00     0.042 C 
ATOM      7  O   UNL     1     -10.323  26.924  23.260  1.00  0.00    -0.550 OA
ATOM      8  O   UNL     1      -8.852  28.097  21.952  1.00  0.00    -0.550 OA
ENDBRANCH   5   6
ENDBRANCH   1   5
TORSDOF 3
ENDMDL
MODEL 7
REMARK VINA RESULT:    -3.228      2.000      2.599
REMARK INTER + INTRA:          -3.910
REMARK INTER:                  -3.807
REMARK INTRA:                  -0.102
REMARK UNBOUND:                -0.116
REMARK SMILES O=C([O-])CCC(=O)[O-]
REMARK SMILES IDX 4 1 2 2 1 3 3 4 5 5 6 6 7 7 8 8
REMARK H PARENT
REMARK Flexibility Score: inf
ROOT
ATOM      1  C   UNL     1      -7.248  25.804  22.390  1.00  0.00     0.059 C 
ENDROOT
BRANCH   1   2
ATOM      2  C   UNL     1      -7.909  25.874  23.732  1.00  0.00     0.042 C 
ATOM      3  O   UNL     1      -7.284  26.338  24.723  1.00  0.00    -0.550 OA
ATOM      4  O   UNL     1      -9.228  25.466  23.880  1.00  0.00    -0.550 OA
ENDBRANCH   1   2
BRANCH   1   5
ATOM      5  C   UNL     1      -8.004  24.872  21.437  1.00  0.00     0.059 C 
BRANCH   5   6
ATOM      6  C   UNL     1      -8.616  25.629  20.298  1.00  0.00     0.042 C 
ATOM      7  O   UNL     1      -9.045  25.014  19.285  1.00  0.00    -0.550 OA
ATOM      8  O   UNL     1      -8.747  27.009  20.371  1.00  0.00    -0.550 OA
ENDBRANCH   5   6
ENDBRANCH   1   5
TORSDOF 3
ENDMDL
MODEL 8
REMARK VINA RESULT:    -3.201      2.084      2.675
REMARK INTER + INTRA:          -3.878
REMARK INTER:                  -3.809
REMARK INTRA:                  -0.069
REMARK UNBOUND:                -0.116
REMARK SMILES O=C([O-])CCC(=O)[O-]
REMARK SMILES IDX 4 1 2 2 1 3 3 4 5 5 6 6 7 7 8 8
REMARK H PARENT
REMARK Flexibility Score: inf
ROOT
ATOM      1  C   UNL     1      -9.262  27.730  24.019  1.00  0.00     0.059 C 
ENDROOT
BRANCH   1   2
ATOM      2  C   UNL     1      -9.215  29.088  23.390  1.00  0.00     0.042 C 
ATOM      3  O   UNL     1      -9.643  29.260  22.218  1.00  0.00    -0.550 OA
ATOM      4  O   UNL     1      -8.736  30.173  24.114  1.00  0.00    -0.550 OA
ENDBRANCH   1   2
BRANCH   1   5
ATOM      5  C   UNL     1      -8.935  26.627  23.007  1.00  0.00     0.059 C 
BRANCH   5   6
ATOM      6  C   UNL     1      -7.580  26.036  23.255  1.00  0.00     0.042 C 
ATOM      7  O   UNL     1      -6.935  25.510  22.310  1.00  0.00    -0.550 OA
ATOM      8  O   UNL     1      -7.015  26.101  24.522  1.00  0.00    -0.550 OA
ENDBRANCH   5   6
ENDBRANCH   1   5
TORSDOF 3
ENDMDL
MODEL 9
REMARK VINA RESULT:    -3.176      1.961      4.093
REMARK INTER + INTRA:          -3.849
REMARK INTER:                  -3.757
REMARK INTRA:                  -0.092
REMARK UNBOUND:                -0.116
REMARK SMILES O=C([O-])CCC(=O)[O-]
REMARK SMILES IDX 4 1 2 2 1 3 3 4 5 5 6 6 7 7 8 8
REMARK H PARENT
REMARK Flexibility Score: inf
ROOT
ATOM      1  C   UNL     1      -8.266  25.107  21.290  1.00  0.00     0.059 C 
ENDROOT
BRANCH   1   2
ATOM      2  C   UNL     1      -8.839  26.156  20.388  1.00  0.00     0.042 C 
ATOM      3  O   UNL     1      -9.459  25.825  19.343  1.00  0.00    -0.550 OA
ATOM      4  O   UNL     1      -8.723  27.500  20.723  1.00  0.00    -0.550 OA
ENDBRANCH   1   2
BRANCH   1   5
ATOM      5  C   UNL     1      -7.326  25.713  22.337  1.00  0.00     0.059 C 
BRANCH   5   6
ATOM      6  C   UNL     1      -7.982  25.800  23.681  1.00  0.00     0.042 C 
ATOM      7  O   UNL     1      -9.118  25.289  23.867  1.00  0.00    -0.550 OA
ATOM      8  O   UNL     1      -7.321  26.412  24.738  1.00  0.00    -0.550 OA
ENDBRANCH   5   6
ENDBRANCH   1   5
TORSDOF 3
ENDMDL
