MODEL 1
REMARK VINA RESULT:    -6.344      0.000      0.000
REMARK INTER + INTRA:          -7.773
REMARK INTER:                  -7.457
REMARK INTRA:                  -0.316
REMARK UNBOUND:                -0.316
REMARK SMILES O=c1cc(-c2ccc(O)c(O)c2)oc2cc(O)cc(O)c12
REMARK SMILES IDX 4 1 3 2 2 3 1 4 21 5 19 6 18 7 16 8 15 9 14 10 13 11 5 12
REMARK SMILES IDX 6 13 7 14 8 15 12 16 10 17 9 18 11 20 20 22 17 24
REMARK H PARENT 9 19 11 21 20 23 17 25
REMARK Flexibility Score: inf
ROOT
ATOM      1  C   UNL     1       9.997  -2.934  19.226  1.00  0.00     0.138 A 
ATOM      2  C   UNL     1      11.226  -2.260  19.243  1.00  0.00     0.100 A 
ATOM      3  C   UNL     1      11.263  -0.885  19.007  1.00  0.00     0.197 A 
ATOM      4  O   UNL     1      12.374  -0.299  19.090  1.00  0.00    -0.289 OA
ATOM      5  C   UNL     1      10.065  -0.188  18.721  1.00  0.00     0.107 A 
ATOM      6  C   UNL     1       9.988   1.206  18.424  1.00  0.00     0.134 A 
ATOM      7  C   UNL     1       8.734   1.810  18.273  1.00  0.00     0.093 A 
ATOM      8  C   UNL     1       7.559   1.061  18.346  1.00  0.00     0.123 A 
ATOM      9  C   UNL     1       7.626  -0.313  18.583  1.00  0.00     0.094 A 
ATOM     10  C   UNL     1       8.860  -0.938  18.772  1.00  0.00     0.146 A 
ATOM     11  O   UNL     1       8.881  -2.246  19.009  1.00  0.00    -0.456 OA
ENDROOT
BRANCH   1  12
ATOM     12  C   UNL     1       9.900  -4.396  19.469  1.00  0.00     0.021 A 
ATOM     13  C   UNL     1      11.003  -5.145  19.914  1.00  0.00     0.016 A 
ATOM     14  C   UNL     1      10.885  -6.520  20.125  1.00  0.00     0.051 A 
ATOM     15  C   UNL     1       9.674  -7.179  19.891  1.00  0.00     0.157 A 
ATOM     16  C   UNL     1       8.687  -5.060  19.222  1.00  0.00     0.062 A 
ATOM     17  C   UNL     1       8.560  -6.439  19.431  1.00  0.00     0.158 A 
BRANCH  15  18
ATOM     18  O   UNL     1       9.624  -8.555  20.125  1.00  0.00    -0.504 OA
ATOM     19  H   UNL     1      10.201  -9.035  20.799  1.00  0.00     0.293 HD
ENDBRANCH  15  18
BRANCH  17  20
ATOM     20  O   UNL     1       7.320  -7.026  19.171  1.00  0.00    -0.504 OA
ATOM     21  H   UNL     1       6.522  -6.956  19.786  1.00  0.00     0.293 HD
ENDBRANCH  17  20
ENDBRANCH   1  12
BRANCH   6  22
ATOM     22  O   UNL     1      11.103   2.030  18.246  1.00  0.00    -0.507 OA
ATOM     23  H   UNL     1      11.572   2.534  18.983  1.00  0.00     0.293 HD
ENDBRANCH   6  22
BRANCH   8  24
ATOM     24  O   UNL     1       6.330   1.693  18.176  1.00  0.00    -0.508 OA
ATOM     25  H   UNL     1       6.267   2.649  17.846  1.00  0.00     0.293 HD
ENDBRANCH   8  24
TORSDOF 5
ENDMDL
MODEL 2
REMARK VINA RESULT:    -6.305      2.329      3.372
REMARK INTER + INTRA:          -7.727
REMARK INTER:                  -7.432
REMARK INTRA:                  -0.295
REMARK UNBOUND:                -0.316
REMARK SMILES O=c1cc(-c2ccc(O)c(O)c2)oc2cc(O)cc(O)c12
REMARK SMILES IDX 4 1 3 2 2 3 1 4 21 5 19 6 18 7 16 8 15 9 14 10 13 11 5 12
REMARK SMILES IDX 6 13 7 14 8 15 12 16 10 17 9 18 11 20 20 22 17 24
REMARK H PARENT 9 19 11 21 20 23 17 25
REMARK Flexibility Score: inf
ROOT
ATOM      1  C   UNL     1      10.755  -3.921  19.700  1.00  0.00     0.138 A 
ATOM      2  C   UNL     1      12.080  -4.325  19.487  1.00  0.00     0.100 A 
ATOM      3  C   UNL     1      13.089  -3.364  19.402  1.00  0.00     0.197 A 
ATOM      4  O   UNL     1      14.277  -3.761  19.273  1.00  0.00    -0.289 OA
ATOM      5  C   UNL     1      12.763  -1.991  19.500  1.00  0.00     0.107 A 
ATOM      6  C   UNL     1      13.702  -0.923  19.388  1.00  0.00     0.134 A 
ATOM      7  C   UNL     1      13.282   0.393  19.618  1.00  0.00     0.093 A 
ATOM      8  C   UNL     1      11.947   0.685  19.896  1.00  0.00     0.123 A 
ATOM      9  C   UNL     1      11.009  -0.347  19.955  1.00  0.00     0.094 A 
ATOM     10  C   UNL     1      11.404  -1.673  19.764  1.00  0.00     0.146 A 
ATOM     11  O   UNL     1      10.483  -2.628  19.842  1.00  0.00    -0.456 OA
ENDROOT
BRANCH   1  12
ATOM     12  C   UNL     1       9.642  -4.901  19.796  1.00  0.00     0.021 A 
ATOM     13  C   UNL     1       8.309  -4.489  19.960  1.00  0.00     0.016 A 
ATOM     14  C   UNL     1       7.284  -5.433  20.057  1.00  0.00     0.051 A 
ATOM     15  C   UNL     1       7.565  -6.802  20.002  1.00  0.00     0.157 A 
ATOM     16  C   UNL     1       9.926  -6.277  19.754  1.00  0.00     0.062 A 
ATOM     17  C   UNL     1       8.904  -7.230  19.850  1.00  0.00     0.158 A 
BRANCH  15  18
ATOM     18  O   UNL     1       6.494  -7.692  20.103  1.00  0.00    -0.504 OA
ATOM     19  H   UNL     1       5.953  -7.832  20.944  1.00  0.00     0.293 HD
ENDBRANCH  15  18
BRANCH  17  20
ATOM     20  O   UNL     1       9.263  -8.578  19.792  1.00  0.00    -0.504 OA
ATOM     21  H   UNL     1      10.192  -8.924  19.979  1.00  0.00     0.293 HD
ENDBRANCH  17  20
ENDBRANCH   1  12
BRANCH   6  22
ATOM     22  O   UNL     1      15.043  -1.096  19.031  1.00  0.00    -0.507 OA
ATOM     23  H   UNL     1      15.772  -0.415  19.180  1.00  0.00     0.293 HD
ENDBRANCH   6  22
BRANCH   8  24
ATOM     24  O   UNL     1      11.562   2.007  20.104  1.00  0.00    -0.508 OA
ATOM     25  H   UNL     1      10.591   2.260  20.247  1.00  0.00     0.293 HD
ENDBRANCH   8  24
TORSDOF 5
ENDMDL
MODEL 3
REMARK VINA RESULT:    -5.985      2.766      5.054
REMARK INTER + INTRA:          -7.351
REMARK INTER:                  -7.036
REMARK INTRA:                  -0.315
REMARK UNBOUND:                -0.316
REMARK SMILES O=c1cc(-c2ccc(O)c(O)c2)oc2cc(O)cc(O)c12
REMARK SMILES IDX 4 1 3 2 2 3 1 4 21 5 19 6 18 7 16 8 15 9 14 10 13 11 5 12
REMARK SMILES IDX 6 13 7 14 8 15 12 16 10 17 9 18 11 20 20 22 17 24
REMARK H PARENT 9 19 11 21 20 23 17 25
REMARK Flexibility Score: inf
ROOT
ATOM      1  C   UNL     1      10.934  -4.085  19.493  1.00  0.00     0.138 A 
ATOM      2  C   UNL     1      10.801  -2.756  19.069  1.00  0.00     0.100 A 
ATOM      3  C   UNL     1      11.936  -1.950  18.958  1.00  0.00     0.197 A 
ATOM      4  O   UNL     1      11.792  -0.780  18.515  1.00  0.00    -0.289 OA
ATOM      5  C   UNL     1      13.205  -2.471  19.304  1.00  0.00     0.107 A 
ATOM      6  C   UNL     1      14.424  -1.730  19.269  1.00  0.00     0.134 A 
ATOM      7  C   UNL     1      15.636  -2.384  19.521  1.00  0.00     0.093 A 
ATOM      8  C   UNL     1      15.669  -3.735  19.866  1.00  0.00     0.123 A 
ATOM      9  C   UNL     1      14.477  -4.456  19.956  1.00  0.00     0.094 A 
ATOM     10  C   UNL     1      13.255  -3.840  19.677  1.00  0.00     0.146 A 
ATOM     11  O   UNL     1      12.144  -4.565  19.760  1.00  0.00    -0.456 OA
ENDROOT
BRANCH   1  12
ATOM     12  C   UNL     1       9.761  -4.985  19.631  1.00  0.00     0.021 A 
ATOM     13  C   UNL     1       8.449  -4.485  19.689  1.00  0.00     0.016 A 
ATOM     14  C   UNL     1       7.366  -5.354  19.829  1.00  0.00     0.051 A 
ATOM     15  C   UNL     1       7.564  -6.735  19.920  1.00  0.00     0.157 A 
ATOM     16  C   UNL     1       9.961  -6.372  19.736  1.00  0.00     0.062 A 
ATOM     17  C   UNL     1       8.880  -7.252  19.875  1.00  0.00     0.158 A 
BRANCH  15  18
ATOM     18  O   UNL     1       6.437  -7.549  20.055  1.00  0.00    -0.504 OA
ATOM     19  H   UNL     1       6.051  -8.108  19.308  1.00  0.00     0.293 HD
ENDBRANCH  15  18
BRANCH  17  20
ATOM     20  O   UNL     1       9.158  -8.617  19.965  1.00  0.00    -0.504 OA
ATOM     21  H   UNL     1       8.479  -9.344  19.791  1.00  0.00     0.293 HD
ENDBRANCH  17  20
ENDBRANCH   1  12
BRANCH   6  22
ATOM     22  O   UNL     1      14.497  -0.356  19.017  1.00  0.00    -0.507 OA
ATOM     23  H   UNL     1      13.807   0.320  19.307  1.00  0.00     0.293 HD
ENDBRANCH   6  22
BRANCH   8  24
ATOM     24  O   UNL     1      16.891  -4.349  20.125  1.00  0.00    -0.508 OA
ATOM     25  H   UNL     1      17.770  -3.896  19.901  1.00  0.00     0.293 HD
ENDBRANCH   8  24
TORSDOF 5
ENDMDL
MODEL 4
REMARK VINA RESULT:    -5.753      1.670      7.306
REMARK INTER + INTRA:          -7.078
REMARK INTER:                  -6.804
REMARK INTRA:                  -0.274
REMARK UNBOUND:                -0.316
REMARK SMILES O=c1cc(-c2ccc(O)c(O)c2)oc2cc(O)cc(O)c12
REMARK SMILES IDX 4 1 3 2 2 3 1 4 21 5 19 6 18 7 16 8 15 9 14 10 13 11 5 12
REMARK SMILES IDX 6 13 7 14 8 15 12 16 10 17 9 18 11 20 20 22 17 24
REMARK H PARENT 9 19 11 21 20 23 17 25
REMARK Flexibility Score: inf
ROOT
ATOM      1  C   UNL     1       8.353  -2.402  19.501  1.00  0.00     0.138 A 
ATOM      2  C   UNL     1       7.181  -3.162  19.617  1.00  0.00     0.100 A 
ATOM      3  C   UNL     1       7.269  -4.545  19.788  1.00  0.00     0.197 A 
ATOM      4  O   UNL     1       6.202  -5.191  19.951  1.00  0.00    -0.289 OA
ATOM      5  C   UNL     1       8.537  -5.171  19.810  1.00  0.00     0.107 A 
ATOM      6  C   UNL     1       8.747  -6.577  19.937  1.00  0.00     0.134 A 
ATOM      7  C   UNL     1      10.050  -7.072  20.065  1.00  0.00     0.093 A 
ATOM      8  C   UNL     1      11.153  -6.220  20.009  1.00  0.00     0.123 A 
ATOM      9  C   UNL     1      10.963  -4.849  19.831  1.00  0.00     0.094 A 
ATOM     10  C   UNL     1       9.673  -4.321  19.735  1.00  0.00     0.146 A 
ATOM     11  O   UNL     1       9.533  -3.009  19.580  1.00  0.00    -0.456 OA
ENDROOT
BRANCH   1  12
ATOM     12  C   UNL     1       8.318  -0.928  19.316  1.00  0.00     0.021 A 
ATOM     13  C   UNL     1       9.101  -0.067  20.103  1.00  0.00     0.016 A 
ATOM     14  C   UNL     1       9.040   1.315  19.914  1.00  0.00     0.051 A 
ATOM     15  C   UNL     1       8.196   1.868  18.946  1.00  0.00     0.157 A 
ATOM     16  C   UNL     1       7.459  -0.372  18.353  1.00  0.00     0.062 A 
ATOM     17  C   UNL     1       7.392   1.013  18.156  1.00  0.00     0.158 A 
BRANCH  15  18
ATOM     18  O   UNL     1       8.184   3.258  18.806  1.00  0.00    -0.504 OA
ATOM     19  H   UNL     1       7.901   3.738  17.965  1.00  0.00     0.293 HD
ENDBRANCH  15  18
BRANCH  17  20
ATOM     20  O   UNL     1       6.522   1.491  17.174  1.00  0.00    -0.504 OA
ATOM     21  H   UNL     1       5.999   0.898  16.546  1.00  0.00     0.293 HD
ENDBRANCH  17  20
ENDBRANCH   1  12
BRANCH   6  22
ATOM     22  O   UNL     1       7.719  -7.525  19.920  1.00  0.00    -0.507 OA
ATOM     23  H   UNL     1       7.555  -8.211  20.640  1.00  0.00     0.293 HD
ENDBRANCH   6  22
BRANCH   8  24
ATOM     24  O   UNL     1      12.436  -6.749  20.125  1.00  0.00    -0.508 OA
ATOM     25  H   UNL     1      12.720  -7.278  20.941  1.00  0.00     0.293 HD
ENDBRANCH   8  24
TORSDOF 5
ENDMDL
MODEL 5
REMARK VINA RESULT:    -5.685      3.168      6.338
REMARK INTER + INTRA:          -6.999
REMARK INTER:                  -6.704
REMARK INTRA:                  -0.295
REMARK UNBOUND:                -0.316
REMARK SMILES O=c1cc(-c2ccc(O)c(O)c2)oc2cc(O)cc(O)c12
REMARK SMILES IDX 4 1 3 2 2 3 1 4 21 5 19 6 18 7 16 8 15 9 14 10 13 11 5 12
REMARK SMILES IDX 6 13 7 14 8 15 12 16 10 17 9 18 11 20 20 22 17 24
REMARK H PARENT 9 19 11 21 20 23 17 25
REMARK Flexibility Score: inf
ROOT
ATOM      1  C   UNL     1      12.482  -3.598  19.130  1.00  0.00     0.138 A 
ATOM      2  C   UNL     1      11.755  -2.521  18.606  1.00  0.00     0.100 A 
ATOM      3  C   UNL     1      10.373  -2.634  18.444  1.00  0.00     0.197 A 
ATOM      4  O   UNL     1       9.740  -1.629  18.029  1.00  0.00    -0.289 OA
ATOM      5  C   UNL     1       9.723  -3.844  18.782  1.00  0.00     0.107 A 
ATOM      6  C   UNL     1       8.326  -4.088  18.621  1.00  0.00     0.134 A 
ATOM      7  C   UNL     1       7.775  -5.283  19.098  1.00  0.00     0.093 A 
ATOM      8  C   UNL     1       8.577  -6.268  19.674  1.00  0.00     0.123 A 
ATOM      9  C   UNL     1       9.953  -6.063  19.787  1.00  0.00     0.094 A 
ATOM     10  C   UNL     1      10.528  -4.867  19.351  1.00  0.00     0.146 A 
ATOM     11  O   UNL     1      11.839  -4.704  19.490  1.00  0.00    -0.456 OA
ENDROOT
BRANCH   1  12
ATOM     12  C   UNL     1      13.954  -3.532  19.321  1.00  0.00     0.021 A 
ATOM     13  C   UNL     1      14.664  -4.569  19.950  1.00  0.00     0.016 A 
ATOM     14  C   UNL     1      16.046  -4.476  20.125  1.00  0.00     0.051 A 
ATOM     15  C   UNL     1      16.748  -3.350  19.686  1.00  0.00     0.157 A 
ATOM     16  C   UNL     1      14.658  -2.394  18.892  1.00  0.00     0.062 A 
ATOM     17  C   UNL     1      16.044  -2.292  19.062  1.00  0.00     0.158 A 
BRANCH  15  18
ATOM     18  O   UNL     1      18.129  -3.320  19.889  1.00  0.00    -0.504 OA
ATOM     19  H   UNL     1      18.772  -3.996  19.501  1.00  0.00     0.293 HD
ENDBRANCH  15  18
BRANCH  17  20
ATOM     20  O   UNL     1      16.674  -1.135  18.602  1.00  0.00    -0.504 OA
ATOM     21  H   UNL     1      16.267  -0.213  18.650  1.00  0.00     0.293 HD
ENDBRANCH  17  20
ENDBRANCH   1  12
BRANCH   6  22
ATOM     22  O   UNL     1       7.447  -3.207  17.984  1.00  0.00    -0.507 OA
ATOM     23  H   UNL     1       7.706  -2.310  17.602  1.00  0.00     0.293 HD
ENDBRANCH   6  22
BRANCH   8  24
ATOM     24  O   UNL     1       7.996  -7.451  20.124  1.00  0.00    -0.508 OA
ATOM     25  H   UNL     1       7.840  -7.623  21.110  1.00  0.00     0.293 HD
ENDBRANCH   8  24
TORSDOF 5
ENDMDL
MODEL 6
REMARK VINA RESULT:    -5.649      3.182      5.678
REMARK INTER + INTRA:          -6.957
REMARK INTER:                  -6.639
REMARK INTRA:                  -0.318
REMARK UNBOUND:                -0.316
REMARK SMILES O=c1cc(-c2ccc(O)c(O)c2)oc2cc(O)cc(O)c12
REMARK SMILES IDX 4 1 3 2 2 3 1 4 21 5 19 6 18 7 16 8 15 9 14 10 13 11 5 12
REMARK SMILES IDX 6 13 7 14 8 15 12 16 10 17 9 18 11 20 20 22 17 24
REMARK H PARENT 9 19 11 21 20 23 17 25
REMARK Flexibility Score: inf
ROOT
ATOM      1  C   UNL     1      12.356  -3.695  19.314  1.00  0.00     0.138 A 
ATOM      2  C   UNL     1      11.646  -4.817  19.763  1.00  0.00     0.100 A 
ATOM      3  C   UNL     1      10.257  -4.855  19.629  1.00  0.00     0.197 A 
ATOM      4  O   UNL     1       9.655  -5.901  19.985  1.00  0.00    -0.289 OA
ATOM      5  C   UNL     1       9.575  -3.749  19.070  1.00  0.00     0.107 A 
ATOM      6  C   UNL     1       8.158  -3.659  18.922  1.00  0.00     0.134 A 
ATOM      7  C   UNL     1       7.603  -2.565  18.248  1.00  0.00     0.093 A 
ATOM      8  C   UNL     1       8.406  -1.528  17.771  1.00  0.00     0.123 A 
ATOM      9  C   UNL     1       9.788  -1.579  17.959  1.00  0.00     0.094 A 
ATOM     10  C   UNL     1      10.375  -2.675  18.597  1.00  0.00     0.146 A 
ATOM     11  O   UNL     1      11.695  -2.693  18.743  1.00  0.00    -0.456 OA
ENDROOT
BRANCH   1  12
ATOM     12  C   UNL     1      13.833  -3.602  19.433  1.00  0.00     0.021 A 
ATOM     13  C   UNL     1      14.593  -4.630  20.017  1.00  0.00     0.016 A 
ATOM     14  C   UNL     1      15.980  -4.511  20.125  1.00  0.00     0.051 A 
ATOM     15  C   UNL     1      16.638  -3.367  19.663  1.00  0.00     0.157 A 
ATOM     16  C   UNL     1      14.493  -2.446  18.981  1.00  0.00     0.062 A 
ATOM     17  C   UNL     1      15.884  -2.319  19.085  1.00  0.00     0.158 A 
BRANCH  15  18
ATOM     18  O   UNL     1      18.027  -3.312  19.799  1.00  0.00    -0.504 OA
ATOM     19  H   UNL     1      18.672  -3.351  19.023  1.00  0.00     0.293 HD
ENDBRANCH  15  18
BRANCH  17  20
ATOM     20  O   UNL     1      16.468  -1.145  18.605  1.00  0.00    -0.504 OA
ATOM     21  H   UNL     1      16.349  -0.798  17.665  1.00  0.00     0.293 HD
ENDBRANCH  17  20
ENDBRANCH   1  12
BRANCH   6  22
ATOM     22  O   UNL     1       7.258  -4.598  19.434  1.00  0.00    -0.507 OA
ATOM     23  H   UNL     1       6.911  -5.400  18.931  1.00  0.00     0.293 HD
ENDBRANCH   6  22
BRANCH   8  24
ATOM     24  O   UNL     1       7.817  -0.447  17.119  1.00  0.00    -0.508 OA
ATOM     25  H   UNL     1       6.963  -0.552  16.585  1.00  0.00     0.293 HD
ENDBRANCH   8  24
TORSDOF 5
ENDMDL
MODEL 7
REMARK VINA RESULT:    -5.413      2.738      5.912
REMARK INTER + INTRA:          -6.678
REMARK INTER:                  -6.361
REMARK INTRA:                  -0.317
REMARK UNBOUND:                -0.316
REMARK SMILES O=c1cc(-c2ccc(O)c(O)c2)oc2cc(O)cc(O)c12
REMARK SMILES IDX 4 1 3 2 2 3 1 4 21 5 19 6 18 7 16 8 15 9 14 10 13 11 5 12
REMARK SMILES IDX 6 13 7 14 8 15 12 16 10 17 9 18 11 20 20 22 17 24
REMARK H PARENT 9 19 11 21 20 23 17 25
REMARK Flexibility Score: inf
ROOT
ATOM      1  C   UNL     1      11.100  -3.184  19.627  1.00  0.00     0.138 A 
ATOM      2  C   UNL     1      10.249  -2.071  19.615  1.00  0.00     0.100 A 
ATOM      3  C   UNL     1       8.866  -2.258  19.653  1.00  0.00     0.197 A 
ATOM      4  O   UNL     1       8.131  -1.237  19.703  1.00  0.00    -0.289 OA
ATOM      5  C   UNL     1       8.334  -3.569  19.671  1.00  0.00     0.107 A 
ATOM      6  C   UNL     1       6.941  -3.880  19.669  1.00  0.00     0.134 A 
ATOM      7  C   UNL     1       6.532  -5.212  19.807  1.00  0.00     0.093 A 
ATOM      8  C   UNL     1       7.463  -6.248  19.885  1.00  0.00     0.123 A 
ATOM      9  C   UNL     1       8.828  -5.960  19.833  1.00  0.00     0.094 A 
ATOM     10  C   UNL     1       9.267  -4.638  19.731  1.00  0.00     0.146 A 
ATOM     11  O   UNL     1      10.575  -4.403  19.699  1.00  0.00    -0.456 OA
ENDROOT
BRANCH   1  12
ATOM     12  C   UNL     1      12.578  -3.043  19.586  1.00  0.00     0.021 A 
ATOM     13  C   UNL     1      13.194  -1.807  19.328  1.00  0.00     0.016 A 
ATOM     14  C   UNL     1      14.586  -1.705  19.286  1.00  0.00     0.051 A 
ATOM     15  C   UNL     1      15.392  -2.829  19.492  1.00  0.00     0.157 A 
ATOM     16  C   UNL     1      13.387  -4.175  19.779  1.00  0.00     0.062 A 
ATOM     17  C   UNL     1      14.784  -4.083  19.740  1.00  0.00     0.158 A 
BRANCH  15  18
ATOM     18  O   UNL     1      16.777  -2.659  19.439  1.00  0.00    -0.504 OA
ATOM     19  H   UNL     1      17.421  -3.063  20.103  1.00  0.00     0.293 HD
ENDBRANCH  15  18
BRANCH  17  20
ATOM     20  O   UNL     1      15.521  -5.250  19.949  1.00  0.00    -0.504 OA
ATOM     21  H   UNL     1      16.304  -5.533  19.379  1.00  0.00     0.293 HD
ENDBRANCH  17  20
ENDBRANCH   1  12
BRANCH   6  22
ATOM     22  O   UNL     1       5.928  -2.930  19.512  1.00  0.00    -0.507 OA
ATOM     23  H   UNL     1       5.073  -2.905  20.045  1.00  0.00     0.293 HD
ENDBRANCH   6  22
BRANCH   8  24
ATOM     24  O   UNL     1       7.019  -7.563  20.006  1.00  0.00    -0.508 OA
ATOM     25  H   UNL     1       7.362  -8.172  20.739  1.00  0.00     0.293 HD
ENDBRANCH   8  24
TORSDOF 5
ENDMDL
MODEL 8
REMARK VINA RESULT:    -5.371      2.567      4.126
REMARK INTER + INTRA:          -6.629
REMARK INTER:                  -6.337
REMARK INTRA:                  -0.293
REMARK UNBOUND:                -0.316
REMARK SMILES O=c1cc(-c2ccc(O)c(O)c2)oc2cc(O)cc(O)c12
REMARK SMILES IDX 4 1 3 2 2 3 1 4 21 5 19 6 18 7 16 8 15 9 14 10 13 11 5 12
REMARK SMILES IDX 6 13 7 14 8 15 12 16 10 17 9 18 11 20 20 22 17 24
REMARK H PARENT 9 19 11 21 20 23 17 25
REMARK Flexibility Score: inf
ROOT
ATOM      1  C   UNL     1      10.543  -2.266  18.982  1.00  0.00     0.138 A 
ATOM      2  C   UNL     1       9.383  -2.828  18.432  1.00  0.00     0.100 A 
ATOM      3  C   UNL     1       8.250  -2.034  18.250  1.00  0.00     0.197 A 
ATOM      4  O   UNL     1       7.245  -2.552  17.697  1.00  0.00    -0.289 OA
ATOM      5  C   UNL     1       8.271  -0.677  18.652  1.00  0.00     0.107 A 
ATOM      6  C   UNL     1       7.162   0.216  18.553  1.00  0.00     0.134 A 
ATOM      7  C   UNL     1       7.335   1.568  18.873  1.00  0.00     0.093 A 
ATOM      8  C   UNL     1       8.557   2.047  19.346  1.00  0.00     0.123 A 
ATOM      9  C   UNL     1       9.633   1.171  19.498  1.00  0.00     0.094 A 
ATOM     10  C   UNL     1       9.501  -0.177  19.154  1.00  0.00     0.146 A 
ATOM     11  O   UNL     1      10.554  -0.976  19.300  1.00  0.00    -0.456 OA
ENDROOT
BRANCH   1  12
ATOM     12  C   UNL     1      11.776  -3.066  19.198  1.00  0.00     0.021 A 
ATOM     13  C   UNL     1      11.738  -4.332  19.806  1.00  0.00     0.016 A 
ATOM     14  C   UNL     1      12.914  -5.057  20.005  1.00  0.00     0.051 A 
ATOM     15  C   UNL     1      14.150  -4.537  19.612  1.00  0.00     0.157 A 
ATOM     16  C   UNL     1      13.021  -2.537  18.815  1.00  0.00     0.062 A 
ATOM     17  C   UNL     1      14.205  -3.257  19.010  1.00  0.00     0.158 A 
BRANCH  15  18
ATOM     18  O   UNL     1      15.288  -5.315  19.838  1.00  0.00    -0.504 OA
ATOM     19  H   UNL     1      16.131  -4.969  20.274  1.00  0.00     0.293 HD
ENDBRANCH  15  18
BRANCH  17  20
ATOM     20  O   UNL     1      15.402  -2.670  18.596  1.00  0.00    -0.504 OA
ATOM     21  H   UNL     1      15.790  -2.771  17.669  1.00  0.00     0.293 HD
ENDBRANCH  17  20
ENDBRANCH   1  12
BRANCH   6  22
ATOM     22  O   UNL     1       5.875  -0.175  18.172  1.00  0.00    -0.507 OA
ATOM     23  H   UNL     1       5.316   0.286  17.470  1.00  0.00     0.293 HD
ENDBRANCH   6  22
BRANCH   8  24
ATOM     24  O   UNL     1       8.688   3.395  19.670  1.00  0.00    -0.508 OA
ATOM     25  H   UNL     1       8.869   4.095  18.960  1.00  0.00     0.293 HD
ENDBRANCH   8  24
TORSDOF 5
ENDMDL
MODEL 9
REMARK VINA RESULT:    -5.278      2.815      7.221
REMARK INTER + INTRA:          -6.521
REMARK INTER:                  -6.236
REMARK INTRA:                  -0.285
REMARK UNBOUND:                -0.316
REMARK SMILES O=c1cc(-c2ccc(O)c(O)c2)oc2cc(O)cc(O)c12
REMARK SMILES IDX 4 1 3 2 2 3 1 4 21 5 19 6 18 7 16 8 15 9 14 10 13 11 5 12
REMARK SMILES IDX 6 13 7 14 8 15 12 16 10 17 9 18 11 20 20 22 17 24
REMARK H PARENT 9 19 11 21 20 23 17 25
REMARK Flexibility Score: inf
ROOT
ATOM      1  C   UNL     1      11.432  -1.675  19.340  1.00  0.00     0.138 A 
ATOM      2  C   UNL     1      10.876  -2.957  19.441  1.00  0.00     0.100 A 
ATOM      3  C   UNL     1      11.711  -4.059  19.635  1.00  0.00     0.197 A 
ATOM      4  O   UNL     1      11.177  -5.189  19.784  1.00  0.00    -0.289 OA
ATOM      5  C   UNL     1      13.112  -3.877  19.697  1.00  0.00     0.107 A 
ATOM      6  C   UNL     1      14.062  -4.931  19.851  1.00  0.00     0.134 A 
ATOM      7  C   UNL     1      15.417  -4.619  20.016  1.00  0.00     0.093 A 
ATOM      8  C   UNL     1      15.865  -3.299  19.972  1.00  0.00     0.123 A 
ATOM      9  C   UNL     1      14.951  -2.263  19.768  1.00  0.00     0.094 A 
ATOM     10  C   UNL     1      13.588  -2.540  19.634  1.00  0.00     0.146 A 
ATOM     11  O   UNL     1      12.748  -1.525  19.456  1.00  0.00    -0.456 OA
ENDROOT
BRANCH   1  12
ATOM     12  C   UNL     1      10.591  -0.469  19.132  1.00  0.00     0.021 A 
ATOM     13  C   UNL     1      10.944   0.779  19.672  1.00  0.00     0.016 A 
ATOM     14  C   UNL     1      10.129   1.895  19.469  1.00  0.00     0.051 A 
ATOM     15  C   UNL     1       8.945   1.790  18.732  1.00  0.00     0.157 A 
ATOM     16  C   UNL     1       9.395  -0.576  18.402  1.00  0.00     0.062 A 
ATOM     17  C   UNL     1       8.572   0.537  18.193  1.00  0.00     0.158 A 
BRANCH  15  18
ATOM     18  O   UNL     1       8.177   2.944  18.563  1.00  0.00    -0.504 OA
ATOM     19  H   UNL     1       7.836   3.512  19.325  1.00  0.00     0.293 HD
ENDBRANCH  15  18
BRANCH  17  20
ATOM     20  O   UNL     1       7.403   0.353  17.450  1.00  0.00    -0.504 OA
ATOM     21  H   UNL     1       6.750  -0.401  17.603  1.00  0.00     0.293 HD
ENDBRANCH  17  20
ENDBRANCH   1  12
BRANCH   6  22
ATOM     22  O   UNL     1      13.734  -6.289  19.824  1.00  0.00    -0.507 OA
ATOM     23  H   UNL     1      13.077  -6.736  20.445  1.00  0.00     0.293 HD
ENDBRANCH   6  22
BRANCH   8  24
ATOM     24  O   UNL     1      17.222  -3.027  20.125  1.00  0.00    -0.508 OA
ATOM     25  H   UNL     1      17.731  -3.319  20.951  1.00  0.00     0.293 HD
ENDBRANCH   8  24
TORSDOF 5
ENDMDL
