MODEL 1
REMARK VINA RESULT:    -2.306      0.000      0.000
REMARK INTER + INTRA:          -8.161
REMARK INTER:                  -5.272
REMARK INTRA:                  -2.890
REMARK UNBOUND:                -2.890
REMARK SMILES CCCCCCCCCCCCCCCCCCCCCCCC(=O)[O-]
REMARK SMILES IDX 13 1 14 2 15 3 16 4 17 5 18 6 19 7 20 8 21 9 22 10 23 11
REMARK SMILES IDX 24 12 25 13 26 14 12 15 11 16 10 17 9 18 8 19 7 20 6 21 5 22
REMARK SMILES IDX 4 23 3 24 2 25 1 26
REMARK H PARENT
REMARK Flexibility Score: inf
ROOT
ATOM      1  C   UNL     1       6.051 -36.438  25.454  1.00  0.00     0.000 C 
ENDROOT
BRANCH   1   2
ATOM      2  C   UNL     1       6.125 -35.006  24.899  1.00  0.00     0.000 C 
BRANCH   2   3
ATOM      3  C   UNL     1       5.924 -35.002  23.376  1.00  0.00     0.000 C 
BRANCH   3   4
ATOM      4  C   UNL     1       5.369 -33.667  22.847  1.00  0.00     0.000 C 
BRANCH   4   5
ATOM      5  C   UNL     1       4.029 -33.770  22.088  1.00  0.00     0.000 C 
BRANCH   5   6
ATOM      6  C   UNL     1       4.150 -33.877  20.557  1.00  0.00     0.000 C 
BRANCH   6   7
ATOM      7  C   UNL     1       5.606 -33.986  20.080  1.00  0.00     0.000 C 
BRANCH   7   8
ATOM      8  C   UNL     1       5.673 -34.390  18.602  1.00  0.00     0.000 C 
BRANCH   8   9
ATOM      9  C   UNL     1       4.280 -34.358  17.958  1.00  0.00     0.000 C 
BRANCH   9  10
ATOM     10  C   UNL     1       3.982 -35.601  17.099  1.00  0.00     0.006 C 
BRANCH  10  11
ATOM     11  C   UNL     1       2.645 -35.532  16.342  1.00  0.00     0.053 C 
BRANCH  11  12
ATOM     12  C   UNL     1       2.596 -36.465  15.171  1.00  0.00     0.041 C 
ATOM     13  O   UNL     1       1.606 -36.454  14.391  1.00  0.00    -0.550 OA
ATOM     14  O   UNL     1       3.646 -37.343  14.935  1.00  0.00    -0.550 OA
ENDBRANCH  11  12
ENDBRANCH  10  11
ENDBRANCH   9  10
ENDBRANCH   8   9
ENDBRANCH   7   8
ENDBRANCH   6   7
ENDBRANCH   5   6
ENDBRANCH   4   5
ENDBRANCH   3   4
ENDBRANCH   2   3
ENDBRANCH   1   2
BRANCH   1  15
ATOM     15  C   UNL     1       4.628 -36.832  25.881  1.00  0.00     0.000 C 
BRANCH  15  16
ATOM     16  C   UNL     1       4.278 -38.282  25.509  1.00  0.00     0.000 C 
BRANCH  16  17
ATOM     17  C   UNL     1       3.884 -38.441  24.029  1.00  0.00     0.000 C 
BRANCH  17  18
ATOM     18  C   UNL     1       4.617 -39.592  23.311  1.00  0.00    -0.000 C 
BRANCH  18  19
ATOM     19  C   UNL     1       5.549 -39.089  22.194  1.00  0.00    -0.000 C 
BRANCH  19  20
ATOM     20  C   UNL     1       5.087 -37.751  21.585  1.00  0.00    -0.000 C 
BRANCH  20  21
ATOM     21  C   UNL     1       5.491 -37.534  20.114  1.00  0.00    -0.000 C 
BRANCH  21  22
ATOM     22  C   UNL     1       4.331 -37.776  19.134  1.00  0.00    -0.000 C 
BRANCH  22  23
ATOM     23  C   UNL     1       2.975 -37.692  19.851  1.00  0.00    -0.000 C 
BRANCH  23  24
ATOM     24  C   UNL     1       1.805 -38.174  18.977  1.00  0.00    -0.000 C 
BRANCH  24  25
ATOM     25  C   UNL     1       0.534 -37.309  19.109  1.00  0.00    -0.003 C 
ATOM     26  C   UNL     1      -0.374 -37.420  17.883  1.00  0.00     0.004 C 
ENDBRANCH  24  25
ENDBRANCH  23  24
ENDBRANCH  22  23
ENDBRANCH  21  22
ENDBRANCH  20  21
ENDBRANCH  19  20
ENDBRANCH  18  19
ENDBRANCH  17  18
ENDBRANCH  16  17
ENDBRANCH  15  16
ENDBRANCH   1  15
TORSDOF 22
ENDMDL
MODEL 2
REMARK VINA RESULT:    -2.277      1.631      4.823
REMARK INTER + INTRA:          -8.096
REMARK INTER:                  -6.646
REMARK INTRA:                  -1.450
REMARK UNBOUND:                -2.890
REMARK SMILES CCCCCCCCCCCCCCCCCCCCCCCC(=O)[O-]
REMARK SMILES IDX 13 1 14 2 15 3 16 4 17 5 18 6 19 7 20 8 21 9 22 10 23 11
REMARK SMILES IDX 24 12 25 13 26 14 12 15 11 16 10 17 9 18 8 19 7 20 6 21 5 22
REMARK SMILES IDX 4 23 3 24 2 25 1 26
REMARK H PARENT
REMARK Flexibility Score: inf
ROOT
ATOM      1  C   UNL     1       6.125 -35.394  23.167  1.00  0.00     0.000 C 
ENDROOT
BRANCH   1   2
ATOM      2  C   UNL     1       6.056 -35.540  24.696  1.00  0.00     0.000 C 
BRANCH   2   3
ATOM      3  C   UNL     1       4.873 -36.429  25.105  1.00  0.00     0.000 C 
BRANCH   3   4
ATOM      4  C   UNL     1       4.997 -37.872  24.581  1.00  0.00     0.000 C 
BRANCH   4   5
ATOM      5  C   UNL     1       4.171 -38.181  23.315  1.00  0.00     0.000 C 
BRANCH   5   6
ATOM      6  C   UNL     1       4.413 -39.572  22.698  1.00  0.00     0.000 C 
BRANCH   6   7
ATOM      7  C   UNL     1       5.802 -39.705  22.055  1.00  0.00     0.000 C 
BRANCH   7   8
ATOM      8  C   UNL     1       5.912 -38.833  20.797  1.00  0.00     0.000 C 
BRANCH   8   9
ATOM      9  C   UNL     1       4.839 -37.737  20.791  1.00  0.00     0.000 C 
BRANCH   9  10
ATOM     10  C   UNL     1       3.868 -37.848  19.600  1.00  0.00     0.006 C 
BRANCH  10  11
ATOM     11  C   UNL     1       2.440 -37.369  19.910  1.00  0.00     0.053 C 
BRANCH  11  12
ATOM     12  C   UNL     1       1.472 -37.690  18.813  1.00  0.00     0.041 C 
ATOM     13  O   UNL     1       1.866 -38.277  17.770  1.00  0.00    -0.550 OA
ATOM     14  O   UNL     1       0.132 -37.348  18.943  1.00  0.00    -0.550 OA
ENDBRANCH  11  12
ENDBRANCH  10  11
ENDBRANCH   9  10
ENDBRANCH   8   9
ENDBRANCH   7   8
ENDBRANCH   6   7
ENDBRANCH   5   6
ENDBRANCH   4   5
ENDBRANCH   3   4
ENDBRANCH   2   3
ENDBRANCH   1   2
BRANCH   1  15
ATOM     15  C   UNL     1       5.910 -33.944  22.704  1.00  0.00     0.000 C 
BRANCH  15  16
ATOM     16  C   UNL     1       4.462 -33.669  22.269  1.00  0.00     0.000 C 
BRANCH  16  17
ATOM     17  C   UNL     1       4.190 -34.072  20.808  1.00  0.00     0.000 C 
BRANCH  17  18
ATOM     18  C   UNL     1       5.454 -34.494  20.033  1.00  0.00    -0.000 C 
BRANCH  18  19
ATOM     19  C   UNL     1       5.294 -34.324  18.511  1.00  0.00    -0.000 C 
BRANCH  19  20
ATOM     20  C   UNL     1       3.868 -34.637  18.020  1.00  0.00    -0.000 C 
BRANCH  20  21
ATOM     21  C   UNL     1       3.791 -35.294  16.629  1.00  0.00    -0.000 C 
BRANCH  21  22
ATOM     22  C   UNL     1       2.356 -35.669  16.223  1.00  0.00    -0.000 C 
BRANCH  22  23
ATOM     23  C   UNL     1       2.344 -36.476  14.917  1.00  0.00    -0.000 C 
BRANCH  23  24
ATOM     24  C   UNL     1       3.716 -37.078  14.571  1.00  0.00    -0.000 C 
BRANCH  24  25
ATOM     25  C   UNL     1       3.768 -38.616  14.691  1.00  0.00    -0.003 C 
ATOM     26  C   UNL     1       4.910 -39.225  13.875  1.00  0.00     0.004 C 
ENDBRANCH  24  25
ENDBRANCH  23  24
ENDBRANCH  22  23
ENDBRANCH  21  22
ENDBRANCH  20  21
ENDBRANCH  19  20
ENDBRANCH  18  19
ENDBRANCH  17  18
ENDBRANCH  16  17
ENDBRANCH  15  16
ENDBRANCH   1  15
TORSDOF 22
ENDMDL
MODEL 3
REMARK VINA RESULT:    -1.589      2.420      5.982
REMARK INTER + INTRA:          -6.524
REMARK INTER:                  -5.811
REMARK INTRA:                  -0.713
REMARK UNBOUND:                -2.890
REMARK SMILES CCCCCCCCCCCCCCCCCCCCCCCC(=O)[O-]
REMARK SMILES IDX 13 1 14 2 15 3 16 4 17 5 18 6 19 7 20 8 21 9 22 10 23 11
REMARK SMILES IDX 24 12 25 13 26 14 12 15 11 16 10 17 9 18 8 19 7 20 6 21 5 22
REMARK SMILES IDX 4 23 3 24 2 25 1 26
REMARK H PARENT
REMARK Flexibility Score: inf
ROOT
ATOM      1  C   UNL     1       4.493 -34.187  19.876  1.00  0.00     0.000 C 
ENDROOT
BRANCH   1   2
ATOM      2  C   UNL     1       3.964 -33.221  20.948  1.00  0.00     0.000 C 
BRANCH   2   3
ATOM      3  C   UNL     1       4.243 -33.765  22.356  1.00  0.00     0.000 C 
BRANCH   3   4
ATOM      4  C   UNL     1       5.487 -33.135  23.008  1.00  0.00     0.000 C 
BRANCH   4   5
ATOM      5  C   UNL     1       6.124 -33.966  24.141  1.00  0.00     0.000 C 
BRANCH   5   6
ATOM      6  C   UNL     1       6.122 -35.490  23.917  1.00  0.00     0.000 C 
BRANCH   6   7
ATOM      7  C   UNL     1       5.930 -36.284  25.218  1.00  0.00     0.000 C 
BRANCH   7   8
ATOM      8  C   UNL     1       4.441 -36.508  25.511  1.00  0.00     0.000 C 
BRANCH   8   9
ATOM      9  C   UNL     1       4.115 -38.006  25.594  1.00  0.00     0.000 C 
BRANCH   9  10
ATOM     10  C   UNL     1       5.158 -38.892  24.887  1.00  0.00     0.006 C 
BRANCH  10  11
ATOM     11  C   UNL     1       4.634 -39.584  23.618  1.00  0.00     0.053 C 
BRANCH  11  12
ATOM     12  C   UNL     1       5.034 -38.868  22.364  1.00  0.00     0.041 C 
ATOM     13  O   UNL     1       4.769 -37.645  22.218  1.00  0.00    -0.550 OA
ATOM     14  O   UNL     1       5.705 -39.549  21.357  1.00  0.00    -0.550 OA
ENDBRANCH  11  12
ENDBRANCH  10  11
ENDBRANCH   9  10
ENDBRANCH   8   9
ENDBRANCH   7   8
ENDBRANCH   6   7
ENDBRANCH   5   6
ENDBRANCH   4   5
ENDBRANCH   3   4
ENDBRANCH   2   3
ENDBRANCH   1   2
BRANCH   1  15
ATOM     15  C   UNL     1       5.323 -35.334  20.474  1.00  0.00     0.000 C 
BRANCH  15  16
ATOM     16  C   UNL     1       5.491 -36.514  19.503  1.00  0.00     0.000 C 
BRANCH  16  17
ATOM     17  C   UNL     1       4.206 -36.830  18.717  1.00  0.00     0.000 C 
BRANCH  17  18
ATOM     18  C   UNL     1       3.305 -37.882  19.393  1.00  0.00    -0.000 C 
BRANCH  18  19
ATOM     19  C   UNL     1       1.840 -37.422  19.501  1.00  0.00    -0.000 C 
BRANCH  19  20
ATOM     20  C   UNL     1       0.969 -37.919  18.331  1.00  0.00    -0.000 C 
BRANCH  20  21
ATOM     21  C   UNL     1       0.847 -36.938  17.150  1.00  0.00    -0.000 C 
BRANCH  21  22
ATOM     22  C   UNL     1       2.180 -36.719  16.415  1.00  0.00    -0.000 C 
BRANCH  22  23
ATOM     23  C   UNL     1       1.953 -36.070  15.041  1.00  0.00    -0.000 C 
BRANCH  23  24
ATOM     24  C   UNL     1       2.598 -36.862  13.891  1.00  0.00    -0.000 C 
BRANCH  24  25
ATOM     25  C   UNL     1       4.068 -37.254  14.155  1.00  0.00    -0.003 C 
ATOM     26  C   UNL     1       4.242 -38.762  14.345  1.00  0.00     0.004 C 
ENDBRANCH  24  25
ENDBRANCH  23  24
ENDBRANCH  22  23
ENDBRANCH  21  22
ENDBRANCH  20  21
ENDBRANCH  19  20
ENDBRANCH  18  19
ENDBRANCH  17  18
ENDBRANCH  16  17
ENDBRANCH  15  16
ENDBRANCH   1  15
TORSDOF 22
ENDMDL
MODEL 4
REMARK VINA RESULT:    -1.503      1.244      4.178
REMARK INTER + INTRA:          -6.325
REMARK INTER:                  -4.164
REMARK INTRA:                  -2.162
REMARK UNBOUND:                -2.890
REMARK SMILES CCCCCCCCCCCCCCCCCCCCCCCC(=O)[O-]
REMARK SMILES IDX 13 1 14 2 15 3 16 4 17 5 18 6 19 7 20 8 21 9 22 10 23 11
REMARK SMILES IDX 24 12 25 13 26 14 12 15 11 16 10 17 9 18 8 19 7 20 6 21 5 22
REMARK SMILES IDX 4 23 3 24 2 25 1 26
REMARK H PARENT
REMARK Flexibility Score: inf
ROOT
ATOM      1  C   UNL     1       4.620 -39.085  22.493  1.00  0.00     0.000 C 
ENDROOT
BRANCH   1   2
ATOM      2  C   UNL     1       5.777 -39.661  21.660  1.00  0.00     0.000 C 
BRANCH   2   3
ATOM      3  C   UNL     1       5.779 -39.064  20.246  1.00  0.00     0.000 C 
BRANCH   3   4
ATOM      4  C   UNL     1       5.263 -37.614  20.205  1.00  0.00     0.000 C 
BRANCH   4   5
ATOM      5  C   UNL     1       4.259 -37.309  19.074  1.00  0.00     0.000 C 
BRANCH   5   6
ATOM      6  C   UNL     1       3.145 -38.356  18.886  1.00  0.00     0.000 C 
BRANCH   6   7
ATOM      7  C   UNL     1       1.746 -37.730  18.799  1.00  0.00     0.000 C 
BRANCH   7   8
ATOM      8  C   UNL     1       1.772 -36.434  17.978  1.00  0.00     0.000 C 
BRANCH   8   9
ATOM      9  C   UNL     1       1.554 -36.723  16.487  1.00  0.00     0.000 C 
BRANCH   9  10
ATOM     10  C   UNL     1       2.508 -35.932  15.572  1.00  0.00     0.006 C 
BRANCH  10  11
ATOM     11  C   UNL     1       2.727 -36.574  14.192  1.00  0.00     0.053 C 
BRANCH  11  12
ATOM     12  C   UNL     1       3.921 -37.477  14.158  1.00  0.00     0.041 C 
ATOM     13  O   UNL     1       5.060 -37.015  13.881  1.00  0.00    -0.550 OA
ATOM     14  O   UNL     1       3.780 -38.830  14.440  1.00  0.00    -0.550 OA
ENDBRANCH  11  12
ENDBRANCH  10  11
ENDBRANCH   9  10
ENDBRANCH   8   9
ENDBRANCH   7   8
ENDBRANCH   6   7
ENDBRANCH   5   6
ENDBRANCH   4   5
ENDBRANCH   3   4
ENDBRANCH   2   3
ENDBRANCH   1   2
BRANCH   1  15
ATOM     15  C   UNL     1       4.980 -38.941  23.980  1.00  0.00     0.000 C 
BRANCH  15  16
ATOM     16  C   UNL     1       3.780 -38.516  24.842  1.00  0.00     0.000 C 
BRANCH  16  17
ATOM     17  C   UNL     1       4.187 -37.659  26.054  1.00  0.00     0.000 C 
BRANCH  17  18
ATOM     18  C   UNL     1       4.771 -36.283  25.676  1.00  0.00    -0.000 C 
BRANCH  18  19
ATOM     19  C   UNL     1       6.125 -36.398  24.953  1.00  0.00    -0.000 C 
BRANCH  19  20
ATOM     20  C   UNL     1       6.123 -35.721  23.568  1.00  0.00    -0.000 C 
BRANCH  20  21
ATOM     21  C   UNL     1       4.997 -34.693  23.350  1.00  0.00    -0.000 C 
BRANCH  21  22
ATOM     22  C   UNL     1       4.089 -35.044  22.161  1.00  0.00    -0.000 C 
BRANCH  22  23
ATOM     23  C   UNL     1       3.449 -33.783  21.562  1.00  0.00    -0.000 C 
BRANCH  23  24
ATOM     24  C   UNL     1       4.292 -33.161  20.435  1.00  0.00    -0.000 C 
BRANCH  24  25
ATOM     25  C   UNL     1       5.187 -34.178  19.695  1.00  0.00    -0.003 C 
ATOM     26  C   UNL     1       5.063 -34.064  18.175  1.00  0.00     0.004 C 
ENDBRANCH  24  25
ENDBRANCH  23  24
ENDBRANCH  22  23
ENDBRANCH  21  22
ENDBRANCH  20  21
ENDBRANCH  19  20
ENDBRANCH  18  19
ENDBRANCH  17  18
ENDBRANCH  16  17
ENDBRANCH  15  16
ENDBRANCH   1  15
TORSDOF 22
ENDMDL
MODEL 5
REMARK VINA RESULT:    -1.374      2.448      5.987
REMARK INTER + INTRA:          -6.031
REMARK INTER:                  -4.414
REMARK INTRA:                  -1.617
REMARK UNBOUND:                -2.890
REMARK SMILES CCCCCCCCCCCCCCCCCCCCCCCC(=O)[O-]
REMARK SMILES IDX 13 1 14 2 15 3 16 4 17 5 18 6 19 7 20 8 21 9 22 10 23 11
REMARK SMILES IDX 24 12 25 13 26 14 12 15 11 16 10 17 9 18 8 19 7 20 6 21 5 22
REMARK SMILES IDX 4 23 3 24 2 25 1 26
REMARK H PARENT
REMARK Flexibility Score: inf
ROOT
ATOM      1  C   UNL     1       5.791 -38.044  20.997  1.00  0.00     0.000 C 
ENDROOT
BRANCH   1   2
ATOM      2  C   UNL     1       5.398 -39.485  21.357  1.00  0.00     0.000 C 
BRANCH   2   3
ATOM      3  C   UNL     1       4.366 -39.500  22.495  1.00  0.00     0.000 C 
BRANCH   3   4
ATOM      4  C   UNL     1       4.964 -39.086  23.852  1.00  0.00     0.000 C 
BRANCH   4   5
ATOM      5  C   UNL     1       3.942 -38.570  24.887  1.00  0.00     0.000 C 
BRANCH   5   6
ATOM      6  C   UNL     1       4.286 -37.212  25.527  1.00  0.00     0.000 C 
BRANCH   6   7
ATOM      7  C   UNL     1       5.798 -36.949  25.588  1.00  0.00     0.000 C 
BRANCH   7   8
ATOM      8  C   UNL     1       6.124 -35.510  25.168  1.00  0.00     0.000 C 
BRANCH   8   9
ATOM      9  C   UNL     1       5.933 -35.320  23.657  1.00  0.00     0.000 C 
BRANCH   9  10
ATOM     10  C   UNL     1       5.263 -33.981  23.295  1.00  0.00     0.006 C 
BRANCH  10  11
ATOM     11  C   UNL     1       5.569 -33.493  21.870  1.00  0.00     0.053 C 
BRANCH  11  12
ATOM     12  C   UNL     1       4.365 -33.520  20.979  1.00  0.00     0.041 C 
ATOM     13  O   UNL     1       4.488 -33.781  19.752  1.00  0.00    -0.550 OA
ATOM     14  O   UNL     1       3.105 -33.265  21.503  1.00  0.00    -0.550 OA
ENDBRANCH  11  12
ENDBRANCH  10  11
ENDBRANCH   9  10
ENDBRANCH   8   9
ENDBRANCH   7   8
ENDBRANCH   6   7
ENDBRANCH   5   6
ENDBRANCH   4   5
ENDBRANCH   3   4
ENDBRANCH   2   3
ENDBRANCH   1   2
BRANCH   1  15
ATOM     15  C   UNL     1       4.743 -37.016  21.451  1.00  0.00     0.000 C 
BRANCH  15  16
ATOM     16  C   UNL     1       3.494 -37.006  20.554  1.00  0.00     0.000 C 
BRANCH  16  17
ATOM     17  C   UNL     1       3.836 -37.000  19.053  1.00  0.00     0.000 C 
BRANCH  17  18
ATOM     18  C   UNL     1       2.880 -37.853  18.194  1.00  0.00    -0.000 C 
BRANCH  18  19
ATOM     19  C   UNL     1       1.492 -37.206  18.041  1.00  0.00    -0.000 C 
BRANCH  19  20
ATOM     20  C   UNL     1       1.255 -36.622  16.635  1.00  0.00    -0.000 C 
BRANCH  20  21
ATOM     21  C   UNL     1       2.509 -36.040  15.954  1.00  0.00    -0.000 C 
BRANCH  21  22
ATOM     22  C   UNL     1       2.696 -36.545  14.515  1.00  0.00    -0.000 C 
BRANCH  22  23
ATOM     23  C   UNL     1       4.141 -36.330  14.037  1.00  0.00    -0.000 C 
BRANCH  23  24
ATOM     24  C   UNL     1       4.931 -37.643  13.908  1.00  0.00    -0.000 C 
BRANCH  24  25
ATOM     25  C   UNL     1       4.063 -38.909  14.068  1.00  0.00    -0.003 C 
ATOM     26  C   UNL     1       4.903 -40.187  14.116  1.00  0.00     0.004 C 
ENDBRANCH  24  25
ENDBRANCH  23  24
ENDBRANCH  22  23
ENDBRANCH  21  22
ENDBRANCH  20  21
ENDBRANCH  19  20
ENDBRANCH  18  19
ENDBRANCH  17  18
ENDBRANCH  16  17
ENDBRANCH  15  16
ENDBRANCH   1  15
TORSDOF 22
ENDMDL
MODEL 6
REMARK VINA RESULT:    -1.371      1.077      2.243
REMARK INTER + INTRA:          -6.023
REMARK INTER:                  -4.847
REMARK INTRA:                  -1.176
REMARK UNBOUND:                -2.890
REMARK SMILES CCCCCCCCCCCCCCCCCCCCCCCC(=O)[O-]
REMARK SMILES IDX 13 1 14 2 15 3 16 4 17 5 18 6 19 7 20 8 21 9 22 10 23 11
REMARK SMILES IDX 24 12 25 13 26 14 12 15 11 16 10 17 9 18 8 19 7 20 6 21 5 22
REMARK SMILES IDX 4 23 3 24 2 25 1 26
REMARK H PARENT
REMARK Flexibility Score: inf
ROOT
ATOM      1  C   UNL     1       6.111 -34.915  22.564  1.00  0.00     0.000 C 
ENDROOT
BRANCH   1   2
ATOM      2  C   UNL     1       5.163 -33.784  22.992  1.00  0.00     0.000 C 
BRANCH   2   3
ATOM      3  C   UNL     1       3.748 -34.021  22.444  1.00  0.00     0.000 C 
BRANCH   3   4
ATOM      4  C   UNL     1       3.745 -34.506  20.983  1.00  0.00     0.000 C 
BRANCH   4   5
ATOM      5  C   UNL     1       4.566 -33.640  20.004  1.00  0.00     0.000 C 
BRANCH   5   6
ATOM      6  C   UNL     1       5.483 -34.424  19.047  1.00  0.00     0.000 C 
BRANCH   6   7
ATOM      7  C   UNL     1       4.981 -34.409  17.595  1.00  0.00     0.000 C 
BRANCH   7   8
ATOM      8  C   UNL     1       3.517 -34.859  17.514  1.00  0.00     0.000 C 
BRANCH   8   9
ATOM      9  C   UNL     1       3.370 -36.099  16.620  1.00  0.00     0.000 C 
BRANCH   9  10
ATOM     10  C   UNL     1       2.358 -35.903  15.476  1.00  0.00     0.006 C 
BRANCH  10  11
ATOM     11  C   UNL     1       2.440 -36.976  14.377  1.00  0.00     0.053 C 
BRANCH  11  12
ATOM     12  C   UNL     1       3.840 -37.455  14.143  1.00  0.00     0.041 C 
ATOM     13  O   UNL     1       4.085 -38.689  14.064  1.00  0.00    -0.550 OA
ATOM     14  O   UNL     1       4.876 -36.540  14.004  1.00  0.00    -0.550 OA
ENDBRANCH  11  12
ENDBRANCH  10  11
ENDBRANCH   9  10
ENDBRANCH   8   9
ENDBRANCH   7   8
ENDBRANCH   6   7
ENDBRANCH   5   6
ENDBRANCH   4   5
ENDBRANCH   3   4
ENDBRANCH   2   3
ENDBRANCH   1   2
BRANCH   1  15
ATOM     15  C   UNL     1       6.113 -36.089  23.555  1.00  0.00     0.000 C 
BRANCH  15  16
ATOM     16  C   UNL     1       5.507 -35.715  24.918  1.00  0.00     0.000 C 
BRANCH  16  17
ATOM     17  C   UNL     1       4.819 -36.904  25.613  1.00  0.00     0.000 C 
BRANCH  17  18
ATOM     18  C   UNL     1       4.926 -38.229  24.832  1.00  0.00    -0.000 C 
BRANCH  18  19
ATOM     19  C   UNL     1       3.970 -38.281  23.627  1.00  0.00    -0.000 C 
BRANCH  19  20
ATOM     20  C   UNL     1       4.512 -39.140  22.468  1.00  0.00    -0.000 C 
BRANCH  20  21
ATOM     21  C   UNL     1       5.572 -38.448  21.589  1.00  0.00    -0.000 C 
BRANCH  21  22
ATOM     22  C   UNL     1       5.143 -38.330  20.118  1.00  0.00    -0.000 C 
BRANCH  22  23
ATOM     23  C   UNL     1       3.938 -37.389  19.968  1.00  0.00    -0.000 C 
BRANCH  23  24
ATOM     24  C   UNL     1       2.878 -37.924  18.991  1.00  0.00    -0.000 C 
BRANCH  24  25
ATOM     25  C   UNL     1       1.426 -37.685  19.457  1.00  0.00    -0.003 C 
ATOM     26  C   UNL     1       0.418 -37.825  18.314  1.00  0.00     0.004 C 
ENDBRANCH  24  25
ENDBRANCH  23  24
ENDBRANCH  22  23
ENDBRANCH  21  22
ENDBRANCH  20  21
ENDBRANCH  19  20
ENDBRANCH  18  19
ENDBRANCH  17  18
ENDBRANCH  16  17
ENDBRANCH  15  16
ENDBRANCH   1  15
TORSDOF 22
ENDMDL
MODEL 7
REMARK VINA RESULT:    -1.141      1.278      5.185
REMARK INTER + INTRA:          -5.498
REMARK INTER:                  -3.841
REMARK INTRA:                  -1.657
REMARK UNBOUND:                -2.890
REMARK SMILES CCCCCCCCCCCCCCCCCCCCCCCC(=O)[O-]
REMARK SMILES IDX 13 1 14 2 15 3 16 4 17 5 18 6 19 7 20 8 21 9 22 10 23 11
REMARK SMILES IDX 24 12 25 13 26 14 12 15 11 16 10 17 9 18 8 19 7 20 6 21 5 22
REMARK SMILES IDX 4 23 3 24 2 25 1 26
REMARK H PARENT
REMARK Flexibility Score: inf
ROOT
ATOM      1  C   UNL     1       5.700 -37.142  19.678  1.00  0.00     0.000 C 
ENDROOT
BRANCH   1   2
ATOM      2  C   UNL     1       4.645 -38.236  19.913  1.00  0.00     0.000 C 
BRANCH   2   3
ATOM      3  C   UNL     1       3.583 -37.761  20.916  1.00  0.00     0.000 C 
BRANCH   3   4
ATOM      4  C   UNL     1       2.273 -37.320  20.238  1.00  0.00     0.000 C 
BRANCH   4   5
ATOM      5  C   UNL     1       1.950 -38.035  18.910  1.00  0.00     0.000 C 
BRANCH   5   6
ATOM      6  C   UNL     1       1.829 -37.114  17.682  1.00  0.00     0.000 C 
BRANCH   6   7
ATOM      7  C   UNL     1       3.008 -36.138  17.550  1.00  0.00     0.000 C 
BRANCH   7   8
ATOM      8  C   UNL     1       3.005 -35.452  16.178  1.00  0.00     0.000 C 
BRANCH   8   9
ATOM      9  C   UNL     1       1.982 -36.104  15.238  1.00  0.00     0.000 C 
BRANCH   9  10
ATOM     10  C   UNL     1       2.584 -36.517  13.882  1.00  0.00     0.006 C 
BRANCH  10  11
ATOM     11  C   UNL     1       4.023 -37.051  13.973  1.00  0.00     0.053 C 
BRANCH  11  12
ATOM     12  C   UNL     1       4.089 -38.442  14.526  1.00  0.00     0.041 C 
ATOM     13  O   UNL     1       3.457 -38.739  15.574  1.00  0.00    -0.550 OA
ATOM     14  O   UNL     1       4.843 -39.413  13.880  1.00  0.00    -0.550 OA
ENDBRANCH  11  12
ENDBRANCH  10  11
ENDBRANCH   9  10
ENDBRANCH   8   9
ENDBRANCH   7   8
ENDBRANCH   6   7
ENDBRANCH   5   6
ENDBRANCH   4   5
ENDBRANCH   3   4
ENDBRANCH   2   3
ENDBRANCH   1   2
BRANCH   1  15
ATOM     15  C   UNL     1       5.668 -36.051  20.759  1.00  0.00     0.000 C 
BRANCH  15  16
ATOM     16  C   UNL     1       5.630 -34.632  20.168  1.00  0.00     0.000 C 
BRANCH  16  17
ATOM     17  C   UNL     1       4.435 -33.805  20.676  1.00  0.00     0.000 C 
BRANCH  17  18
ATOM     18  C   UNL     1       4.460 -33.543  22.196  1.00  0.00    -0.000 C 
BRANCH  18  19
ATOM     19  C   UNL     1       5.891 -33.459  22.755  1.00  0.00    -0.000 C 
BRANCH  19  20
ATOM     20  C   UNL     1       6.002 -33.991  24.197  1.00  0.00    -0.000 C 
BRANCH  20  21
ATOM     21  C   UNL     1       6.120 -35.523  24.317  1.00  0.00    -0.000 C 
BRANCH  21  22
ATOM     22  C   UNL     1       4.865 -36.173  24.920  1.00  0.00    -0.000 C 
BRANCH  22  23
ATOM     23  C   UNL     1       5.042 -37.693  25.058  1.00  0.00    -0.000 C 
BRANCH  23  24
ATOM     24  C   UNL     1       4.272 -38.486  23.989  1.00  0.00    -0.000 C 
BRANCH  24  25
ATOM     25  C   UNL     1       4.955 -39.810  23.585  1.00  0.00    -0.003 C 
ATOM     26  C   UNL     1       5.886 -39.641  22.383  1.00  0.00     0.004 C 
ENDBRANCH  24  25
ENDBRANCH  23  24
ENDBRANCH  22  23
ENDBRANCH  21  22
ENDBRANCH  20  21
ENDBRANCH  19  20
ENDBRANCH  18  19
ENDBRANCH  17  18
ENDBRANCH  16  17
ENDBRANCH  15  16
ENDBRANCH   1  15
TORSDOF 22
ENDMDL
MODEL 8
REMARK VINA RESULT:    -0.910      3.700      6.958
REMARK INTER + INTRA:          -4.969
REMARK INTER:                  -3.916
REMARK INTRA:                  -1.053
REMARK UNBOUND:                -2.890
REMARK SMILES CCCCCCCCCCCCCCCCCCCCCCCC(=O)[O-]
REMARK SMILES IDX 13 1 14 2 15 3 16 4 17 5 18 6 19 7 20 8 21 9 22 10 23 11
REMARK SMILES IDX 24 12 25 13 26 14 12 15 11 16 10 17 9 18 8 19 7 20 6 21 5 22
REMARK SMILES IDX 4 23 3 24 2 25 1 26
REMARK H PARENT
REMARK Flexibility Score: inf
ROOT
ATOM      1  C   UNL     1       5.552 -34.810  23.291  1.00  0.00     0.000 C 
ENDROOT
BRANCH   1   2
ATOM      2  C   UNL     1       5.932 -35.924  22.302  1.00  0.00     0.000 C 
BRANCH   2   3
ATOM      3  C   UNL     1       4.682 -36.670  21.815  1.00  0.00     0.000 C 
BRANCH   3   4
ATOM      4  C   UNL     1       4.970 -37.622  20.640  1.00  0.00     0.000 C 
BRANCH   4   5
ATOM      5  C   UNL     1       5.886 -38.818  20.977  1.00  0.00     0.000 C 
BRANCH   5   6
ATOM      6  C   UNL     1       5.741 -39.371  22.406  1.00  0.00     0.000 C 
BRANCH   6   7
ATOM      7  C   UNL     1       4.307 -39.816  22.731  1.00  0.00     0.000 C 
BRANCH   7   8
ATOM      8  C   UNL     1       3.796 -39.139  24.009  1.00  0.00     0.000 C 
BRANCH   8   9
ATOM      9  C   UNL     1       4.862 -38.209  24.604  1.00  0.00     0.000 C 
BRANCH   9  10
ATOM     10  C   UNL     1       4.284 -37.186  25.600  1.00  0.00     0.006 C 
BRANCH  10  11
ATOM     11  C   UNL     1       3.713 -37.814  26.882  1.00  0.00     0.053 C 
BRANCH  11  12
ATOM     12  C   UNL     1       2.337 -37.316  27.205  1.00  0.00     0.041 C 
ATOM     13  O   UNL     1       1.335 -38.057  27.025  1.00  0.00    -0.550 OA
ATOM     14  O   UNL     1       2.161 -36.035  27.711  1.00  0.00    -0.550 OA
ENDBRANCH  11  12
ENDBRANCH  10  11
ENDBRANCH   9  10
ENDBRANCH   8   9
ENDBRANCH   7   8
ENDBRANCH   6   7
ENDBRANCH   5   6
ENDBRANCH   4   5
ENDBRANCH   3   4
ENDBRANCH   2   3
ENDBRANCH   1   2
BRANCH   1  15
ATOM     15  C   UNL     1       5.169 -33.501  22.584  1.00  0.00     0.000 C 
BRANCH  15  16
ATOM     16  C   UNL     1       3.864 -33.621  21.779  1.00  0.00     0.000 C 
BRANCH  16  17
ATOM     17  C   UNL     1       4.078 -33.455  20.264  1.00  0.00     0.000 C 
BRANCH  17  18
ATOM     18  C   UNL     1       5.322 -34.190  19.726  1.00  0.00    -0.000 C 
BRANCH  18  19
ATOM     19  C   UNL     1       5.250 -34.438  18.209  1.00  0.00    -0.000 C 
BRANCH  19  20
ATOM     20  C   UNL     1       3.865 -34.930  17.748  1.00  0.00    -0.000 C 
BRANCH  20  21
ATOM     21  C   UNL     1       3.549 -36.397  18.097  1.00  0.00    -0.000 C 
BRANCH  21  22
ATOM     22  C   UNL     1       2.384 -36.970  17.273  1.00  0.00    -0.000 C 
BRANCH  22  23
ATOM     23  C   UNL     1       2.022 -36.039  16.106  1.00  0.00    -0.000 C 
BRANCH  23  24
ATOM     24  C   UNL     1       2.190 -36.708  14.732  1.00  0.00    -0.000 C 
BRANCH  24  25
ATOM     25  C   UNL     1       3.655 -36.778  14.249  1.00  0.00    -0.003 C 
ATOM     26  C   UNL     1       4.171 -38.216  14.166  1.00  0.00     0.004 C 
ENDBRANCH  24  25
ENDBRANCH  23  24
ENDBRANCH  22  23
ENDBRANCH  21  22
ENDBRANCH  20  21
ENDBRANCH  19  20
ENDBRANCH  18  19
ENDBRANCH  17  18
ENDBRANCH  16  17
ENDBRANCH  15  16
ENDBRANCH   1  15
TORSDOF 22
ENDMDL
MODEL 9
REMARK VINA RESULT:    -0.812      3.681      7.739
REMARK INTER + INTRA:          -4.745
REMARK INTER:                  -1.875
REMARK INTRA:                  -2.871
REMARK UNBOUND:                -2.890
REMARK SMILES CCCCCCCCCCCCCCCCCCCCCCCC(=O)[O-]
REMARK SMILES IDX 13 1 14 2 15 3 16 4 17 5 18 6 19 7 20 8 21 9 22 10 23 11
REMARK SMILES IDX 24 12 25 13 26 14 12 15 11 16 10 17 9 18 8 19 7 20 6 21 5 22
REMARK SMILES IDX 4 23 3 24 2 25 1 26
REMARK H PARENT
REMARK Flexibility Score: inf
ROOT
ATOM      1  C   UNL     1       2.937 -37.367  19.880  1.00  0.00     0.000 C 
ENDROOT
BRANCH   1   2
ATOM      2  C   UNL     1       4.174 -38.017  19.240  1.00  0.00     0.000 C 
BRANCH   2   3
ATOM      3  C   UNL     1       5.405 -37.853  20.144  1.00  0.00     0.000 C 
BRANCH   3   4
ATOM      4  C   UNL     1       6.125 -39.185  20.425  1.00  0.00     0.000 C 
BRANCH   4   5
ATOM      5  C   UNL     1       5.704 -39.893  21.729  1.00  0.00     0.000 C 
BRANCH   5   6
ATOM      6  C   UNL     1       4.319 -39.495  22.273  1.00  0.00     0.000 C 
BRANCH   6   7
ATOM      7  C   UNL     1       4.395 -38.777  23.629  1.00  0.00     0.000 C 
BRANCH   7   8
ATOM      8  C   UNL     1       5.452 -37.665  23.605  1.00  0.00     0.000 C 
BRANCH   8   9
ATOM      9  C   UNL     1       5.552 -36.970  24.970  1.00  0.00     0.000 C 
BRANCH   9  10
ATOM     10  C   UNL     1       4.179 -36.602  25.563  1.00  0.00     0.006 C 
BRANCH  10  11
ATOM     11  C   UNL     1       3.770 -37.458  26.774  1.00  0.00     0.053 C 
BRANCH  11  12
ATOM     12  C   UNL     1       2.359 -37.206  27.208  1.00  0.00     0.041 C 
ATOM     13  O   UNL     1       1.459 -38.053  26.964  1.00  0.00    -0.550 OA
ATOM     14  O   UNL     1       2.037 -36.040  27.890  1.00  0.00    -0.550 OA
ENDBRANCH  11  12
ENDBRANCH  10  11
ENDBRANCH   9  10
ENDBRANCH   8   9
ENDBRANCH   7   8
ENDBRANCH   6   7
ENDBRANCH   5   6
ENDBRANCH   4   5
ENDBRANCH   3   4
ENDBRANCH   2   3
ENDBRANCH   1   2
BRANCH   1  15
ATOM     15  C   UNL     1       1.654 -37.623  19.075  1.00  0.00     0.000 C 
BRANCH  15  16
ATOM     16  C   UNL     1       1.906 -37.679  17.559  1.00  0.00     0.000 C 
BRANCH  16  17
ATOM     17  C   UNL     1       1.316 -36.471  16.809  1.00  0.00     0.000 C 
BRANCH  17  18
ATOM     18  C   UNL     1       2.328 -35.751  15.895  1.00  0.00    -0.000 C 
BRANCH  18  19
ATOM     19  C   UNL     1       3.743 -35.712  16.498  1.00  0.00    -0.000 C 
BRANCH  19  20
ATOM     20  C   UNL     1       3.844 -34.787  17.726  1.00  0.00    -0.000 C 
BRANCH  20  21
ATOM     21  C   UNL     1       5.273 -34.326  18.075  1.00  0.00    -0.000 C 
BRANCH  21  22
ATOM     22  C   UNL     1       5.596 -34.465  19.572  1.00  0.00    -0.000 C 
BRANCH  22  23
ATOM     23  C   UNL     1       4.367 -34.142  20.435  1.00  0.00    -0.000 C 
BRANCH  23  24
ATOM     24  C   UNL     1       4.532 -34.581  21.900  1.00  0.00    -0.000 C 
BRANCH  24  25
ATOM     25  C   UNL     1       5.948 -34.343  22.464  1.00  0.00    -0.003 C 
ATOM     26  C   UNL     1       5.976 -33.232  23.516  1.00  0.00     0.004 C 
ENDBRANCH  24  25
ENDBRANCH  23  24
ENDBRANCH  22  23
ENDBRANCH  21  22
ENDBRANCH  20  21
ENDBRANCH  19  20
ENDBRANCH  18  19
ENDBRANCH  17  18
ENDBRANCH  16  17
ENDBRANCH  15  16
ENDBRANCH   1  15
TORSDOF 22
ENDMDL
