MODEL 1
REMARK VINA RESULT:    -6.227      0.000      0.000
REMARK INTER + INTRA:         -10.390
REMARK INTER:                  -9.504
REMARK INTRA:                  -0.886
REMARK UNBOUND:                -0.886
REMARK SMILES CC(=O)CCC=C(C)CCC=C(C)CCC=C(C)C
REMARK SMILES IDX 10 1 11 2 12 3 13 4 14 5 15 6 16 7 18 8 17 9 19 10 9 11 7 12
REMARK SMILES IDX 6 13 8 14 5 15 4 16 2 17 3 18 1 19
REMARK H PARENT
REMARK Flexibility Score: inf
ROOT
ATOM      1  C   UNL     1      -8.442   2.308 -18.363  1.00  0.00     0.032 C 
ENDROOT
BRANCH   1   2
ATOM      2  C   UNL     1      -9.149   1.456 -19.387  1.00  0.00    -0.028 C 
ATOM      3  C   UNL     1     -10.409   0.980 -19.249  1.00  0.00    -0.077 C 
ATOM      4  C   UNL     1     -11.212   1.194 -17.988  1.00  0.00     0.039 C 
BRANCH   3   5
ATOM      5  C   UNL     1     -11.011   0.145 -20.359  1.00  0.00     0.034 C 
BRANCH   5   6
ATOM      6  C   UNL     1     -12.482  -0.196 -20.084  1.00  0.00     0.032 C 
BRANCH   6   7
ATOM      7  C   UNL     1     -12.956  -1.366 -20.911  1.00  0.00    -0.028 C 
ATOM      8  C   UNL     1     -15.125  -1.580 -19.678  1.00  0.00     0.039 C 
ATOM      9  C   UNL     1     -14.148  -1.983 -20.757  1.00  0.00    -0.080 C 
ATOM     10  C   UNL     1     -14.491  -3.121 -21.681  1.00  0.00     0.039 C 
ENDBRANCH   6   7
ENDBRANCH   5   6
ENDBRANCH   3   5
ENDBRANCH   1   2
BRANCH   1  11
ATOM     11  C   UNL     1      -8.444   3.785 -18.782  1.00  0.00     0.034 C 
BRANCH  11  12
ATOM     12  C   UNL     1      -9.855   4.324 -18.883  1.00  0.00    -0.077 C 
ATOM     13  C   UNL     1     -10.362   4.618 -20.104  1.00  0.00    -0.028 C 
ATOM     14  C   UNL     1     -10.649   4.552 -17.620  1.00  0.00     0.039 C 
BRANCH  13  15
ATOM     15  C   UNL     1     -11.721   5.231 -20.336  1.00  0.00     0.035 C 
BRANCH  15  16
ATOM     16  C   UNL     1     -12.168   5.004 -21.782  1.00  0.00     0.079 C 
BRANCH  16  17
ATOM     17  C   UNL     1     -12.779   6.256 -22.358  1.00  0.00     0.130 C 
ATOM     18  O   UNL     1     -12.273   6.773 -23.343  1.00  0.00    -0.300 OA
ATOM     19  C   UNL     1     -14.002   6.882 -21.743  1.00  0.00     0.087 C 
ENDBRANCH  16  17
ENDBRANCH  15  16
ENDBRANCH  13  15
ENDBRANCH  11  12
ENDBRANCH   1  11
TORSDOF 9
ENDMDL
MODEL 2
REMARK VINA RESULT:    -6.122      0.847      1.529
REMARK INTER + INTRA:         -10.229
REMARK INTER:                  -8.929
REMARK INTRA:                  -1.300
REMARK UNBOUND:                -0.886
REMARK SMILES CC(=O)CCC=C(C)CCC=C(C)CCC=C(C)C
REMARK SMILES IDX 10 1 11 2 12 3 13 4 14 5 15 6 16 7 18 8 17 9 19 10 9 11 7 12
REMARK SMILES IDX 6 13 8 14 5 15 4 16 2 17 3 18 1 19
REMARK H PARENT
REMARK Flexibility Score: inf
ROOT
ATOM      1  C   UNL     1     -10.672   2.373 -17.107  1.00  0.00     0.032 C 
ENDROOT
BRANCH   1   2
ATOM      2  C   UNL     1     -11.171   1.519 -18.245  1.00  0.00    -0.028 C 
ATOM      3  C   UNL     1     -10.404   1.096 -19.277  1.00  0.00    -0.077 C 
ATOM      4  C   UNL     1      -8.963   1.522 -19.432  1.00  0.00     0.039 C 
BRANCH   3   5
ATOM      5  C   UNL     1     -11.023   0.228 -20.353  1.00  0.00     0.034 C 
BRANCH   5   6
ATOM      6  C   UNL     1     -12.463  -0.172 -20.007  1.00  0.00     0.032 C 
BRANCH   6   7
ATOM      7  C   UNL     1     -12.937  -1.347 -20.828  1.00  0.00    -0.028 C 
ATOM      8  C   UNL     1     -15.124  -1.526 -19.622  1.00  0.00     0.039 C 
ATOM      9  C   UNL     1     -14.137  -1.950 -20.683  1.00  0.00    -0.080 C 
ATOM     10  C   UNL     1     -14.478  -3.095 -21.599  1.00  0.00     0.039 C 
ENDBRANCH   6   7
ENDBRANCH   5   6
ENDBRANCH   3   5
ENDBRANCH   1   2
BRANCH   1  11
ATOM     11  C   UNL     1     -11.494   3.664 -16.989  1.00  0.00     0.034 C 
BRANCH  11  12
ATOM     12  C   UNL     1     -11.217   4.598 -18.149  1.00  0.00    -0.077 C 
ATOM     13  C   UNL     1     -12.251   5.020 -18.916  1.00  0.00    -0.028 C 
ATOM     14  C   UNL     1      -9.795   5.007 -18.442  1.00  0.00     0.039 C 
BRANCH  13  15
ATOM     15  C   UNL     1     -12.103   5.886 -20.142  1.00  0.00     0.035 C 
BRANCH  15  16
ATOM     16  C   UNL     1     -12.146   5.027 -21.408  1.00  0.00     0.079 C 
BRANCH  16  17
ATOM     17  C   UNL     1     -12.861   5.749 -22.522  1.00  0.00     0.130 C 
ATOM     18  O   UNL     1     -12.209   6.339 -23.371  1.00  0.00    -0.300 OA
ATOM     19  C   UNL     1     -14.364   5.758 -22.608  1.00  0.00     0.087 C 
ENDBRANCH  16  17
ENDBRANCH  15  16
ENDBRANCH  13  15
ENDBRANCH  11  12
ENDBRANCH   1  11
TORSDOF 9
ENDMDL
MODEL 3
REMARK VINA RESULT:    -5.736      2.399      5.659
REMARK INTER + INTRA:          -9.640
REMARK INTER:                  -8.420
REMARK INTRA:                  -1.219
REMARK UNBOUND:                -0.886
REMARK SMILES CC(=O)CCC=C(C)CCC=C(C)CCC=C(C)C
REMARK SMILES IDX 10 1 11 2 12 3 13 4 14 5 15 6 16 7 18 8 17 9 19 10 9 11 7 12
REMARK SMILES IDX 6 13 8 14 5 15 4 16 2 17 3 18 1 19
REMARK H PARENT
REMARK Flexibility Score: inf
ROOT
ATOM      1  C   UNL     1      -9.152   3.922 -16.730  1.00  0.00     0.032 C 
ENDROOT
BRANCH   1   2
ATOM      2  C   UNL     1     -10.011   4.661 -17.726  1.00  0.00    -0.028 C 
ATOM      3  C   UNL     1     -11.320   4.399 -17.951  1.00  0.00    -0.077 C 
ATOM      4  C   UNL     1     -12.037   3.258 -17.268  1.00  0.00     0.039 C 
BRANCH   3   5
ATOM      5  C   UNL     1     -12.076   5.224 -18.971  1.00  0.00     0.034 C 
BRANCH   5   6
ATOM      6  C   UNL     1     -11.464   5.102 -20.373  1.00  0.00     0.032 C 
BRANCH   6   7
ATOM      7  C   UNL     1     -12.493   4.719 -21.408  1.00  0.00    -0.028 C 
ATOM      8  C   UNL     1     -13.583   6.973 -21.408  1.00  0.00     0.039 C 
ATOM      9  C   UNL     1     -13.435   5.553 -21.899  1.00  0.00    -0.080 C 
ATOM     10  C   UNL     1     -14.376   5.031 -22.953  1.00  0.00     0.039 C 
ENDBRANCH   6   7
ENDBRANCH   5   6
ENDBRANCH   3   5
ENDBRANCH   1   2
BRANCH   1  11
ATOM     11  C   UNL     1      -8.079   3.088 -17.443  1.00  0.00     0.034 C 
BRANCH  11  12
ATOM     12  C   UNL     1      -8.585   2.562 -18.770  1.00  0.00    -0.077 C 
ATOM     13  C   UNL     1      -9.330   1.431 -18.790  1.00  0.00    -0.028 C 
ATOM     14  C   UNL     1      -8.219   3.292 -20.039  1.00  0.00     0.039 C 
BRANCH  13  15
ATOM     15  C   UNL     1      -9.829   0.763 -20.047  1.00  0.00     0.035 C 
BRANCH  15  16
ATOM     16  C   UNL     1     -11.342   0.948 -20.183  1.00  0.00     0.079 C 
BRANCH  16  17
ATOM     17  C   UNL     1     -12.080  -0.256 -19.656  1.00  0.00     0.130 C 
ATOM     18  O   UNL     1     -11.715  -0.773 -18.610  1.00  0.00    -0.300 OA
ATOM     19  C   UNL     1     -13.258  -0.835 -20.393  1.00  0.00     0.087 C 
ENDBRANCH  16  17
ENDBRANCH  15  16
ENDBRANCH  13  15
ENDBRANCH  11  12
ENDBRANCH   1  11
TORSDOF 9
ENDMDL
MODEL 4
REMARK VINA RESULT:    -5.514      2.434      6.185
REMARK INTER + INTRA:          -9.301
REMARK INTER:                  -8.345
REMARK INTRA:                  -0.956
REMARK UNBOUND:                -0.886
REMARK SMILES CC(=O)CCC=C(C)CCC=C(C)CCC=C(C)C
REMARK SMILES IDX 10 1 11 2 12 3 13 4 14 5 15 6 16 7 18 8 17 9 19 10 9 11 7 12
REMARK SMILES IDX 6 13 8 14 5 15 4 16 2 17 3 18 1 19
REMARK H PARENT
REMARK Flexibility Score: inf
ROOT
ATOM      1  C   UNL     1      -8.483   1.994 -18.715  1.00  0.00     0.032 C 
ENDROOT
BRANCH   1   2
ATOM      2  C   UNL     1      -9.198   3.279 -19.050  1.00  0.00    -0.028 C 
ATOM      3  C   UNL     1      -9.714   4.130 -18.133  1.00  0.00    -0.077 C 
ATOM      4  C   UNL     1      -9.696   3.821 -16.654  1.00  0.00     0.039 C 
BRANCH   3   5
ATOM      5  C   UNL     1     -10.397   5.398 -18.600  1.00  0.00     0.034 C 
BRANCH   5   6
ATOM      6  C   UNL     1     -11.816   5.126 -19.117  1.00  0.00     0.032 C 
BRANCH   6   7
ATOM      7  C   UNL     1     -11.853   4.978 -20.618  1.00  0.00    -0.028 C 
ATOM      8  C   UNL     1     -13.456   6.874 -20.939  1.00  0.00     0.039 C 
ATOM      9  C   UNL     1     -12.565   5.768 -21.451  1.00  0.00    -0.080 C 
ATOM     10  C   UNL     1     -12.476   5.513 -22.932  1.00  0.00     0.039 C 
ENDBRANCH   6   7
ENDBRANCH   5   6
ENDBRANCH   3   5
ENDBRANCH   1   2
BRANCH   1  11
ATOM     11  C   UNL     1      -8.981   0.842 -19.599  1.00  0.00     0.034 C 
BRANCH  11  12
ATOM     12  C   UNL     1     -10.446   0.554 -19.351  1.00  0.00    -0.077 C 
ATOM     13  C   UNL     1     -11.220   0.136 -20.381  1.00  0.00    -0.028 C 
ATOM     14  C   UNL     1     -11.016   0.771 -17.970  1.00  0.00     0.039 C 
BRANCH  13  15
ATOM     15  C   UNL     1     -12.705  -0.111 -20.285  1.00  0.00     0.035 C 
BRANCH  15  16
ATOM     16  C   UNL     1     -13.069  -1.434 -20.962  1.00  0.00     0.079 C 
BRANCH  16  17
ATOM     17  C   UNL     1     -14.469  -1.857 -20.596  1.00  0.00     0.130 C 
ATOM     18  O   UNL     1     -15.086  -2.603 -21.343  1.00  0.00    -0.300 OA
ATOM     19  C   UNL     1     -15.124  -1.377 -19.328  1.00  0.00     0.087 C 
ENDBRANCH  16  17
ENDBRANCH  15  16
ENDBRANCH  13  15
ENDBRANCH  11  12
ENDBRANCH   1  11
TORSDOF 9
ENDMDL
MODEL 5
REMARK VINA RESULT:    -5.503      1.241      2.469
REMARK INTER + INTRA:          -9.284
REMARK INTER:                  -8.145
REMARK INTRA:                  -1.139
REMARK UNBOUND:                -0.886
REMARK SMILES CC(=O)CCC=C(C)CCC=C(C)CCC=C(C)C
REMARK SMILES IDX 10 1 11 2 12 3 13 4 14 5 15 6 16 7 18 8 17 9 19 10 9 11 7 12
REMARK SMILES IDX 6 13 8 14 5 15 4 16 2 17 3 18 1 19
REMARK H PARENT
REMARK Flexibility Score: inf
ROOT
ATOM      1  C   UNL     1      -9.131   4.305 -16.836  1.00  0.00     0.032 C 
ENDROOT
BRANCH   1   2
ATOM      2  C   UNL     1      -9.957   3.043 -16.826  1.00  0.00    -0.028 C 
ATOM      3  C   UNL     1     -11.308   3.012 -16.918  1.00  0.00    -0.077 C 
ATOM      4  C   UNL     1     -12.137   4.274 -16.954  1.00  0.00     0.039 C 
BRANCH   3   5
ATOM      5  C   UNL     1     -12.021   1.676 -16.911  1.00  0.00     0.034 C 
BRANCH   5   6
ATOM      6  C   UNL     1     -11.455   0.721 -17.970  1.00  0.00     0.032 C 
BRANCH   6   7
ATOM      7  C   UNL     1     -12.546   0.047 -18.766  1.00  0.00    -0.028 C 
ATOM      8  C   UNL     1     -11.063  -0.422 -20.728  1.00  0.00     0.039 C 
ATOM      9  C   UNL     1     -12.381  -0.490 -19.994  1.00  0.00    -0.080 C 
ATOM     10  C   UNL     1     -13.562  -1.156 -20.650  1.00  0.00     0.039 C 
ENDBRANCH   6   7
ENDBRANCH   5   6
ENDBRANCH   3   5
ENDBRANCH   1   2
BRANCH   1  11
ATOM     11  C   UNL     1      -8.420   4.485 -18.184  1.00  0.00     0.034 C 
BRANCH  11  12
ATOM     12  C   UNL     1      -9.310   4.062 -19.334  1.00  0.00    -0.077 C 
ATOM     13  C   UNL     1     -10.303   4.890 -19.738  1.00  0.00    -0.028 C 
ATOM     14  C   UNL     1      -9.089   2.715 -19.979  1.00  0.00     0.039 C 
BRANCH  13  15
ATOM     15  C   UNL     1     -11.304   4.555 -20.816  1.00  0.00     0.035 C 
BRANCH  15  16
ATOM     16  C   UNL     1     -12.452   5.567 -20.809  1.00  0.00     0.079 C 
BRANCH  16  17
ATOM     17  C   UNL     1     -12.948   5.826 -22.209  1.00  0.00     0.130 C 
ATOM     18  O   UNL     1     -12.182   6.288 -23.042  1.00  0.00    -0.300 OA
ATOM     19  C   UNL     1     -14.370   5.527 -22.601  1.00  0.00     0.087 C 
ENDBRANCH  16  17
ENDBRANCH  15  16
ENDBRANCH  13  15
ENDBRANCH  11  12
ENDBRANCH   1  11
TORSDOF 9
ENDMDL
MODEL 6
REMARK VINA RESULT:    -5.461      2.773      6.674
REMARK INTER + INTRA:          -9.220
REMARK INTER:                  -8.476
REMARK INTRA:                  -0.744
REMARK UNBOUND:                -0.886
REMARK SMILES CC(=O)CCC=C(C)CCC=C(C)CCC=C(C)C
REMARK SMILES IDX 10 1 11 2 12 3 13 4 14 5 15 6 16 7 18 8 17 9 19 10 9 11 7 12
REMARK SMILES IDX 6 13 8 14 5 15 4 16 2 17 3 18 1 19
REMARK H PARENT
REMARK Flexibility Score: inf
ROOT
ATOM      1  C   UNL     1      -9.433   1.311 -19.209  1.00  0.00     0.032 C 
ENDROOT
BRANCH   1   2
ATOM      2  C   UNL     1      -9.804   2.761 -19.395  1.00  0.00    -0.028 C 
ATOM      3  C   UNL     1      -9.815   3.682 -18.402  1.00  0.00    -0.077 C 
ATOM      4  C   UNL     1      -9.529   3.313 -16.965  1.00  0.00     0.039 C 
BRANCH   3   5
ATOM      5  C   UNL     1     -10.194   5.112 -18.722  1.00  0.00     0.034 C 
BRANCH   5   6
ATOM      6  C   UNL     1     -11.643   5.224 -19.213  1.00  0.00     0.032 C 
BRANCH   6   7
ATOM      7  C   UNL     1     -11.751   5.028 -20.706  1.00  0.00    -0.028 C 
ATOM      8  C   UNL     1     -13.446   6.849 -20.995  1.00  0.00     0.039 C 
ATOM      9  C   UNL     1     -12.537   5.764 -21.522  1.00  0.00    -0.080 C 
ATOM     10  C   UNL     1     -12.514   5.468 -22.998  1.00  0.00     0.039 C 
ENDBRANCH   6   7
ENDBRANCH   5   6
ENDBRANCH   3   5
ENDBRANCH   1   2
BRANCH   1  11
ATOM     11  C   UNL     1     -10.288   0.407 -20.109  1.00  0.00     0.034 C 
BRANCH  11  12
ATOM     12  C   UNL     1     -11.575   0.007 -19.419  1.00  0.00    -0.077 C 
ATOM     13  C   UNL     1     -12.540  -0.618 -20.136  1.00  0.00    -0.028 C 
ATOM     14  C   UNL     1     -11.764   0.343 -17.960  1.00  0.00     0.039 C 
BRANCH  13  15
ATOM     15  C   UNL     1     -13.893  -0.999 -19.589  1.00  0.00     0.035 C 
BRANCH  15  16
ATOM     16  C   UNL     1     -14.840  -1.378 -20.730  1.00  0.00     0.079 C 
BRANCH  16  17
ATOM     17  C   UNL     1     -14.804  -2.863 -20.986  1.00  0.00     0.130 C 
ATOM     18  O   UNL     1     -15.124  -3.635 -20.093  1.00  0.00    -0.300 OA
ATOM     19  C   UNL     1     -14.381  -3.416 -22.321  1.00  0.00     0.087 C 
ENDBRANCH  16  17
ENDBRANCH  15  16
ENDBRANCH  13  15
ENDBRANCH  11  12
ENDBRANCH   1  11
TORSDOF 9
ENDMDL
MODEL 7
REMARK VINA RESULT:    -4.708      1.373      2.031
REMARK INTER + INTRA:          -8.071
REMARK INTER:                  -7.431
REMARK INTRA:                  -0.640
REMARK UNBOUND:                -0.886
REMARK SMILES CC(=O)CCC=C(C)CCC=C(C)CCC=C(C)C
REMARK SMILES IDX 10 1 11 2 12 3 13 4 14 5 15 6 16 7 18 8 17 9 19 10 9 11 7 12
REMARK SMILES IDX 6 13 8 14 5 15 4 16 2 17 3 18 1 19
REMARK H PARENT
REMARK Flexibility Score: inf
ROOT
ATOM      1  C   UNL     1      -9.037   3.624 -19.396  1.00  0.00     0.032 C 
ENDROOT
BRANCH   1   2
ATOM      2  C   UNL     1     -10.015   2.522 -19.076  1.00  0.00    -0.028 C 
ATOM      3  C   UNL     1     -10.575   2.325 -17.859  1.00  0.00    -0.077 C 
ATOM      4  C   UNL     1     -10.198   3.163 -16.659  1.00  0.00     0.039 C 
BRANCH   3   5
ATOM      5  C   UNL     1     -11.556   1.187 -17.670  1.00  0.00     0.034 C 
BRANCH   5   6
ATOM      6  C   UNL     1     -11.862   0.471 -18.991  1.00  0.00     0.032 C 
BRANCH   6   7
ATOM      7  C   UNL     1     -13.247  -0.131 -19.001  1.00  0.00    -0.028 C 
ATOM      8  C   UNL     1     -12.852  -1.436 -21.101  1.00  0.00     0.039 C 
ATOM      9  C   UNL     1     -13.698  -1.005 -19.927  1.00  0.00    -0.080 C 
ATOM     10  C   UNL     1     -15.098  -1.541 -19.785  1.00  0.00     0.039 C 
ENDBRANCH   6   7
ENDBRANCH   5   6
ENDBRANCH   3   5
ENDBRANCH   1   2
BRANCH   1  11
ATOM     11  C   UNL     1      -9.685   5.004 -19.211  1.00  0.00     0.034 C 
BRANCH  11  12
ATOM     12  C   UNL     1     -11.089   5.030 -19.777  1.00  0.00    -0.077 C 
ATOM     13  C   UNL     1     -11.276   4.754 -21.090  1.00  0.00    -0.028 C 
ATOM     14  C   UNL     1     -12.241   5.396 -18.874  1.00  0.00     0.039 C 
BRANCH  13  15
ATOM     15  C   UNL     1     -12.609   4.821 -21.793  1.00  0.00     0.035 C 
BRANCH  15  16
ATOM     16  C   UNL     1     -12.887   6.249 -22.269  1.00  0.00     0.079 C 
BRANCH  16  17
ATOM     17  C   UNL     1     -14.370   6.511 -22.340  1.00  0.00     0.130 C 
ATOM     18  O   UNL     1     -15.083   5.760 -22.990  1.00  0.00    -0.300 OA
ATOM     19  C   UNL     1     -14.992   7.681 -21.626  1.00  0.00     0.087 C 
ENDBRANCH  16  17
ENDBRANCH  15  16
ENDBRANCH  13  15
ENDBRANCH  11  12
ENDBRANCH   1  11
TORSDOF 9
ENDMDL
MODEL 8
REMARK VINA RESULT:    -4.648      2.290      5.542
REMARK INTER + INTRA:          -7.979
REMARK INTER:                  -6.779
REMARK INTRA:                  -1.200
REMARK UNBOUND:                -0.886
REMARK SMILES CC(=O)CCC=C(C)CCC=C(C)CCC=C(C)C
REMARK SMILES IDX 10 1 11 2 12 3 13 4 14 5 15 6 16 7 18 8 17 9 19 10 9 11 7 12
REMARK SMILES IDX 6 13 8 14 5 15 4 16 2 17 3 18 1 19
REMARK H PARENT
REMARK Flexibility Score: inf
ROOT
ATOM      1  C   UNL     1      -8.813   4.334 -17.013  1.00  0.00     0.032 C 
ENDROOT
BRANCH   1   2
ATOM      2  C   UNL     1      -9.500   4.754 -18.287  1.00  0.00    -0.028 C 
ATOM      3  C   UNL     1      -9.282   4.188 -19.497  1.00  0.00    -0.077 C 
ATOM      4  C   UNL     1      -8.241   3.112 -19.702  1.00  0.00     0.039 C 
BRANCH   3   5
ATOM      5  C   UNL     1     -10.049   4.693 -20.701  1.00  0.00     0.034 C 
BRANCH   5   6
ATOM      6  C   UNL     1     -11.469   5.140 -20.329  1.00  0.00     0.032 C 
BRANCH   6   7
ATOM      7  C   UNL     1     -12.474   4.777 -21.394  1.00  0.00    -0.028 C 
ATOM      8  C   UNL     1     -13.667   6.975 -21.260  1.00  0.00     0.039 C 
ATOM      9  C   UNL     1     -13.452   5.597 -21.839  1.00  0.00    -0.080 C 
ATOM     10  C   UNL     1     -14.362   5.101 -22.931  1.00  0.00     0.039 C 
ENDBRANCH   6   7
ENDBRANCH   5   6
ENDBRANCH   3   5
ENDBRANCH   1   2
BRANCH   1  11
ATOM     11  C   UNL     1      -9.703   3.388 -16.195  1.00  0.00     0.034 C 
BRANCH  11  12
ATOM     12  C   UNL     1     -10.954   3.013 -16.961  1.00  0.00    -0.077 C 
ATOM     13  C   UNL     1     -10.983   1.844 -17.644  1.00  0.00    -0.028 C 
ATOM     14  C   UNL     1     -12.124   3.966 -16.972  1.00  0.00     0.039 C 
BRANCH  13  15
ATOM     15  C   UNL     1     -12.135   1.391 -18.506  1.00  0.00     0.035 C 
BRANCH  15  16
ATOM     16  C   UNL     1     -11.709   1.335 -19.976  1.00  0.00     0.079 C 
BRANCH  16  17
ATOM     17  C   UNL     1     -11.492  -0.090 -20.418  1.00  0.00     0.130 C 
ATOM     18  O   UNL     1     -10.358  -0.479 -20.657  1.00  0.00    -0.300 OA
ATOM     19  C   UNL     1     -12.646  -1.044 -20.571  1.00  0.00     0.087 C 
ENDBRANCH  16  17
ENDBRANCH  15  16
ENDBRANCH  13  15
ENDBRANCH  11  12
ENDBRANCH   1  11
TORSDOF 9
ENDMDL
