MODEL 1
REMARK VINA RESULT:    -3.649      0.000      0.000
REMARK INTER + INTRA:          -6.215
REMARK INTER:                  -5.569
REMARK INTRA:                  -0.646
REMARK UNBOUND:                -0.646
REMARK SMILES CCCCCCCCCC=CC(=O)[O-]
REMARK SMILES IDX 7 1 8 2 9 3 10 4 11 5 12 6 13 7 14 8 6 9 5 10 4 11 3 12 2 13
REMARK SMILES IDX 1 14
REMARK H PARENT
REMARK Flexibility Score: inf
ROOT
ATOM      1  C   UNL     1       3.333   7.903   5.841  1.00  0.00     0.000 C 
ENDROOT
BRANCH   1   2
ATOM      2  C   UNL     1       3.513   6.433   5.446  1.00  0.00     0.004 C 
BRANCH   2   3
ATOM      3  C   UNL     1       2.177   5.681   5.502  1.00  0.00     0.027 C 
BRANCH   3   4
ATOM      4  C   UNL     1       2.328   4.352   6.184  1.00  0.00    -0.025 C 
ATOM      5  C   UNL     1       1.276   3.705   6.695  1.00  0.00     0.020 C 
BRANCH   5   6
ATOM      6  C   UNL     1       1.403   2.409   7.382  1.00  0.00     0.064 C 
ATOM      7  O   UNL     1       0.387   1.781   7.781  1.00  0.00    -0.545 OA
ATOM      8  O   UNL     1       2.666   1.872   7.595  1.00  0.00    -0.545 OA
ENDBRANCH   5   6
ENDBRANCH   3   4
ENDBRANCH   2   3
ENDBRANCH   1   2
BRANCH   1   9
ATOM      9  C   UNL     1       1.987   8.125   6.541  1.00  0.00     0.000 C 
BRANCH   9  10
ATOM     10  C   UNL     1       1.728   9.622   6.771  1.00  0.00     0.000 C 
BRANCH  10  11
ATOM     11  C   UNL     1       0.422  10.106   6.119  1.00  0.00    -0.000 C 
BRANCH  11  12
ATOM     12  C   UNL     1       0.162   9.445   4.754  1.00  0.00    -0.000 C 
BRANCH  12  13
ATOM     13  C   UNL     1      -1.317   9.084   4.548  1.00  0.00    -0.003 C 
ATOM     14  C   UNL     1      -2.269  10.125   5.136  1.00  0.00     0.004 C 
ENDBRANCH  12  13
ENDBRANCH  11  12
ENDBRANCH  10  11
ENDBRANCH   9  10
ENDBRANCH   1   9
TORSDOF 9
ENDMDL
MODEL 2
REMARK VINA RESULT:    -3.616      3.978      6.126
REMARK INTER + INTRA:          -6.164
REMARK INTER:                  -5.431
REMARK INTRA:                  -0.733
REMARK UNBOUND:                -0.646
REMARK SMILES CCCCCCCCCC=CC(=O)[O-]
REMARK SMILES IDX 7 1 8 2 9 3 10 4 11 5 12 6 13 7 14 8 6 9 5 10 4 11 3 12 2 13
REMARK SMILES IDX 1 14
REMARK H PARENT
REMARK Flexibility Score: inf
ROOT
ATOM      1  C   UNL     1      -2.160   9.978   4.595  1.00  0.00     0.000 C 
ENDROOT
BRANCH   1   2
ATOM      2  C   UNL     1      -1.496   8.849   3.797  1.00  0.00     0.004 C 
BRANCH   2   3
ATOM      3  C   UNL     1       0.020   9.061   3.703  1.00  0.00     0.027 C 
BRANCH   3   4
ATOM      4  C   UNL     1       0.692   8.771   5.015  1.00  0.00    -0.025 C 
ATOM      5  C   UNL     1       1.609   9.598   5.527  1.00  0.00     0.020 C 
BRANCH   5   6
ATOM      6  C   UNL     1       2.291   9.325   6.803  1.00  0.00     0.064 C 
ATOM      7  O   UNL     1       1.915   8.389   7.556  1.00  0.00    -0.545 OA
ATOM      8  O   UNL     1       3.367  10.117   7.184  1.00  0.00    -0.545 OA
ENDBRANCH   5   6
ENDBRANCH   3   4
ENDBRANCH   2   3
ENDBRANCH   1   2
BRANCH   1   9
ATOM      9  C   UNL     1      -3.646   9.684   4.832  1.00  0.00     0.000 C 
BRANCH   9  10
ATOM     10  C   UNL     1      -4.001   8.257   4.388  1.00  0.00     0.000 C 
BRANCH  10  11
ATOM     11  C   UNL     1      -5.070   8.226   3.282  1.00  0.00    -0.000 C 
BRANCH  11  12
ATOM     12  C   UNL     1      -5.748   9.592   3.078  1.00  0.00    -0.000 C 
BRANCH  12  13
ATOM     13  C   UNL     1      -6.003   9.906   1.596  1.00  0.00    -0.003 C 
ATOM     14  C   UNL     1      -4.713  10.120   0.804  1.00  0.00     0.004 C 
ENDBRANCH  12  13
ENDBRANCH  11  12
ENDBRANCH  10  11
ENDBRANCH   9  10
ENDBRANCH   1   9
TORSDOF 9
ENDMDL
MODEL 3
REMARK VINA RESULT:    -3.590      3.432      6.064
REMARK INTER + INTRA:          -6.124
REMARK INTER:                  -5.557
REMARK INTRA:                  -0.568
REMARK UNBOUND:                -0.646
REMARK SMILES CCCCCCCCCC=CC(=O)[O-]
REMARK SMILES IDX 7 1 8 2 9 3 10 4 11 5 12 6 13 7 14 8 6 9 5 10 4 11 3 12 2 13
REMARK SMILES IDX 1 14
REMARK H PARENT
REMARK Flexibility Score: inf
ROOT
ATOM      1  C   UNL     1      -2.301  10.031   5.009  1.00  0.00     0.000 C 
ENDROOT
BRANCH   1   2
ATOM      2  C   UNL     1      -3.065   9.914   3.685  1.00  0.00     0.004 C 
BRANCH   2   3
ATOM      3  C   UNL     1      -4.376   9.140   3.874  1.00  0.00     0.027 C 
BRANCH   3   4
ATOM      4  C   UNL     1      -4.128   7.661   3.958  1.00  0.00    -0.025 C 
ATOM      5  C   UNL     1      -4.120   6.891   2.865  1.00  0.00     0.020 C 
BRANCH   5   6
ATOM      6  C   UNL     1      -3.894   5.438   2.925  1.00  0.00     0.064 C 
ATOM      7  O   UNL     1      -4.845   4.640   3.136  1.00  0.00    -0.545 OA
ATOM      8  O   UNL     1      -2.611   4.939   2.750  1.00  0.00    -0.545 OA
ENDBRANCH   5   6
ENDBRANCH   3   4
ENDBRANCH   2   3
ENDBRANCH   1   2
BRANCH   1   9
ATOM      9  C   UNL     1      -0.877   9.477   4.874  1.00  0.00     0.000 C 
BRANCH   9  10
ATOM     10  C   UNL     1       0.063  10.125   5.902  1.00  0.00     0.000 C 
BRANCH  10  11
ATOM     11  C   UNL     1       1.532   9.713   5.706  1.00  0.00    -0.000 C 
BRANCH  11  12
ATOM     12  C   UNL     1       2.057   8.833   6.853  1.00  0.00    -0.000 C 
BRANCH  12  13
ATOM     13  C   UNL     1       2.603   7.485   6.358  1.00  0.00    -0.003 C 
ATOM     14  C   UNL     1       1.993   7.051   5.025  1.00  0.00     0.004 C 
ENDBRANCH  12  13
ENDBRANCH  11  12
ENDBRANCH  10  11
ENDBRANCH   9  10
ENDBRANCH   1   9
TORSDOF 9
ENDMDL
MODEL 4
REMARK VINA RESULT:    -3.552      5.326      8.093
REMARK INTER + INTRA:          -6.067
REMARK INTER:                  -5.562
REMARK INTRA:                  -0.506
REMARK UNBOUND:                -0.646
REMARK SMILES CCCCCCCCCC=CC(=O)[O-]
REMARK SMILES IDX 7 1 8 2 9 3 10 4 11 5 12 6 13 7 14 8 6 9 5 10 4 11 3 12 2 13
REMARK SMILES IDX 1 14
REMARK H PARENT
REMARK Flexibility Score: inf
ROOT
ATOM      1  C   UNL     1      -1.945   9.863   4.992  1.00  0.00     0.000 C 
ENDROOT
BRANCH   1   2
ATOM      2  C   UNL     1      -3.455   9.804   4.728  1.00  0.00     0.004 C 
BRANCH   2   3
ATOM      3  C   UNL     1      -3.881   8.399   4.284  1.00  0.00     0.027 C 
BRANCH   3   4
ATOM      4  C   UNL     1      -5.104   8.451   3.413  1.00  0.00    -0.025 C 
ATOM      5  C   UNL     1      -5.736   9.603   3.166  1.00  0.00     0.020 C 
BRANCH   5   6
ATOM      6  C   UNL     1      -6.945   9.675   2.329  1.00  0.00     0.064 C 
ATOM      7  O   UNL     1      -8.078   9.883   2.837  1.00  0.00    -0.545 OA
ATOM      8  O   UNL     1      -6.833   9.509   0.955  1.00  0.00    -0.545 OA
ENDBRANCH   5   6
ENDBRANCH   3   4
ENDBRANCH   2   3
ENDBRANCH   1   2
BRANCH   1   9
ATOM      9  C   UNL     1      -1.157   9.273   3.817  1.00  0.00     0.000 C 
BRANCH   9  10
ATOM     10  C   UNL     1       0.354   9.320   4.090  1.00  0.00     0.000 C 
BRANCH  10  11
ATOM     11  C   UNL     1       0.823   8.199   5.032  1.00  0.00    -0.000 C 
BRANCH  11  12
ATOM     12  C   UNL     1       1.560   8.736   6.271  1.00  0.00    -0.000 C 
BRANCH  12  13
ATOM     13  C   UNL     1       2.864   7.975   6.555  1.00  0.00    -0.003 C 
ATOM     14  C   UNL     1       2.834   6.535   6.043  1.00  0.00     0.004 C 
ENDBRANCH  12  13
ENDBRANCH  11  12
ENDBRANCH  10  11
ENDBRANCH   9  10
ENDBRANCH   1   9
TORSDOF 9
ENDMDL
MODEL 5
REMARK VINA RESULT:    -3.531     10.903     13.563
REMARK INTER + INTRA:          -6.035
REMARK INTER:                  -4.945
REMARK INTRA:                  -1.090
REMARK UNBOUND:                -0.646
REMARK SMILES CCCCCCCCCC=CC(=O)[O-]
REMARK SMILES IDX 7 1 8 2 9 3 10 4 11 5 12 6 13 7 14 8 6 9 5 10 4 11 3 12 2 13
REMARK SMILES IDX 1 14
REMARK H PARENT
REMARK Flexibility Score: inf
ROOT
ATOM      1  C   UNL     1      -9.010  -3.171  11.011  1.00  0.00     0.000 C 
ENDROOT
BRANCH   1   2
ATOM      2  C   UNL     1      -9.391  -2.645   9.623  1.00  0.00     0.004 C 
BRANCH   2   3
ATOM      3  C   UNL     1      -8.311  -2.987   8.589  1.00  0.00     0.027 C 
BRANCH   3   4
ATOM      4  C   UNL     1      -8.063  -1.833   7.659  1.00  0.00    -0.025 C 
ATOM      5  C   UNL     1      -8.841  -0.746   7.672  1.00  0.00     0.020 C 
BRANCH   5   6
ATOM      6  C   UNL     1      -8.626   0.388   6.759  1.00  0.00     0.064 C 
ATOM      7  O   UNL     1      -8.148   1.477   7.175  1.00  0.00    -0.545 OA
ATOM      8  O   UNL     1      -8.958   0.258   5.418  1.00  0.00    -0.545 OA
ENDBRANCH   5   6
ENDBRANCH   3   4
ENDBRANCH   2   3
ENDBRANCH   1   2
BRANCH   1   9
ATOM      9  C   UNL     1      -8.875  -2.022  12.018  1.00  0.00     0.000 C 
BRANCH   9  10
ATOM     10  C   UNL     1     -10.083  -1.076  11.936  1.00  0.00     0.000 C 
BRANCH  10  11
ATOM     11  C   UNL     1      -9.676   0.407  11.907  1.00  0.00    -0.000 C 
BRANCH  11  12
ATOM     12  C   UNL     1      -8.622   0.709  10.829  1.00  0.00    -0.000 C 
BRANCH  12  13
ATOM     13  C   UNL     1      -7.329   1.294  11.418  1.00  0.00    -0.003 C 
ATOM     14  C   UNL     1      -6.122   1.110  10.499  1.00  0.00     0.004 C 
ENDBRANCH  12  13
ENDBRANCH  11  12
ENDBRANCH  10  11
ENDBRANCH   9  10
ENDBRANCH   1   9
TORSDOF 9
ENDMDL
MODEL 6
REMARK VINA RESULT:    -3.527      3.682      6.393
REMARK INTER + INTRA:          -6.029
REMARK INTER:                  -4.921
REMARK INTRA:                  -1.108
REMARK UNBOUND:                -0.646
REMARK SMILES CCCCCCCCCC=CC(=O)[O-]
REMARK SMILES IDX 7 1 8 2 9 3 10 4 11 5 12 6 13 7 14 8 6 9 5 10 4 11 3 12 2 13
REMARK SMILES IDX 1 14
REMARK H PARENT
REMARK Flexibility Score: inf
ROOT
ATOM      1  C   UNL     1       3.407   3.747   5.483  1.00  0.00     0.000 C 
ENDROOT
BRANCH   1   2
ATOM      2  C   UNL     1       2.691   4.942   6.123  1.00  0.00     0.004 C 
BRANCH   2   3
ATOM      3  C   UNL     1       1.969   5.783   5.063  1.00  0.00     0.027 C 
BRANCH   3   4
ATOM      4  C   UNL     1       1.781   7.199   5.527  1.00  0.00    -0.025 C 
ATOM      5  C   UNL     1       2.544   7.726   6.490  1.00  0.00     0.020 C 
BRANCH   5   6
ATOM      6  C   UNL     1       2.368   9.106   6.971  1.00  0.00     0.064 C 
ATOM      7  O   UNL     1       3.335   9.760   7.441  1.00  0.00    -0.545 OA
ATOM      8  O   UNL     1       1.112   9.695   6.907  1.00  0.00    -0.545 OA
ENDBRANCH   5   6
ENDBRANCH   3   4
ENDBRANCH   2   3
ENDBRANCH   1   2
BRANCH   1   9
ATOM      9  C   UNL     1       3.762   2.689   6.534  1.00  0.00     0.000 C 
BRANCH   9  10
ATOM     10  C   UNL     1       2.687   2.623   7.630  1.00  0.00     0.000 C 
BRANCH  10  11
ATOM     11  C   UNL     1       1.582   1.599   7.319  1.00  0.00    -0.000 C 
BRANCH  11  12
ATOM     12  C   UNL     1       0.197   2.251   7.173  1.00  0.00    -0.000 C 
BRANCH  12  13
ATOM     13  C   UNL     1      -0.149   2.577   5.712  1.00  0.00    -0.003 C 
ATOM     14  C   UNL     1       0.429   1.563   4.725  1.00  0.00     0.004 C 
ENDBRANCH  12  13
ENDBRANCH  11  12
ENDBRANCH  10  11
ENDBRANCH   9  10
ENDBRANCH   1   9
TORSDOF 9
ENDMDL
MODEL 7
REMARK VINA RESULT:    -3.507      3.719      5.856
REMARK INTER + INTRA:          -5.998
REMARK INTER:                  -5.064
REMARK INTRA:                  -0.934
REMARK UNBOUND:                -0.646
REMARK SMILES CCCCCCCCCC=CC(=O)[O-]
REMARK SMILES IDX 7 1 8 2 9 3 10 4 11 5 12 6 13 7 14 8 6 9 5 10 4 11 3 12 2 13
REMARK SMILES IDX 1 14
REMARK H PARENT
REMARK Flexibility Score: inf
ROOT
ATOM      1  C   UNL     1       2.187   8.668   6.938  1.00  0.00     0.000 C 
ENDROOT
BRANCH   1   2
ATOM      2  C   UNL     1       1.382   9.886   6.470  1.00  0.00     0.004 C 
BRANCH   2   3
ATOM      3  C   UNL     1       0.645   9.587   5.158  1.00  0.00     0.027 C 
BRANCH   3   4
ATOM      4  C   UNL     1      -0.844   9.595   5.357  1.00  0.00    -0.025 C 
ATOM      5  C   UNL     1      -1.673   9.080   4.444  1.00  0.00     0.020 C 
BRANCH   5   6
ATOM      6  C   UNL     1      -3.136   9.091   4.610  1.00  0.00     0.064 C 
ATOM      7  O   UNL     1      -3.739  10.125   5.003  1.00  0.00    -0.545 OA
ATOM      8  O   UNL     1      -3.863   7.941   4.333  1.00  0.00    -0.545 OA
ENDBRANCH   5   6
ENDBRANCH   3   4
ENDBRANCH   2   3
ENDBRANCH   1   2
BRANCH   1   9
ATOM      9  C   UNL     1       2.923   8.010   5.765  1.00  0.00     0.000 C 
BRANCH   9  10
ATOM     10  C   UNL     1       2.900   6.479   5.892  1.00  0.00     0.000 C 
BRANCH  10  11
ATOM     11  C   UNL     1       2.784   5.771   4.532  1.00  0.00    -0.000 C 
BRANCH  11  12
ATOM     12  C   UNL     1       1.408   5.115   4.322  1.00  0.00    -0.000 C 
BRANCH  12  13
ATOM     13  C   UNL     1       0.351   6.113   3.825  1.00  0.00    -0.003 C 
ATOM     14  C   UNL     1       0.085   5.996   2.324  1.00  0.00     0.004 C 
ENDBRANCH  12  13
ENDBRANCH  11  12
ENDBRANCH  10  11
ENDBRANCH   9  10
ENDBRANCH   1   9
TORSDOF 9
ENDMDL
MODEL 8
REMARK VINA RESULT:    -3.493      3.631      6.417
REMARK INTER + INTRA:          -5.978
REMARK INTER:                  -5.186
REMARK INTRA:                  -0.792
REMARK UNBOUND:                -0.646
REMARK SMILES CCCCCCCCCC=CC(=O)[O-]
REMARK SMILES IDX 7 1 8 2 9 3 10 4 11 5 12 6 13 7 14 8 6 9 5 10 4 11 3 12 2 13
REMARK SMILES IDX 1 14
REMARK H PARENT
REMARK Flexibility Score: inf
ROOT
ATOM      1  C   UNL     1      -0.227   9.803   5.562  1.00  0.00     0.000 C 
ENDROOT
BRANCH   1   2
ATOM      2  C   UNL     1      -1.306   9.754   4.473  1.00  0.00     0.004 C 
BRANCH   2   3
ATOM      3  C   UNL     1      -2.691  10.061   5.057  1.00  0.00     0.027 C 
BRANCH   3   4
ATOM      4  C   UNL     1      -3.738   9.152   4.481  1.00  0.00    -0.025 C 
ATOM      5  C   UNL     1      -3.426   7.947   3.994  1.00  0.00     0.020 C 
BRANCH   5   6
ATOM      6  C   UNL     1      -4.433   7.046   3.410  1.00  0.00     0.064 C 
ATOM      7  O   UNL     1      -5.425   7.500   2.780  1.00  0.00    -0.545 OA
ATOM      8  O   UNL     1      -4.289   5.674   3.559  1.00  0.00    -0.545 OA
ENDBRANCH   5   6
ENDBRANCH   3   4
ENDBRANCH   2   3
ENDBRANCH   1   2
BRANCH   1   9
ATOM      9  C   UNL     1       0.820   8.703   5.349  1.00  0.00     0.000 C 
BRANCH   9  10
ATOM     10  C   UNL     1       0.325   7.664   4.331  1.00  0.00     0.000 C 
BRANCH  10  11
ATOM     11  C   UNL     1       1.446   6.731   3.842  1.00  0.00    -0.000 C 
BRANCH  11  12
ATOM     12  C   UNL     1       1.321   5.308   4.413  1.00  0.00    -0.000 C 
BRANCH  12  13
ATOM     13  C   UNL     1       2.027   5.156   5.770  1.00  0.00    -0.003 C 
ATOM     14  C   UNL     1       3.380   5.866   5.818  1.00  0.00     0.004 C 
ENDBRANCH  12  13
ENDBRANCH  11  12
ENDBRANCH  10  11
ENDBRANCH   9  10
ENDBRANCH   1   9
TORSDOF 9
ENDMDL
MODEL 9
REMARK VINA RESULT:    -3.493      9.650     12.470
REMARK INTER + INTRA:          -5.977
REMARK INTER:                  -4.494
REMARK INTRA:                  -1.483
REMARK UNBOUND:                -0.646
REMARK SMILES CCCCCCCCCC=CC(=O)[O-]
REMARK SMILES IDX 7 1 8 2 9 3 10 4 11 5 12 6 13 7 14 8 6 9 5 10 4 11 3 12 2 13
REMARK SMILES IDX 1 14
REMARK H PARENT
REMARK Flexibility Score: inf
ROOT
ATOM      1  C   UNL     1      -9.728  -0.114  11.861  1.00  0.00     0.000 C 
ENDROOT
BRANCH   1   2
ATOM      2  C   UNL     1      -8.847   1.138  11.777  1.00  0.00     0.004 C 
BRANCH   2   3
ATOM      3  C   UNL     1      -7.372   0.790  12.012  1.00  0.00     0.027 C 
BRANCH   3   4
ATOM      4  C   UNL     1      -6.508   1.296  10.892  1.00  0.00    -0.025 C 
ATOM      5  C   UNL     1      -5.233   0.912  10.765  1.00  0.00     0.020 C 
BRANCH   5   6
ATOM      6  C   UNL     1      -4.364   1.408   9.685  1.00  0.00     0.064 C 
ATOM      7  O   UNL     1      -3.581   2.376   9.872  1.00  0.00    -0.545 OA
ATOM      8  O   UNL     1      -4.411   0.799   8.438  1.00  0.00    -0.545 OA
ENDBRANCH   5   6
ENDBRANCH   3   4
ENDBRANCH   2   3
ENDBRANCH   1   2
BRANCH   1   9
ATOM      9  C   UNL     1      -8.874  -1.387  11.890  1.00  0.00     0.000 C 
BRANCH   9  10
ATOM     10  C   UNL     1      -9.305  -2.363  10.784  1.00  0.00     0.000 C 
BRANCH  10  11
ATOM     11  C   UNL     1      -9.148  -1.770   9.374  1.00  0.00    -0.000 C 
BRANCH  11  12
ATOM     12  C   UNL     1      -7.675  -1.576   8.975  1.00  0.00    -0.000 C 
BRANCH  12  13
ATOM     13  C   UNL     1      -7.518  -0.729   7.702  1.00  0.00    -0.003 C 
ATOM     14  C   UNL     1      -8.192   0.638   7.811  1.00  0.00     0.004 C 
ENDBRANCH  12  13
ENDBRANCH  11  12
ENDBRANCH  10  11
ENDBRANCH   9  10
ENDBRANCH   1   9
TORSDOF 9
ENDMDL
