MODEL 1
REMARK VINA RESULT:    -3.653      0.000      0.000
REMARK INTER + INTRA:          -3.867
REMARK INTER:                  -4.507
REMARK INTRA:                   0.640
REMARK UNBOUND:                 0.640
REMARK SMILES C=C1[C@H]2CC[C@@H]3[C@H]2C(C)(C)CCC[C@]13C
REMARK SMILES IDX 14 1 6 2 7 3 3 4 2 5 1 6 4 7 5 8 15 9 8 10 9 11 10 12 11 13
REMARK SMILES IDX 13 15 12 16
REMARK H PARENT
REMARK Flexibility Score: 80.00
ROOT
ATOM      1  C   UNL     1      30.186  10.169  33.039  1.00  0.00    -0.008 C 
ATOM      2  C   UNL     1      31.165  10.762  34.128  1.00  0.00     0.003 C 
ATOM      3  C   UNL     1      31.843   9.527  34.757  1.00  0.00     0.006 C 
ATOM      4  C   UNL     1      32.270   8.951  33.406  1.00  0.00     0.019 C 
ATOM      5  C   UNL     1      30.976   8.948  32.642  1.00  0.00    -0.068 C 
ATOM      6  C   UNL     1      30.640   8.055  31.703  1.00  0.00     0.009 C 
ATOM      7  C   UNL     1      33.114  10.120  32.842  1.00  0.00     0.008 C 
ATOM      8  C   UNL     1      32.411  11.371  33.427  1.00  0.00     0.005 C 
ATOM      9  C   UNL     1      29.975  11.107  31.818  1.00  0.00     0.016 C 
ENDROOT
BRANCH   3  10
ATOM     10  C   UNL     1      31.039   8.620  35.785  1.00  0.00    -0.032 C 
ATOM     11  C   UNL     1      31.296   7.112  35.534  1.00  0.00     0.011 C 
ATOM     12  C   UNL     1      31.582   8.920  37.210  1.00  0.00     0.011 C 
BRANCH  10  13
ATOM     13  C   UNL     1      29.512   8.909  35.860  1.00  0.00     0.007 CG0
ATOM     14  G   UNL     1      28.723   8.657  34.579  1.00  0.00     0.000 G0
ENDBRANCH  10  13
ENDBRANCH   3  10
BRANCH   1  15
ATOM     15  C   UNL     1      28.783   9.833  33.612  1.00  0.00     0.011 C 
BRANCH  15  16
ATOM     16  C   UNL     1      28.723   8.654  34.580  1.00  0.00     0.001 CG0
ATOM     17  G   UNL     1      29.516   8.909  35.859  1.00  0.00     0.000 G0
ENDBRANCH  15  16
ENDBRANCH   1  15
TORSDOF 0
ENDMDL
MODEL 2
REMARK VINA RESULT:    -3.503      1.555      3.846
REMARK INTER + INTRA:          -3.682
REMARK INTER:                  -4.317
REMARK INTRA:                   0.635
REMARK UNBOUND:                 0.640
REMARK SMILES C=C1[C@H]2CC[C@@H]3[C@H]2C(C)(C)CCC[C@]13C
REMARK SMILES IDX 14 1 6 2 7 3 3 4 2 5 1 6 4 7 5 8 15 9 8 10 9 11 10 12 11 13
REMARK SMILES IDX 13 15 12 16
REMARK H PARENT
REMARK Flexibility Score: 80.00
ROOT
ATOM      1  C   UNL     1      30.255   7.916  35.588  1.00  0.00    -0.008 C 
ATOM      2  C   UNL     1      31.519   8.788  35.953  1.00  0.00     0.003 C 
ATOM      3  C   UNL     1      31.399  10.043  35.064  1.00  0.00     0.006 C 
ATOM      4  C   UNL     1      29.965  10.339  35.508  1.00  0.00     0.019 C 
ATOM      5  C   UNL     1      29.282   9.023  35.265  1.00  0.00    -0.068 C 
ATOM      6  C   UNL     1      27.999   8.875  34.912  1.00  0.00     0.009 C 
ATOM      7  C   UNL     1      30.151  10.465  37.039  1.00  0.00     0.008 C 
ATOM      8  C   UNL     1      31.300   9.468  37.334  1.00  0.00     0.005 C 
ATOM      9  C   UNL     1      29.732   7.055  36.771  1.00  0.00     0.016 C 
ENDROOT
BRANCH   3  10
ATOM     10  C   UNL     1      31.745   9.953  33.515  1.00  0.00    -0.032 C 
ATOM     11  C   UNL     1      30.726  10.746  32.658  1.00  0.00     0.011 C 
ATOM     12  C   UNL     1      33.121  10.640  33.296  1.00  0.00     0.011 C 
BRANCH  10  13
ATOM     13  C   UNL     1      31.916   8.509  32.965  1.00  0.00     0.007 CG0
ATOM     14  G   UNL     1      30.678   7.619  33.032  1.00  0.00     0.000 G0
ENDBRANCH  10  13
ENDBRANCH   3  10
BRANCH   1  15
ATOM     15  C   UNL     1      30.510   6.956  34.395  1.00  0.00     0.011 C 
BRANCH  15  16
ATOM     16  C   UNL     1      30.680   7.618  33.030  1.00  0.00     0.001 CG0
ATOM     17  G   UNL     1      31.913   8.517  32.969  1.00  0.00     0.000 G0
ENDBRANCH  15  16
ENDBRANCH   1  15
TORSDOF 0
ENDMDL
MODEL 3
REMARK VINA RESULT:    -3.500      1.536      2.903
REMARK INTER + INTRA:          -3.678
REMARK INTER:                  -4.305
REMARK INTRA:                   0.627
REMARK UNBOUND:                 0.640
REMARK SMILES C=C1[C@H]2CC[C@@H]3[C@H]2C(C)(C)CCC[C@]13C
REMARK SMILES IDX 14 1 6 2 7 3 3 4 2 5 1 6 4 7 5 8 15 9 8 10 9 11 10 12 11 13
REMARK SMILES IDX 13 15 12 16
REMARK H PARENT
REMARK Flexibility Score: 80.00
ROOT
ATOM      1  C   UNL     1      31.488   9.362  33.813  1.00  0.00    -0.008 C 
ATOM      2  C   UNL     1      31.957   7.854  33.824  1.00  0.00     0.003 C 
ATOM      3  C   UNL     1      30.830   7.100  34.560  1.00  0.00     0.006 C 
ATOM      4  C   UNL     1      29.729   7.674  33.667  1.00  0.00     0.019 C 
ATOM      5  C   UNL     1      29.996   9.151  33.749  1.00  0.00    -0.068 C 
ATOM      6  C   UNL     1      29.060  10.106  33.682  1.00  0.00     0.009 C 
ATOM      7  C   UNL     1      30.213   7.215  32.271  1.00  0.00     0.008 C 
ATOM      8  C   UNL     1      31.756   7.238  32.411  1.00  0.00     0.005 C 
ATOM      9  C   UNL     1      31.982  10.157  32.572  1.00  0.00     0.016 C 
ENDROOT
BRANCH   3  10
ATOM     10  C   UNL     1      30.705   7.209  36.141  1.00  0.00    -0.032 C 
ATOM     11  C   UNL     1      29.226   7.338  36.585  1.00  0.00     0.011 C 
ATOM     12  C   UNL     1      31.225   5.878  36.751  1.00  0.00     0.011 C 
BRANCH  10  13
ATOM     13  C   UNL     1      31.570   8.325  36.791  1.00  0.00     0.007 CG0
ATOM     14  G   UNL     1      31.242   9.754  36.370  1.00  0.00     0.000 G0
ENDBRANCH  10  13
ENDBRANCH   3  10
BRANCH   1  15
ATOM     15  C   UNL     1      31.943  10.143  35.074  1.00  0.00     0.011 C 
BRANCH  15  16
ATOM     16  C   UNL     1      31.252   9.762  36.381  1.00  0.00     0.001 CG0
ATOM     17  G   UNL     1      31.564   8.331  36.809  1.00  0.00     0.000 G0
ENDBRANCH  15  16
ENDBRANCH   1  15
TORSDOF 0
ENDMDL
MODEL 4
REMARK VINA RESULT:    -3.495      7.488      8.871
REMARK INTER + INTRA:          -3.672
REMARK INTER:                  -4.309
REMARK INTRA:                   0.637
REMARK UNBOUND:                 0.640
REMARK SMILES C=C1[C@H]2CC[C@@H]3[C@H]2C(C)(C)CCC[C@]13C
REMARK SMILES IDX 14 1 6 2 7 3 3 4 2 5 1 6 4 7 5 8 15 9 8 10 9 11 10 12 11 13
REMARK SMILES IDX 13 15 12 16
REMARK H PARENT
REMARK Flexibility Score: 80.00
ROOT
ATOM      1  C   UNL     1      29.013   9.727  24.825  1.00  0.00    -0.008 C 
ATOM      2  C   UNL     1      28.097   9.260  26.024  1.00  0.00     0.003 C 
ATOM      3  C   UNL     1      29.082   8.708  27.076  1.00  0.00     0.006 C 
ATOM      4  C   UNL     1      29.950   9.967  27.067  1.00  0.00     0.019 C 
ATOM      5  C   UNL     1      30.237  10.141  25.603  1.00  0.00    -0.068 C 
ATOM      6  C   UNL     1      31.361  10.665  25.096  1.00  0.00     0.009 C 
ATOM      7  C   UNL     1      28.907  11.047  27.444  1.00  0.00     0.008 C 
ATOM      8  C   UNL     1      27.600  10.505  26.811  1.00  0.00     0.005 C 
ATOM      9  C   UNL     1      28.433  10.931  24.033  1.00  0.00     0.016 C 
ENDROOT
BRANCH   3  10
ATOM     10  C   UNL     1      29.752   7.283  26.862  1.00  0.00    -0.032 C 
ATOM     11  C   UNL     1      31.252   7.296  27.255  1.00  0.00     0.011 C 
ATOM     12  C   UNL     1      29.061   6.283  27.830  1.00  0.00     0.011 C 
BRANCH  10  13
ATOM     13  C   UNL     1      29.564   6.676  25.443  1.00  0.00     0.007 CG0
ATOM     14  G   UNL     1      30.192   7.461  24.294  1.00  0.00     0.000 G0
ENDBRANCH  10  13
ENDBRANCH   3  10
BRANCH   1  15
ATOM     15  C   UNL     1      29.291   8.592  23.804  1.00  0.00     0.011 C 
BRANCH  15  16
ATOM     16  C   UNL     1      30.187   7.457  24.294  1.00  0.00     0.001 CG0
ATOM     17  G   UNL     1      29.560   6.676  25.445  1.00  0.00     0.000 G0
ENDBRANCH  15  16
ENDBRANCH   1  15
TORSDOF 0
ENDMDL
MODEL 5
REMARK VINA RESULT:    -3.489      1.282      4.013
REMARK INTER + INTRA:          -3.665
REMARK INTER:                  -4.303
REMARK INTRA:                   0.638
REMARK UNBOUND:                 0.640
REMARK SMILES C=C1[C@H]2CC[C@@H]3[C@H]2C(C)(C)CCC[C@]13C
REMARK SMILES IDX 14 1 6 2 7 3 3 4 2 5 1 6 4 7 5 8 15 9 8 10 9 11 10 12 11 13
REMARK SMILES IDX 13 15 12 16
REMARK H PARENT
REMARK Flexibility Score: 80.00
ROOT
ATOM      1  C   UNL     1      29.502   8.619  36.081  1.00  0.00    -0.008 C 
ATOM      2  C   UNL     1      29.466   7.525  34.944  1.00  0.00     0.003 C 
ATOM      3  C   UNL     1      30.795   7.709  34.182  1.00  0.00     0.006 C 
ATOM      4  C   UNL     1      31.646   7.635  35.450  1.00  0.00     0.019 C 
ATOM      5  C   UNL     1      30.989   8.661  36.330  1.00  0.00    -0.068 C 
ATOM      6  C   UNL     1      31.622   9.411  37.241  1.00  0.00     0.009 C 
ATOM      7  C   UNL     1      31.232   6.250  36.002  1.00  0.00     0.008 C 
ATOM      8  C   UNL     1      29.752   6.127  35.560  1.00  0.00     0.005 C 
ATOM      9  C   UNL     1      28.743   8.201  37.370  1.00  0.00     0.016 C 
ENDROOT
BRANCH   3  10
ATOM     10  C   UNL     1      30.971   8.931  33.181  1.00  0.00    -0.032 C 
ATOM     11  C   UNL     1      32.373   9.578  33.315  1.00  0.00     0.011 C 
ATOM     12  C   UNL     1      30.890   8.374  31.732  1.00  0.00     0.011 C 
BRANCH  10  13
ATOM     13  C   UNL     1      29.859  10.014  33.266  1.00  0.00     0.007 CG0
ATOM     14  G   UNL     1      29.755  10.759  34.594  1.00  0.00     0.000 G0
ENDBRANCH  10  13
ENDBRANCH   3  10
BRANCH   1  15
ATOM     15  C   UNL     1      28.919   9.983  35.622  1.00  0.00     0.011 C 
BRANCH  15  16
ATOM     16  C   UNL     1      29.748  10.753  34.598  1.00  0.00     0.001 CG0
ATOM     17  G   UNL     1      29.859  10.016  33.266  1.00  0.00     0.000 G0
ENDBRANCH  15  16
ENDBRANCH   1  15
TORSDOF 0
ENDMDL
MODEL 6
REMARK VINA RESULT:    -3.482      1.267      3.378
REMARK INTER + INTRA:          -3.656
REMARK INTER:                  -4.291
REMARK INTRA:                   0.635
REMARK UNBOUND:                 0.640
REMARK SMILES C=C1[C@H]2CC[C@@H]3[C@H]2C(C)(C)CCC[C@]13C
REMARK SMILES IDX 14 1 6 2 7 3 3 4 2 5 1 6 4 7 5 8 15 9 8 10 9 11 10 12 11 13
REMARK SMILES IDX 13 15 12 16
REMARK H PARENT
REMARK Flexibility Score: 80.00
ROOT
ATOM      1  C   UNL     1      30.501   7.844  34.793  1.00  0.00    -0.008 C 
ATOM      2  C   UNL     1      30.230   8.576  33.420  1.00  0.00     0.003 C 
ATOM      3  C   UNL     1      29.966  10.046  33.806  1.00  0.00     0.006 C 
ATOM      4  C   UNL     1      31.250  10.163  34.629  1.00  0.00     0.019 C 
ATOM      5  C   UNL     1      31.141   8.980  35.551  1.00  0.00    -0.068 C 
ATOM      6  C   UNL     1      31.621   8.932  36.800  1.00  0.00     0.009 C 
ATOM      7  C   UNL     1      32.315   9.799  33.568  1.00  0.00     0.008 C 
ATOM      8  C   UNL     1      31.575   8.779  32.667  1.00  0.00     0.005 C 
ATOM      9  C   UNL     1      31.480   6.644  34.674  1.00  0.00     0.016 C 
ENDROOT
BRANCH   3  10
ATOM     10  C   UNL     1      28.573  10.458  34.450  1.00  0.00    -0.032 C 
ATOM     11  C   UNL     1      28.760  11.469  35.609  1.00  0.00     0.011 C 
ATOM     12  C   UNL     1      27.746  11.197  33.361  1.00  0.00     0.011 C 
BRANCH  10  13
ATOM     13  C   UNL     1      27.682   9.267  34.902  1.00  0.00     0.007 CG0
ATOM     14  G   UNL     1      28.255   8.389  36.011  1.00  0.00     0.000 G0
ENDBRANCH  10  13
ENDBRANCH   3  10
BRANCH   1  15
ATOM     15  C   UNL     1      29.202   7.317  35.459  1.00  0.00     0.011 C 
BRANCH  15  16
ATOM     16  C   UNL     1      28.253   8.381  36.005  1.00  0.00     0.001 CG0
ATOM     17  G   UNL     1      27.685   9.275  34.906  1.00  0.00     0.000 G0
ENDBRANCH  15  16
ENDBRANCH   1  15
TORSDOF 0
ENDMDL
MODEL 7
REMARK VINA RESULT:    -3.393      7.234      9.444
REMARK INTER + INTRA:          -3.546
REMARK INTER:                  -4.179
REMARK INTRA:                   0.633
REMARK UNBOUND:                 0.640
REMARK SMILES C=C1[C@H]2CC[C@@H]3[C@H]2C(C)(C)CCC[C@]13C
REMARK SMILES IDX 14 1 6 2 7 3 3 4 2 5 1 6 4 7 5 8 15 9 8 10 9 11 10 12 11 13
REMARK SMILES IDX 13 15 12 16
REMARK H PARENT
REMARK Flexibility Score: 80.00
ROOT
ATOM      1  C   UNL     1      30.288  10.706  24.095  1.00  0.00    -0.008 C 
ATOM      2  C   UNL     1      30.883  10.189  25.463  1.00  0.00     0.003 C 
ATOM      3  C   UNL     1      29.688  10.202  26.439  1.00  0.00     0.006 C 
ATOM      4  C   UNL     1      28.791   9.390  25.504  1.00  0.00     0.019 C 
ATOM      5  C   UNL     1      28.885  10.168  24.222  1.00  0.00    -0.068 C 
ATOM      6  C   UNL     1      27.907  10.275  23.314  1.00  0.00     0.009 C 
ATOM      7  C   UNL     1      29.645   8.114  25.311  1.00  0.00     0.008 C 
ATOM      8  C   UNL     1      31.096   8.651  25.388  1.00  0.00     0.005 C 
ATOM      9  C   UNL     1      30.993  10.108  22.846  1.00  0.00     0.016 C 
ENDROOT
BRANCH   3  10
ATOM     10  C   UNL     1      29.168  11.581  27.035  1.00  0.00    -0.032 C 
ATOM     11  C   UNL     1      27.619  11.636  27.071  1.00  0.00     0.011 C 
ATOM     12  C   UNL     1      29.637  11.665  28.514  1.00  0.00     0.011 C 
BRANCH  10  13
ATOM     13  C   UNL     1      29.744  12.851  26.349  1.00  0.00     0.007 CG0
ATOM     14  G   UNL     1      29.393  13.030  24.874  1.00  0.00     0.000 G0
ENDBRANCH  10  13
ENDBRANCH   3  10
BRANCH   1  15
ATOM     15  C   UNL     1      30.342  12.252  23.961  1.00  0.00     0.011 C 
BRANCH  15  16
ATOM     16  C   UNL     1      29.395  13.034  24.868  1.00  0.00     0.001 CG0
ATOM     17  G   UNL     1      29.733  12.864  26.347  1.00  0.00     0.000 G0
ENDBRANCH  15  16
ENDBRANCH   1  15
TORSDOF 0
ENDMDL
MODEL 8
REMARK VINA RESULT:    -3.388      1.695      3.034
REMARK INTER + INTRA:          -3.540
REMARK INTER:                  -4.173
REMARK INTRA:                   0.632
REMARK UNBOUND:                 0.640
REMARK SMILES C=C1[C@H]2CC[C@@H]3[C@H]2C(C)(C)CCC[C@]13C
REMARK SMILES IDX 14 1 6 2 7 3 3 4 2 5 1 6 4 7 5 8 15 9 8 10 9 11 10 12 11 13
REMARK SMILES IDX 13 15 12 16
REMARK H PARENT
REMARK Flexibility Score: 80.00
ROOT
ATOM      1  C   UNL     1      30.621   9.824  32.487  1.00  0.00    -0.008 C 
ATOM      2  C   UNL     1      29.391   9.474  33.413  1.00  0.00     0.003 C 
ATOM      3  C   UNL     1      29.967   8.530  34.490  1.00  0.00     0.006 C 
ATOM      4  C   UNL     1      31.104   9.485  34.857  1.00  0.00     0.019 C 
ATOM      5  C   UNL     1      31.722   9.769  33.517  1.00  0.00    -0.068 C 
ATOM      6  C   UNL     1      33.020  10.021  33.307  1.00  0.00     0.009 C 
ATOM      7  C   UNL     1      30.308  10.752  35.254  1.00  0.00     0.008 C 
ATOM      8  C   UNL     1      29.068  10.689  34.328  1.00  0.00     0.005 C 
ATOM      9  C   UNL     1      30.536  11.238  31.850  1.00  0.00     0.016 C 
ENDROOT
BRANCH   3  10
ATOM     10  C   UNL     1      30.290   7.017  34.126  1.00  0.00    -0.032 C 
ATOM     11  C   UNL     1      31.626   6.553  34.761  1.00  0.00     0.011 C 
ATOM     12  C   UNL     1      29.181   6.130  34.754  1.00  0.00     0.011 C 
BRANCH  10  13
ATOM     13  C   UNL     1      30.266   6.689  32.606  1.00  0.00     0.007 CG0
ATOM     14  G   UNL     1      31.290   7.426  31.748  1.00  0.00     0.000 G0
ENDBRANCH  10  13
ENDBRANCH   3  10
BRANCH   1  15
ATOM     15  C   UNL     1      30.812   8.806  31.331  1.00  0.00     0.011 C 
BRANCH  15  16
ATOM     16  C   UNL     1      31.285   7.413  31.739  1.00  0.00     0.001 CG0
ATOM     17  G   UNL     1      30.269   6.687  32.617  1.00  0.00     0.000 G0
ENDBRANCH  15  16
ENDBRANCH   1  15
TORSDOF 0
ENDMDL
MODEL 9
REMARK VINA RESULT:    -3.293      9.030     11.191
REMARK INTER + INTRA:          -3.422
REMARK INTER:                  -4.052
REMARK INTRA:                   0.630
REMARK UNBOUND:                 0.640
REMARK SMILES C=C1[C@H]2CC[C@@H]3[C@H]2C(C)(C)CCC[C@]13C
REMARK SMILES IDX 14 1 6 2 7 3 3 4 2 5 1 6 4 7 5 8 15 9 8 10 9 11 10 12 11 13
REMARK SMILES IDX 13 15 12 16
REMARK H PARENT
REMARK Flexibility Score: 80.00
ROOT
ATOM      1  C   UNL     1      30.996   9.868  22.077  1.00  0.00    -0.008 C 
ATOM      2  C   UNL     1      31.212   8.544  22.910  1.00  0.00     0.003 C 
ATOM      3  C   UNL     1      29.971   8.451  23.823  1.00  0.00     0.006 C 
ATOM      4  C   UNL     1      28.986   8.613  22.664  1.00  0.00     0.019 C 
ATOM      5  C   UNL     1      29.490   9.860  21.994  1.00  0.00    -0.068 C 
ATOM      6  C   UNL     1      28.725  10.754  21.356  1.00  0.00     0.009 C 
ATOM      7  C   UNL     1      29.397   7.427  21.759  1.00  0.00     0.008 C 
ATOM      8  C   UNL     1      30.922   7.311  22.009  1.00  0.00     0.005 C 
ATOM      9  C   UNL     1      31.623   9.816  20.656  1.00  0.00     0.016 C 
ENDROOT
BRANCH   3  10
ATOM     10  C   UNL     1      29.854   9.391  25.099  1.00  0.00    -0.032 C 
ATOM     11  C   UNL     1      28.416   9.946  25.265  1.00  0.00     0.011 C 
ATOM     12  C   UNL     1      30.129   8.520  26.357  1.00  0.00     0.011 C 
BRANCH  10  13
ATOM     13  C   UNL     1      30.896  10.543  25.162  1.00  0.00     0.007 CG0
ATOM     14  G   UNL     1      30.823  11.571  24.036  1.00  0.00     0.000 G0
ENDBRANCH  10  13
ENDBRANCH   3  10
BRANCH   1  15
ATOM     15  C   UNL     1      31.565  11.125  22.787  1.00  0.00     0.011 C 
BRANCH  15  16
ATOM     16  C   UNL     1      30.822  11.576  24.043  1.00  0.00     0.001 CG0
ATOM     17  G   UNL     1      30.899  10.545  25.166  1.00  0.00     0.000 G0
ENDBRANCH  15  16
ENDBRANCH   1  15
TORSDOF 0
ENDMDL
