MODEL 1
REMARK VINA RESULT:    -5.182      0.000      0.000
REMARK INTER + INTRA:          -9.881
REMARK INTER:                  -9.120
REMARK INTRA:                  -0.761
REMARK UNBOUND:                -0.761
REMARK SMILES CCCCCCCCCCCCCCC(=O)[O-]
REMARK SMILES IDX 9 1 10 2 11 3 12 4 13 5 14 6 15 7 16 8 17 9 8 10 7 11 6 12
REMARK SMILES IDX 5 13 4 14 3 15 2 16 1 17
REMARK H PARENT
REMARK Flexibility Score: inf
ROOT
ATOM      1  C   UNL     1      81.922  59.779  10.708  1.00  0.00     0.000 C 
ENDROOT
BRANCH   1   2
ATOM      2  C   UNL     1      82.702  60.074  12.005  1.00  0.00     0.000 C 
BRANCH   2   3
ATOM      3  C   UNL     1      84.234  60.003  11.869  1.00  0.00     0.000 C 
BRANCH   3   4
ATOM      4  C   UNL     1      84.966  60.562  13.102  1.00  0.00     0.000 C 
BRANCH   4   5
ATOM      5  C   UNL     1      84.304  60.146  14.430  1.00  0.00     0.006 C 
BRANCH   5   6
ATOM      6  C   UNL     1      84.217  61.282  15.462  1.00  0.00     0.053 C 
BRANCH   6   7
ATOM      7  C   UNL     1      85.486  61.450  16.237  1.00  0.00     0.041 C 
ATOM      8  O   UNL     1      86.460  62.070  15.731  1.00  0.00    -0.550 OA
ATOM      9  O   UNL     1      85.594  60.932  17.521  1.00  0.00    -0.550 OA
ENDBRANCH   6   7
ENDBRANCH   5   6
ENDBRANCH   4   5
ENDBRANCH   3   4
ENDBRANCH   2   3
ENDBRANCH   1   2
BRANCH   1  10
ATOM     10  C   UNL     1      81.182  58.426  10.679  1.00  0.00     0.000 C 
BRANCH  10  11
ATOM     11  C   UNL     1      79.692  58.505  10.300  1.00  0.00    -0.000 C 
BRANCH  11  12
ATOM     12  C   UNL     1      78.890  57.283  10.780  1.00  0.00    -0.000 C 
BRANCH  12  13
ATOM     13  C   UNL     1      79.687  55.973  10.665  1.00  0.00    -0.000 C 
BRANCH  13  14
ATOM     14  C   UNL     1      79.614  55.361   9.254  1.00  0.00    -0.000 C 
BRANCH  14  15
ATOM     15  C   UNL     1      78.170  55.080   8.806  1.00  0.00    -0.000 C 
BRANCH  15  16
ATOM     16  C   UNL     1      77.943  55.378   7.316  1.00  0.00    -0.003 C 
ATOM     17  C   UNL     1      77.817  56.878   7.070  1.00  0.00     0.004 C 
ENDBRANCH  15  16
ENDBRANCH  14  15
ENDBRANCH  13  14
ENDBRANCH  12  13
ENDBRANCH  11  12
ENDBRANCH  10  11
ENDBRANCH   1  10
TORSDOF 13
ENDMDL
MODEL 2
REMARK VINA RESULT:    -5.130      3.073      5.119
REMARK INTER + INTRA:          -9.790
REMARK INTER:                  -8.820
REMARK INTRA:                  -0.970
REMARK UNBOUND:                -0.761
REMARK SMILES CCCCCCCCCCCCCCC(=O)[O-]
REMARK SMILES IDX 9 1 10 2 11 3 12 4 13 5 14 6 15 7 16 8 17 9 8 10 7 11 6 12
REMARK SMILES IDX 5 13 4 14 3 15 2 16 1 17
REMARK H PARENT
REMARK Flexibility Score: inf
ROOT
ATOM      1  C   UNL     1      84.962  60.556  13.385  1.00  0.00     0.000 C 
ENDROOT
BRANCH   1   2
ATOM      2  C   UNL     1      84.480  60.209  14.809  1.00  0.00     0.000 C 
BRANCH   2   3
ATOM      3  C   UNL     1      84.304  61.419  15.745  1.00  0.00     0.000 C 
BRANCH   3   4
ATOM      4  C   UNL     1      85.448  62.440  15.619  1.00  0.00     0.000 C 
BRANCH   4   5
ATOM      5  C   UNL     1      85.002  63.879  15.941  1.00  0.00     0.006 C 
BRANCH   5   6
ATOM      6  C   UNL     1      85.232  64.872  14.790  1.00  0.00     0.053 C 
BRANCH   6   7
ATOM      7  C   UNL     1      84.252  66.003  14.803  1.00  0.00     0.041 C 
ATOM      8  O   UNL     1      84.217  66.822  13.846  1.00  0.00    -0.550 OA
ATOM      9  O   UNL     1      83.370  66.150  15.866  1.00  0.00    -0.550 OA
ENDBRANCH   6   7
ENDBRANCH   5   6
ENDBRANCH   4   5
ENDBRANCH   3   4
ENDBRANCH   2   3
ENDBRANCH   1   2
BRANCH   1  10
ATOM     10  C   UNL     1      86.133  59.700  12.862  1.00  0.00     0.000 C 
BRANCH  10  11
ATOM     11  C   UNL     1      85.853  58.941  11.552  1.00  0.00    -0.000 C 
BRANCH  11  12
ATOM     12  C   UNL     1      85.122  59.804  10.509  1.00  0.00    -0.000 C 
BRANCH  12  13
ATOM     13  C   UNL     1      84.156  58.985   9.638  1.00  0.00    -0.000 C 
BRANCH  13  14
ATOM     14  C   UNL     1      82.916  58.511  10.418  1.00  0.00    -0.000 C 
BRANCH  14  15
ATOM     15  C   UNL     1      82.156  59.672  11.081  1.00  0.00    -0.000 C 
BRANCH  15  16
ATOM     16  C   UNL     1      80.888  60.067  10.310  1.00  0.00    -0.003 C 
ATOM     17  C   UNL     1      79.866  58.935  10.318  1.00  0.00     0.004 C 
ENDBRANCH  15  16
ENDBRANCH  14  15
ENDBRANCH  13  14
ENDBRANCH  12  13
ENDBRANCH  11  12
ENDBRANCH  10  11
ENDBRANCH   1  10
TORSDOF 13
ENDMDL
MODEL 3
REMARK VINA RESULT:    -5.076      4.218      5.166
REMARK INTER + INTRA:          -9.695
REMARK INTER:                  -9.004
REMARK INTRA:                  -0.691
REMARK UNBOUND:                -0.761
REMARK SMILES CCCCCCCCCCCCCCC(=O)[O-]
REMARK SMILES IDX 9 1 10 2 11 3 12 4 13 5 14 6 15 7 16 8 17 9 8 10 7 11 6 12
REMARK SMILES IDX 5 13 4 14 3 15 2 16 1 17
REMARK H PARENT
REMARK Flexibility Score: inf
ROOT
ATOM      1  C   UNL     1      82.288  59.758  11.387  1.00  0.00     0.000 C 
ENDROOT
BRANCH   1   2
ATOM      2  C   UNL     1      83.768  60.042  11.057  1.00  0.00     0.000 C 
BRANCH   2   3
ATOM      3  C   UNL     1      83.995  61.039   9.906  1.00  0.00     0.000 C 
BRANCH   3   4
ATOM      4  C   UNL     1      84.450  62.424  10.400  1.00  0.00     0.000 C 
BRANCH   4   5
ATOM      5  C   UNL     1      85.180  63.235   9.312  1.00  0.00     0.006 C 
BRANCH   5   6
ATOM      6  C   UNL     1      84.889  62.755   7.881  1.00  0.00     0.053 C 
BRANCH   6   7
ATOM      7  C   UNL     1      85.658  63.523   6.851  1.00  0.00     0.041 C 
ATOM      8  O   UNL     1      85.483  64.764   6.726  1.00  0.00    -0.550 OA
ATOM      9  O   UNL     1      86.572  62.872   6.034  1.00  0.00    -0.550 OA
ENDBRANCH   6   7
ENDBRANCH   5   6
ENDBRANCH   4   5
ENDBRANCH   3   4
ENDBRANCH   2   3
ENDBRANCH   1   2
BRANCH   1  10
ATOM     10  C   UNL     1      81.279  60.185  10.302  1.00  0.00     0.000 C 
BRANCH  10  11
ATOM     11  C   UNL     1      79.978  59.364  10.262  1.00  0.00    -0.000 C 
BRANCH  11  12
ATOM     12  C   UNL     1      80.204  57.874  10.574  1.00  0.00    -0.000 C 
BRANCH  12  13
ATOM     13  C   UNL     1      78.898  57.138  10.911  1.00  0.00    -0.000 C 
BRANCH  13  14
ATOM     14  C   UNL     1      78.480  56.144   9.811  1.00  0.00    -0.000 C 
BRANCH  14  15
ATOM     15  C   UNL     1      77.702  56.820   8.670  1.00  0.00    -0.000 C 
BRANCH  15  16
ATOM     16  C   UNL     1      77.748  56.016   7.362  1.00  0.00    -0.003 C 
ATOM     17  C   UNL     1      78.030  54.542   7.636  1.00  0.00     0.004 C 
ENDBRANCH  15  16
ENDBRANCH  14  15
ENDBRANCH  13  14
ENDBRANCH  12  13
ENDBRANCH  11  12
ENDBRANCH  10  11
ENDBRANCH   1  10
TORSDOF 13
ENDMDL
MODEL 4
REMARK VINA RESULT:    -5.041      2.972      4.482
REMARK INTER + INTRA:          -9.632
REMARK INTER:                  -8.209
REMARK INTRA:                  -1.424
REMARK UNBOUND:                -0.761
REMARK SMILES CCCCCCCCCCCCCCC(=O)[O-]
REMARK SMILES IDX 9 1 10 2 11 3 12 4 13 5 14 6 15 7 16 8 17 9 8 10 7 11 6 12
REMARK SMILES IDX 5 13 4 14 3 15 2 16 1 17
REMARK H PARENT
REMARK Flexibility Score: inf
ROOT
ATOM      1  C   UNL     1      78.905  57.125  10.737  1.00  0.00     0.000 C 
ENDROOT
BRANCH   1   2
ATOM      2  C   UNL     1      79.488  58.444  10.191  1.00  0.00     0.000 C 
BRANCH   2   3
ATOM      3  C   UNL     1      80.901  58.787  10.696  1.00  0.00     0.000 C 
BRANCH   3   4
ATOM      4  C   UNL     1      81.250  60.275  10.522  1.00  0.00     0.000 C 
BRANCH   4   5
ATOM      5  C   UNL     1      82.756  60.512  10.292  1.00  0.00     0.006 C 
BRANCH   5   6
ATOM      6  C   UNL     1      83.587  59.219  10.250  1.00  0.00     0.053 C 
BRANCH   6   7
ATOM      7  C   UNL     1      84.945  59.391  10.855  1.00  0.00     0.041 C 
ATOM      8  O   UNL     1      85.134  59.126  12.073  1.00  0.00    -0.550 OA
ATOM      9  O   UNL     1      86.005  59.836  10.077  1.00  0.00    -0.550 OA
ENDBRANCH   6   7
ENDBRANCH   5   6
ENDBRANCH   4   5
ENDBRANCH   3   4
ENDBRANCH   2   3
ENDBRANCH   1   2
BRANCH   1  10
ATOM     10  C   UNL     1      77.900  56.416   9.807  1.00  0.00     0.000 C 
BRANCH  10  11
ATOM     11  C   UNL     1      77.877  56.931   8.357  1.00  0.00    -0.000 C 
BRANCH  11  12
ATOM     12  C   UNL     1      78.248  55.844   7.333  1.00  0.00    -0.000 C 
BRANCH  12  13
ATOM     13  C   UNL     1      77.954  54.426   7.847  1.00  0.00    -0.000 C 
BRANCH  13  14
ATOM     14  C   UNL     1      79.230  53.577   7.998  1.00  0.00    -0.000 C 
BRANCH  14  15
ATOM     15  C   UNL     1      80.507  54.433   8.043  1.00  0.00    -0.000 C 
BRANCH  15  16
ATOM     16  C   UNL     1      81.367  54.150   9.283  1.00  0.00    -0.003 C 
ATOM     17  C   UNL     1      82.125  55.400   9.721  1.00  0.00     0.004 C 
ENDBRANCH  15  16
ENDBRANCH  14  15
ENDBRANCH  13  14
ENDBRANCH  12  13
ENDBRANCH  11  12
ENDBRANCH  10  11
ENDBRANCH   1  10
TORSDOF 13
ENDMDL
MODEL 5
REMARK VINA RESULT:    -5.028      4.083      4.843
REMARK INTER + INTRA:          -9.610
REMARK INTER:                  -8.813
REMARK INTRA:                  -0.797
REMARK UNBOUND:                -0.761
REMARK SMILES CCCCCCCCCCCCCCC(=O)[O-]
REMARK SMILES IDX 9 1 10 2 11 3 12 4 13 5 14 6 15 7 16 8 17 9 8 10 7 11 6 12
REMARK SMILES IDX 5 13 4 14 3 15 2 16 1 17
REMARK H PARENT
REMARK Flexibility Score: inf
ROOT
ATOM      1  C   UNL     1      80.875  58.779  10.645  1.00  0.00     0.000 C 
ENDROOT
BRANCH   1   2
ATOM      2  C   UNL     1      81.301  60.250  10.460  1.00  0.00     0.000 C 
BRANCH   2   3
ATOM      3  C   UNL     1      82.814  60.507  10.587  1.00  0.00     0.000 C 
BRANCH   3   4
ATOM      4  C   UNL     1      83.253  61.815   9.907  1.00  0.00     0.000 C 
BRANCH   4   5
ATOM      5  C   UNL     1      84.702  62.210  10.252  1.00  0.00     0.006 C 
BRANCH   5   6
ATOM      6  C   UNL     1      85.258  63.351   9.384  1.00  0.00     0.053 C 
BRANCH   6   7
ATOM      7  C   UNL     1      85.029  63.123   7.923  1.00  0.00     0.041 C 
ATOM      8  O   UNL     1      84.320  63.927   7.260  1.00  0.00    -0.550 OA
ATOM      9  O   UNL     1      85.604  62.030   7.289  1.00  0.00    -0.550 OA
ENDBRANCH   6   7
ENDBRANCH   5   6
ENDBRANCH   4   5
ENDBRANCH   3   4
ENDBRANCH   2   3
ENDBRANCH   1   2
BRANCH   1  10
ATOM     10  C   UNL     1      79.382  58.490  10.390  1.00  0.00     0.000 C 
BRANCH  10  11
ATOM     11  C   UNL     1      78.961  57.021  10.575  1.00  0.00    -0.000 C 
BRANCH  11  12
ATOM     12  C   UNL     1      77.747  56.637   9.710  1.00  0.00    -0.000 C 
BRANCH  12  13
ATOM     13  C   UNL     1      78.036  56.754   8.205  1.00  0.00    -0.000 C 
BRANCH  13  14
ATOM     14  C   UNL     1      77.778  55.437   7.451  1.00  0.00    -0.000 C 
BRANCH  14  15
ATOM     15  C   UNL     1      78.478  54.235   8.106  1.00  0.00    -0.000 C 
BRANCH  15  16
ATOM     16  C   UNL     1      79.975  54.166   7.771  1.00  0.00    -0.003 C 
ATOM     17  C   UNL     1      80.826  54.313   9.028  1.00  0.00     0.004 C 
ENDBRANCH  15  16
ENDBRANCH  14  15
ENDBRANCH  13  14
ENDBRANCH  12  13
ENDBRANCH  11  12
ENDBRANCH  10  11
ENDBRANCH   1  10
TORSDOF 13
ENDMDL
MODEL 6
REMARK VINA RESULT:    -5.025      5.747      9.188
REMARK INTER + INTRA:          -9.605
REMARK INTER:                  -8.901
REMARK INTRA:                  -0.704
REMARK UNBOUND:                -0.761
REMARK SMILES CCCCCCCCCCCCCCC(=O)[O-]
REMARK SMILES IDX 9 1 10 2 11 3 12 4 13 5 14 6 15 7 16 8 17 9 8 10 7 11 6 12
REMARK SMILES IDX 5 13 4 14 3 15 2 16 1 17
REMARK H PARENT
REMARK Flexibility Score: inf
ROOT
ATOM      1  C   UNL     1      82.032  58.815  10.558  1.00  0.00     0.000 C 
ENDROOT
BRANCH   1   2
ATOM      2  C   UNL     1      80.799  59.732  10.428  1.00  0.00     0.000 C 
BRANCH   2   3
ATOM      3  C   UNL     1      79.481  59.004  10.106  1.00  0.00     0.000 C 
BRANCH   3   4
ATOM      4  C   UNL     1      79.421  57.589  10.707  1.00  0.00     0.000 C 
BRANCH   4   5
ATOM      5  C   UNL     1      79.087  56.509   9.660  1.00  0.00     0.006 C 
BRANCH   5   6
ATOM      6  C   UNL     1      77.756  56.747   8.927  1.00  0.00     0.053 C 
BRANCH   6   7
ATOM      7  C   UNL     1      77.755  56.180   7.542  1.00  0.00     0.041 C 
ATOM      8  O   UNL     1      77.748  56.949   6.543  1.00  0.00    -0.550 OA
ATOM      9  O   UNL     1      77.770  54.805   7.351  1.00  0.00    -0.550 OA
ENDBRANCH   6   7
ENDBRANCH   5   6
ENDBRANCH   4   5
ENDBRANCH   3   4
ENDBRANCH   2   3
ENDBRANCH   1   2
BRANCH   1  10
ATOM     10  C   UNL     1      83.389  59.495  10.286  1.00  0.00     0.000 C 
BRANCH  10  11
ATOM     11  C   UNL     1      83.396  61.026  10.450  1.00  0.00    -0.000 C 
BRANCH  11  12
ATOM     12  C   UNL     1      84.808  61.593  10.681  1.00  0.00    -0.000 C 
BRANCH  12  13
ATOM     13  C   UNL     1      85.167  62.703   9.681  1.00  0.00    -0.000 C 
BRANCH  13  14
ATOM     14  C   UNL     1      84.123  62.846   8.558  1.00  0.00    -0.000 C 
BRANCH  14  15
ATOM     15  C   UNL     1      84.585  63.797   7.441  1.00  0.00    -0.000 C 
BRANCH  15  16
ATOM     16  C   UNL     1      86.101  63.737   7.201  1.00  0.00    -0.003 C 
ATOM     17  C   UNL     1      86.737  65.114   7.365  1.00  0.00     0.004 C 
ENDBRANCH  15  16
ENDBRANCH  14  15
ENDBRANCH  13  14
ENDBRANCH  12  13
ENDBRANCH  11  12
ENDBRANCH  10  11
ENDBRANCH   1  10
TORSDOF 13
ENDMDL
MODEL 7
REMARK VINA RESULT:    -4.937      3.989      7.773
REMARK INTER + INTRA:          -9.450
REMARK INTER:                  -8.382
REMARK INTRA:                  -1.068
REMARK UNBOUND:                -0.761
REMARK SMILES CCCCCCCCCCCCCCC(=O)[O-]
REMARK SMILES IDX 9 1 10 2 11 3 12 4 13 5 14 6 15 7 16 8 17 9 8 10 7 11 6 12
REMARK SMILES IDX 5 13 4 14 3 15 2 16 1 17
REMARK H PARENT
REMARK Flexibility Score: inf
ROOT
ATOM      1  C   UNL     1      77.921  57.001   8.421  1.00  0.00     0.000 C 
ENDROOT
BRANCH   1   2
ATOM      2  C   UNL     1      77.810  55.716   7.576  1.00  0.00     0.000 C 
BRANCH   2   3
ATOM      3  C   UNL     1      78.255  54.428   8.292  1.00  0.00     0.000 C 
BRANCH   3   4
ATOM      4  C   UNL     1      79.726  54.072   8.015  1.00  0.00     0.000 C 
BRANCH   4   5
ATOM      5  C   UNL     1      80.184  52.804   8.761  1.00  0.00     0.006 C 
BRANCH   5   6
ATOM      6  C   UNL     1      81.417  53.022   9.654  1.00  0.00     0.053 C 
BRANCH   6   7
ATOM      7  C   UNL     1      81.362  54.318  10.401  1.00  0.00     0.041 C 
ATOM      8  O   UNL     1      82.062  55.296  10.024  1.00  0.00    -0.550 OA
ATOM      9  O   UNL     1      80.535  54.451  11.508  1.00  0.00    -0.550 OA
ENDBRANCH   6   7
ENDBRANCH   5   6
ENDBRANCH   4   5
ENDBRANCH   3   4
ENDBRANCH   2   3
ENDBRANCH   1   2
BRANCH   1  10
ATOM     10  C   UNL     1      78.173  56.777   9.926  1.00  0.00     0.000 C 
BRANCH  10  11
ATOM     11  C   UNL     1      79.340  57.587  10.520  1.00  0.00    -0.000 C 
BRANCH  11  12
ATOM     12  C   UNL     1      79.382  59.036  10.004  1.00  0.00    -0.000 C 
BRANCH  12  13
ATOM     13  C   UNL     1      80.694  59.751  10.363  1.00  0.00    -0.000 C 
BRANCH  13  14
ATOM     14  C   UNL     1      81.804  58.771  10.786  1.00  0.00    -0.000 C 
BRANCH  14  15
ATOM     15  C   UNL     1      83.184  59.172  10.240  1.00  0.00    -0.000 C 
BRANCH  15  16
ATOM     16  C   UNL     1      83.464  60.675  10.379  1.00  0.00    -0.003 C 
ATOM     17  C   UNL     1      84.638  60.930  11.319  1.00  0.00     0.004 C 
ENDBRANCH  15  16
ENDBRANCH  14  15
ENDBRANCH  13  14
ENDBRANCH  12  13
ENDBRANCH  11  12
ENDBRANCH  10  11
ENDBRANCH   1  10
TORSDOF 13
ENDMDL
MODEL 8
REMARK VINA RESULT:    -4.931      4.518      8.489
REMARK INTER + INTRA:          -9.438
REMARK INTER:                  -8.406
REMARK INTRA:                  -1.032
REMARK UNBOUND:                -0.761
REMARK SMILES CCCCCCCCCCCCCCC(=O)[O-]
REMARK SMILES IDX 9 1 10 2 11 3 12 4 13 5 14 6 15 7 16 8 17 9 8 10 7 11 6 12
REMARK SMILES IDX 5 13 4 14 3 15 2 16 1 17
REMARK H PARENT
REMARK Flexibility Score: inf
ROOT
ATOM      1  C   UNL     1      79.790  57.448  10.408  1.00  0.00     0.000 C 
ENDROOT
BRANCH   1   2
ATOM      2  C   UNL     1      78.434  56.714  10.444  1.00  0.00     0.000 C 
BRANCH   2   3
ATOM      3  C   UNL     1      77.493  57.032   9.267  1.00  0.00     0.000 C 
BRANCH   3   4
ATOM      4  C   UNL     1      77.756  56.143   8.039  1.00  0.00     0.000 C 
BRANCH   4   5
ATOM      5  C   UNL     1      78.187  54.713   8.418  1.00  0.00     0.006 C 
BRANCH   5   6
ATOM      6  C   UNL     1      79.497  54.263   7.752  1.00  0.00     0.053 C 
BRANCH   6   7
ATOM      7  C   UNL     1      80.470  53.686   8.732  1.00  0.00     0.041 C 
ATOM      8  O   UNL     1      80.379  53.970   9.956  1.00  0.00    -0.550 OA
ATOM      9  O   UNL     1      81.473  52.830   8.297  1.00  0.00    -0.550 OA
ENDBRANCH   6   7
ENDBRANCH   5   6
ENDBRANCH   4   5
ENDBRANCH   3   4
ENDBRANCH   2   3
ENDBRANCH   1   2
BRANCH   1  10
ATOM     10  C   UNL     1      79.722  58.934  10.001  1.00  0.00     0.000 C 
BRANCH  10  11
ATOM     11  C   UNL     1      80.754  59.847  10.686  1.00  0.00    -0.000 C 
BRANCH  11  12
ATOM     12  C   UNL     1      82.135  59.183  10.825  1.00  0.00    -0.000 C 
BRANCH  12  13
ATOM     13  C   UNL     1      83.095  59.998  11.706  1.00  0.00    -0.000 C 
BRANCH  13  14
ATOM     14  C   UNL     1      84.468  60.212  11.041  1.00  0.00    -0.000 C 
BRANCH  14  15
ATOM     15  C   UNL     1      84.352  60.795   9.623  1.00  0.00    -0.000 C 
BRANCH  15  16
ATOM     16  C   UNL     1      84.661  62.299   9.573  1.00  0.00    -0.003 C 
ATOM     17  C   UNL     1      83.379  63.124   9.627  1.00  0.00     0.004 C 
ENDBRANCH  15  16
ENDBRANCH  14  15
ENDBRANCH  13  14
ENDBRANCH  12  13
ENDBRANCH  11  12
ENDBRANCH  10  11
ENDBRANCH   1  10
TORSDOF 13
ENDMDL
MODEL 9
REMARK VINA RESULT:    -4.922      2.850      5.300
REMARK INTER + INTRA:          -9.423
REMARK INTER:                  -7.864
REMARK INTRA:                  -1.559
REMARK UNBOUND:                -0.761
REMARK SMILES CCCCCCCCCCCCCCC(=O)[O-]
REMARK SMILES IDX 9 1 10 2 11 3 12 4 13 5 14 6 15 7 16 8 17 9 8 10 7 11 6 12
REMARK SMILES IDX 5 13 4 14 3 15 2 16 1 17
REMARK H PARENT
REMARK Flexibility Score: inf
ROOT
ATOM      1  C   UNL     1      77.741  56.968   8.744  1.00  0.00     0.000 C 
ENDROOT
BRANCH   1   2
ATOM      2  C   UNL     1      78.339  56.805  10.156  1.00  0.00     0.000 C 
BRANCH   2   3
ATOM      3  C   UNL     1      79.615  57.626  10.417  1.00  0.00     0.000 C 
BRANCH   3   4
ATOM      4  C   UNL     1      79.548  59.039   9.812  1.00  0.00     0.000 C 
BRANCH   4   5
ATOM      5  C   UNL     1      80.583  60.001  10.426  1.00  0.00     0.006 C 
BRANCH   5   6
ATOM      6  C   UNL     1      81.731  59.290  11.163  1.00  0.00     0.053 C 
BRANCH   6   7
ATOM      7  C   UNL     1      82.928  60.170  11.344  1.00  0.00     0.041 C 
ATOM      8  O   UNL     1      83.556  60.167  12.437  1.00  0.00    -0.550 OA
ATOM      9  O   UNL     1      83.357  60.987  10.307  1.00  0.00    -0.550 OA
ENDBRANCH   6   7
ENDBRANCH   5   6
ENDBRANCH   4   5
ENDBRANCH   3   4
ENDBRANCH   2   3
ENDBRANCH   1   2
BRANCH   1  10
ATOM     10  C   UNL     1      77.820  55.715   7.848  1.00  0.00     0.000 C 
BRANCH  10  11
ATOM     11  C   UNL     1      78.509  54.497   8.489  1.00  0.00    -0.000 C 
BRANCH  11  12
ATOM     12  C   UNL     1      79.727  54.011   7.683  1.00  0.00    -0.000 C 
BRANCH  12  13
ATOM     13  C   UNL     1      80.996  53.899   8.543  1.00  0.00    -0.000 C 
BRANCH  13  14
ATOM     14  C   UNL     1      80.694  53.960  10.051  1.00  0.00    -0.000 C 
BRANCH  14  15
ATOM     15  C   UNL     1      81.765  54.736  10.837  1.00  0.00    -0.000 C 
BRANCH  15  16
ATOM     16  C   UNL     1      83.078  54.891  10.055  1.00  0.00    -0.003 C 
ATOM     17  C   UNL     1      83.403  56.362   9.815  1.00  0.00     0.004 C 
ENDBRANCH  15  16
ENDBRANCH  14  15
ENDBRANCH  13  14
ENDBRANCH  12  13
ENDBRANCH  11  12
ENDBRANCH  10  11
ENDBRANCH   1  10
TORSDOF 13
ENDMDL
