MODEL 1
REMARK VINA RESULT:    -3.744      0.000      0.000
REMARK INTER + INTRA:          -7.227
REMARK INTER:                  -6.370
REMARK INTRA:                  -0.857
REMARK UNBOUND:                -0.857
REMARK SMILES CCCCCCCCCCCCCC(=O)[O-]
REMARK SMILES IDX 8 1 9 2 10 3 11 4 12 5 13 6 14 7 15 8 16 9 7 10 6 11 5 12
REMARK SMILES IDX 4 13 3 14 2 15 1 16
REMARK H PARENT
REMARK Flexibility Score: inf
ROOT
ATOM      1  C   UNL     1      59.034  27.166  49.477  1.00  0.00     0.000 C 
ENDROOT
BRANCH   1   2
ATOM      2  C   UNL     1      60.363  26.531  49.916  1.00  0.00     0.000 C 
BRANCH   2   3
ATOM      3  C   UNL     1      60.208  25.616  51.143  1.00  0.00     0.000 C 
BRANCH   3   4
ATOM      4  C   UNL     1      59.697  24.214  50.773  1.00  0.00     0.000 C 
BRANCH   4   5
ATOM      5  C   UNL     1      60.767  23.363  50.066  1.00  0.00     0.006 C 
BRANCH   5   6
ATOM      6  C   UNL     1      60.543  21.860  50.275  1.00  0.00     0.053 C 
BRANCH   6   7
ATOM      7  C   UNL     1      60.442  21.127  48.973  1.00  0.00     0.041 C 
ATOM      8  O   UNL     1      61.174  21.453  48.004  1.00  0.00    -0.550 OA
ATOM      9  O   UNL     1      59.512  20.106  48.819  1.00  0.00    -0.550 OA
ENDBRANCH   6   7
ENDBRANCH   5   6
ENDBRANCH   4   5
ENDBRANCH   3   4
ENDBRANCH   2   3
ENDBRANCH   1   2
BRANCH   1  10
ATOM     10  C   UNL     1      59.182  28.653  49.114  1.00  0.00     0.000 C 
BRANCH  10  11
ATOM     11  C   UNL     1      58.155  29.542  49.835  1.00  0.00    -0.000 C 
BRANCH  11  12
ATOM     12  C   UNL     1      57.274  28.757  50.818  1.00  0.00    -0.000 C 
BRANCH  12  13
ATOM     13  C   UNL     1      55.828  29.273  50.792  1.00  0.00    -0.000 C 
BRANCH  13  14
ATOM     14  C   UNL     1      54.844  28.271  50.161  1.00  0.00    -0.000 C 
BRANCH  14  15
ATOM     15  C   UNL     1      55.363  26.825  50.068  1.00  0.00    -0.003 C 
ATOM     16  C   UNL     1      54.429  25.903  49.286  1.00  0.00     0.004 C 
ENDBRANCH  14  15
ENDBRANCH  13  14
ENDBRANCH  12  13
ENDBRANCH  11  12
ENDBRANCH  10  11
ENDBRANCH   1  10
TORSDOF 12
ENDMDL
MODEL 2
REMARK VINA RESULT:    -3.706      3.540      5.022
REMARK INTER + INTRA:          -7.164
REMARK INTER:                  -5.510
REMARK INTRA:                  -1.654
REMARK UNBOUND:                -0.857
REMARK SMILES CCCCCCCCCCCCCC(=O)[O-]
REMARK SMILES IDX 8 1 9 2 10 3 11 4 12 5 13 6 14 7 15 8 16 9 7 10 6 11 5 12
REMARK SMILES IDX 4 13 3 14 2 15 1 16
REMARK H PARENT
REMARK Flexibility Score: inf
ROOT
ATOM      1  C   UNL     1      57.478  26.719  52.043  1.00  0.00     0.000 C 
ENDROOT
BRANCH   1   2
ATOM      2  C   UNL     1      57.005  28.160  52.292  1.00  0.00     0.000 C 
BRANCH   2   3
ATOM      3  C   UNL     1      57.997  29.210  51.762  1.00  0.00     0.000 C 
BRANCH   3   4
ATOM      4  C   UNL     1      57.709  29.612  50.307  1.00  0.00     0.000 C 
BRANCH   4   5
ATOM      5  C   UNL     1      58.952  29.500  49.407  1.00  0.00     0.006 C 
BRANCH   5   6
ATOM      6  C   UNL     1      59.328  28.041  49.118  1.00  0.00     0.053 C 
BRANCH   6   7
ATOM      7  C   UNL     1      60.679  27.696  49.663  1.00  0.00     0.041 C 
ATOM      8  O   UNL     1      61.622  28.526  49.590  1.00  0.00    -0.550 OA
ATOM      9  O   UNL     1      60.906  26.444  50.218  1.00  0.00    -0.550 OA
ENDBRANCH   6   7
ENDBRANCH   5   6
ENDBRANCH   4   5
ENDBRANCH   3   4
ENDBRANCH   2   3
ENDBRANCH   1   2
BRANCH   1  10
ATOM     10  C   UNL     1      56.421  25.867  51.320  1.00  0.00     0.000 C 
BRANCH  10  11
ATOM     11  C   UNL     1      55.966  26.493  49.991  1.00  0.00    -0.000 C 
BRANCH  11  12
ATOM     12  C   UNL     1      54.564  26.031  49.566  1.00  0.00    -0.000 C 
BRANCH  12  13
ATOM     13  C   UNL     1      53.592  27.219  49.501  1.00  0.00    -0.000 C 
BRANCH  13  14
ATOM     14  C   UNL     1      53.743  28.185  50.690  1.00  0.00    -0.000 C 
BRANCH  14  15
ATOM     15  C   UNL     1      54.012  29.650  50.304  1.00  0.00    -0.003 C 
ATOM     16  C   UNL     1      53.823  30.620  51.469  1.00  0.00     0.004 C 
ENDBRANCH  14  15
ENDBRANCH  13  14
ENDBRANCH  12  13
ENDBRANCH  11  12
ENDBRANCH  10  11
ENDBRANCH   1  10
TORSDOF 12
ENDMDL
MODEL 3
REMARK VINA RESULT:    -3.598      5.590      7.801
REMARK INTER + INTRA:          -6.980
REMARK INTER:                  -5.328
REMARK INTRA:                  -1.652
REMARK UNBOUND:                -0.857
REMARK SMILES CCCCCCCCCCCCCC(=O)[O-]
REMARK SMILES IDX 8 1 9 2 10 3 11 4 12 5 13 6 14 7 15 8 16 9 7 10 6 11 5 12
REMARK SMILES IDX 4 13 3 14 2 15 1 16
REMARK H PARENT
REMARK Flexibility Score: inf
ROOT
ATOM      1  C   UNL     1      61.054  18.909  49.341  1.00  0.00     0.000 C 
ENDROOT
BRANCH   1   2
ATOM      2  C   UNL     1      60.373  17.540  49.494  1.00  0.00     0.000 C 
BRANCH   2   3
ATOM      3  C   UNL     1      59.276  17.301  48.442  1.00  0.00     0.000 C 
BRANCH   3   4
ATOM      4  C   UNL     1      57.922  16.938  49.074  1.00  0.00     0.000 C 
BRANCH   4   5
ATOM      5  C   UNL     1      57.762  17.504  50.496  1.00  0.00     0.006 C 
BRANCH   5   6
ATOM      6  C   UNL     1      57.167  18.918  50.492  1.00  0.00     0.053 C 
BRANCH   6   7
ATOM      7  C   UNL     1      55.781  18.939  51.057  1.00  0.00     0.041 C 
ATOM      8  O   UNL     1      54.793  19.137  50.303  1.00  0.00    -0.550 OA
ATOM      9  O   UNL     1      55.583  18.778  52.422  1.00  0.00    -0.550 OA
ENDBRANCH   6   7
ENDBRANCH   5   6
ENDBRANCH   4   5
ENDBRANCH   3   4
ENDBRANCH   2   3
ENDBRANCH   1   2
BRANCH   1  10
ATOM     10  C   UNL     1      60.202  19.905  48.537  1.00  0.00     0.000 C 
BRANCH  10  11
ATOM     11  C   UNL     1      60.758  21.338  48.591  1.00  0.00    -0.000 C 
BRANCH  11  12
ATOM     12  C   UNL     1      61.353  21.693  49.962  1.00  0.00    -0.000 C 
BRANCH  12  13
ATOM     13  C   UNL     1      60.374  22.549  50.780  1.00  0.00    -0.000 C 
BRANCH  13  14
ATOM     14  C   UNL     1      59.670  21.754  51.896  1.00  0.00    -0.000 C 
BRANCH  14  15
ATOM     15  C   UNL     1      60.416  20.491  52.362  1.00  0.00    -0.003 C 
ATOM     16  C   UNL     1      59.553  19.570  53.222  1.00  0.00     0.004 C 
ENDBRANCH  14  15
ENDBRANCH  13  14
ENDBRANCH  12  13
ENDBRANCH  11  12
ENDBRANCH  10  11
ENDBRANCH   1  10
TORSDOF 12
ENDMDL
MODEL 4
REMARK VINA RESULT:    -3.590      2.682      4.037
REMARK INTER + INTRA:          -6.966
REMARK INTER:                  -5.562
REMARK INTRA:                  -1.404
REMARK UNBOUND:                -0.857
REMARK SMILES CCCCCCCCCCCCCC(=O)[O-]
REMARK SMILES IDX 8 1 9 2 10 3 11 4 12 5 13 6 14 7 15 8 16 9 7 10 6 11 5 12
REMARK SMILES IDX 4 13 3 14 2 15 1 16
REMARK H PARENT
REMARK Flexibility Score: inf
ROOT
ATOM      1  C   UNL     1      57.157  28.728  52.278  1.00  0.00     0.000 C 
ENDROOT
BRANCH   1   2
ATOM      2  C   UNL     1      58.661  29.029  52.178  1.00  0.00     0.000 C 
BRANCH   2   3
ATOM      3  C   UNL     1      59.009  29.927  50.979  1.00  0.00     0.000 C 
BRANCH   3   4
ATOM      4  C   UNL     1      58.593  29.306  49.636  1.00  0.00     0.000 C 
BRANCH   4   5
ATOM      5  C   UNL     1      59.431  28.068  49.273  1.00  0.00     0.006 C 
BRANCH   5   6
ATOM      6  C   UNL     1      58.625  26.768  49.393  1.00  0.00     0.053 C 
BRANCH   6   7
ATOM      7  C   UNL     1      59.300  25.776  50.289  1.00  0.00     0.041 C 
ATOM      8  O   UNL     1      60.534  25.557  50.175  1.00  0.00    -0.550 OA
ATOM      9  O   UNL     1      58.559  25.065  51.223  1.00  0.00    -0.550 OA
ENDBRANCH   6   7
ENDBRANCH   5   6
ENDBRANCH   4   5
ENDBRANCH   3   4
ENDBRANCH   2   3
ENDBRANCH   1   2
BRANCH   1  10
ATOM     10  C   UNL     1      56.382  29.835  53.012  1.00  0.00     0.000 C 
BRANCH  10  11
ATOM     11  C   UNL     1      55.182  30.354  52.201  1.00  0.00    -0.000 C 
BRANCH  11  12
ATOM     12  C   UNL     1      55.108  29.744  50.793  1.00  0.00    -0.000 C 
BRANCH  12  13
ATOM     13  C   UNL     1      53.649  29.524  50.367  1.00  0.00    -0.000 C 
BRANCH  13  14
ATOM     14  C   UNL     1      53.383  28.099  49.849  1.00  0.00    -0.000 C 
BRANCH  14  15
ATOM     15  C   UNL     1      54.588  27.144  49.932  1.00  0.00    -0.003 C 
ATOM     16  C   UNL     1      54.378  25.848  49.152  1.00  0.00     0.004 C 
ENDBRANCH  14  15
ENDBRANCH  13  14
ENDBRANCH  12  13
ENDBRANCH  11  12
ENDBRANCH  10  11
ENDBRANCH   1  10
TORSDOF 12
ENDMDL
MODEL 5
REMARK VINA RESULT:    -3.558      3.104      5.681
REMARK INTER + INTRA:          -6.911
REMARK INTER:                  -5.115
REMARK INTRA:                  -1.796
REMARK UNBOUND:                -0.857
REMARK SMILES CCCCCCCCCCCCCC(=O)[O-]
REMARK SMILES IDX 8 1 9 2 10 3 11 4 12 5 13 6 14 7 15 8 16 9 7 10 6 11 5 12
REMARK SMILES IDX 4 13 3 14 2 15 1 16
REMARK H PARENT
REMARK Flexibility Score: inf
ROOT
ATOM      1  C   UNL     1      54.726  29.263  50.783  1.00  0.00     0.000 C 
ENDROOT
BRANCH   1   2
ATOM      2  C   UNL     1      56.193  29.333  50.331  1.00  0.00     0.000 C 
BRANCH   2   3
ATOM      3  C   UNL     1      57.164  29.577  51.499  1.00  0.00     0.000 C 
BRANCH   3   4
ATOM      4  C   UNL     1      58.637  29.461  51.076  1.00  0.00     0.000 C 
BRANCH   4   5
ATOM      5  C   UNL     1      58.805  29.314  49.553  1.00  0.00     0.006 C 
BRANCH   5   6
ATOM      6  C   UNL     1      59.891  28.294  49.187  1.00  0.00     0.053 C 
BRANCH   6   7
ATOM      7  C   UNL     1      61.147  28.512  49.973  1.00  0.00     0.041 C 
ATOM      8  O   UNL     1      61.535  27.646  50.799  1.00  0.00    -0.550 OA
ATOM      9  O   UNL     1      61.868  29.689  49.821  1.00  0.00    -0.550 OA
ENDBRANCH   6   7
ENDBRANCH   5   6
ENDBRANCH   4   5
ENDBRANCH   3   4
ENDBRANCH   2   3
ENDBRANCH   1   2
BRANCH   1  10
ATOM     10  C   UNL     1      53.932  28.172  50.046  1.00  0.00     0.000 C 
BRANCH  10  11
ATOM     11  C   UNL     1      54.768  26.909  49.782  1.00  0.00    -0.000 C 
BRANCH  11  12
ATOM     12  C   UNL     1      54.724  25.913  50.950  1.00  0.00    -0.000 C 
BRANCH  12  13
ATOM     13  C   UNL     1      56.075  25.863  51.680  1.00  0.00    -0.000 C 
BRANCH  13  14
ATOM     14  C   UNL     1      57.277  25.886  50.718  1.00  0.00    -0.000 C 
BRANCH  14  15
ATOM     15  C   UNL     1      58.643  25.638  51.382  1.00  0.00    -0.003 C 
ATOM     16  C   UNL     1      59.583  24.796  50.521  1.00  0.00     0.004 C 
ENDBRANCH  14  15
ENDBRANCH  13  14
ENDBRANCH  12  13
ENDBRANCH  11  12
ENDBRANCH  10  11
ENDBRANCH   1  10
TORSDOF 12
ENDMDL
MODEL 6
REMARK VINA RESULT:    -3.538      3.441      5.928
REMARK INTER + INTRA:          -6.878
REMARK INTER:                  -4.920
REMARK INTRA:                  -1.958
REMARK UNBOUND:                -0.857
REMARK SMILES CCCCCCCCCCCCCC(=O)[O-]
REMARK SMILES IDX 8 1 9 2 10 3 11 4 12 5 13 6 14 7 15 8 16 9 7 10 6 11 5 12
REMARK SMILES IDX 4 13 3 14 2 15 1 16
REMARK H PARENT
REMARK Flexibility Score: inf
ROOT
ATOM      1  C   UNL     1      59.480  29.615  51.427  1.00  0.00     0.000 C 
ENDROOT
BRANCH   1   2
ATOM      2  C   UNL     1      58.221  30.159  52.120  1.00  0.00     0.000 C 
BRANCH   2   3
ATOM      3  C   UNL     1      57.126  29.092  52.285  1.00  0.00     0.000 C 
BRANCH   3   4
ATOM      4  C   UNL     1      55.845  29.435  51.508  1.00  0.00     0.000 C 
BRANCH   4   5
ATOM      5  C   UNL     1      55.629  28.520  50.290  1.00  0.00     0.006 C 
BRANCH   5   6
ATOM      6  C   UNL     1      54.166  28.082  50.147  1.00  0.00     0.053 C 
BRANCH   6   7
ATOM      7  C   UNL     1      54.052  26.701  49.580  1.00  0.00     0.041 C 
ATOM      8  O   UNL     1      54.960  25.855  49.785  1.00  0.00    -0.550 OA
ATOM      9  O   UNL     1      52.959  26.360  48.793  1.00  0.00    -0.550 OA
ENDBRANCH   6   7
ENDBRANCH   5   6
ENDBRANCH   4   5
ENDBRANCH   3   4
ENDBRANCH   2   3
ENDBRANCH   1   2
BRANCH   1  10
ATOM     10  C   UNL     1      59.521  29.952  49.927  1.00  0.00     0.000 C 
BRANCH  10  11
ATOM     11  C   UNL     1      59.107  28.764  49.043  1.00  0.00    -0.000 C 
BRANCH  11  12
ATOM     12  C   UNL     1      59.626  27.419  49.573  1.00  0.00    -0.000 C 
BRANCH  12  13
ATOM     13  C   UNL     1      58.480  26.406  49.715  1.00  0.00    -0.000 C 
BRANCH  13  14
ATOM     14  C   UNL     1      58.497  25.667  51.066  1.00  0.00    -0.000 C 
BRANCH  14  15
ATOM     15  C   UNL     1      59.759  25.899  51.916  1.00  0.00    -0.003 C 
ATOM     16  C   UNL     1      59.447  26.379  53.332  1.00  0.00     0.004 C 
ENDBRANCH  14  15
ENDBRANCH  13  14
ENDBRANCH  12  13
ENDBRANCH  11  12
ENDBRANCH  10  11
ENDBRANCH   1  10
TORSDOF 12
ENDMDL
MODEL 7
REMARK VINA RESULT:    -3.498      1.708      2.795
REMARK INTER + INTRA:          -6.809
REMARK INTER:                  -5.741
REMARK INTRA:                  -1.068
REMARK UNBOUND:                -0.857
REMARK SMILES CCCCCCCCCCCCCC(=O)[O-]
REMARK SMILES IDX 8 1 9 2 10 3 11 4 12 5 13 6 14 7 15 8 16 9 7 10 6 11 5 12
REMARK SMILES IDX 4 13 3 14 2 15 1 16
REMARK H PARENT
REMARK Flexibility Score: inf
ROOT
ATOM      1  C   UNL     1      58.861  28.671  49.235  1.00  0.00     0.000 C 
ENDROOT
BRANCH   1   2
ATOM      2  C   UNL     1      59.696  29.630  50.097  1.00  0.00     0.000 C 
BRANCH   2   3
ATOM      3  C   UNL     1      61.126  29.119  50.340  1.00  0.00     0.000 C 
BRANCH   3   4
ATOM      4  C   UNL     1      61.406  27.787  49.626  1.00  0.00     0.000 C 
BRANCH   4   5
ATOM      5  C   UNL     1      61.587  26.616  50.608  1.00  0.00     0.006 C 
BRANCH   5   6
ATOM      6  C   UNL     1      60.565  25.497  50.369  1.00  0.00     0.053 C 
BRANCH   6   7
ATOM      7  C   UNL     1      61.213  24.148  50.347  1.00  0.00     0.041 C 
ATOM      8  O   UNL     1      62.297  23.955  50.955  1.00  0.00    -0.550 OA
ATOM      9  O   UNL     1      60.637  23.112  49.622  1.00  0.00    -0.550 OA
ENDBRANCH   6   7
ENDBRANCH   5   6
ENDBRANCH   4   5
ENDBRANCH   3   4
ENDBRANCH   2   3
ENDBRANCH   1   2
BRANCH   1  10
ATOM     10  C   UNL     1      57.665  28.080  50.001  1.00  0.00     0.000 C 
BRANCH  10  11
ATOM     11  C   UNL     1      57.129  29.029  51.086  1.00  0.00    -0.000 C 
BRANCH  11  12
ATOM     12  C   UNL     1      55.652  29.396  50.877  1.00  0.00    -0.000 C 
BRANCH  12  13
ATOM     13  C   UNL     1      54.757  28.152  50.988  1.00  0.00    -0.000 C 
BRANCH  13  14
ATOM     14  C   UNL     1      53.598  28.156  49.975  1.00  0.00    -0.000 C 
BRANCH  14  15
ATOM     15  C   UNL     1      53.282  26.786  49.347  1.00  0.00    -0.003 C 
ATOM     16  C   UNL     1      54.505  25.876  49.252  1.00  0.00     0.004 C 
ENDBRANCH  14  15
ENDBRANCH  13  14
ENDBRANCH  12  13
ENDBRANCH  11  12
ENDBRANCH  10  11
ENDBRANCH   1  10
TORSDOF 12
ENDMDL
MODEL 8
REMARK VINA RESULT:    -3.493      2.217      3.709
REMARK INTER + INTRA:          -6.800
REMARK INTER:                  -5.654
REMARK INTRA:                  -1.146
REMARK UNBOUND:                -0.857
REMARK SMILES CCCCCCCCCCCCCC(=O)[O-]
REMARK SMILES IDX 8 1 9 2 10 3 11 4 12 5 13 6 14 7 15 8 16 9 7 10 6 11 5 12
REMARK SMILES IDX 4 13 3 14 2 15 1 16
REMARK H PARENT
REMARK Flexibility Score: inf
ROOT
ATOM      1  C   UNL     1      57.355  28.877  50.367  1.00  0.00     0.000 C 
ENDROOT
BRANCH   1   2
ATOM      2  C   UNL     1      58.602  29.311  49.581  1.00  0.00     0.000 C 
BRANCH   2   3
ATOM      3  C   UNL     1      59.499  28.124  49.188  1.00  0.00     0.000 C 
BRANCH   3   4
ATOM      4  C   UNL     1      60.978  28.363  49.532  1.00  0.00     0.000 C 
BRANCH   4   5
ATOM      5  C   UNL     1      61.676  27.094  50.051  1.00  0.00     0.006 C 
BRANCH   5   6
ATOM      6  C   UNL     1      60.905  26.441  51.206  1.00  0.00     0.053 C 
BRANCH   6   7
ATOM      7  C   UNL     1      60.891  24.948  51.091  1.00  0.00     0.041 C 
ATOM      8  O   UNL     1      61.318  24.236  52.037  1.00  0.00    -0.550 OA
ATOM      9  O   UNL     1      60.442  24.344  49.924  1.00  0.00    -0.550 OA
ENDBRANCH   6   7
ENDBRANCH   5   6
ENDBRANCH   4   5
ENDBRANCH   3   4
ENDBRANCH   2   3
ENDBRANCH   1   2
BRANCH   1  10
ATOM     10  C   UNL     1      57.435  27.417  50.842  1.00  0.00     0.000 C 
BRANCH  10  11
ATOM     11  C   UNL     1      56.598  26.464  49.973  1.00  0.00    -0.000 C 
BRANCH  11  12
ATOM     12  C   UNL     1      55.187  26.233  50.534  1.00  0.00    -0.000 C 
BRANCH  12  13
ATOM     13  C   UNL     1      54.129  26.357  49.427  1.00  0.00    -0.000 C 
BRANCH  13  14
ATOM     14  C   UNL     1      53.202  27.572  49.616  1.00  0.00    -0.000 C 
BRANCH  14  15
ATOM     15  C   UNL     1      53.549  28.470  50.818  1.00  0.00    -0.003 C 
ATOM     16  C   UNL     1      53.794  29.926  50.425  1.00  0.00     0.004 C 
ENDBRANCH  14  15
ENDBRANCH  13  14
ENDBRANCH  12  13
ENDBRANCH  11  12
ENDBRANCH  10  11
ENDBRANCH   1  10
TORSDOF 12
ENDMDL
MODEL 9
REMARK VINA RESULT:    -3.489      3.140      6.185
REMARK INTER + INTRA:          -6.795
REMARK INTER:                  -5.924
REMARK INTRA:                  -0.871
REMARK UNBOUND:                -0.857
REMARK SMILES CCCCCCCCCCCCCC(=O)[O-]
REMARK SMILES IDX 8 1 9 2 10 3 11 4 12 5 13 6 14 7 15 8 16 9 7 10 6 11 5 12
REMARK SMILES IDX 4 13 3 14 2 15 1 16
REMARK H PARENT
REMARK Flexibility Score: inf
ROOT
ATOM      1  C   UNL     1      58.866  29.259  49.226  1.00  0.00     0.000 C 
ENDROOT
BRANCH   1   2
ATOM      2  C   UNL     1      57.980  29.418  50.471  1.00  0.00     0.000 C 
BRANCH   2   3
ATOM      3  C   UNL     1      56.896  28.330  50.572  1.00  0.00     0.000 C 
BRANCH   3   4
ATOM      4  C   UNL     1      55.474  28.914  50.593  1.00  0.00     0.000 C 
BRANCH   4   5
ATOM      5  C   UNL     1      54.430  27.947  50.007  1.00  0.00     0.006 C 
BRANCH   5   6
ATOM      6  C   UNL     1      54.994  26.532  49.820  1.00  0.00     0.053 C 
BRANCH   6   7
ATOM      7  C   UNL     1      54.029  25.484  50.282  1.00  0.00     0.041 C 
ATOM      8  O   UNL     1      53.298  24.886  49.451  1.00  0.00    -0.550 OA
ATOM      9  O   UNL     1      53.912  25.195  51.636  1.00  0.00    -0.550 OA
ENDBRANCH   6   7
ENDBRANCH   5   6
ENDBRANCH   4   5
ENDBRANCH   3   4
ENDBRANCH   2   3
ENDBRANCH   1   2
BRANCH   1  10
ATOM     10  C   UNL     1      59.701  27.969  49.256  1.00  0.00     0.000 C 
BRANCH  10  11
ATOM     11  C   UNL     1      61.185  28.231  49.561  1.00  0.00    -0.000 C 
BRANCH  11  12
ATOM     12  C   UNL     1      61.891  27.012  50.172  1.00  0.00    -0.000 C 
BRANCH  12  13
ATOM     13  C   UNL     1      61.277  26.648  51.532  1.00  0.00    -0.000 C 
BRANCH  13  14
ATOM     14  C   UNL     1      60.884  25.162  51.635  1.00  0.00    -0.000 C 
BRANCH  14  15
ATOM     15  C   UNL     1      61.722  24.209  50.764  1.00  0.00    -0.003 C 
ATOM     16  C   UNL     1      60.882  23.428  49.755  1.00  0.00     0.004 C 
ENDBRANCH  14  15
ENDBRANCH  13  14
ENDBRANCH  12  13
ENDBRANCH  11  12
ENDBRANCH  10  11
ENDBRANCH   1  10
TORSDOF 12
ENDMDL
