MODEL 1
REMARK VINA RESULT:    -1.557      0.000      0.000
REMARK INTER + INTRA:          -1.945
REMARK INTER:                  -1.829
REMARK INTRA:                  -0.115
REMARK UNBOUND:                -0.115
REMARK SMILES O=C([O-])CCC(=O)[O-]
REMARK SMILES IDX 4 1 2 2 1 3 3 4 5 5 6 6 7 7 8 8
REMARK H PARENT
REMARK Flexibility Score: inf
ROOT
ATOM      1  C   UNL     1     139.705  55.124 -12.147  1.00  0.00     0.059 C 
ENDROOT
BRANCH   1   2
ATOM      2  C   UNL     1     139.677  54.029 -13.166  1.00  0.00     0.042 C 
ATOM      3  O   UNL     1     138.578  53.610 -13.616  1.00  0.00    -0.550 OA
ATOM      4  O   UNL     1     140.867  53.506 -13.657  1.00  0.00    -0.550 OA
ENDBRANCH   1   2
BRANCH   1   5
ATOM      5  C   UNL     1     139.809  56.488 -12.829  1.00  0.00     0.059 C 
BRANCH   5   6
ATOM      6  C   UNL     1     141.236  56.935 -12.893  1.00  0.00     0.042 C 
ATOM      7  O   UNL     1     141.890  57.117 -11.832  1.00  0.00    -0.550 OA
ATOM      8  O   UNL     1     141.857  57.104 -14.123  1.00  0.00    -0.550 OA
ENDBRANCH   5   6
ENDBRANCH   1   5
TORSDOF 3
ENDMDL
MODEL 2
REMARK VINA RESULT:    -1.492      2.644      3.409
REMARK INTER + INTRA:          -1.869
REMARK INTER:                  -1.737
REMARK INTRA:                  -0.132
REMARK UNBOUND:                -0.115
REMARK SMILES O=C([O-])CCC(=O)[O-]
REMARK SMILES IDX 4 1 2 2 1 3 3 4 5 5 6 6 7 7 8 8
REMARK H PARENT
REMARK Flexibility Score: inf
ROOT
ATOM      1  C   UNL     1     139.963  56.799 -10.746  1.00  0.00     0.059 C 
ENDROOT
BRANCH   1   2
ATOM      2  C   UNL     1     138.838  56.208  -9.957  1.00  0.00     0.042 C 
ATOM      3  O   UNL     1     137.880  56.932  -9.578  1.00  0.00    -0.550 OA
ATOM      4  O   UNL     1     138.823  54.846  -9.682  1.00  0.00    -0.550 OA
ENDBRANCH   1   2
BRANCH   1   5
ATOM      5  C   UNL     1     139.619  56.823 -12.235  1.00  0.00     0.059 C 
BRANCH   5   6
ATOM      6  C   UNL     1     140.134  55.591 -12.912  1.00  0.00     0.042 C 
ATOM      7  O   UNL     1     141.341  55.523 -13.268  1.00  0.00    -0.550 OA
ATOM      8  O   UNL     1     139.296  54.502 -13.106  1.00  0.00    -0.550 OA
ENDBRANCH   5   6
ENDBRANCH   1   5
TORSDOF 3
ENDMDL
MODEL 3
REMARK VINA RESULT:    -1.488      1.759      2.191
REMARK INTER + INTRA:          -1.864
REMARK INTER:                  -1.740
REMARK INTRA:                  -0.124
REMARK UNBOUND:                -0.115
REMARK SMILES O=C([O-])CCC(=O)[O-]
REMARK SMILES IDX 4 1 2 2 1 3 3 4 5 5 6 6 7 7 8 8
REMARK H PARENT
REMARK Flexibility Score: inf
ROOT
ATOM      1  C   UNL     1     140.363  55.160 -12.939  1.00  0.00     0.059 C 
ENDROOT
BRANCH   1   2
ATOM      2  C   UNL     1     139.356  54.066 -12.779  1.00  0.00     0.042 C 
ATOM      3  O   UNL     1     138.639  53.717 -13.754  1.00  0.00    -0.550 OA
ATOM      4  O   UNL     1     139.243  53.396 -11.567  1.00  0.00    -0.550 OA
ENDBRANCH   1   2
BRANCH   1   5
ATOM      5  C   UNL     1     139.731  56.518 -12.637  1.00  0.00     0.059 C 
BRANCH   5   6
ATOM      6  C   UNL     1     139.816  56.824 -11.175  1.00  0.00     0.042 C 
ATOM      7  O   UNL     1     138.765  56.975 -10.497  1.00  0.00    -0.550 OA
ATOM      8  O   UNL     1     141.055  56.894 -10.550  1.00  0.00    -0.550 OA
ENDBRANCH   5   6
ENDBRANCH   1   5
TORSDOF 3
ENDMDL
MODEL 4
REMARK VINA RESULT:    -1.483      3.073      3.980
REMARK INTER + INTRA:          -1.858
REMARK INTER:                  -1.740
REMARK INTRA:                  -0.118
REMARK UNBOUND:                -0.115
REMARK SMILES O=C([O-])CCC(=O)[O-]
REMARK SMILES IDX 4 1 2 2 1 3 3 4 5 5 6 6 7 7 8 8
REMARK H PARENT
REMARK Flexibility Score: inf
ROOT
ATOM      1  C   UNL     1     140.297  56.530 -11.046  1.00  0.00     0.059 C 
ENDROOT
BRANCH   1   2
ATOM      2  C   UNL     1     140.142  56.295 -12.515  1.00  0.00     0.042 C 
ATOM      3  O   UNL     1     140.605  57.125 -13.341  1.00  0.00    -0.550 OA
ATOM      4  O   UNL     1     139.531  55.135 -12.973  1.00  0.00    -0.550 OA
ENDBRANCH   1   2
BRANCH   1   5
ATOM      5  C   UNL     1     138.997  57.070 -10.450  1.00  0.00     0.059 C 
BRANCH   5   6
ATOM      6  C   UNL     1     138.334  56.027  -9.606  1.00  0.00     0.042 C 
ATOM      7  O   UNL     1     138.876  54.901  -9.449  1.00  0.00    -0.550 OA
ATOM      8  O   UNL     1     137.143  56.315  -8.953  1.00  0.00    -0.550 OA
ENDBRANCH   5   6
ENDBRANCH   1   5
TORSDOF 3
ENDMDL
MODEL 5
REMARK VINA RESULT:    -1.475      1.100      3.670
REMARK INTER + INTRA:          -1.849
REMARK INTER:                  -1.770
REMARK INTRA:                  -0.079
REMARK UNBOUND:                -0.115
REMARK SMILES O=C([O-])CCC(=O)[O-]
REMARK SMILES IDX 4 1 2 2 1 3 3 4 5 5 6 6 7 7 8 8
REMARK H PARENT
REMARK Flexibility Score: inf
ROOT
ATOM      1  C   UNL     1     139.821  56.504 -12.739  1.00  0.00     0.059 C 
ENDROOT
BRANCH   1   2
ATOM      2  C   UNL     1     141.251  56.908 -12.902  1.00  0.00     0.042 C 
ATOM      3  O   UNL     1     141.729  57.100 -14.052  1.00  0.00    -0.550 OA
ATOM      4  O   UNL     1     142.045  57.124 -11.783  1.00  0.00    -0.550 OA
ENDBRANCH   1   2
BRANCH   1   5
ATOM      5  C   UNL     1     139.653  55.614 -11.508  1.00  0.00     0.059 C 
BRANCH   5   6
ATOM      6  C   UNL     1     139.423  54.192 -11.916  1.00  0.00     0.042 C 
ATOM      7  O   UNL     1     139.561  53.263 -11.076  1.00  0.00    -0.550 OA
ATOM      8  O   UNL     1     139.010  53.897 -13.208  1.00  0.00    -0.550 OA
ENDBRANCH   5   6
ENDBRANCH   1   5
TORSDOF 3
ENDMDL
MODEL 6
REMARK VINA RESULT:    -1.458      1.829      3.636
REMARK INTER + INTRA:          -1.828
REMARK INTER:                  -1.651
REMARK INTRA:                  -0.178
REMARK UNBOUND:                -0.115
REMARK SMILES O=C([O-])CCC(=O)[O-]
REMARK SMILES IDX 4 1 2 2 1 3 3 4 5 5 6 6 7 7 8 8
REMARK H PARENT
REMARK Flexibility Score: inf
ROOT
ATOM      1  C   UNL     1     139.607  56.909 -12.310  1.00  0.00     0.059 C 
ENDROOT
BRANCH   1   2
ATOM      2  C   UNL     1     139.711  56.730 -10.829  1.00  0.00     0.042 C 
ATOM      3  O   UNL     1     140.738  57.123 -10.214  1.00  0.00    -0.550 OA
ATOM      4  O   UNL     1     138.654  56.174 -10.119  1.00  0.00    -0.550 OA
ENDBRANCH   1   2
BRANCH   1   5
ATOM      5  C   UNL     1     140.640  56.042 -13.029  1.00  0.00     0.059 C 
BRANCH   5   6
ATOM      6  C   UNL     1     140.278  54.594 -12.919  1.00  0.00     0.042 C 
ATOM      7  O   UNL     1     141.076  53.781 -12.383  1.00  0.00    -0.550 OA
ATOM      8  O   UNL     1     139.039  54.151 -13.365  1.00  0.00    -0.550 OA
ENDBRANCH   5   6
ENDBRANCH   1   5
TORSDOF 3
ENDMDL
MODEL 7
REMARK VINA RESULT:    -1.404      1.894      2.902
REMARK INTER + INTRA:          -1.765
REMARK INTER:                  -1.650
REMARK INTRA:                  -0.116
REMARK UNBOUND:                -0.115
REMARK SMILES O=C([O-])CCC(=O)[O-]
REMARK SMILES IDX 4 1 2 2 1 3 3 4 5 5 6 6 7 7 8 8
REMARK H PARENT
REMARK Flexibility Score: inf
ROOT
ATOM      1  C   UNL     1     139.968  55.473 -12.853  1.00  0.00     0.059 C 
ENDROOT
BRANCH   1   2
ATOM      2  C   UNL     1     141.365  55.611 -13.367  1.00  0.00     0.042 C 
ATOM      3  O   UNL     1     141.785  56.727 -13.772  1.00  0.00    -0.550 OA
ATOM      4  O   UNL     1     142.222  54.517 -13.354  1.00  0.00    -0.550 OA
ENDBRANCH   1   2
BRANCH   1   5
ATOM      5  C   UNL     1     139.504  56.778 -12.207  1.00  0.00     0.059 C 
BRANCH   5   6
ATOM      6  C   UNL     1     139.684  56.721 -10.722  1.00  0.00     0.042 C 
ATOM      7  O   UNL     1     138.765  56.266  -9.990  1.00  0.00    -0.550 OA
ATOM      8  O   UNL     1     140.883  57.125 -10.151  1.00  0.00    -0.550 OA
ENDBRANCH   5   6
ENDBRANCH   1   5
TORSDOF 3
ENDMDL
