MODEL 1
REMARK VINA RESULT:    -8.035      0.000      0.000
REMARK INTER + INTRA:         -12.957
REMARK INTER:                 -11.088
REMARK INTRA:                  -1.869
REMARK UNBOUND:                -1.869
REMARK SMILES CC[C@@H](CC[C@@H](C)[C@H]1CC[C@H]2C3=CC[C@H]4C[C@H](O)CC[C@@]4(C)[C@@H]3CC[C@]12C)C(C)C
REMARK SMILES IDX 5 1 4 2 3 3 2 4 1 5 28 6 29 7 30 8 6 9 7 10 8 11 9 12 26 13
REMARK SMILES IDX 10 14 11 15 25 16 27 17 12 18 24 19 23 20 13 21 21 22 14 23
REMARK SMILES IDX 15 24 20 25 22 26 16 27 19 28 17 29 18 30
REMARK H PARENT 18 31
REMARK Flexibility Score: inf
ROOT
ATOM      1  C   UNL     1      -3.975  27.594  50.038  1.00  0.00     0.004 C 
ENDROOT
BRANCH   1   2
ATOM      2  C   UNL     1      -3.318  27.666  51.439  1.00  0.00     0.004 C 
BRANCH   2   3
ATOM      3  C   UNL     1      -2.181  26.636  51.740  1.00  0.00    -0.009 C 
BRANCH   3   4
ATOM      4  C   UNL     1      -2.465  25.890  53.077  1.00  0.00     0.000 C 
ATOM      5  C   UNL     1      -3.646  26.489  53.861  1.00  0.00     0.004 C 
ENDBRANCH   3   4
BRANCH   3   6
ATOM      6  C   UNL     1      -0.754  27.290  51.719  1.00  0.00    -0.014 C 
ATOM      7  C   UNL     1      -0.776  28.671  52.399  1.00  0.00     0.007 C 
ATOM      8  C   UNL     1      -0.140  27.412  50.314  1.00  0.00     0.007 C 
ENDBRANCH   3   6
ENDBRANCH   2   3
ENDBRANCH   1   2
BRANCH   1   9
ATOM      9  C   UNL     1      -4.880  26.347  49.816  1.00  0.00    -0.011 C 
ATOM     10  C   UNL     1      -6.395  26.671  49.679  1.00  0.00     0.008 C 
BRANCH   9  11
ATOM     11  C   UNL     1      -4.298  25.398  48.715  1.00  0.00    -0.002 C 
ATOM     12  C   UNL     1      -2.840  25.800  48.347  1.00  0.00     0.005 C 
ATOM     13  C   UNL     1      -4.288  23.823  48.888  1.00  0.00    -0.023 C 
ATOM     14  C   UNL     1      -2.010  24.525  48.403  1.00  0.00     0.009 C 
ATOM     15  C   UNL     1      -3.037  23.469  48.063  1.00  0.00     0.021 C 
ATOM     16  C   UNL     1      -5.454  23.047  48.199  1.00  0.00     0.008 C 
ATOM     17  C   UNL     1      -4.227  23.393  50.393  1.00  0.00     0.012 C 
ATOM     18  C   UNL     1      -2.644  22.011  48.064  1.00  0.00    -0.067 C 
ATOM     19  C   UNL     1      -5.111  21.547  47.885  1.00  0.00     0.009 C 
ATOM     20  C   UNL     1      -3.736  20.998  48.433  1.00  0.00     0.021 C 
ATOM     21  C   UNL     1      -1.547  21.664  47.354  1.00  0.00    -0.027 C 
ATOM     22  C   UNL     1      -3.417  19.475  48.087  1.00  0.00    -0.023 C 
ATOM     23  C   UNL     1      -1.192  20.250  47.076  1.00  0.00     0.031 C 
ATOM     24  C   UNL     1      -2.450  19.379  46.865  1.00  0.00     0.002 C 
ATOM     25  C   UNL     1      -2.750  18.788  49.326  1.00  0.00     0.010 C 
ATOM     26  C   UNL     1      -4.734  18.703  47.782  1.00  0.00     0.012 C 
ATOM     27  C   UNL     1      -2.037  17.917  46.570  1.00  0.00     0.036 C 
ATOM     28  C   UNL     1      -2.262  17.347  49.063  1.00  0.00     0.032 C 
ATOM     29  C   UNL     1      -1.395  17.222  47.795  1.00  0.00     0.114 C 
BRANCH  29  30
ATOM     30  O   UNL     1      -1.122  15.875  47.485  1.00  0.00    -0.393 OA
ATOM     31  H   UNL     1      -1.634  15.302  48.125  1.00  0.00     0.210 HD
ENDBRANCH  29  30
ENDBRANCH   9  11
ENDBRANCH   1   9
TORSDOF 7
ENDMDL
MODEL 2
REMARK VINA RESULT:    -7.913      1.925      3.526
REMARK INTER + INTRA:         -12.789
REMARK INTER:                 -11.180
REMARK INTRA:                  -1.609
REMARK UNBOUND:                -1.869
REMARK SMILES CC[C@@H](CC[C@@H](C)[C@H]1CC[C@H]2C3=CC[C@H]4C[C@H](O)CC[C@@]4(C)[C@@H]3CC[C@]12C)C(C)C
REMARK SMILES IDX 5 1 4 2 3 3 2 4 1 5 28 6 29 7 30 8 6 9 7 10 8 11 9 12 26 13
REMARK SMILES IDX 10 14 11 15 25 16 27 17 12 18 24 19 23 20 13 21 21 22 14 23
REMARK SMILES IDX 15 24 20 25 22 26 16 27 19 28 17 29 18 30
REMARK H PARENT 18 31
REMARK Flexibility Score: inf
ROOT
ATOM      1  C   UNL     1      -4.563  27.804  49.514  1.00  0.00     0.004 C 
ENDROOT
BRANCH   1   2
ATOM      2  C   UNL     1      -5.646  28.696  48.860  1.00  0.00     0.004 C 
BRANCH   2   3
ATOM      3  C   UNL     1      -5.514  28.956  47.323  1.00  0.00    -0.009 C 
BRANCH   3   4
ATOM      4  C   UNL     1      -5.427  30.484  47.038  1.00  0.00     0.000 C 
ATOM      5  C   UNL     1      -5.725  31.346  48.277  1.00  0.00     0.004 C 
ENDBRANCH   3   4
BRANCH   3   6
ATOM      6  C   UNL     1      -6.653  28.263  46.495  1.00  0.00    -0.014 C 
ATOM      7  C   UNL     1      -7.925  28.097  47.347  1.00  0.00     0.007 C 
ATOM      8  C   UNL     1      -6.253  26.907  45.889  1.00  0.00     0.007 C 
ENDBRANCH   3   6
ENDBRANCH   2   3
ENDBRANCH   1   2
BRANCH   1   9
ATOM      9  C   UNL     1      -4.995  26.324  49.735  1.00  0.00    -0.011 C 
ATOM     10  C   UNL     1      -6.514  26.135  50.008  1.00  0.00     0.008 C 
BRANCH   9  11
ATOM     11  C   UNL     1      -4.388  25.375  48.648  1.00  0.00    -0.002 C 
ATOM     12  C   UNL     1      -2.929  25.789  48.299  1.00  0.00     0.005 C 
ATOM     13  C   UNL     1      -4.368  23.802  48.828  1.00  0.00    -0.023 C 
ATOM     14  C   UNL     1      -2.088  24.521  48.373  1.00  0.00     0.009 C 
ATOM     15  C   UNL     1      -3.102  23.455  48.022  1.00  0.00     0.021 C 
ATOM     16  C   UNL     1      -5.517  23.013  48.125  1.00  0.00     0.008 C 
ATOM     17  C   UNL     1      -4.325  23.379  50.336  1.00  0.00     0.012 C 
ATOM     18  C   UNL     1      -2.696  22.000  48.037  1.00  0.00    -0.067 C 
ATOM     19  C   UNL     1      -5.156  21.514  47.824  1.00  0.00     0.009 C 
ATOM     20  C   UNL     1      -3.785  20.980  48.394  1.00  0.00     0.021 C 
ATOM     21  C   UNL     1      -1.586  21.660  47.344  1.00  0.00    -0.027 C 
ATOM     22  C   UNL     1      -3.448  19.458  48.059  1.00  0.00    -0.023 C 
ATOM     23  C   UNL     1      -1.214  20.247  47.079  1.00  0.00     0.031 C 
ATOM     24  C   UNL     1      -2.462  19.365  46.853  1.00  0.00     0.002 C 
ATOM     25  C   UNL     1      -2.793  18.782  49.312  1.00  0.00     0.010 C 
ATOM     26  C   UNL     1      -4.754  18.673  47.739  1.00  0.00     0.012 C 
ATOM     27  C   UNL     1      -2.032  17.905  46.570  1.00  0.00     0.036 C 
ATOM     28  C   UNL     1      -2.289  17.344  49.062  1.00  0.00     0.032 C 
ATOM     29  C   UNL     1      -1.403  17.221  47.808  1.00  0.00     0.114 C 
BRANCH  29  30
ATOM     30  O   UNL     1      -1.114  15.875  47.508  1.00  0.00    -0.393 OA
ATOM     31  H   UNL     1      -0.189  15.835  47.131  1.00  0.00     0.210 HD
ENDBRANCH  29  30
ENDBRANCH   9  11
ENDBRANCH   1   9
TORSDOF 7
ENDMDL
MODEL 3
REMARK VINA RESULT:    -7.233      3.829      9.037
REMARK INTER + INTRA:         -11.850
REMARK INTER:                 -10.890
REMARK INTRA:                  -0.961
REMARK UNBOUND:                -1.869
REMARK SMILES CC[C@@H](CC[C@@H](C)[C@H]1CC[C@H]2C3=CC[C@H]4C[C@H](O)CC[C@@]4(C)[C@@H]3CC[C@]12C)C(C)C
REMARK SMILES IDX 5 1 4 2 3 3 2 4 1 5 28 6 29 7 30 8 6 9 7 10 8 11 9 12 26 13
REMARK SMILES IDX 10 14 11 15 25 16 27 17 12 18 24 19 23 20 13 21 21 22 14 23
REMARK SMILES IDX 15 24 20 25 22 26 16 27 19 28 17 29 18 30
REMARK H PARENT 18 31
REMARK Flexibility Score: inf
ROOT
ATOM      1  C   UNL     1      -1.845  19.806  47.058  1.00  0.00     0.004 C 
ENDROOT
BRANCH   1   2
ATOM      2  C   UNL     1      -1.471  18.379  47.529  1.00  0.00     0.004 C 
BRANCH   2   3
ATOM      3  C   UNL     1      -2.269  17.193  46.895  1.00  0.00    -0.009 C 
BRANCH   3   4
ATOM      4  C   UNL     1      -1.992  15.875  47.676  1.00  0.00     0.000 C 
ATOM      5  C   UNL     1      -2.492  15.921  49.130  1.00  0.00     0.004 C 
ENDBRANCH   3   4
BRANCH   3   6
ATOM      6  C   UNL     1      -1.996  17.039  45.357  1.00  0.00    -0.014 C 
ATOM      7  C   UNL     1      -3.218  16.432  44.643  1.00  0.00     0.007 C 
ATOM      8  C   UNL     1      -0.737  16.220  45.021  1.00  0.00     0.007 C 
ENDBRANCH   3   6
ENDBRANCH   2   3
ENDBRANCH   1   2
BRANCH   1   9
ATOM      9  C   UNL     1      -3.074  20.423  47.788  1.00  0.00    -0.011 C 
ATOM     10  C   UNL     1      -3.685  19.516  48.892  1.00  0.00     0.008 C 
BRANCH   9  11
ATOM     11  C   UNL     1      -2.811  21.907  48.211  1.00  0.00    -0.002 C 
ATOM     12  C   UNL     1      -1.662  22.532  47.368  1.00  0.00     0.005 C 
ATOM     13  C   UNL     1      -3.970  22.987  48.243  1.00  0.00    -0.023 C 
ATOM     14  C   UNL     1      -2.177  23.870  46.855  1.00  0.00     0.009 C 
ATOM     15  C   UNL     1      -3.160  24.260  47.936  1.00  0.00     0.021 C 
ATOM     16  C   UNL     1      -4.624  23.255  49.634  1.00  0.00     0.008 C 
ATOM     17  C   UNL     1      -5.106  22.666  47.213  1.00  0.00     0.012 C 
ATOM     18  C   UNL     1      -3.966  25.530  47.795  1.00  0.00    -0.067 C 
ATOM     19  C   UNL     1      -5.298  24.669  49.748  1.00  0.00     0.009 C 
ATOM     20  C   UNL     1      -5.361  25.540  48.434  1.00  0.00     0.021 C 
ATOM     21  C   UNL     1      -3.289  26.667  47.520  1.00  0.00    -0.027 C 
ATOM     22  C   UNL     1      -6.043  26.972  48.591  1.00  0.00    -0.023 C 
ATOM     23  C   UNL     1      -3.920  28.008  47.593  1.00  0.00     0.031 C 
ATOM     24  C   UNL     1      -4.958  28.086  48.734  1.00  0.00     0.002 C 
ATOM     25  C   UNL     1      -6.923  27.271  47.329  1.00  0.00     0.010 C 
ATOM     26  C   UNL     1      -6.987  26.989  49.828  1.00  0.00     0.012 C 
ATOM     27  C   UNL     1      -5.586  29.500  48.782  1.00  0.00     0.036 C 
ATOM     28  C   UNL     1      -7.521  28.695  47.298  1.00  0.00     0.032 C 
ATOM     29  C   UNL     1      -6.474  29.797  47.550  1.00  0.00     0.114 C 
BRANCH  29  30
ATOM     30  O   UNL     1      -7.079  31.061  47.697  1.00  0.00    -0.393 OA
ATOM     31  H   UNL     1      -7.473  31.319  46.815  1.00  0.00     0.210 HD
ENDBRANCH  29  30
ENDBRANCH   9  11
ENDBRANCH   1   9
TORSDOF 7
ENDMDL
MODEL 4
REMARK VINA RESULT:    -7.003      2.663      5.044
REMARK INTER + INTRA:         -11.532
REMARK INTER:                 -10.504
REMARK INTRA:                  -1.028
REMARK UNBOUND:                -1.869
REMARK SMILES CC[C@@H](CC[C@@H](C)[C@H]1CC[C@H]2C3=CC[C@H]4C[C@H](O)CC[C@@]4(C)[C@@H]3CC[C@]12C)C(C)C
REMARK SMILES IDX 5 1 4 2 3 3 2 4 1 5 28 6 29 7 30 8 6 9 7 10 8 11 9 12 26 13
REMARK SMILES IDX 10 14 11 15 25 16 27 17 12 18 24 19 23 20 13 21 21 22 14 23
REMARK SMILES IDX 15 24 20 25 22 26 16 27 19 28 17 29 18 30
REMARK H PARENT 18 31
REMARK Flexibility Score: inf
ROOT
ATOM      1  C   UNL     1      -6.060  27.787  48.050  1.00  0.00     0.004 C 
ENDROOT
BRANCH   1   2
ATOM      2  C   UNL     1      -6.976  27.929  46.809  1.00  0.00     0.004 C 
BRANCH   2   3
ATOM      3  C   UNL     1      -8.209  28.882  46.946  1.00  0.00    -0.009 C 
BRANCH   3   4
ATOM      4  C   UNL     1      -9.469  28.233  46.304  1.00  0.00     0.000 C 
ATOM      5  C   UNL     1     -10.611  28.009  47.311  1.00  0.00     0.004 C 
ENDBRANCH   3   4
BRANCH   3   6
ATOM      6  C   UNL     1      -7.926  30.317  46.377  1.00  0.00    -0.014 C 
ATOM      7  C   UNL     1      -7.306  31.222  47.457  1.00  0.00     0.007 C 
ATOM      8  C   UNL     1      -9.160  31.006  45.768  1.00  0.00     0.007 C 
ENDBRANCH   3   6
ENDBRANCH   2   3
ENDBRANCH   1   2
BRANCH   1   9
ATOM      9  C   UNL     1      -4.607  27.329  47.728  1.00  0.00    -0.011 C 
ATOM     10  C   UNL     1      -3.542  28.457  47.831  1.00  0.00     0.008 C 
BRANCH   9  11
ATOM     11  C   UNL     1      -4.243  25.997  48.466  1.00  0.00    -0.002 C 
ATOM     12  C   UNL     1      -5.453  25.469  49.290  1.00  0.00     0.005 C 
ATOM     13  C   UNL     1      -3.659  24.744  47.692  1.00  0.00    -0.023 C 
ATOM     14  C   UNL     1      -5.616  23.999  48.930  1.00  0.00     0.009 C 
ATOM     15  C   UNL     1      -4.199  23.605  48.576  1.00  0.00     0.021 C 
ATOM     16  C   UNL     1      -2.108  24.575  47.727  1.00  0.00     0.008 C 
ATOM     17  C   UNL     1      -4.130  24.698  46.199  1.00  0.00     0.012 C 
ATOM     18  C   UNL     1      -3.908  22.205  48.089  1.00  0.00    -0.067 C 
ATOM     19  C   UNL     1      -1.632  23.097  47.492  1.00  0.00     0.009 C 
ATOM     20  C   UNL     1      -2.741  22.041  47.107  1.00  0.00     0.021 C 
ATOM     21  C   UNL     1      -4.372  21.180  48.839  1.00  0.00    -0.027 C 
ATOM     22  C   UNL     1      -2.222  20.550  46.888  1.00  0.00    -0.023 C 
ATOM     23  C   UNL     1      -3.957  19.774  48.608  1.00  0.00     0.031 C 
ATOM     24  C   UNL     1      -2.482  19.683  48.160  1.00  0.00     0.002 C 
ATOM     25  C   UNL     1      -2.973  19.912  45.669  1.00  0.00     0.010 C 
ATOM     26  C   UNL     1      -0.703  20.550  46.547  1.00  0.00     0.012 C 
ATOM     27  C   UNL     1      -2.087  18.203  47.940  1.00  0.00     0.036 C 
ATOM     28  C   UNL     1      -2.660  18.417  45.447  1.00  0.00     0.032 C 
ATOM     29  C   UNL     1      -2.807  17.570  46.725  1.00  0.00     0.114 C 
BRANCH  29  30
ATOM     30  O   UNL     1      -2.340  16.255  46.532  1.00  0.00    -0.393 OA
ATOM     31  H   UNL     1      -2.935  15.812  45.861  1.00  0.00     0.210 HD
ENDBRANCH  29  30
ENDBRANCH   9  11
ENDBRANCH   1   9
TORSDOF 7
ENDMDL
MODEL 5
REMARK VINA RESULT:    -6.896      1.839      2.749
REMARK INTER + INTRA:         -11.385
REMARK INTER:                 -10.506
REMARK INTRA:                  -0.879
REMARK UNBOUND:                -1.869
REMARK SMILES CC[C@@H](CC[C@@H](C)[C@H]1CC[C@H]2C3=CC[C@H]4C[C@H](O)CC[C@@]4(C)[C@@H]3CC[C@]12C)C(C)C
REMARK SMILES IDX 5 1 4 2 3 3 2 4 1 5 28 6 29 7 30 8 6 9 7 10 8 11 9 12 26 13
REMARK SMILES IDX 10 14 11 15 25 16 27 17 12 18 24 19 23 20 13 21 21 22 14 23
REMARK SMILES IDX 15 24 20 25 22 26 16 27 19 28 17 29 18 30
REMARK H PARENT 18 31
REMARK Flexibility Score: inf
ROOT
ATOM      1  C   UNL     1      -4.153  27.698  49.865  1.00  0.00     0.004 C 
ENDROOT
BRANCH   1   2
ATOM      2  C   UNL     1      -4.628  28.696  48.781  1.00  0.00     0.004 C 
BRANCH   2   3
ATOM      3  C   UNL     1      -4.630  30.212  49.167  1.00  0.00    -0.009 C 
BRANCH   3   4
ATOM      4  C   UNL     1      -5.221  31.066  48.007  1.00  0.00     0.000 C 
ATOM      5  C   UNL     1      -6.462  31.873  48.426  1.00  0.00     0.004 C 
ENDBRANCH   3   4
BRANCH   3   6
ATOM      6  C   UNL     1      -3.214  30.721  49.615  1.00  0.00    -0.014 C 
ATOM      7  C   UNL     1      -3.276  31.339  51.024  1.00  0.00     0.007 C 
ATOM      8  C   UNL     1      -2.566  31.717  48.638  1.00  0.00     0.007 C 
ENDBRANCH   3   6
ENDBRANCH   2   3
ENDBRANCH   1   2
BRANCH   1   9
ATOM      9  C   UNL     1      -4.880  26.322  49.837  1.00  0.00    -0.011 C 
ATOM     10  C   UNL     1      -6.431  26.417  49.873  1.00  0.00     0.008 C 
BRANCH   9  11
ATOM     11  C   UNL     1      -4.293  25.380  48.733  1.00  0.00    -0.002 C 
ATOM     12  C   UNL     1      -2.837  25.790  48.368  1.00  0.00     0.005 C 
ATOM     13  C   UNL     1      -4.278  23.805  48.898  1.00  0.00    -0.023 C 
ATOM     14  C   UNL     1      -2.002  24.518  48.418  1.00  0.00     0.009 C 
ATOM     15  C   UNL     1      -3.025  23.459  48.072  1.00  0.00     0.021 C 
ATOM     16  C   UNL     1      -5.440  23.028  48.205  1.00  0.00     0.008 C 
ATOM     17  C   UNL     1      -4.216  23.368  50.401  1.00  0.00     0.012 C 
ATOM     18  C   UNL     1      -2.626  22.002  48.068  1.00  0.00    -0.067 C 
ATOM     19  C   UNL     1      -5.091  21.530  47.885  1.00  0.00     0.009 C 
ATOM     20  C   UNL     1      -3.715  20.984  48.431  1.00  0.00     0.021 C 
ATOM     21  C   UNL     1      -1.528  21.663  47.356  1.00  0.00    -0.027 C 
ATOM     22  C   UNL     1      -3.390  19.464  48.078  1.00  0.00    -0.023 C 
ATOM     23  C   UNL     1      -1.167  20.252  47.073  1.00  0.00     0.031 C 
ATOM     24  C   UNL     1      -2.421  19.377  46.857  1.00  0.00     0.002 C 
ATOM     25  C   UNL     1      -2.721  18.773  49.315  1.00  0.00     0.010 C 
ATOM     26  C   UNL     1      -4.704  18.688  47.769  1.00  0.00     0.012 C 
ATOM     27  C   UNL     1      -2.003  17.918  46.555  1.00  0.00     0.036 C 
ATOM     28  C   UNL     1      -2.227  17.335  49.046  1.00  0.00     0.032 C 
ATOM     29  C   UNL     1      -1.360  17.220  47.778  1.00  0.00     0.114 C 
BRANCH  29  30
ATOM     30  O   UNL     1      -1.081  15.875  47.462  1.00  0.00    -0.393 OA
ATOM     31  H   UNL     1      -1.250  15.325  48.280  1.00  0.00     0.210 HD
ENDBRANCH  29  30
ENDBRANCH   9  11
ENDBRANCH   1   9
TORSDOF 7
ENDMDL
MODEL 6
REMARK VINA RESULT:    -6.810      4.036      9.192
REMARK INTER + INTRA:         -11.266
REMARK INTER:                 -10.107
REMARK INTRA:                  -1.159
REMARK UNBOUND:                -1.869
REMARK SMILES CC[C@@H](CC[C@@H](C)[C@H]1CC[C@H]2C3=CC[C@H]4C[C@H](O)CC[C@@]4(C)[C@@H]3CC[C@]12C)C(C)C
REMARK SMILES IDX 5 1 4 2 3 3 2 4 1 5 28 6 29 7 30 8 6 9 7 10 8 11 9 12 26 13
REMARK SMILES IDX 10 14 11 15 25 16 27 17 12 18 24 19 23 20 13 21 21 22 14 23
REMARK SMILES IDX 15 24 20 25 22 26 16 27 19 28 17 29 18 30
REMARK H PARENT 18 31
REMARK Flexibility Score: inf
ROOT
ATOM      1  C   UNL     1      -3.195  20.367  48.211  1.00  0.00     0.004 C 
ENDROOT
BRANCH   1   2
ATOM      2  C   UNL     1      -3.907  19.178  47.522  1.00  0.00     0.004 C 
BRANCH   2   3
ATOM      3  C   UNL     1      -3.353  17.748  47.829  1.00  0.00    -0.009 C 
BRANCH   3   4
ATOM      4  C   UNL     1      -2.527  17.758  49.148  1.00  0.00     0.000 C 
ATOM      5  C   UNL     1      -2.309  16.352  49.733  1.00  0.00     0.004 C 
ENDBRANCH   3   4
BRANCH   3   6
ATOM      6  C   UNL     1      -2.543  17.145  46.627  1.00  0.00    -0.014 C 
ATOM      7  C   UNL     1      -1.093  17.665  46.629  1.00  0.00     0.007 C 
ATOM      8  C   UNL     1      -3.182  17.395  45.250  1.00  0.00     0.007 C 
ENDBRANCH   3   6
ENDBRANCH   2   3
ENDBRANCH   1   2
BRANCH   1   9
ATOM      9  C   UNL     1      -2.828  21.540  47.255  1.00  0.00    -0.011 C 
ATOM     10  C   UNL     1      -2.162  21.095  45.923  1.00  0.00     0.008 C 
BRANCH   9  11
ATOM     11  C   UNL     1      -4.010  22.556  47.106  1.00  0.00    -0.002 C 
ATOM     12  C   UNL     1      -5.158  22.225  48.102  1.00  0.00     0.005 C 
ATOM     13  C   UNL     1      -3.784  24.121  47.200  1.00  0.00    -0.023 C 
ATOM     14  C   UNL     1      -5.510  23.527  48.808  1.00  0.00     0.009 C 
ATOM     15  C   UNL     1      -5.150  24.557  47.761  1.00  0.00     0.021 C 
ATOM     16  C   UNL     1      -3.649  24.881  45.843  1.00  0.00     0.008 C 
ATOM     17  C   UNL     1      -2.556  24.490  48.099  1.00  0.00     0.012 C 
ATOM     18  C   UNL     1      -5.289  26.028  48.076  1.00  0.00    -0.067 C 
ATOM     19  C   UNL     1      -4.017  26.405  45.938  1.00  0.00     0.009 C 
ATOM     20  C   UNL     1      -4.312  26.982  47.377  1.00  0.00     0.021 C 
ATOM     21  C   UNL     1      -6.474  26.445  48.575  1.00  0.00    -0.027 C 
ATOM     22  C   UNL     1      -4.691  28.529  47.432  1.00  0.00    -0.023 C 
ATOM     23  C   UNL     1      -6.824  27.882  48.701  1.00  0.00     0.031 C 
ATOM     24  C   UNL     1      -6.238  28.713  47.538  1.00  0.00     0.002 C 
ATOM     25  C   UNL     1      -4.009  29.188  48.679  1.00  0.00     0.010 C 
ATOM     26  C   UNL     1      -4.154  29.263  46.169  1.00  0.00     0.012 C 
ATOM     27  C   UNL     1      -6.632  30.201  47.700  1.00  0.00     0.036 C 
ATOM     28  C   UNL     1      -4.421  30.656  48.922  1.00  0.00     0.032 C 
ATOM     29  C   UNL     1      -5.947  30.867  48.918  1.00  0.00     0.114 C 
BRANCH  29  30
ATOM     30  O   UNL     1      -6.280  32.236  48.957  1.00  0.00    -0.393 OA
ATOM     31  H   UNL     1      -6.249  32.533  49.912  1.00  0.00     0.210 HD
ENDBRANCH  29  30
ENDBRANCH   9  11
ENDBRANCH   1   9
TORSDOF 7
ENDMDL
MODEL 7
REMARK VINA RESULT:    -6.645      3.135      5.302
REMARK INTER + INTRA:         -11.039
REMARK INTER:                 -10.112
REMARK INTRA:                  -0.927
REMARK UNBOUND:                -1.869
REMARK SMILES CC[C@@H](CC[C@@H](C)[C@H]1CC[C@H]2C3=CC[C@H]4C[C@H](O)CC[C@@]4(C)[C@@H]3CC[C@]12C)C(C)C
REMARK SMILES IDX 5 1 4 2 3 3 2 4 1 5 28 6 29 7 30 8 6 9 7 10 8 11 9 12 26 13
REMARK SMILES IDX 10 14 11 15 25 16 27 17 12 18 24 19 23 20 13 21 21 22 14 23
REMARK SMILES IDX 15 24 20 25 22 26 16 27 19 28 17 29 18 30
REMARK H PARENT 18 31
REMARK Flexibility Score: inf
ROOT
ATOM      1  C   UNL     1      -4.611  23.642  49.120  1.00  0.00     0.004 C 
ENDROOT
BRANCH   1   2
ATOM      2  C   UNL     1      -4.391  23.811  50.643  1.00  0.00     0.004 C 
BRANCH   2   3
ATOM      3  C   UNL     1      -4.521  25.259  51.220  1.00  0.00    -0.009 C 
BRANCH   3   4
ATOM      4  C   UNL     1      -4.863  26.266  50.084  1.00  0.00     0.000 C 
ATOM      5  C   UNL     1      -6.318  26.761  50.136  1.00  0.00     0.004 C 
ENDBRANCH   3   4
BRANCH   3   6
ATOM      6  C   UNL     1      -3.255  25.697  52.039  1.00  0.00    -0.014 C 
ATOM      7  C   UNL     1      -2.298  24.508  52.243  1.00  0.00     0.007 C 
ATOM      8  C   UNL     1      -3.578  26.344  53.397  1.00  0.00     0.007 C 
ENDBRANCH   3   6
ENDBRANCH   2   3
ENDBRANCH   1   2
BRANCH   1   9
ATOM      9  C   UNL     1      -4.766  22.165  48.652  1.00  0.00    -0.011 C 
ATOM     10  C   UNL     1      -5.427  22.002  47.254  1.00  0.00     0.008 C 
BRANCH   9  11
ATOM     11  C   UNL     1      -3.447  21.348  48.868  1.00  0.00    -0.002 C 
ATOM     12  C   UNL     1      -3.633  19.866  48.432  1.00  0.00     0.005 C 
ATOM     13  C   UNL     1      -2.064  21.816  48.254  1.00  0.00    -0.023 C 
ATOM     14  C   UNL     1      -2.456  19.527  47.528  1.00  0.00     0.009 C 
ATOM     15  C   UNL     1      -1.381  20.450  48.057  1.00  0.00     0.021 C 
ATOM     16  C   UNL     1      -1.116  22.602  49.213  1.00  0.00     0.008 C 
ATOM     17  C   UNL     1      -2.250  22.654  46.944  1.00  0.00     0.012 C 
ATOM     18  C   UNL     1      -0.027  20.486  47.388  1.00  0.00    -0.067 C 
ATOM     19  C   UNL     1       0.398  22.525  48.801  1.00  0.00     0.009 C 
ATOM     20  C   UNL     1       0.731  21.820  47.429  1.00  0.00     0.021 C 
ATOM     21  C   UNL     1       0.600  19.304  47.195  1.00  0.00    -0.027 C 
ATOM     22  C   UNL     1       2.277  21.752  47.049  1.00  0.00    -0.023 C 
ATOM     23  C   UNL     1       2.021  19.216  46.773  1.00  0.00     0.031 C 
ATOM     24  C   UNL     1       2.868  20.349  47.393  1.00  0.00     0.002 C 
ATOM     25  C   UNL     1       2.449  22.019  45.514  1.00  0.00     0.010 C 
ATOM     26  C   UNL     1       3.069  22.861  47.803  1.00  0.00     0.012 C 
ATOM     27  C   UNL     1       4.342  20.215  46.938  1.00  0.00     0.036 C 
ATOM     28  C   UNL     1       3.892  21.836  44.998  1.00  0.00     0.032 C 
ATOM     29  C   UNL     1       4.524  20.498  45.428  1.00  0.00     0.114 C 
BRANCH  29  30
ATOM     30  O   UNL     1       5.894  20.444  45.099  1.00  0.00    -0.393 OA
ATOM     31  H   UNL     1       6.352  19.874  45.782  1.00  0.00     0.210 HD
ENDBRANCH  29  30
ENDBRANCH   9  11
ENDBRANCH   1   9
TORSDOF 7
ENDMDL
MODEL 8
REMARK VINA RESULT:    -6.589      3.859      6.162
REMARK INTER + INTRA:         -10.962
REMARK INTER:                  -8.912
REMARK INTRA:                  -2.050
REMARK UNBOUND:                -1.869
REMARK SMILES CC[C@@H](CC[C@@H](C)[C@H]1CC[C@H]2C3=CC[C@H]4C[C@H](O)CC[C@@]4(C)[C@@H]3CC[C@]12C)C(C)C
REMARK SMILES IDX 5 1 4 2 3 3 2 4 1 5 28 6 29 7 30 8 6 9 7 10 8 11 9 12 26 13
REMARK SMILES IDX 10 14 11 15 25 16 27 17 12 18 24 19 23 20 13 21 21 22 14 23
REMARK SMILES IDX 15 24 20 25 22 26 16 27 19 28 17 29 18 30
REMARK H PARENT 18 31
REMARK Flexibility Score: inf
ROOT
ATOM      1  C   UNL     1      -5.117  21.696  47.346  1.00  0.00     0.004 C 
ENDROOT
BRANCH   1   2
ATOM      2  C   UNL     1      -5.350  23.003  48.143  1.00  0.00     0.004 C 
BRANCH   2   3
ATOM      3  C   UNL     1      -4.281  23.374  49.223  1.00  0.00    -0.009 C 
BRANCH   3   4
ATOM      4  C   UNL     1      -4.958  24.071  50.439  1.00  0.00     0.000 C 
ATOM      5  C   UNL     1      -6.173  24.927  50.042  1.00  0.00     0.004 C 
ENDBRANCH   3   4
BRANCH   3   6
ATOM      6  C   UNL     1      -3.100  24.223  48.634  1.00  0.00    -0.014 C 
ATOM      7  C   UNL     1      -2.362  24.983  49.752  1.00  0.00     0.007 C 
ATOM      8  C   UNL     1      -3.523  25.207  47.529  1.00  0.00     0.007 C 
ENDBRANCH   3   6
ENDBRANCH   2   3
ENDBRANCH   1   2
BRANCH   1   9
ATOM      9  C   UNL     1      -3.946  20.818  47.878  1.00  0.00    -0.011 C 
ATOM     10  C   UNL     1      -4.388  19.446  48.460  1.00  0.00     0.008 C 
BRANCH   9  11
ATOM     11  C   UNL     1      -2.757  20.762  46.861  1.00  0.00    -0.002 C 
ATOM     12  C   UNL     1      -2.850  21.923  45.830  1.00  0.00     0.005 C 
ATOM     13  C   UNL     1      -1.248  20.720  47.340  1.00  0.00    -0.023 C 
ATOM     14  C   UNL     1      -1.478  22.582  45.791  1.00  0.00     0.009 C 
ATOM     15  C   UNL     1      -0.569  21.429  46.154  1.00  0.00     0.021 C 
ATOM     16  C   UNL     1      -0.581  19.310  47.397  1.00  0.00     0.008 C 
ATOM     17  C   UNL     1      -1.047  21.420  48.728  1.00  0.00     0.012 C 
ATOM     18  C   UNL     1       0.917  21.661  46.294  1.00  0.00    -0.067 C 
ATOM     19  C   UNL     1       0.985  19.351  47.290  1.00  0.00     0.009 C 
ATOM     20  C   UNL     1       1.666  20.775  47.299  1.00  0.00     0.021 C 
ATOM     21  C   UNL     1       1.546  22.286  45.273  1.00  0.00    -0.027 C 
ATOM     22  C   UNL     1       3.255  20.778  47.178  1.00  0.00    -0.023 C 
ATOM     23  C   UNL     1       3.025  22.362  45.175  1.00  0.00     0.031 C 
ATOM     24  C   UNL     1       3.696  21.078  45.711  1.00  0.00     0.002 C 
ATOM     25  C   UNL     1       3.847  21.875  48.127  1.00  0.00     0.010 C 
ATOM     26  C   UNL     1       3.834  19.408  47.637  1.00  0.00     0.012 C 
ATOM     27  C   UNL     1       5.234  21.192  45.582  1.00  0.00     0.036 C 
ATOM     28  C   UNL     1       5.373  22.073  47.990  1.00  0.00     0.032 C 
ATOM     29  C   UNL     1       5.831  22.259  46.531  1.00  0.00     0.114 C 
BRANCH  29  30
ATOM     30  O   UNL     1       7.236  22.252  46.425  1.00  0.00    -0.393 OA
ATOM     31  H   UNL     1       7.481  22.669  45.550  1.00  0.00     0.210 HD
ENDBRANCH  29  30
ENDBRANCH   9  11
ENDBRANCH   1   9
TORSDOF 7
ENDMDL
MODEL 9
REMARK VINA RESULT:    -6.569      5.475      9.988
REMARK INTER + INTRA:         -10.934
REMARK INTER:                  -9.403
REMARK INTRA:                  -1.531
REMARK UNBOUND:                -1.869
REMARK SMILES CC[C@@H](CC[C@@H](C)[C@H]1CC[C@H]2C3=CC[C@H]4C[C@H](O)CC[C@@]4(C)[C@@H]3CC[C@]12C)C(C)C
REMARK SMILES IDX 5 1 4 2 3 3 2 4 1 5 28 6 29 7 30 8 6 9 7 10 8 11 9 12 26 13
REMARK SMILES IDX 10 14 11 15 25 16 27 17 12 18 24 19 23 20 13 21 21 22 14 23
REMARK SMILES IDX 15 24 20 25 22 26 16 27 19 28 17 29 18 30
REMARK H PARENT 18 31
REMARK Flexibility Score: inf
ROOT
ATOM      1  C   UNL     1      -4.500  24.424  50.532  1.00  0.00     0.004 C 
ENDROOT
BRANCH   1   2
ATOM      2  C   UNL     1      -3.411  23.350  50.291  1.00  0.00     0.004 C 
BRANCH   2   3
ATOM      3  C   UNL     1      -3.774  22.182  49.316  1.00  0.00    -0.009 C 
BRANCH   3   4
ATOM      4  C   UNL     1      -2.512  21.325  49.005  1.00  0.00     0.000 C 
ATOM      5  C   UNL     1      -2.798  19.813  49.002  1.00  0.00     0.004 C 
ENDBRANCH   3   4
BRANCH   3   6
ATOM      6  C   UNL     1      -4.485  22.686  48.010  1.00  0.00    -0.014 C 
ATOM      7  C   UNL     1      -5.471  21.628  47.481  1.00  0.00     0.007 C 
ATOM      8  C   UNL     1      -3.517  23.102  46.889  1.00  0.00     0.007 C 
ENDBRANCH   3   6
ENDBRANCH   2   3
ENDBRANCH   1   2
BRANCH   1   9
ATOM      9  C   UNL     1      -4.255  25.769  49.787  1.00  0.00    -0.011 C 
ATOM     10  C   UNL     1      -2.789  25.979  49.311  1.00  0.00     0.008 C 
BRANCH   9  11
ATOM     11  C   UNL     1      -5.354  26.041  48.706  1.00  0.00    -0.002 C 
ATOM     12  C   UNL     1      -6.733  25.480  49.160  1.00  0.00     0.005 C 
ATOM     13  C   UNL     1      -5.635  27.496  48.146  1.00  0.00    -0.023 C 
ATOM     14  C   UNL     1      -7.745  26.600  48.961  1.00  0.00     0.009 C 
ATOM     15  C   UNL     1      -7.133  27.372  47.813  1.00  0.00     0.021 C 
ATOM     16  C   UNL     1      -4.953  27.855  46.789  1.00  0.00     0.008 C 
ATOM     17  C   UNL     1      -5.282  28.610  49.189  1.00  0.00     0.012 C 
ATOM     18  C   UNL     1      -7.800  28.634  47.318  1.00  0.00    -0.067 C 
ATOM     19  C   UNL     1      -5.687  28.999  46.001  1.00  0.00     0.009 C 
ATOM     20  C   UNL     1      -6.884  29.719  46.735  1.00  0.00     0.021 C 
ATOM     21  C   UNL     1      -9.117  28.563  47.021  1.00  0.00    -0.027 C 
ATOM     22  C   UNL     1      -7.611  30.866  45.901  1.00  0.00    -0.023 C 
ATOM     23  C   UNL     1      -9.831  29.650  46.306  1.00  0.00     0.031 C 
ATOM     24  C   UNL     1      -8.926  30.329  45.254  1.00  0.00     0.002 C 
ATOM     25  C   UNL     1      -7.957  32.062  46.853  1.00  0.00     0.010 C 
ATOM     26  C   UNL     1      -6.662  31.415  44.796  1.00  0.00     0.012 C 
ATOM     27  C   UNL     1      -9.710  31.447  44.526  1.00  0.00     0.036 C 
ATOM     28  C   UNL     1      -8.795  33.176  46.189  1.00  0.00     0.032 C 
ATOM     29  C   UNL     1     -10.039  32.642  45.453  1.00  0.00     0.114 C 
BRANCH  29  30
ATOM     30  O   UNL     1     -10.674  33.656  44.709  1.00  0.00    -0.393 OA
ATOM     31  H   UNL     1     -11.504  33.269  44.306  1.00  0.00     0.210 HD
ENDBRANCH  29  30
ENDBRANCH   9  11
ENDBRANCH   1   9
TORSDOF 7
ENDMDL
