MODEL 1
REMARK VINA RESULT:    -2.084      0.000      0.000
REMARK INTER + INTRA:          -3.969
REMARK INTER:                  -3.242
REMARK INTRA:                  -0.728
REMARK UNBOUND:                -0.728
REMARK SMILES C=C(C)[C@H]1CC=C2C(=CC[C@@]3(C)[C@@H]([C@H](CCC=C(C)C)C(=O)[O-])[C@H](O)C[C@@]23C)[C@@]1(C)CCC(=O)[O-]
REMARK SMILES IDX 29 1 8 2 4 3 30 4 7 5 9 6 5 7 27 8 6 9 10 10 11 11 26 12
REMARK SMILES IDX 28 13 13 14 12 15 24 16 31 17 32 18 33 19 34 20 35 21 2 22
REMARK SMILES IDX 1 23 3 24 14 25 21 26 22 27 23 28 15 29 16 30 17 31 18 32
REMARK SMILES IDX 19 33 20 34 25 35
REMARK H PARENT 25 36
REMARK Flexibility Score: inf
ROOT
ATOM      1  C   UNL     1       7.443 -54.493 571.394  1.00  0.00    -0.000 C 
ATOM      2  C   UNL     1       7.271 -54.278 572.914  1.00  0.00    -0.042 C 
ATOM      3  C   UNL     1       6.958 -55.952 571.051  1.00  0.00     0.028 C 
ATOM      4  C   UNL     1       6.516 -53.529 570.592  1.00  0.00     0.017 C 
ATOM      5  C   UNL     1       7.509 -55.413 573.863  1.00  0.00    -0.042 C 
ATOM      6  C   UNL     1       6.970 -53.071 573.427  1.00  0.00    -0.022 C 
ATOM      7  C   UNL     1       7.544 -57.048 571.954  1.00  0.00     0.036 C 
ATOM      8  C   UNL     1       7.739 -55.150 575.369  1.00  0.00     0.001 C 
ATOM      9  C   UNL     1       7.521 -56.680 573.407  1.00  0.00    -0.022 C 
ATOM     10  C   UNL     1       6.681 -52.890 574.884  1.00  0.00     0.035 C 
ATOM     11  C   UNL     1       7.736 -53.622 575.756  1.00  0.00    -0.014 C 
ATOM     12  C   UNL     1       6.573 -55.732 576.183  1.00  0.00     0.044 C 
ATOM     13  C   UNL     1       9.061 -55.849 575.824  1.00  0.00     0.017 C 
ATOM     14  C   UNL     1       7.334 -53.624 577.276  1.00  0.00     0.034 C 
ATOM     15  C   UNL     1       9.125 -52.955 575.523  1.00  0.00     0.013 C 
ATOM     16  C   UNL     1       6.426 -54.873 577.442  1.00  0.00     0.119 C 
ENDROOT
BRANCH   1  17
ATOM     17  C   UNL     1       8.912 -54.147 570.975  1.00  0.00     0.018 C 
BRANCH  17  18
ATOM     18  C   UNL     1       9.125 -53.391 569.649  1.00  0.00     0.053 C 
BRANCH  18  19
ATOM     19  C   UNL     1       9.039 -51.913 569.872  1.00  0.00     0.041 C 
ATOM     20  O   UNL     1       9.070 -51.452 571.042  1.00  0.00    -0.550 OA
ATOM     21  O   UNL     1       8.863 -51.055 568.794  1.00  0.00    -0.550 OA
ENDBRANCH  18  19
ENDBRANCH  17  18
ENDBRANCH   1  17
BRANCH   3  22
ATOM     22  C   UNL     1       7.033 -56.347 569.569  1.00  0.00    -0.076 C 
ATOM     23  C   UNL     1       7.923 -57.273 569.170  1.00  0.00     0.008 C 
ATOM     24  C   UNL     1       6.158 -55.720 568.513  1.00  0.00     0.039 C 
ENDBRANCH   3  22
BRANCH  14  25
ATOM     25  C   UNL     1       6.649 -52.339 577.879  1.00  0.00     0.042 C 
BRANCH  25  26
ATOM     26  C   UNL     1       5.183 -52.564 578.172  1.00  0.00     0.045 C 
ATOM     27  O   UNL     1       4.295 -51.866 577.619  1.00  0.00    -0.550 OA
ATOM     28  O   UNL     1       4.801 -53.548 579.075  1.00  0.00    -0.550 OA
ENDBRANCH  25  26
BRANCH  25  29
ATOM     29  C   UNL     1       7.334 -51.699 579.120  1.00  0.00     0.014 C 
BRANCH  29  30
ATOM     30  C   UNL     1       8.732 -51.072 578.919  1.00  0.00     0.028 C 
BRANCH  30  31
ATOM     31  C   UNL     1       8.708 -49.584 578.677  1.00  0.00    -0.028 C 
ATOM     32  C   UNL     1       8.842 -48.989 577.469  1.00  0.00    -0.080 C 
ATOM     33  C   UNL     1       8.812 -47.484 577.407  1.00  0.00     0.039 C 
ATOM     34  C   UNL     1       9.042 -49.781 576.198  1.00  0.00     0.039 C 
ENDBRANCH  30  31
ENDBRANCH  29  30
ENDBRANCH  25  29
ENDBRANCH  14  25
BRANCH  16  35
ATOM     35  O   UNL     1       6.812 -55.606 578.580  1.00  0.00    -0.393 OA
ATOM     36  H   UNL     1       6.724 -54.993 579.356  1.00  0.00     0.210 HD
ENDBRANCH  16  35
TORSDOF 10
ENDMDL
MODEL 2
REMARK VINA RESULT:     0.191      3.020      9.171
REMARK INTER + INTRA:          -0.430
REMARK INTER:                  -1.970
REMARK INTRA:                   1.540
REMARK UNBOUND:                -0.728
REMARK SMILES C=C(C)[C@H]1CC=C2C(=CC[C@@]3(C)[C@@H]([C@H](CCC=C(C)C)C(=O)[O-])[C@H](O)C[C@@]23C)[C@@]1(C)CCC(=O)[O-]
REMARK SMILES IDX 29 1 8 2 4 3 30 4 7 5 9 6 5 7 27 8 6 9 10 10 11 11 26 12
REMARK SMILES IDX 28 13 13 14 12 15 24 16 31 17 32 18 33 19 34 20 35 21 2 22
REMARK SMILES IDX 1 23 3 24 14 25 21 26 22 27 23 28 15 29 16 30 17 31 18 32
REMARK SMILES IDX 19 33 20 34 25 35
REMARK H PARENT 25 36
REMARK Flexibility Score: inf
ROOT
ATOM      1  C   UNL     1       7.733 -54.858 575.243  1.00  0.00    -0.000 C 
ATOM      2  C   UNL     1       7.751 -55.059 573.712  1.00  0.00    -0.042 C 
ATOM      3  C   UNL     1       6.252 -55.059 575.742  1.00  0.00     0.028 C 
ATOM      4  C   UNL     1       8.583 -55.954 575.955  1.00  0.00     0.017 C 
ATOM      5  C   UNL     1       6.589 -54.606 572.882  1.00  0.00    -0.042 C 
ATOM      6  C   UNL     1       8.819 -55.580 573.081  1.00  0.00    -0.022 C 
ATOM      7  C   UNL     1       5.199 -54.272 574.949  1.00  0.00     0.036 C 
ATOM      8  C   UNL     1       6.732 -54.422 571.353  1.00  0.00     0.001 C 
ATOM      9  C   UNL     1       5.402 -54.357 573.467  1.00  0.00    -0.022 C 
ATOM     10  C   UNL     1       8.790 -55.892 571.618  1.00  0.00     0.035 C 
ATOM     11  C   UNL     1       8.183 -54.712 570.811  1.00  0.00    -0.014 C 
ATOM     12  C   UNL     1       5.858 -55.453 570.622  1.00  0.00     0.044 C 
ATOM     13  C   UNL     1       6.251 -52.989 570.954  1.00  0.00     0.017 C 
ATOM     14  C   UNL     1       7.946 -55.100 569.305  1.00  0.00     0.034 C 
ATOM     15  C   UNL     1       9.120 -53.477 570.952  1.00  0.00     0.013 C 
ATOM     16  C   UNL     1       6.538 -55.753 569.283  1.00  0.00     0.119 C 
ENDROOT
BRANCH   1  17
ATOM     17  C   UNL     1       8.392 -53.482 575.602  1.00  0.00     0.018 C 
BRANCH  17  18
ATOM     18  C   UNL     1       9.034 -53.332 576.995  1.00  0.00     0.053 C 
BRANCH  18  19
ATOM     19  C   UNL     1       8.686 -52.003 577.589  1.00  0.00     0.041 C 
ATOM     20  O   UNL     1       8.774 -51.828 578.832  1.00  0.00    -0.550 OA
ATOM     21  O   UNL     1       8.206 -50.982 576.779  1.00  0.00    -0.550 OA
ENDBRANCH  18  19
ENDBRANCH  17  18
ENDBRANCH   1  17
BRANCH   3  22
ATOM     22  C   UNL     1       6.035 -54.917 577.256  1.00  0.00    -0.076 C 
ATOM     23  C   UNL     1       6.477 -55.879 578.086  1.00  0.00     0.008 C 
ATOM     24  C   UNL     1       5.316 -53.742 577.870  1.00  0.00     0.039 C 
ENDBRANCH   3  22
BRANCH  14  25
ATOM     25  C   UNL     1       9.008 -56.013 568.583  1.00  0.00     0.042 C 
BRANCH  25  26
ATOM     26  C   UNL     1       8.834 -57.472 568.936  1.00  0.00     0.045 C 
ATOM     27  O   UNL     1       9.011 -58.374 568.078  1.00  0.00    -0.550 OA
ATOM     28  O   UNL     1       8.461 -57.832 570.225  1.00  0.00    -0.550 OA
ENDBRANCH  25  26
BRANCH  25  29
ATOM     29  C   UNL     1       9.124 -55.864 567.039  1.00  0.00     0.014 C 
BRANCH  29  30
ATOM     30  C   UNL     1       8.095 -56.622 566.170  1.00  0.00     0.028 C 
BRANCH  30  31
ATOM     31  C   UNL     1       8.690 -57.289 564.956  1.00  0.00    -0.028 C 
ATOM     32  C   UNL     1       8.104 -58.282 564.247  1.00  0.00    -0.080 C 
ATOM     33  C   UNL     1       8.847 -58.850 563.065  1.00  0.00     0.039 C 
ATOM     34  C   UNL     1       6.753 -58.847 564.616  1.00  0.00     0.039 C 
ENDBRANCH  30  31
ENDBRANCH  29  30
ENDBRANCH  25  29
ENDBRANCH  14  25
BRANCH  16  35
ATOM     35  O   UNL     1       5.776 -55.231 568.222  1.00  0.00    -0.393 OA
ATOM     36  H   UNL     1       5.945 -54.252 568.205  1.00  0.00     0.210 HD
ENDBRANCH  16  35
TORSDOF 10
ENDMDL
