MODEL 1
REMARK VINA RESULT:    -4.014      0.000      0.000
REMARK INTER + INTRA:          -4.844
REMARK INTER:                  -4.835
REMARK INTRA:                  -0.009
REMARK UNBOUND:                -0.009
REMARK SMILES O=c1c(O)c(-c2ccc(O)c(O)c2)oc2cc(O)cc(O)c12
REMARK SMILES IDX 5 1 3 2 2 3 1 4 22 5 20 6 19 7 17 8 16 9 15 10 14 11 6 12
REMARK SMILES IDX 7 13 8 14 9 15 13 16 11 17 10 18 12 20 4 22 21 24 18 26
REMARK H PARENT 10 19 12 21 4 23 21 25 18 27
REMARK Flexibility Score: inf
ROOT
ATOM      1  C   UNL     1       8.251  10.945 -23.374  1.00  0.00     0.180 A 
ATOM      2  C   UNL     1       7.544   9.974 -24.106  1.00  0.00     0.208 A 
ATOM      3  C   UNL     1       8.264   9.030 -24.857  1.00  0.00     0.238 A 
ATOM      4  O   UNL     1       7.626   8.198 -25.552  1.00  0.00    -0.285 OA
ATOM      5  C   UNL     1       9.680   9.057 -24.851  1.00  0.00     0.111 A 
ATOM      6  C   UNL     1      10.511   8.123 -25.541  1.00  0.00     0.134 A 
ATOM      7  C   UNL     1      11.897   8.324 -25.572  1.00  0.00     0.093 A 
ATOM      8  C   UNL     1      12.486   9.383 -24.885  1.00  0.00     0.123 A 
ATOM      9  C   UNL     1      11.688  10.268 -24.157  1.00  0.00     0.094 A 
ATOM     10  C   UNL     1      10.300  10.115 -24.137  1.00  0.00     0.146 A 
ATOM     11  O   UNL     1       9.577  10.984 -23.442  1.00  0.00    -0.452 OA
ENDROOT
BRANCH   1  12
ATOM     12  C   UNL     1       7.563  11.957 -22.541  1.00  0.00     0.025 A 
ATOM     13  C   UNL     1       7.895  12.076 -21.182  1.00  0.00     0.016 A 
ATOM     14  C   UNL     1       7.244  13.010 -20.373  1.00  0.00     0.051 A 
ATOM     15  C   UNL     1       6.239  13.828 -20.906  1.00  0.00     0.157 A 
ATOM     16  C   UNL     1       6.539  12.766 -23.067  1.00  0.00     0.062 A 
ATOM     17  C   UNL     1       5.882  13.701 -22.259  1.00  0.00     0.158 A 
BRANCH  15  18
ATOM     18  O   UNL     1       5.592  14.761 -20.096  1.00  0.00    -0.504 OA
ATOM     19  H   UNL     1       5.749  15.756 -20.205  1.00  0.00     0.293 HD
ENDBRANCH  15  18
BRANCH  17  20
ATOM     20  O   UNL     1       4.877  14.490 -22.816  1.00  0.00    -0.504 OA
ATOM     21  H   UNL     1       4.489  15.289 -22.330  1.00  0.00     0.293 HD
ENDBRANCH  17  20
ENDBRANCH   1  12
BRANCH   2  22
ATOM     22  O   UNL     1       6.147   9.980 -24.116  1.00  0.00    -0.502 OA
ATOM     23  H   UNL     1       5.597   9.438 -23.461  1.00  0.00     0.293 HD
ENDBRANCH   2  22
BRANCH   6  24
ATOM     24  O   UNL     1      10.031   6.978 -26.183  1.00  0.00    -0.507 OA
ATOM     25  H   UNL     1       9.187   6.488 -25.930  1.00  0.00     0.293 HD
ENDBRANCH   6  24
BRANCH   8  26
ATOM     26  O   UNL     1      13.870   9.543 -24.924  1.00  0.00    -0.508 OA
ATOM     27  H   UNL     1      14.298  10.341 -25.377  1.00  0.00     0.293 HD
ENDBRANCH   8  26
TORSDOF 6
ENDMDL
MODEL 2
REMARK VINA RESULT:    -3.936      1.352      3.129
REMARK INTER + INTRA:          -4.751
REMARK INTER:                  -4.860
REMARK INTRA:                   0.109
REMARK UNBOUND:                -0.009
REMARK SMILES O=c1c(O)c(-c2ccc(O)c(O)c2)oc2cc(O)cc(O)c12
REMARK SMILES IDX 5 1 3 2 2 3 1 4 22 5 20 6 19 7 17 8 16 9 15 10 14 11 6 12
REMARK SMILES IDX 7 13 8 14 9 15 13 16 11 17 10 18 12 20 4 22 21 24 18 26
REMARK H PARENT 10 19 12 21 4 23 21 25 18 27
REMARK Flexibility Score: inf
ROOT
ATOM      1  C   UNL     1       8.060  10.961 -23.159  1.00  0.00     0.180 A 
ATOM      2  C   UNL     1       9.446  10.733 -23.217  1.00  0.00     0.208 A 
ATOM      3  C   UNL     1       9.942   9.774 -24.116  1.00  0.00     0.238 A 
ATOM      4  O   UNL     1      11.178   9.537 -24.125  1.00  0.00    -0.285 OA
ATOM      5  C   UNL     1       9.047   9.068 -24.957  1.00  0.00     0.111 A 
ATOM      6  C   UNL     1       9.444   8.104 -25.933  1.00  0.00     0.134 A 
ATOM      7  C   UNL     1       8.464   7.371 -26.615  1.00  0.00     0.093 A 
ATOM      8  C   UNL     1       7.108   7.614 -26.407  1.00  0.00     0.123 A 
ATOM      9  C   UNL     1       6.710   8.595 -25.498  1.00  0.00     0.094 A 
ATOM     10  C   UNL     1       7.662   9.317 -24.775  1.00  0.00     0.146 A 
ATOM     11  O   UNL     1       7.242  10.235 -23.913  1.00  0.00    -0.452 OA
ENDROOT
BRANCH   1  12
ATOM     12  C   UNL     1       7.466  11.971 -22.255  1.00  0.00     0.025 A 
ATOM     13  C   UNL     1       7.884  12.032 -20.916  1.00  0.00     0.016 A 
ATOM     14  C   UNL     1       7.321  12.964 -20.040  1.00  0.00     0.051 A 
ATOM     15  C   UNL     1       6.321  13.837 -20.485  1.00  0.00     0.157 A 
ATOM     16  C   UNL     1       6.446  12.836 -22.692  1.00  0.00     0.062 A 
ATOM     17  C   UNL     1       5.879  13.769 -21.817  1.00  0.00     0.158 A 
BRANCH  15  18
ATOM     18  O   UNL     1       5.762  14.767 -19.609  1.00  0.00    -0.504 OA
ATOM     19  H   UNL     1       5.146  14.483 -18.856  1.00  0.00     0.293 HD
ENDBRANCH  15  18
BRANCH  17  20
ATOM     20  O   UNL     1       4.875  14.615 -22.287  1.00  0.00    -0.504 OA
ATOM     21  H   UNL     1       4.899  15.015 -23.216  1.00  0.00     0.293 HD
ENDBRANCH  17  20
ENDBRANCH   1  12
BRANCH   2  22
ATOM     22  O   UNL     1      10.309  11.426 -22.363  1.00  0.00    -0.502 OA
ATOM     23  H   UNL     1      10.164  12.396 -22.114  1.00  0.00     0.293 HD
ENDBRANCH   2  22
BRANCH   6  24
ATOM     24  O   UNL     1      10.772   7.850 -26.284  1.00  0.00    -0.507 OA
ATOM     25  H   UNL     1      11.147   7.941 -27.216  1.00  0.00     0.293 HD
ENDBRANCH   6  24
BRANCH   8  26
ATOM     26  O   UNL     1       6.161   6.877 -27.116  1.00  0.00    -0.508 OA
ATOM     27  H   UNL     1       6.429   6.253 -27.868  1.00  0.00     0.293 HD
ENDBRANCH   8  26
TORSDOF 6
ENDMDL
MODEL 3
REMARK VINA RESULT:    -3.536      0.676      1.470
REMARK INTER + INTRA:          -4.269
REMARK INTER:                  -4.291
REMARK INTRA:                   0.022
REMARK UNBOUND:                -0.009
REMARK SMILES O=c1c(O)c(-c2ccc(O)c(O)c2)oc2cc(O)cc(O)c12
REMARK SMILES IDX 5 1 3 2 2 3 1 4 22 5 20 6 19 7 17 8 16 9 15 10 14 11 6 12
REMARK SMILES IDX 7 13 8 14 9 15 13 16 11 17 10 18 12 20 4 22 21 24 18 26
REMARK H PARENT 10 19 12 21 4 23 21 25 18 27
REMARK Flexibility Score: inf
ROOT
ATOM      1  C   UNL     1       7.875  10.932 -23.464  1.00  0.00     0.180 A 
ATOM      2  C   UNL     1       7.150   9.998 -24.224  1.00  0.00     0.208 A 
ATOM      3  C   UNL     1       7.852   9.043 -24.980  1.00  0.00     0.238 A 
ATOM      4  O   UNL     1       7.199   8.245 -25.700  1.00  0.00    -0.285 OA
ATOM      5  C   UNL     1       9.267   9.024 -24.951  1.00  0.00     0.111 A 
ATOM      6  C   UNL     1      10.079   8.076 -25.644  1.00  0.00     0.134 A 
ATOM      7  C   UNL     1      11.471   8.233 -25.650  1.00  0.00     0.093 A 
ATOM      8  C   UNL     1      12.083   9.260 -24.935  1.00  0.00     0.123 A 
ATOM      9  C   UNL     1      11.302  10.158 -24.205  1.00  0.00     0.094 A 
ATOM     10  C   UNL     1       9.909  10.050 -24.209  1.00  0.00     0.146 A 
ATOM     11  O   UNL     1       9.202  10.930 -23.511  1.00  0.00    -0.452 OA
ENDROOT
BRANCH   1  12
ATOM     12  C   UNL     1       7.207  11.952 -22.625  1.00  0.00     0.025 A 
ATOM     13  C   UNL     1       6.227  12.782 -23.195  1.00  0.00     0.016 A 
ATOM     14  C   UNL     1       5.599  13.765 -22.427  1.00  0.00     0.051 A 
ATOM     15  C   UNL     1       5.951  13.945 -21.083  1.00  0.00     0.157 A 
ATOM     16  C   UNL     1       7.572  12.151 -21.281  1.00  0.00     0.062 A 
ATOM     17  C   UNL     1       6.946  13.136 -20.510  1.00  0.00     0.158 A 
BRANCH  15  18
ATOM     18  O   UNL     1       5.320  14.926 -20.318  1.00  0.00    -0.504 OA
ATOM     19  H   UNL     1       5.111  14.780 -19.338  1.00  0.00     0.293 HD
ENDBRANCH  15  18
BRANCH  17  20
ATOM     20  O   UNL     1       7.329  13.300 -19.179  1.00  0.00    -0.504 OA
ATOM     21  H   UNL     1       7.220  14.180 -18.692  1.00  0.00     0.293 HD
ENDBRANCH  17  20
ENDBRANCH   1  12
BRANCH   2  22
ATOM     22  O   UNL     1       5.754  10.048 -24.256  1.00  0.00    -0.502 OA
ATOM     23  H   UNL     1       5.224  10.754 -23.759  1.00  0.00     0.293 HD
ENDBRANCH   2  22
BRANCH   6  24
ATOM     24  O   UNL     1       9.573   6.958 -26.314  1.00  0.00    -0.507 OA
ATOM     25  H   UNL     1      10.105   6.128 -26.526  1.00  0.00     0.293 HD
ENDBRANCH   6  24
BRANCH   8  26
ATOM     26  O   UNL     1      13.471   9.377 -24.950  1.00  0.00    -0.508 OA
ATOM     27  H   UNL     1      14.051   8.731 -25.471  1.00  0.00     0.293 HD
ENDBRANCH   8  26
TORSDOF 6
ENDMDL
MODEL 4
REMARK VINA RESULT:    -3.450      2.319      7.395
REMARK INTER + INTRA:          -4.165
REMARK INTER:                  -4.424
REMARK INTRA:                   0.259
REMARK UNBOUND:                -0.009
REMARK SMILES O=c1c(O)c(-c2ccc(O)c(O)c2)oc2cc(O)cc(O)c12
REMARK SMILES IDX 5 1 3 2 2 3 1 4 22 5 20 6 19 7 17 8 16 9 15 10 14 11 6 12
REMARK SMILES IDX 7 13 8 14 9 15 13 16 11 17 10 18 12 20 4 22 21 24 18 26
REMARK H PARENT 10 19 12 21 4 23 21 25 18 27
REMARK Flexibility Score: inf
ROOT
ATOM      1  C   UNL     1      11.633   8.554 -25.363  1.00  0.00     0.180 A 
ATOM      2  C   UNL     1      10.712   7.843 -26.154  1.00  0.00     0.208 A 
ATOM      3  C   UNL     1       9.339   8.092 -25.991  1.00  0.00     0.238 A 
ATOM      4  O   UNL     1       8.519   7.415 -26.663  1.00  0.00    -0.285 OA
ATOM      5  C   UNL     1       8.906   9.061 -25.054  1.00  0.00     0.111 A 
ATOM      6  C   UNL     1       7.542   9.424 -24.837  1.00  0.00     0.134 A 
ATOM      7  C   UNL     1       7.219  10.299 -23.792  1.00  0.00     0.093 A 
ATOM      8  C   UNL     1       8.212  10.875 -23.002  1.00  0.00     0.123 A 
ATOM      9  C   UNL     1       9.553  10.573 -23.245  1.00  0.00     0.094 A 
ATOM     10  C   UNL     1       9.905   9.676 -24.255  1.00  0.00     0.146 A 
ATOM     11  O   UNL     1      11.190   9.407 -24.447  1.00  0.00    -0.452 OA
ENDROOT
BRANCH   1  12
ATOM     12  C   UNL     1      13.095   8.363 -25.494  1.00  0.00     0.025 A 
ATOM     13  C   UNL     1      13.603   7.081 -25.761  1.00  0.00     0.016 A 
ATOM     14  C   UNL     1      14.981   6.875 -25.867  1.00  0.00     0.051 A 
ATOM     15  C   UNL     1      15.871   7.941 -25.692  1.00  0.00     0.157 A 
ATOM     16  C   UNL     1      13.993   9.427 -25.298  1.00  0.00     0.062 A 
ATOM     17  C   UNL     1      15.374   9.223 -25.402  1.00  0.00     0.158 A 
BRANCH  15  18
ATOM     18  O   UNL     1      17.246   7.733 -25.801  1.00  0.00    -0.504 OA
ATOM     19  H   UNL     1      17.622   6.905 -26.247  1.00  0.00     0.293 HD
ENDBRANCH  15  18
BRANCH  17  20
ATOM     20  O   UNL     1      16.235  10.303 -25.208  1.00  0.00    -0.504 OA
ATOM     21  H   UNL     1      17.124  10.204 -24.734  1.00  0.00     0.293 HD
ENDBRANCH  17  20
ENDBRANCH   1  12
BRANCH   2  22
ATOM     22  O   UNL     1      11.161   6.875 -27.057  1.00  0.00    -0.502 OA
ATOM     23  H   UNL     1      11.209   7.043 -28.054  1.00  0.00     0.293 HD
ENDBRANCH   2  22
BRANCH   6  24
ATOM     24  O   UNL     1       6.480   8.977 -25.628  1.00  0.00    -0.507 OA
ATOM     25  H   UNL     1       6.231   9.363 -26.526  1.00  0.00     0.293 HD
ENDBRANCH   6  24
BRANCH   8  26
ATOM     26  O   UNL     1       7.856  11.755 -21.982  1.00  0.00    -0.508 OA
ATOM     27  H   UNL     1       8.299  12.659 -21.883  1.00  0.00     0.293 HD
ENDBRANCH   8  26
TORSDOF 6
ENDMDL
MODEL 5
REMARK VINA RESULT:    -3.397      2.385      7.584
REMARK INTER + INTRA:          -4.101
REMARK INTER:                  -4.230
REMARK INTRA:                   0.129
REMARK UNBOUND:                -0.009
REMARK SMILES O=c1c(O)c(-c2ccc(O)c(O)c2)oc2cc(O)cc(O)c12
REMARK SMILES IDX 5 1 3 2 2 3 1 4 22 5 20 6 19 7 17 8 16 9 15 10 14 11 6 12
REMARK SMILES IDX 7 13 8 14 9 15 13 16 11 17 10 18 12 20 4 22 21 24 18 26
REMARK H PARENT 10 19 12 21 4 23 21 25 18 27
REMARK Flexibility Score: inf
ROOT
ATOM      1  C   UNL     1      12.211   8.899 -25.326  1.00  0.00     0.180 A 
ATOM      2  C   UNL     1      11.460   7.916 -25.994  1.00  0.00     0.208 A 
ATOM      3  C   UNL     1      10.069   7.874 -25.801  1.00  0.00     0.238 A 
ATOM      4  O   UNL     1       9.410   6.959 -26.359  1.00  0.00    -0.285 OA
ATOM      5  C   UNL     1       9.446   8.825 -24.956  1.00  0.00     0.111 A 
ATOM      6  C   UNL     1       8.040   8.900 -24.721  1.00  0.00     0.134 A 
ATOM      7  C   UNL     1       7.548   9.797 -23.764  1.00  0.00     0.093 A 
ATOM      8  C   UNL     1       8.401  10.666 -23.085  1.00  0.00     0.123 A 
ATOM      9  C   UNL     1       9.771  10.641 -23.351  1.00  0.00     0.094 A 
ATOM     10  C   UNL     1      10.296   9.733 -24.273  1.00  0.00     0.146 A 
ATOM     11  O   UNL     1      11.605   9.734 -24.489  1.00  0.00    -0.452 OA
ENDROOT
BRANCH   1  12
ATOM     12  C   UNL     1      13.676   9.022 -25.498  1.00  0.00     0.025 A 
ATOM     13  C   UNL     1      14.246  10.291 -25.688  1.00  0.00     0.016 A 
ATOM     14  C   UNL     1      15.624  10.428 -25.874  1.00  0.00     0.051 A 
ATOM     15  C   UNL     1      16.451   9.298 -25.889  1.00  0.00     0.157 A 
ATOM     16  C   UNL     1      14.508   7.888 -25.535  1.00  0.00     0.062 A 
ATOM     17  C   UNL     1      15.888   8.021 -25.724  1.00  0.00     0.158 A 
BRANCH  15  18
ATOM     18  O   UNL     1      17.826   9.437 -26.073  1.00  0.00    -0.504 OA
ATOM     19  H   UNL     1      18.474   9.370 -25.297  1.00  0.00     0.293 HD
ENDBRANCH  15  18
BRANCH  17  20
ATOM     20  O   UNL     1      16.682   6.875 -25.748  1.00  0.00    -0.504 OA
ATOM     21  H   UNL     1      16.328   5.981 -26.065  1.00  0.00     0.293 HD
ENDBRANCH  17  20
ENDBRANCH   1  12
BRANCH   2  22
ATOM     22  O   UNL     1      12.098   6.974 -26.805  1.00  0.00    -0.502 OA
ATOM     23  H   UNL     1      12.310   7.150 -27.779  1.00  0.00     0.293 HD
ENDBRANCH   2  22
BRANCH   6  24
ATOM     24  O   UNL     1       7.090   8.142 -25.413  1.00  0.00    -0.507 OA
ATOM     25  H   UNL     1       6.093   8.212 -25.280  1.00  0.00     0.293 HD
ENDBRANCH   6  24
BRANCH   8  26
ATOM     26  O   UNL     1       7.874  11.556 -22.152  1.00  0.00    -0.508 OA
ATOM     27  H   UNL     1       7.405  11.232 -21.316  1.00  0.00     0.293 HD
ENDBRANCH   8  26
TORSDOF 6
ENDMDL
MODEL 6
REMARK VINA RESULT:    -3.156      1.360      2.264
REMARK INTER + INTRA:          -3.811
REMARK INTER:                  -3.649
REMARK INTRA:                  -0.163
REMARK UNBOUND:                -0.009
REMARK SMILES O=c1c(O)c(-c2ccc(O)c(O)c2)oc2cc(O)cc(O)c12
REMARK SMILES IDX 5 1 3 2 2 3 1 4 22 5 20 6 19 7 17 8 16 9 15 10 14 11 6 12
REMARK SMILES IDX 7 13 8 14 9 15 13 16 11 17 10 18 12 20 4 22 21 24 18 26
REMARK H PARENT 10 19 12 21 4 23 21 25 18 27
REMARK Flexibility Score: inf
ROOT
ATOM      1  C   UNL     1       9.514  10.429 -24.069  1.00  0.00     0.180 A 
ATOM      2  C   UNL     1       9.189   9.223 -24.714  1.00  0.00     0.208 A 
ATOM      3  C   UNL     1      10.219   8.455 -25.282  1.00  0.00     0.238 A 
ATOM      4  O   UNL     1       9.916   7.405 -25.905  1.00  0.00    -0.285 OA
ATOM      5  C   UNL     1      11.562   8.894 -25.183  1.00  0.00     0.111 A 
ATOM      6  C   UNL     1      12.688   8.175 -25.685  1.00  0.00     0.134 A 
ATOM      7  C   UNL     1      13.957   8.767 -25.647  1.00  0.00     0.093 A 
ATOM      8  C   UNL     1      14.151  10.019 -25.066  1.00  0.00     0.123 A 
ATOM      9  C   UNL     1      13.065  10.704 -24.518  1.00  0.00     0.094 A 
ATOM     10  C   UNL     1      11.782  10.157 -24.574  1.00  0.00     0.146 A 
ATOM     11  O   UNL     1      10.775  10.845 -24.050  1.00  0.00    -0.452 OA
ENDROOT
BRANCH   1  12
ATOM     12  C   UNL     1       8.487  11.280 -23.426  1.00  0.00     0.025 A 
ATOM     13  C   UNL     1       7.529  11.928 -24.223  1.00  0.00     0.016 A 
ATOM     14  C   UNL     1       6.564  12.752 -23.639  1.00  0.00     0.051 A 
ATOM     15  C   UNL     1       6.551  12.954 -22.253  1.00  0.00     0.157 A 
ATOM     16  C   UNL     1       8.484  11.502 -22.037  1.00  0.00     0.062 A 
ATOM     17  C   UNL     1       7.520  12.329 -21.449  1.00  0.00     0.158 A 
BRANCH  15  18
ATOM     18  O   UNL     1       5.586  13.776 -21.673  1.00  0.00    -0.504 OA
ATOM     19  H   UNL     1       4.964  13.433 -20.950  1.00  0.00     0.293 HD
ENDBRANCH  15  18
BRANCH  17  20
ATOM     20  O   UNL     1       7.543  12.521 -20.069  1.00  0.00    -0.504 OA
ATOM     21  H   UNL     1       7.088  13.310 -19.627  1.00  0.00     0.293 HD
ENDBRANCH  17  20
ENDBRANCH   1  12
BRANCH   2  22
ATOM     22  O   UNL     1       7.855   8.820 -24.820  1.00  0.00    -0.502 OA
ATOM     23  H   UNL     1       7.082   9.454 -24.667  1.00  0.00     0.293 HD
ENDBRANCH   2  22
BRANCH   6  24
ATOM     24  O   UNL     1      12.619   6.878 -26.203  1.00  0.00    -0.507 OA
ATOM     25  H   UNL     1      12.045   6.603 -26.985  1.00  0.00     0.293 HD
ENDBRANCH   6  24
BRANCH   8  26
ATOM     26  O   UNL     1      15.430  10.570 -25.031  1.00  0.00    -0.508 OA
ATOM     27  H   UNL     1      15.642  11.448 -25.490  1.00  0.00     0.293 HD
ENDBRANCH   8  26
TORSDOF 6
ENDMDL
MODEL 7
REMARK VINA RESULT:    -3.111      1.343      6.888
REMARK INTER + INTRA:          -3.756
REMARK INTER:                  -3.698
REMARK INTRA:                  -0.059
REMARK UNBOUND:                -0.009
REMARK SMILES O=c1c(O)c(-c2ccc(O)c(O)c2)oc2cc(O)cc(O)c12
REMARK SMILES IDX 5 1 3 2 2 3 1 4 22 5 20 6 19 7 17 8 16 9 15 10 14 11 6 12
REMARK SMILES IDX 7 13 8 14 9 15 13 16 11 17 10 18 12 20 4 22 21 24 18 26
REMARK H PARENT 10 19 12 21 4 23 21 25 18 27
REMARK Flexibility Score: inf
ROOT
ATOM      1  C   UNL     1       8.449  10.930 -24.170  1.00  0.00     0.180 A 
ATOM      2  C   UNL     1       7.497  11.491 -25.039  1.00  0.00     0.208 A 
ATOM      3  C   UNL     1       6.576  12.422 -24.530  1.00  0.00     0.238 A 
ATOM      4  O   UNL     1       5.693  12.880 -25.301  1.00  0.00    -0.285 OA
ATOM      5  C   UNL     1       6.629  12.791 -23.164  1.00  0.00     0.111 A 
ATOM      6  C   UNL     1       5.772  13.754 -22.552  1.00  0.00     0.134 A 
ATOM      7  C   UNL     1       5.828  13.944 -21.165  1.00  0.00     0.093 A 
ATOM      8  C   UNL     1       6.752  13.257 -20.380  1.00  0.00     0.123 A 
ATOM      9  C   UNL     1       7.636  12.356 -20.978  1.00  0.00     0.094 A 
ATOM     10  C   UNL     1       7.580  12.118 -22.353  1.00  0.00     0.146 A 
ATOM     11  O   UNL     1       8.431  11.247 -22.881  1.00  0.00    -0.452 OA
ENDROOT
BRANCH   1  12
ATOM     12  C   UNL     1       9.467   9.962 -24.638  1.00  0.00     0.025 A 
ATOM     13  C   UNL     1       9.054   8.760 -25.238  1.00  0.00     0.016 A 
ATOM     14  C   UNL     1       9.997   7.824 -25.667  1.00  0.00     0.051 A 
ATOM     15  C   UNL     1      11.365   8.064 -25.489  1.00  0.00     0.157 A 
ATOM     16  C   UNL     1      10.841  10.190 -24.442  1.00  0.00     0.062 A 
ATOM     17  C   UNL     1      11.788   9.252 -24.869  1.00  0.00     0.158 A 
BRANCH  15  18
ATOM     18  O   UNL     1      12.304   7.128 -25.920  1.00  0.00    -0.504 OA
ATOM     19  H   UNL     1      13.299   7.321 -25.888  1.00  0.00     0.293 HD
ENDBRANCH  15  18
BRANCH  17  20
ATOM     20  O   UNL     1      13.142   9.516 -24.664  1.00  0.00    -0.504 OA
ATOM     21  H   UNL     1      13.478   9.991 -23.836  1.00  0.00     0.293 HD
ENDBRANCH  17  20
ENDBRANCH   1  12
BRANCH   2  22
ATOM     22  O   UNL     1       7.448  11.096 -26.379  1.00  0.00    -0.502 OA
ATOM     23  H   UNL     1       7.145  10.173 -26.662  1.00  0.00     0.293 HD
ENDBRANCH   2  22
BRANCH   6  24
ATOM     24  O   UNL     1       4.875  14.562 -23.257  1.00  0.00    -0.507 OA
ATOM     25  H   UNL     1       4.949  14.780 -24.239  1.00  0.00     0.293 HD
ENDBRANCH   6  24
BRANCH   8  26
ATOM     26  O   UNL     1       6.790  13.483 -19.006  1.00  0.00    -0.508 OA
ATOM     27  H   UNL     1       7.448  14.133 -18.594  1.00  0.00     0.293 HD
ENDBRANCH   8  26
TORSDOF 6
ENDMDL
MODEL 8
REMARK VINA RESULT:    -2.511      1.865      6.908
REMARK INTER + INTRA:          -3.035
REMARK INTER:                  -3.509
REMARK INTRA:                   0.475
REMARK UNBOUND:                -0.009
REMARK SMILES O=c1c(O)c(-c2ccc(O)c(O)c2)oc2cc(O)cc(O)c12
REMARK SMILES IDX 5 1 3 2 2 3 1 4 22 5 20 6 19 7 17 8 16 9 15 10 14 11 6 12
REMARK SMILES IDX 7 13 8 14 9 15 13 16 11 17 10 18 12 20 4 22 21 24 18 26
REMARK H PARENT 10 19 12 21 4 23 21 25 18 27
REMARK Flexibility Score: inf
ROOT
ATOM      1  C   UNL     1      10.761   9.393 -24.907  1.00  0.00     0.180 A 
ATOM      2  C   UNL     1      10.007   8.286 -25.336  1.00  0.00     0.208 A 
ATOM      3  C   UNL     1       8.605   8.350 -25.269  1.00  0.00     0.238 A 
ATOM      4  O   UNL     1       7.938   7.337 -25.603  1.00  0.00    -0.285 OA
ATOM      5  C   UNL     1       7.976   9.526 -24.791  1.00  0.00     0.111 A 
ATOM      6  C   UNL     1       6.562   9.715 -24.720  1.00  0.00     0.134 A 
ATOM      7  C   UNL     1       6.051  10.867 -24.108  1.00  0.00     0.093 A 
ATOM      8  C   UNL     1       6.898  11.863 -23.627  1.00  0.00     0.123 A 
ATOM      9  C   UNL     1       8.281  11.715 -23.746  1.00  0.00     0.094 A 
ATOM     10  C   UNL     1       8.822  10.561 -24.318  1.00  0.00     0.146 A 
ATOM     11  O   UNL     1      10.142  10.454 -24.403  1.00  0.00    -0.452 OA
ENDROOT
BRANCH   1  12
ATOM     12  C   UNL     1      12.240   9.409 -24.969  1.00  0.00     0.025 A 
ATOM     13  C   UNL     1      12.931  10.596 -24.676  1.00  0.00     0.016 A 
ATOM     14  C   UNL     1      14.325  10.639 -24.750  1.00  0.00     0.051 A 
ATOM     15  C   UNL     1      15.049   9.503 -25.133  1.00  0.00     0.157 A 
ATOM     16  C   UNL     1      12.969   8.277 -25.374  1.00  0.00     0.062 A 
ATOM     17  C   UNL     1      14.366   8.317 -25.451  1.00  0.00     0.158 A 
BRANCH  15  18
ATOM     18  O   UNL     1      16.441   9.549 -25.203  1.00  0.00    -0.504 OA
ATOM     19  H   UNL     1      16.938   9.271 -26.041  1.00  0.00     0.293 HD
ENDBRANCH  15  18
BRANCH  17  20
ATOM     20  O   UNL     1      15.056   7.173 -25.849  1.00  0.00    -0.504 OA
ATOM     21  H   UNL     1      15.138   6.906 -26.822  1.00  0.00     0.293 HD
ENDBRANCH  17  20
ENDBRANCH   1  12
BRANCH   2  22
ATOM     22  O   UNL     1      10.649   7.128 -25.782  1.00  0.00    -0.502 OA
ATOM     23  H   UNL     1      10.168   6.408 -26.307  1.00  0.00     0.293 HD
ENDBRANCH   2  22
BRANCH   6  24
ATOM     24  O   UNL     1       5.627   8.824 -25.253  1.00  0.00    -0.507 OA
ATOM     25  H   UNL     1       5.849   7.911 -25.620  1.00  0.00     0.293 HD
ENDBRANCH   6  24
BRANCH   8  26
ATOM     26  O   UNL     1       6.354  13.004 -23.038  1.00  0.00    -0.508 OA
ATOM     27  H   UNL     1       6.930  13.802 -22.799  1.00  0.00     0.293 HD
ENDBRANCH   8  26
TORSDOF 6
ENDMDL
