MODEL 1
REMARK VINA RESULT:    -4.524      0.000      0.000
REMARK INTER + INTRA:         -10.081
REMARK INTER:                  -8.491
REMARK INTRA:                  -1.590
REMARK UNBOUND:                -1.590
REMARK SMILES O=C([O-])CCCCCCCCCCCCCCC(=O)[O-]
REMARK SMILES IDX 10 1 9 2 8 3 7 4 6 5 5 6 4 7 2 8 1 9 3 10 11 11 12 12 13 13
REMARK SMILES IDX 14 14 15 15 16 16 17 17 18 18 19 19 20 20
REMARK H PARENT
REMARK Flexibility Score: inf
ROOT
ATOM      1  C   UNL     1      58.450  34.171  80.735  1.00  0.00     0.000 C 
ENDROOT
BRANCH   1   2
ATOM      2  C   UNL     1      58.963  33.761  79.346  1.00  0.00     0.000 C 
BRANCH   2   3
ATOM      3  C   UNL     1      57.923  32.959  78.544  1.00  0.00     0.000 C 
BRANCH   3   4
ATOM      4  C   UNL     1      58.535  32.262  77.319  1.00  0.00     0.000 C 
BRANCH   4   5
ATOM      5  C   UNL     1      57.846  32.668  76.004  1.00  0.00     0.000 C 
BRANCH   5   6
ATOM      6  C   UNL     1      58.044  31.631  74.888  1.00  0.00     0.006 C 
BRANCH   6   7
ATOM      7  C   UNL     1      57.249  30.342  75.135  1.00  0.00     0.053 C 
BRANCH   7   8
ATOM      8  C   UNL     1      56.172  30.188  74.108  1.00  0.00     0.041 C 
ATOM      9  O   UNL     1      55.982  31.089  73.250  1.00  0.00    -0.550 OA
ATOM     10  O   UNL     1      55.412  29.026  74.066  1.00  0.00    -0.550 OA
ENDBRANCH   7   8
ENDBRANCH   6   7
ENDBRANCH   5   6
ENDBRANCH   4   5
ENDBRANCH   3   4
ENDBRANCH   2   3
ENDBRANCH   1   2
BRANCH   1  11
ATOM     11  C   UNL     1      58.942  35.563  81.160  1.00  0.00     0.000 C 
BRANCH  11  12
ATOM     12  C   UNL     1      58.640  36.608  80.079  1.00  0.00     0.000 C 
BRANCH  12  13
ATOM     13  C   UNL     1      57.185  37.091  80.175  1.00  0.00     0.000 C 
BRANCH  13  14
ATOM     14  C   UNL     1      56.575  37.409  78.799  1.00  0.00     0.000 C 
BRANCH  14  15
ATOM     15  C   UNL     1      57.272  36.650  77.658  1.00  0.00     0.000 C 
BRANCH  15  16
ATOM     16  C   UNL     1      56.277  35.947  76.715  1.00  0.00     0.006 C 
BRANCH  16  17
ATOM     17  C   UNL     1      56.108  36.627  75.348  1.00  0.00     0.053 C 
BRANCH  17  18
ATOM     18  C   UNL     1      56.372  35.684  74.214  1.00  0.00     0.041 C 
ATOM     19  O   UNL     1      55.439  34.981  73.745  1.00  0.00    -0.550 OA
ATOM     20  O   UNL     1      57.655  35.559  73.698  1.00  0.00    -0.550 OA
ENDBRANCH  17  18
ENDBRANCH  16  17
ENDBRANCH  15  16
ENDBRANCH  14  15
ENDBRANCH  13  14
ENDBRANCH  12  13
ENDBRANCH  11  12
ENDBRANCH   1  11
TORSDOF 15
ENDMDL
MODEL 2
REMARK VINA RESULT:    -4.395      0.989      4.475
REMARK INTER + INTRA:          -9.839
REMARK INTER:                  -8.030
REMARK INTRA:                  -1.809
REMARK UNBOUND:                -1.590
REMARK SMILES O=C([O-])CCCCCCCCCCCCCCC(=O)[O-]
REMARK SMILES IDX 10 1 9 2 8 3 7 4 6 5 5 6 4 7 2 8 1 9 3 10 11 11 12 12 13 13
REMARK SMILES IDX 14 14 15 15 16 16 17 17 18 18 19 19 20 20
REMARK H PARENT
REMARK Flexibility Score: inf
ROOT
ATOM      1  C   UNL     1      57.744  36.089  80.302  1.00  0.00     0.000 C 
ENDROOT
BRANCH   1   2
ATOM      2  C   UNL     1      58.350  37.209  79.443  1.00  0.00     0.000 C 
BRANCH   2   3
ATOM      3  C   UNL     1      57.897  37.138  77.974  1.00  0.00     0.000 C 
BRANCH   3   4
ATOM      4  C   UNL     1      56.462  36.608  77.825  1.00  0.00     0.000 C 
BRANCH   4   5
ATOM      5  C   UNL     1      56.021  36.503  76.355  1.00  0.00     0.000 C 
BRANCH   5   6
ATOM      6  C   UNL     1      57.078  35.828  75.468  1.00  0.00     0.006 C 
BRANCH   6   7
ATOM      7  C   UNL     1      56.524  34.613  74.712  1.00  0.00     0.053 C 
BRANCH   7   8
ATOM      8  C   UNL     1      56.347  34.937  73.262  1.00  0.00     0.041 C 
ATOM      9  O   UNL     1      57.299  34.771  72.455  1.00  0.00    -0.550 OA
ATOM     10  O   UNL     1      55.115  35.374  72.793  1.00  0.00    -0.550 OA
ENDBRANCH   7   8
ENDBRANCH   6   7
ENDBRANCH   5   6
ENDBRANCH   4   5
ENDBRANCH   3   4
ENDBRANCH   2   3
ENDBRANCH   1   2
BRANCH   1  11
ATOM     11  C   UNL     1      58.807  35.128  80.856  1.00  0.00     0.000 C 
BRANCH  11  12
ATOM     12  C   UNL     1      59.146  34.035  79.835  1.00  0.00     0.000 C 
BRANCH  12  13
ATOM     13  C   UNL     1      57.869  33.371  79.297  1.00  0.00     0.000 C 
BRANCH  13  14
ATOM     14  C   UNL     1      57.902  33.173  77.773  1.00  0.00     0.000 C 
BRANCH  14  15
ATOM     15  C   UNL     1      58.772  31.976  77.354  1.00  0.00     0.000 C 
BRANCH  15  16
ATOM     16  C   UNL     1      58.001  30.945  76.508  1.00  0.00     0.006 C 
BRANCH  16  17
ATOM     17  C   UNL     1      57.913  31.289  75.013  1.00  0.00     0.053 C 
BRANCH  17  18
ATOM     18  C   UNL     1      56.732  30.642  74.356  1.00  0.00     0.041 C 
ATOM     19  O   UNL     1      56.331  29.513  74.744  1.00  0.00    -0.550 OA
ATOM     20  O   UNL     1      56.095  31.272  73.294  1.00  0.00    -0.550 OA
ENDBRANCH  17  18
ENDBRANCH  16  17
ENDBRANCH  15  16
ENDBRANCH  14  15
ENDBRANCH  13  14
ENDBRANCH  12  13
ENDBRANCH  11  12
ENDBRANCH   1  11
TORSDOF 15
ENDMDL
MODEL 3
REMARK VINA RESULT:    -4.393      2.341      2.943
REMARK INTER + INTRA:          -9.835
REMARK INTER:                  -8.479
REMARK INTRA:                  -1.356
REMARK UNBOUND:                -1.590
REMARK SMILES O=C([O-])CCCCCCCCCCCCCCC(=O)[O-]
REMARK SMILES IDX 10 1 9 2 8 3 7 4 6 5 5 6 4 7 2 8 1 9 3 10 11 11 12 12 13 13
REMARK SMILES IDX 14 14 15 15 16 16 17 17 18 18 19 19 20 20
REMARK H PARENT
REMARK Flexibility Score: inf
ROOT
ATOM      1  C   UNL     1      59.086  33.928  79.625  1.00  0.00     0.000 C 
ENDROOT
BRANCH   1   2
ATOM      2  C   UNL     1      58.007  33.249  78.769  1.00  0.00     0.000 C 
BRANCH   2   3
ATOM      3  C   UNL     1      57.647  34.064  77.515  1.00  0.00     0.000 C 
BRANCH   3   4
ATOM      4  C   UNL     1      57.782  33.243  76.222  1.00  0.00     0.000 C 
BRANCH   4   5
ATOM      5  C   UNL     1      58.523  31.913  76.442  1.00  0.00     0.000 C 
BRANCH   5   6
ATOM      6  C   UNL     1      58.555  31.038  75.180  1.00  0.00     0.006 C 
BRANCH   6   7
ATOM      7  C   UNL     1      57.178  30.914  74.514  1.00  0.00     0.053 C 
BRANCH   7   8
ATOM      8  C   UNL     1      56.575  29.576  74.809  1.00  0.00     0.041 C 
ATOM      9  O   UNL     1      55.507  29.224  74.243  1.00  0.00    -0.550 OA
ATOM     10  O   UNL     1      57.220  28.697  75.670  1.00  0.00    -0.550 OA
ENDBRANCH   7   8
ENDBRANCH   6   7
ENDBRANCH   5   6
ENDBRANCH   4   5
ENDBRANCH   3   4
ENDBRANCH   2   3
ENDBRANCH   1   2
BRANCH   1  11
ATOM     11  C   UNL     1      58.593  34.266  81.040  1.00  0.00     0.000 C 
BRANCH  11  12
ATOM     12  C   UNL     1      58.830  35.745  81.368  1.00  0.00     0.000 C 
BRANCH  12  13
ATOM     13  C   UNL     1      58.465  36.638  80.172  1.00  0.00     0.000 C 
BRANCH  13  14
ATOM     14  C   UNL     1      57.008  37.126  80.220  1.00  0.00     0.000 C 
BRANCH  14  15
ATOM     15  C   UNL     1      56.529  37.681  78.868  1.00  0.00     0.000 C 
BRANCH  15  16
ATOM     16  C   UNL     1      57.646  37.719  77.809  1.00  0.00     0.006 C 
BRANCH  16  17
ATOM     17  C   UNL     1      57.424  38.746  76.688  1.00  0.00     0.053 C 
BRANCH  17  18
ATOM     18  C   UNL     1      58.182  40.016  76.931  1.00  0.00     0.041 C 
ATOM     19  O   UNL     1      59.405  40.088  76.641  1.00  0.00    -0.550 OA
ATOM     20  O   UNL     1      57.544  41.107  77.507  1.00  0.00    -0.550 OA
ENDBRANCH  17  18
ENDBRANCH  16  17
ENDBRANCH  15  16
ENDBRANCH  14  15
ENDBRANCH  13  14
ENDBRANCH  12  13
ENDBRANCH  11  12
ENDBRANCH   1  11
TORSDOF 15
ENDMDL
MODEL 4
REMARK VINA RESULT:    -4.375      1.022      1.760
REMARK INTER + INTRA:          -9.802
REMARK INTER:                  -8.289
REMARK INTRA:                  -1.513
REMARK UNBOUND:                -1.590
REMARK SMILES O=C([O-])CCCCCCCCCCCCCCC(=O)[O-]
REMARK SMILES IDX 10 1 9 2 8 3 7 4 6 5 5 6 4 7 2 8 1 9 3 10 11 11 12 12 13 13
REMARK SMILES IDX 14 14 15 15 16 16 17 17 18 18 19 19 20 20
REMARK H PARENT
REMARK Flexibility Score: inf
ROOT
ATOM      1  C   UNL     1      58.799  35.678  81.163  1.00  0.00     0.000 C 
ENDROOT
BRANCH   1   2
ATOM      2  C   UNL     1      58.694  34.202  80.749  1.00  0.00     0.000 C 
BRANCH   2   3
ATOM      3  C   UNL     1      58.933  33.992  79.243  1.00  0.00     0.000 C 
BRANCH   3   4
ATOM      4  C   UNL     1      57.915  33.027  78.615  1.00  0.00     0.000 C 
BRANCH   4   5
ATOM      5  C   UNL     1      58.266  32.665  77.161  1.00  0.00     0.000 C 
BRANCH   5   6
ATOM      6  C   UNL     1      58.763  31.219  77.015  1.00  0.00     0.006 C 
BRANCH   6   7
ATOM      7  C   UNL     1      58.748  30.735  75.559  1.00  0.00     0.053 C 
BRANCH   7   8
ATOM      8  C   UNL     1      57.356  30.382  75.141  1.00  0.00     0.041 C 
ATOM      9  O   UNL     1      56.716  29.491  75.756  1.00  0.00    -0.550 OA
ATOM     10  O   UNL     1      56.745  31.075  74.103  1.00  0.00    -0.550 OA
ENDBRANCH   7   8
ENDBRANCH   6   7
ENDBRANCH   5   6
ENDBRANCH   4   5
ENDBRANCH   3   4
ENDBRANCH   2   3
ENDBRANCH   1   2
BRANCH   1  11
ATOM     11  C   UNL     1      58.536  36.640  79.995  1.00  0.00     0.000 C 
BRANCH  11  12
ATOM     12  C   UNL     1      57.055  37.032  79.926  1.00  0.00     0.000 C 
BRANCH  12  13
ATOM     13  C   UNL     1      56.789  37.963  78.733  1.00  0.00     0.000 C 
BRANCH  13  14
ATOM     14  C   UNL     1      57.265  37.366  77.398  1.00  0.00     0.000 C 
BRANCH  14  15
ATOM     15  C   UNL     1      56.517  36.072  77.034  1.00  0.00     0.000 C 
BRANCH  15  16
ATOM     16  C   UNL     1      56.071  36.036  75.560  1.00  0.00     0.006 C 
BRANCH  16  17
ATOM     17  C   UNL     1      56.464  34.755  74.808  1.00  0.00     0.053 C 
BRANCH  17  18
ATOM     18  C   UNL     1      56.113  34.827  73.353  1.00  0.00     0.041 C 
ATOM     19  O   UNL     1      55.190  35.589  72.962  1.00  0.00    -0.550 OA
ATOM     20  O   UNL     1      56.782  34.028  72.436  1.00  0.00    -0.550 OA
ENDBRANCH  17  18
ENDBRANCH  16  17
ENDBRANCH  15  16
ENDBRANCH  14  15
ENDBRANCH  13  14
ENDBRANCH  12  13
ENDBRANCH  11  12
ENDBRANCH   1  11
TORSDOF 15
ENDMDL
MODEL 5
REMARK VINA RESULT:    -4.345      2.262      5.911
REMARK INTER + INTRA:          -9.745
REMARK INTER:                  -7.804
REMARK INTRA:                  -1.941
REMARK UNBOUND:                -1.590
REMARK SMILES O=C([O-])CCCCCCCCCCCCCCC(=O)[O-]
REMARK SMILES IDX 10 1 9 2 8 3 7 4 6 5 5 6 4 7 2 8 1 9 3 10 11 11 12 12 13 13
REMARK SMILES IDX 14 14 15 15 16 16 17 17 18 18 19 19 20 20
REMARK H PARENT
REMARK Flexibility Score: inf
ROOT
ATOM      1  C   UNL     1      58.127  36.958  80.763  1.00  0.00     0.000 C 
ENDROOT
BRANCH   1   2
ATOM      2  C   UNL     1      56.821  37.204  79.992  1.00  0.00     0.000 C 
BRANCH   2   3
ATOM      3  C   UNL     1      57.060  37.488  78.499  1.00  0.00     0.000 C 
BRANCH   3   4
ATOM      4  C   UNL     1      56.352  36.475  77.586  1.00  0.00     0.000 C 
BRANCH   4   5
ATOM      5  C   UNL     1      57.208  36.079  76.370  1.00  0.00     0.000 C 
BRANCH   5   6
ATOM      6  C   UNL     1      58.715  36.190  76.647  1.00  0.00     0.006 C 
BRANCH   6   7
ATOM      7  C   UNL     1      59.413  37.190  75.716  1.00  0.00     0.053 C 
BRANCH   7   8
ATOM      8  C   UNL     1      60.255  38.139  76.508  1.00  0.00     0.041 C 
ATOM      9  O   UNL     1      60.498  37.910  77.722  1.00  0.00    -0.550 OA
ATOM     10  O   UNL     1      60.816  39.252  75.893  1.00  0.00    -0.550 OA
ENDBRANCH   7   8
ENDBRANCH   6   7
ENDBRANCH   5   6
ENDBRANCH   4   5
ENDBRANCH   3   4
ENDBRANCH   2   3
ENDBRANCH   1   2
BRANCH   1  11
ATOM     11  C   UNL     1      58.965  35.822  80.160  1.00  0.00     0.000 C 
BRANCH  11  12
ATOM     12  C   UNL     1      58.525  34.460  80.713  1.00  0.00     0.000 C 
BRANCH  12  13
ATOM     13  C   UNL     1      57.834  33.624  79.625  1.00  0.00     0.000 C 
BRANCH  13  14
ATOM     14  C   UNL     1      58.816  33.109  78.560  1.00  0.00     0.000 C 
BRANCH  14  15
ATOM     15  C   UNL     1      58.104  32.383  77.405  1.00  0.00     0.000 C 
BRANCH  15  16
ATOM     16  C   UNL     1      59.087  31.784  76.382  1.00  0.00     0.006 C 
BRANCH  16  17
ATOM     17  C   UNL     1      58.823  30.310  76.037  1.00  0.00     0.053 C 
BRANCH  17  18
ATOM     18  C   UNL     1      57.429  30.091  75.534  1.00  0.00     0.041 C 
ATOM     19  O   UNL     1      56.675  29.256  76.101  1.00  0.00    -0.550 OA
ATOM     20  O   UNL     1      56.975  30.785  74.421  1.00  0.00    -0.550 OA
ENDBRANCH  17  18
ENDBRANCH  16  17
ENDBRANCH  15  16
ENDBRANCH  14  15
ENDBRANCH  13  14
ENDBRANCH  12  13
ENDBRANCH  11  12
ENDBRANCH   1  11
TORSDOF 15
ENDMDL
MODEL 6
REMARK VINA RESULT:    -4.273      2.185      2.680
REMARK INTER + INTRA:          -9.609
REMARK INTER:                  -8.183
REMARK INTRA:                  -1.426
REMARK UNBOUND:                -1.590
REMARK SMILES O=C([O-])CCCCCCCCCCCCCCC(=O)[O-]
REMARK SMILES IDX 10 1 9 2 8 3 7 4 6 5 5 6 4 7 2 8 1 9 3 10 11 11 12 12 13 13
REMARK SMILES IDX 14 14 15 15 16 16 17 17 18 18 19 19 20 20
REMARK H PARENT
REMARK Flexibility Score: inf
ROOT
ATOM      1  C   UNL     1      58.759  33.505  79.173  1.00  0.00     0.000 C 
ENDROOT
BRANCH   1   2
ATOM      2  C   UNL     1      57.977  33.171  77.894  1.00  0.00     0.000 C 
BRANCH   2   3
ATOM      3  C   UNL     1      58.320  31.778  77.338  1.00  0.00     0.000 C 
BRANCH   3   4
ATOM      4  C   UNL     1      58.192  31.706  75.808  1.00  0.00     0.000 C 
BRANCH   4   5
ATOM      5  C   UNL     1      57.202  30.622  75.350  1.00  0.00     0.000 C 
BRANCH   5   6
ATOM      6  C   UNL     1      57.661  29.205  75.725  1.00  0.00     0.006 C 
BRANCH   6   7
ATOM      7  C   UNL     1      58.997  28.826  75.072  1.00  0.00     0.053 C 
BRANCH   7   8
ATOM      8  C   UNL     1      59.967  28.350  76.107  1.00  0.00     0.041 C 
ATOM      9  O   UNL     1      60.783  29.153  76.628  1.00  0.00    -0.550 OA
ATOM     10  O   UNL     1      59.935  27.028  76.534  1.00  0.00    -0.550 OA
ENDBRANCH   7   8
ENDBRANCH   6   7
ENDBRANCH   5   6
ENDBRANCH   4   5
ENDBRANCH   3   4
ENDBRANCH   2   3
ENDBRANCH   1   2
BRANCH   1  11
ATOM     11  C   UNL     1      57.954  34.380  80.146  1.00  0.00     0.000 C 
BRANCH  11  12
ATOM     12  C   UNL     1      58.864  35.382  80.868  1.00  0.00     0.000 C 
BRANCH  12  13
ATOM     13  C   UNL     1      58.428  36.826  80.577  1.00  0.00     0.000 C 
BRANCH  13  14
ATOM     14  C   UNL     1      56.994  36.913  80.027  1.00  0.00     0.000 C 
BRANCH  14  15
ATOM     15  C   UNL     1      56.907  37.750  78.740  1.00  0.00     0.000 C 
BRANCH  15  16
ATOM     16  C   UNL     1      57.289  36.949  77.481  1.00  0.00     0.006 C 
BRANCH  16  17
ATOM     17  C   UNL     1      56.106  36.257  76.786  1.00  0.00     0.053 C 
BRANCH  17  18
ATOM     18  C   UNL     1      56.425  35.887  75.369  1.00  0.00     0.041 C 
ATOM     19  O   UNL     1      56.433  34.677  75.017  1.00  0.00    -0.550 OA
ATOM     20  O   UNL     1      56.746  36.875  74.448  1.00  0.00    -0.550 OA
ENDBRANCH  17  18
ENDBRANCH  16  17
ENDBRANCH  15  16
ENDBRANCH  14  15
ENDBRANCH  13  14
ENDBRANCH  12  13
ENDBRANCH  11  12
ENDBRANCH   1  11
TORSDOF 15
ENDMDL
MODEL 7
REMARK VINA RESULT:    -4.258      2.285      2.651
REMARK INTER + INTRA:          -9.582
REMARK INTER:                  -7.780
REMARK INTRA:                  -1.802
REMARK UNBOUND:                -1.590
REMARK SMILES O=C([O-])CCCCCCCCCCCCCCC(=O)[O-]
REMARK SMILES IDX 10 1 9 2 8 3 7 4 6 5 5 6 4 7 2 8 1 9 3 10 11 11 12 12 13 13
REMARK SMILES IDX 14 14 15 15 16 16 17 17 18 18 19 19 20 20
REMARK H PARENT
REMARK Flexibility Score: inf
ROOT
ATOM      1  C   UNL     1      58.850  34.869  81.064  1.00  0.00     0.000 C 
ENDROOT
BRANCH   1   2
ATOM      2  C   UNL     1      58.098  33.809  80.245  1.00  0.00     0.000 C 
BRANCH   2   3
ATOM      3  C   UNL     1      58.820  33.454  78.933  1.00  0.00     0.000 C 
BRANCH   3   4
ATOM      4  C   UNL     1      57.987  32.527  78.035  1.00  0.00     0.000 C 
BRANCH   4   5
ATOM      5  C   UNL     1      57.974  32.985  76.566  1.00  0.00     0.000 C 
BRANCH   5   6
ATOM      6  C   UNL     1      57.656  31.840  75.592  1.00  0.00     0.006 C 
BRANCH   6   7
ATOM      7  C   UNL     1      57.913  30.457  76.206  1.00  0.00     0.053 C 
BRANCH   7   8
ATOM      8  C   UNL     1      59.155  29.853  75.629  1.00  0.00     0.041 C 
ATOM      9  O   UNL     1      59.864  30.511  74.824  1.00  0.00    -0.550 OA
ATOM     10  O   UNL     1      59.557  28.582  76.020  1.00  0.00    -0.550 OA
ENDBRANCH   7   8
ENDBRANCH   6   7
ENDBRANCH   5   6
ENDBRANCH   4   5
ENDBRANCH   3   4
ENDBRANCH   2   3
ENDBRANCH   1   2
BRANCH   1  11
ATOM     11  C   UNL     1      58.921  36.227  80.351  1.00  0.00     0.000 C 
BRANCH  11  12
ATOM     12  C   UNL     1      57.908  37.215  80.944  1.00  0.00     0.000 C 
BRANCH  12  13
ATOM     13  C   UNL     1      56.624  37.257  80.101  1.00  0.00     0.000 C 
BRANCH  13  14
ATOM     14  C   UNL     1      56.886  37.679  78.646  1.00  0.00     0.000 C 
BRANCH  14  15
ATOM     15  C   UNL     1      56.433  36.611  77.634  1.00  0.00     0.000 C 
BRANCH  15  16
ATOM     16  C   UNL     1      57.393  36.480  76.437  1.00  0.00     0.006 C 
BRANCH  16  17
ATOM     17  C   UNL     1      58.880  36.638  76.794  1.00  0.00     0.053 C 
BRANCH  17  18
ATOM     18  C   UNL     1      59.501  37.813  76.104  1.00  0.00     0.041 C 
ATOM     19  O   UNL     1      58.790  38.592  75.416  1.00  0.00    -0.550 OA
ATOM     20  O   UNL     1      60.870  38.029  76.196  1.00  0.00    -0.550 OA
ENDBRANCH  17  18
ENDBRANCH  16  17
ENDBRANCH  15  16
ENDBRANCH  14  15
ENDBRANCH  13  14
ENDBRANCH  12  13
ENDBRANCH  11  12
ENDBRANCH   1  11
TORSDOF 15
ENDMDL
MODEL 8
REMARK VINA RESULT:    -4.210      3.545      5.950
REMARK INTER + INTRA:          -9.492
REMARK INTER:                  -7.825
REMARK INTRA:                  -1.668
REMARK UNBOUND:                -1.590
REMARK SMILES O=C([O-])CCCCCCCCCCCCCCC(=O)[O-]
REMARK SMILES IDX 10 1 9 2 8 3 7 4 6 5 5 6 4 7 2 8 1 9 3 10 11 11 12 12 13 13
REMARK SMILES IDX 14 14 15 15 16 16 17 17 18 18 19 19 20 20
REMARK H PARENT
REMARK Flexibility Score: inf
ROOT
ATOM      1  C   UNL     1      56.125  31.414  73.190  1.00  0.00     0.000 C 
ENDROOT
BRANCH   1   2
ATOM      2  C   UNL     1      55.963  30.124  74.009  1.00  0.00     0.000 C 
BRANCH   2   3
ATOM      3  C   UNL     1      56.878  30.089  75.245  1.00  0.00     0.000 C 
BRANCH   3   4
ATOM      4  C   UNL     1      57.468  28.692  75.501  1.00  0.00     0.000 C 
BRANCH   4   5
ATOM      5  C   UNL     1      59.006  28.696  75.515  1.00  0.00     0.000 C 
BRANCH   5   6
ATOM      6  C   UNL     1      59.591  30.068  75.881  1.00  0.00     0.006 C 
BRANCH   6   7
ATOM      7  C   UNL     1      60.568  30.594  74.820  1.00  0.00     0.053 C 
BRANCH   7   8
ATOM      8  C   UNL     1      61.955  30.666  75.378  1.00  0.00     0.041 C 
ATOM      9  O   UNL     1      62.136  30.694  76.623  1.00  0.00    -0.550 OA
ATOM     10  O   UNL     1      63.050  30.649  74.524  1.00  0.00    -0.550 OA
ENDBRANCH   7   8
ENDBRANCH   6   7
ENDBRANCH   5   6
ENDBRANCH   4   5
ENDBRANCH   3   4
ENDBRANCH   2   3
ENDBRANCH   1   2
BRANCH   1  11
ATOM     11  C   UNL     1      57.449  32.136  73.481  1.00  0.00     0.000 C 
BRANCH  11  12
ATOM     12  C   UNL     1      57.222  33.366  74.369  1.00  0.00     0.000 C 
BRANCH  12  13
ATOM     13  C   UNL     1      58.369  33.534  75.378  1.00  0.00     0.000 C 
BRANCH  13  14
ATOM     14  C   UNL     1      57.873  33.941  76.775  1.00  0.00     0.000 C 
BRANCH  14  15
ATOM     15  C   UNL     1      58.349  32.975  77.873  1.00  0.00     0.000 C 
BRANCH  15  16
ATOM     16  C   UNL     1      57.893  33.400  79.281  1.00  0.00     0.006 C 
BRANCH  16  17
ATOM     17  C   UNL     1      57.622  34.905  79.433  1.00  0.00     0.053 C 
BRANCH  17  18
ATOM     18  C   UNL     1      58.793  35.631  80.020  1.00  0.00     0.041 C 
ATOM     19  O   UNL     1      59.124  35.433  81.219  1.00  0.00    -0.550 OA
ATOM     20  O   UNL     1      59.498  36.549  79.253  1.00  0.00    -0.550 OA
ENDBRANCH  17  18
ENDBRANCH  16  17
ENDBRANCH  15  16
ENDBRANCH  14  15
ENDBRANCH  13  14
ENDBRANCH  12  13
ENDBRANCH  11  12
ENDBRANCH   1  11
TORSDOF 15
ENDMDL
MODEL 9
REMARK VINA RESULT:    -4.210      2.621      4.908
REMARK INTER + INTRA:          -9.492
REMARK INTER:                  -7.838
REMARK INTRA:                  -1.654
REMARK UNBOUND:                -1.590
REMARK SMILES O=C([O-])CCCCCCCCCCCCCCC(=O)[O-]
REMARK SMILES IDX 10 1 9 2 8 3 7 4 6 5 5 6 4 7 2 8 1 9 3 10 11 11 12 12 13 13
REMARK SMILES IDX 14 14 15 15 16 16 17 17 18 18 19 19 20 20
REMARK H PARENT
REMARK Flexibility Score: inf
ROOT
ATOM      1  C   UNL     1      56.594  35.993  74.798  1.00  0.00     0.000 C 
ENDROOT
BRANCH   1   2
ATOM      2  C   UNL     1      56.138  34.861  73.864  1.00  0.00     0.000 C 
BRANCH   2   3
ATOM      3  C   UNL     1      57.226  34.454  72.855  1.00  0.00     0.000 C 
BRANCH   3   4
ATOM      4  C   UNL     1      57.698  33.004  73.051  1.00  0.00     0.000 C 
BRANCH   4   5
ATOM      5  C   UNL     1      56.527  32.020  73.214  1.00  0.00     0.000 C 
BRANCH   5   6
ATOM      6  C   UNL     1      56.853  30.866  74.173  1.00  0.00     0.006 C 
BRANCH   6   7
ATOM      7  C   UNL     1      58.289  30.936  74.712  1.00  0.00     0.053 C 
BRANCH   7   8
ATOM      8  C   UNL     1      58.554  29.791  75.638  1.00  0.00     0.041 C 
ATOM      9  O   UNL     1      59.491  29.858  76.475  1.00  0.00    -0.550 OA
ATOM     10  O   UNL     1      57.733  28.670  75.612  1.00  0.00    -0.550 OA
ENDBRANCH   7   8
ENDBRANCH   6   7
ENDBRANCH   5   6
ENDBRANCH   4   5
ENDBRANCH   3   4
ENDBRANCH   2   3
ENDBRANCH   1   2
BRANCH   1  11
ATOM     11  C   UNL     1      56.394  35.651  76.282  1.00  0.00     0.000 C 
BRANCH  11  12
ATOM     12  C   UNL     1      57.680  35.079  76.893  1.00  0.00     0.000 C 
BRANCH  12  13
ATOM     13  C   UNL     1      57.620  33.545  76.959  1.00  0.00     0.000 C 
BRANCH  13  14
ATOM     14  C   UNL     1      58.360  32.975  78.180  1.00  0.00     0.000 C 
BRANCH  14  15
ATOM     15  C   UNL     1      57.920  33.638  79.497  1.00  0.00     0.000 C 
BRANCH  15  16
ATOM     16  C   UNL     1      59.098  34.240  80.284  1.00  0.00     0.006 C 
BRANCH  16  17
ATOM     17  C   UNL     1      58.754  35.520  81.063  1.00  0.00     0.053 C 
BRANCH  17  18
ATOM     18  C   UNL     1      58.297  36.622  80.157  1.00  0.00     0.041 C 
ATOM     19  O   UNL     1      57.091  36.984  80.159  1.00  0.00    -0.550 OA
ATOM     20  O   UNL     1      59.196  37.225  79.287  1.00  0.00    -0.550 OA
ENDBRANCH  17  18
ENDBRANCH  16  17
ENDBRANCH  15  16
ENDBRANCH  14  15
ENDBRANCH  13  14
ENDBRANCH  12  13
ENDBRANCH  11  12
ENDBRANCH   1  11
TORSDOF 15
ENDMDL
