MODEL 1
REMARK VINA RESULT:    -7.676      0.000      0.000
REMARK INTER + INTRA:         -10.190
REMARK INTER:                 -10.369
REMARK INTRA:                   0.178
REMARK UNBOUND:                 0.178
REMARK SMILES O=c1c(-c2ccc(O)cc2)coc2c([C@@H]3O[C@@H](CO)[C@@H](O)[C@@H](O)[C@H]3O)c(O)ccc12
REMARK SMILES IDX 3 1 11 2 12 3 13 4 30 5 2 6 1 7 29 8 28 9 26 10 14 11 4 12
REMARK SMILES IDX 5 13 6 14 7 15 10 16 9 17 8 18 15 20 24 21 16 22 22 23 17 24
REMARK SMILES IDX 20 25 25 26 23 28 18 30 19 31 21 33 27 35
REMARK H PARENT 8 19 25 27 23 29 19 32 21 34 27 36
REMARK Flexibility Score: inf
ROOT
ATOM      1  C   UNL     1      10.624  -6.869  10.232  1.00  0.00     0.065 A 
ATOM      2  C   UNL     1      10.526  -5.714  11.022  1.00  0.00     0.208 A 
ATOM      3  O   UNL     1      11.610  -5.028  11.358  1.00  0.00    -0.463 OA
ATOM      4  C   UNL     1      12.843  -5.373  10.983  1.00  0.00     0.147 A 
ATOM      5  C   UNL     1      13.036  -6.555  10.229  1.00  0.00     0.066 A 
ATOM      6  C   UNL     1      11.903  -7.286   9.817  1.00  0.00     0.200 A 
ATOM      7  O   UNL     1      12.029  -8.294   9.059  1.00  0.00    -0.288 OA
ATOM      8  C   UNL     1      14.338  -6.972   9.907  1.00  0.00     0.020 A 
ATOM      9  C   UNL     1      15.432  -6.234  10.345  1.00  0.00     0.047 A 
ATOM     10  C   UNL     1      15.259  -5.026  11.036  1.00  0.00     0.125 A 
ATOM     11  C   UNL     1      13.947  -4.554  11.344  1.00  0.00     0.069 A 
ENDROOT
BRANCH   1  12
ATOM     12  C   UNL     1       9.401  -7.594   9.827  1.00  0.00    -0.011 A 
ATOM     13  C   UNL     1       8.856  -8.593  10.653  1.00  0.00     0.013 A 
ATOM     14  C   UNL     1       7.697  -9.270  10.269  1.00  0.00     0.047 A 
ATOM     15  C   UNL     1       7.099  -9.000   9.032  1.00  0.00     0.115 A 
ATOM     16  C   UNL     1       8.779  -7.302   8.601  1.00  0.00     0.013 A 
ATOM     17  C   UNL     1       7.640  -8.015   8.197  1.00  0.00     0.047 A 
BRANCH  15  18
ATOM     18  O   UNL     1       5.966  -9.718   8.636  1.00  0.00    -0.508 OA
ATOM     19  H   UNL     1       5.213  -9.927   9.291  1.00  0.00     0.293 HD
ENDBRANCH  15  18
ENDBRANCH   1  12
BRANCH  11  20
ATOM     20  C   UNL     1      13.616  -3.211  12.039  1.00  0.00     0.188 C 
ATOM     21  C   UNL     1      14.725  -2.126  12.202  1.00  0.00     0.179 C 
ATOM     22  O   UNL     1      12.445  -2.615  11.480  1.00  0.00    -0.362 OA
ATOM     23  C   UNL     1      14.979  -1.396  10.854  1.00  0.00     0.177 C 
ATOM     24  C   UNL     1      12.670  -2.143  10.156  1.00  0.00     0.176 C 
ATOM     25  C   UNL     1      13.672  -0.958  10.161  1.00  0.00     0.177 C 
BRANCH  21  26
ATOM     26  O   UNL     1      14.410  -1.208  13.225  1.00  0.00    -0.387 OA
ATOM     27  H   UNL     1      13.996  -0.395  12.834  1.00  0.00     0.211 HD
ENDBRANCH  21  26
BRANCH  23  28
ATOM     28  O   UNL     1      15.876  -0.323  10.998  1.00  0.00    -0.387 OA
ATOM     29  H   UNL     1      16.067   0.039  10.096  1.00  0.00     0.211 HD
ENDBRANCH  23  28
BRANCH  24  30
ATOM     30  C   UNL     1      11.323  -1.766   9.513  1.00  0.00     0.191 C 
BRANCH  30  31
ATOM     31  O   UNL     1      11.415  -0.569   8.790  1.00  0.00    -0.394 OA
ATOM     32  H   UNL     1      10.822  -0.643   7.995  1.00  0.00     0.210 HD
ENDBRANCH  30  31
ENDBRANCH  24  30
BRANCH  25  33
ATOM     33  O   UNL     1      13.140   0.202  10.752  1.00  0.00    -0.388 OA
ATOM     34  H   UNL     1      12.519  -0.057  11.478  1.00  0.00     0.211 HD
ENDBRANCH  25  33
ENDBRANCH  11  20
BRANCH  10  35
ATOM     35  O   UNL     1      16.401  -4.332  11.423  1.00  0.00    -0.507 OA
ATOM     36  H   UNL     1      17.303  -4.489  11.000  1.00  0.00     0.293 HD
ENDBRANCH  10  35
TORSDOF 9
ENDMDL
MODEL 2
REMARK VINA RESULT:    -7.193      4.931      7.075
REMARK INTER + INTRA:          -9.538
REMARK INTER:                 -10.137
REMARK INTRA:                   0.600
REMARK UNBOUND:                 0.178
REMARK SMILES O=c1c(-c2ccc(O)cc2)coc2c([C@@H]3O[C@@H](CO)[C@@H](O)[C@@H](O)[C@H]3O)c(O)ccc12
REMARK SMILES IDX 3 1 11 2 12 3 13 4 30 5 2 6 1 7 29 8 28 9 26 10 14 11 4 12
REMARK SMILES IDX 5 13 6 14 7 15 10 16 9 17 8 18 15 20 24 21 16 22 22 23 17 24
REMARK SMILES IDX 20 25 25 26 23 28 18 30 19 31 21 33 27 35
REMARK H PARENT 8 19 25 27 23 29 19 32 21 34 27 36
REMARK Flexibility Score: inf
ROOT
ATOM      1  C   UNL     1      10.630  -2.777  11.679  1.00  0.00     0.065 A 
ATOM      2  C   UNL     1      11.290  -2.291  12.817  1.00  0.00     0.208 A 
ATOM      3  O   UNL     1      11.025  -1.080  13.290  1.00  0.00    -0.463 OA
ATOM      4  C   UNL     1      10.136  -0.254  12.736  1.00  0.00     0.147 A 
ATOM      5  C   UNL     1       9.464  -0.645  11.553  1.00  0.00     0.066 A 
ATOM      6  C   UNL     1       9.689  -1.942  11.047  1.00  0.00     0.200 A 
ATOM      7  O   UNL     1       9.034  -2.364  10.048  1.00  0.00    -0.288 OA
ATOM      8  C   UNL     1       8.595   0.254  10.916  1.00  0.00     0.020 A 
ATOM      9  C   UNL     1       8.411   1.530  11.435  1.00  0.00     0.047 A 
ATOM     10  C   UNL     1       9.016   1.913  12.641  1.00  0.00     0.125 A 
ATOM     11  C   UNL     1       9.875   1.008  13.337  1.00  0.00     0.069 A 
ENDROOT
BRANCH   1  12
ATOM     12  C   UNL     1      10.902  -4.147  11.195  1.00  0.00    -0.011 A 
ATOM     13  C   UNL     1       9.844  -5.010  10.862  1.00  0.00     0.013 A 
ATOM     14  C   UNL     1      10.106  -6.301  10.399  1.00  0.00     0.047 A 
ATOM     15  C   UNL     1      11.424  -6.766  10.315  1.00  0.00     0.115 A 
ATOM     16  C   UNL     1      12.225  -4.606  11.078  1.00  0.00     0.013 A 
ATOM     17  C   UNL     1      12.485  -5.918  10.655  1.00  0.00     0.047 A 
BRANCH  15  18
ATOM     18  O   UNL     1      11.673  -8.077   9.896  1.00  0.00    -0.508 OA
ATOM     19  H   UNL     1      11.847  -8.826  10.565  1.00  0.00     0.293 HD
ENDBRANCH  15  18
ENDBRANCH   1  12
BRANCH  11  20
ATOM     20  C   UNL     1      10.549   1.279  14.703  1.00  0.00     0.188 C 
ATOM     21  C   UNL     1      10.259   2.611  15.462  1.00  0.00     0.179 C 
ATOM     22  O   UNL     1      10.373   0.176  15.593  1.00  0.00    -0.362 OA
ATOM     23  C   UNL     1       8.858   2.566  16.132  1.00  0.00     0.177 C 
ATOM     24  C   UNL     1       9.022   0.049  16.021  1.00  0.00     0.176 C 
ATOM     25  C   UNL     1       8.612   1.255  16.908  1.00  0.00     0.177 C 
BRANCH  21  26
ATOM     26  O   UNL     1      11.264   2.903  16.407  1.00  0.00    -0.387 OA
ATOM     27  H   UNL     1      10.959   2.645  17.316  1.00  0.00     0.211 HD
ENDBRANCH  21  26
BRANCH  23  28
ATOM     28  O   UNL     1       8.622   3.697  16.933  1.00  0.00    -0.387 OA
ATOM     29  H   UNL     1       9.470   4.204  17.004  1.00  0.00     0.211 HD
ENDBRANCH  23  28
BRANCH  24  30
ATOM     30  C   UNL     1       8.841  -1.297  16.746  1.00  0.00     0.191 C 
BRANCH  30  31
ATOM     31  O   UNL     1       9.632  -2.301  16.172  1.00  0.00    -0.394 OA
ATOM     32  H   UNL     1       9.762  -3.016  16.852  1.00  0.00     0.210 HD
ENDBRANCH  30  31
ENDBRANCH  24  30
BRANCH  25  33
ATOM     33  O   UNL     1       9.268   1.263  18.152  1.00  0.00    -0.388 OA
ATOM     34  H   UNL     1       9.759   0.412  18.267  1.00  0.00     0.211 HD
ENDBRANCH  25  33
ENDBRANCH  11  20
BRANCH  10  35
ATOM     35  O   UNL     1       8.768   3.200  13.111  1.00  0.00    -0.507 OA
ATOM     36  H   UNL     1       7.860   3.633  13.054  1.00  0.00     0.293 HD
ENDBRANCH  10  35
TORSDOF 9
ENDMDL
MODEL 3
REMARK VINA RESULT:    -7.082      5.537      9.250
REMARK INTER + INTRA:          -9.388
REMARK INTER:                 -10.091
REMARK INTRA:                   0.703
REMARK UNBOUND:                 0.178
REMARK SMILES O=c1c(-c2ccc(O)cc2)coc2c([C@@H]3O[C@@H](CO)[C@@H](O)[C@@H](O)[C@H]3O)c(O)ccc12
REMARK SMILES IDX 3 1 11 2 12 3 13 4 30 5 2 6 1 7 29 8 28 9 26 10 14 11 4 12
REMARK SMILES IDX 5 13 6 14 7 15 10 16 9 17 8 18 15 20 24 21 16 22 22 23 17 24
REMARK SMILES IDX 20 25 25 26 23 28 18 30 19 31 21 33 27 35
REMARK H PARENT 8 19 25 27 23 29 19 32 21 34 27 36
REMARK Flexibility Score: inf
ROOT
ATOM      1  C   UNL     1       9.805   2.172  14.663  1.00  0.00     0.065 A 
ATOM      2  C   UNL     1      11.005   1.509  14.961  1.00  0.00     0.208 A 
ATOM      3  O   UNL     1      11.390   0.454  14.255  1.00  0.00    -0.463 OA
ATOM      4  C   UNL     1      10.688  -0.045  13.237  1.00  0.00     0.147 A 
ATOM      5  C   UNL     1       9.439   0.532  12.903  1.00  0.00     0.066 A 
ATOM      6  C   UNL     1       9.018   1.681  13.603  1.00  0.00     0.200 A 
ATOM      7  O   UNL     1       7.954   2.284  13.270  1.00  0.00    -0.288 OA
ATOM      8  C   UNL     1       8.654  -0.042  11.891  1.00  0.00     0.020 A 
ATOM      9  C   UNL     1       9.095  -1.185  11.234  1.00  0.00     0.047 A 
ATOM     10  C   UNL     1      10.358  -1.732  11.504  1.00  0.00     0.125 A 
ATOM     11  C   UNL     1      11.198  -1.148  12.499  1.00  0.00     0.069 A 
ENDROOT
BRANCH   1  12
ATOM     12  C   UNL     1       9.415   3.375  15.429  1.00  0.00    -0.011 A 
ATOM     13  C   UNL     1       9.077   4.566  14.763  1.00  0.00     0.013 A 
ATOM     14  C   UNL     1       8.703   5.697  15.490  1.00  0.00     0.047 A 
ATOM     15  C   UNL     1       8.716   5.673  16.890  1.00  0.00     0.115 A 
ATOM     16  C   UNL     1       9.395   3.344  16.833  1.00  0.00     0.013 A 
ATOM     17  C   UNL     1       9.063   4.495  17.563  1.00  0.00     0.047 A 
BRANCH  15  18
ATOM     18  O   UNL     1       8.386   6.826  17.609  1.00  0.00    -0.508 OA
ATOM     19  H   UNL     1       9.080   7.322  18.168  1.00  0.00     0.293 HD
ENDBRANCH  15  18
ENDBRANCH   1  12
BRANCH  11  20
ATOM     20  C   UNL     1      12.634  -1.610  12.847  1.00  0.00     0.188 C 
ATOM     21  C   UNL     1      13.122  -3.026  12.411  1.00  0.00     0.179 C 
ATOM     22  O   UNL     1      13.600  -0.633  12.457  1.00  0.00    -0.362 OA
ATOM     23  C   UNL     1      13.454  -3.048  10.893  1.00  0.00     0.177 C 
ATOM     24  C   UNL     1      13.721  -0.542  11.043  1.00  0.00     0.176 C 
ATOM     25  C   UNL     1      14.321  -1.848  10.458  1.00  0.00     0.177 C 
BRANCH  21  26
ATOM     26  O   UNL     1      14.223  -3.458  13.177  1.00  0.00    -0.387 OA
ATOM     27  H   UNL     1      14.714  -4.172  12.692  1.00  0.00     0.211 HD
ENDBRANCH  21  26
BRANCH  23  28
ATOM     28  O   UNL     1      14.022  -4.271  10.496  1.00  0.00    -0.387 OA
ATOM     29  H   UNL     1      14.876  -4.383  10.984  1.00  0.00     0.211 HD
ENDBRANCH  23  28
BRANCH  24  30
ATOM     30  C   UNL     1      14.559   0.698  10.681  1.00  0.00     0.191 C 
BRANCH  30  31
ATOM     31  O   UNL     1      14.133   1.831  11.389  1.00  0.00    -0.394 OA
ATOM     32  H   UNL     1      13.802   2.498  10.731  1.00  0.00     0.210 HD
ENDBRANCH  30  31
ENDBRANCH  24  30
BRANCH  25  33
ATOM     33  O   UNL     1      15.670  -2.033  10.813  1.00  0.00    -0.388 OA
ATOM     34  H   UNL     1      15.717  -2.492  11.688  1.00  0.00     0.211 HD
ENDBRANCH  25  33
ENDBRANCH  11  20
BRANCH  10  35
ATOM     35  O   UNL     1      10.740  -2.864  10.790  1.00  0.00    -0.507 OA
ATOM     36  H   UNL     1      10.430  -3.792  11.035  1.00  0.00     0.293 HD
ENDBRANCH  10  35
TORSDOF 9
ENDMDL
MODEL 4
REMARK VINA RESULT:    -7.081      4.802      7.559
REMARK INTER + INTRA:          -9.387
REMARK INTER:                  -9.601
REMARK INTRA:                   0.214
REMARK UNBOUND:                 0.178
REMARK SMILES O=c1c(-c2ccc(O)cc2)coc2c([C@@H]3O[C@@H](CO)[C@@H](O)[C@@H](O)[C@H]3O)c(O)ccc12
REMARK SMILES IDX 3 1 11 2 12 3 13 4 30 5 2 6 1 7 29 8 28 9 26 10 14 11 4 12
REMARK SMILES IDX 5 13 6 14 7 15 10 16 9 17 8 18 15 20 24 21 16 22 22 23 17 24
REMARK SMILES IDX 20 25 25 26 23 28 18 30 19 31 21 33 27 35
REMARK H PARENT 8 19 25 27 23 29 19 32 21 34 27 36
REMARK Flexibility Score: inf
ROOT
ATOM      1  C   UNL     1      11.171  -0.600  14.546  1.00  0.00     0.065 A 
ATOM      2  C   UNL     1      12.428  -1.121  14.884  1.00  0.00     0.208 A 
ATOM      3  O   UNL     1      13.288  -1.486  13.941  1.00  0.00    -0.463 OA
ATOM      4  C   UNL     1      13.030  -1.388  12.636  1.00  0.00     0.147 A 
ATOM      5  C   UNL     1      11.763  -0.922  12.209  1.00  0.00     0.066 A 
ATOM      6  C   UNL     1      10.842  -0.486  13.182  1.00  0.00     0.200 A 
ATOM      7  O   UNL     1       9.736   0.029  12.836  1.00  0.00    -0.288 OA
ATOM      8  C   UNL     1      11.454  -0.901  10.840  1.00  0.00     0.020 A 
ATOM      9  C   UNL     1      12.382  -1.356   9.911  1.00  0.00     0.047 A 
ATOM     10  C   UNL     1      13.665  -1.758  10.309  1.00  0.00     0.125 A 
ATOM     11  C   UNL     1      14.026  -1.753  11.690  1.00  0.00     0.069 A 
ENDROOT
BRANCH   1  12
ATOM     12  C   UNL     1      10.245  -0.155  15.610  1.00  0.00    -0.011 A 
ATOM     13  C   UNL     1      10.322   1.153  16.121  1.00  0.00     0.013 A 
ATOM     14  C   UNL     1       9.442   1.571  17.120  1.00  0.00     0.047 A 
ATOM     15  C   UNL     1       8.512   0.676  17.662  1.00  0.00     0.115 A 
ATOM     16  C   UNL     1       9.289  -1.041  16.132  1.00  0.00     0.013 A 
ATOM     17  C   UNL     1       8.435  -0.633  17.168  1.00  0.00     0.047 A 
BRANCH  15  18
ATOM     18  O   UNL     1       7.667   1.091  18.696  1.00  0.00    -0.508 OA
ATOM     19  H   UNL     1       7.035   0.441  19.161  1.00  0.00     0.293 HD
ENDBRANCH  15  18
ENDBRANCH   1  12
BRANCH  11  20
ATOM     20  C   UNL     1      15.423  -2.108  12.255  1.00  0.00     0.188 C 
ATOM     21  C   UNL     1      15.593  -2.407  13.777  1.00  0.00     0.179 C 
ATOM     22  O   UNL     1      16.039  -3.148  11.494  1.00  0.00    -0.362 OA
ATOM     23  C   UNL     1      15.063  -3.828  14.118  1.00  0.00     0.177 C 
ATOM     24  C   UNL     1      15.387  -4.400  11.680  1.00  0.00     0.176 C 
ATOM     25  C   UNL     1      15.574  -4.903  13.137  1.00  0.00     0.177 C 
BRANCH  21  26
ATOM     26  O   UNL     1      16.930  -2.250  14.194  1.00  0.00    -0.387 OA
ATOM     27  H   UNL     1      17.400  -3.124  14.159  1.00  0.00     0.211 HD
ENDBRANCH  21  26
BRANCH  23  28
ATOM     28  O   UNL     1      15.324  -4.179  15.455  1.00  0.00    -0.387 OA
ATOM     29  H   UNL     1      14.456  -4.237  15.930  1.00  0.00     0.211 HD
ENDBRANCH  23  28
BRANCH  24  30
ATOM     30  C   UNL     1      15.912  -5.408  10.642  1.00  0.00     0.191 C 
BRANCH  30  31
ATOM     31  O   UNL     1      15.565  -6.723  10.981  1.00  0.00    -0.394 OA
ATOM     32  H   UNL     1      16.100  -6.987  11.776  1.00  0.00     0.210 HD
ENDBRANCH  30  31
ENDBRANCH  24  30
BRANCH  25  33
ATOM     33  O   UNL     1      16.902  -5.270  13.419  1.00  0.00    -0.388 OA
ATOM     34  H   UNL     1      17.014  -6.240  13.260  1.00  0.00     0.211 HD
ENDBRANCH  25  33
ENDBRANCH  11  20
BRANCH  10  35
ATOM     35  O   UNL     1      14.549  -2.180   9.319  1.00  0.00    -0.507 OA
ATOM     36  H   UNL     1      14.286  -2.833   8.598  1.00  0.00     0.293 HD
ENDBRANCH  10  35
TORSDOF 9
ENDMDL
MODEL 5
REMARK VINA RESULT:    -7.046      4.492      8.369
REMARK INTER + INTRA:          -9.339
REMARK INTER:                 -10.115
REMARK INTRA:                   0.776
REMARK UNBOUND:                 0.178
REMARK SMILES O=c1c(-c2ccc(O)cc2)coc2c([C@@H]3O[C@@H](CO)[C@@H](O)[C@@H](O)[C@H]3O)c(O)ccc12
REMARK SMILES IDX 3 1 11 2 12 3 13 4 30 5 2 6 1 7 29 8 28 9 26 10 14 11 4 12
REMARK SMILES IDX 5 13 6 14 7 15 10 16 9 17 8 18 15 20 24 21 16 22 22 23 17 24
REMARK SMILES IDX 20 25 25 26 23 28 18 30 19 31 21 33 27 35
REMARK H PARENT 8 19 25 27 23 29 19 32 21 34 27 36
REMARK Flexibility Score: inf
ROOT
ATOM      1  C   UNL     1       9.261   1.920  12.073  1.00  0.00     0.065 A 
ATOM      2  C   UNL     1      10.427   1.603  12.784  1.00  0.00     0.208 A 
ATOM      3  O   UNL     1      10.956   0.389  12.712  1.00  0.00    -0.463 OA
ATOM      4  C   UNL     1      10.435  -0.597  11.980  1.00  0.00     0.147 A 
ATOM      5  C   UNL     1       9.229  -0.377  11.273  1.00  0.00     0.066 A 
ATOM      6  C   UNL     1       8.662   0.914  11.292  1.00  0.00     0.200 A 
ATOM      7  O   UNL     1       7.637   1.176  10.594  1.00  0.00    -0.288 OA
ATOM      8  C   UNL     1       8.628  -1.435  10.573  1.00  0.00     0.020 A 
ATOM      9  C   UNL     1       9.208  -2.698  10.591  1.00  0.00     0.047 A 
ATOM     10  C   UNL     1      10.436  -2.920  11.230  1.00  0.00     0.125 A 
ATOM     11  C   UNL     1      11.094  -1.855  11.918  1.00  0.00     0.069 A 
ENDROOT
BRANCH   1  12
ATOM     12  C   UNL     1       8.712   3.293  12.127  1.00  0.00    -0.011 A 
ATOM     13  C   UNL     1       8.012   3.825  11.029  1.00  0.00     0.013 A 
ATOM     14  C   UNL     1       7.490   5.118  11.087  1.00  0.00     0.047 A 
ATOM     15  C   UNL     1       7.708   5.918  12.216  1.00  0.00     0.115 A 
ATOM     16  C   UNL     1       8.901   4.086  13.271  1.00  0.00     0.013 A 
ATOM     17  C   UNL     1       8.415   5.401  13.310  1.00  0.00     0.047 A 
BRANCH  15  18
ATOM     18  O   UNL     1       7.223   7.229  12.244  1.00  0.00    -0.508 OA
ATOM     19  H   UNL     1       7.812   8.008  12.532  1.00  0.00     0.293 HD
ENDBRANCH  15  18
ENDBRANCH   1  12
BRANCH  11  20
ATOM     20  C   UNL     1      12.478  -1.948  12.603  1.00  0.00     0.188 C 
ATOM     21  C   UNL     1      13.386  -3.193  12.357  1.00  0.00     0.179 C 
ATOM     22  O   UNL     1      13.238  -0.756  12.396  1.00  0.00    -0.362 OA
ATOM     23  C   UNL     1      14.055  -3.114  10.957  1.00  0.00     0.177 C 
ATOM     24  C   UNL     1      13.657  -0.623  11.043  1.00  0.00     0.176 C 
ATOM     25  C   UNL     1      14.678  -1.732  10.673  1.00  0.00     0.177 C 
BRANCH  21  26
ATOM     26  O   UNL     1      14.352  -3.344  13.374  1.00  0.00    -0.387 OA
ATOM     27  H   UNL     1      14.967  -2.565  13.374  1.00  0.00     0.211 HD
ENDBRANCH  21  26
BRANCH  23  28
ATOM     28  O   UNL     1      14.982  -4.152  10.759  1.00  0.00    -0.387 OA
ATOM     29  H   UNL     1      14.668  -4.701   9.996  1.00  0.00     0.211 HD
ENDBRANCH  23  28
BRANCH  24  30
ATOM     30  C   UNL     1      14.226   0.791  10.822  1.00  0.00     0.191 C 
BRANCH  30  31
ATOM     31  O   UNL     1      13.674   1.714  11.722  1.00  0.00    -0.394 OA
ATOM     32  H   UNL     1      13.985   1.476  12.636  1.00  0.00     0.210 HD
ENDBRANCH  30  31
ENDBRANCH  24  30
BRANCH  25  33
ATOM     33  O   UNL     1      15.911  -1.577  11.333  1.00  0.00    -0.388 OA
ATOM     34  H   UNL     1      16.299  -2.470  11.513  1.00  0.00     0.211 HD
ENDBRANCH  25  33
ENDBRANCH  11  20
BRANCH  10  35
ATOM     35  O   UNL     1      10.966  -4.207  11.187  1.00  0.00    -0.507 OA
ATOM     36  H   UNL     1      11.820  -4.459  11.660  1.00  0.00     0.293 HD
ENDBRANCH  10  35
TORSDOF 9
ENDMDL
MODEL 6
REMARK VINA RESULT:    -7.034      3.086      6.684
REMARK INTER + INTRA:          -9.323
REMARK INTER:                 -10.011
REMARK INTRA:                   0.688
REMARK UNBOUND:                 0.178
REMARK SMILES O=c1c(-c2ccc(O)cc2)coc2c([C@@H]3O[C@@H](CO)[C@@H](O)[C@@H](O)[C@H]3O)c(O)ccc12
REMARK SMILES IDX 3 1 11 2 12 3 13 4 30 5 2 6 1 7 29 8 28 9 26 10 14 11 4 12
REMARK SMILES IDX 5 13 6 14 7 15 10 16 9 17 8 18 15 20 24 21 16 22 22 23 17 24
REMARK SMILES IDX 20 25 25 26 23 28 18 30 19 31 21 33 27 35
REMARK H PARENT 8 19 25 27 23 29 19 32 21 34 27 36
REMARK Flexibility Score: inf
ROOT
ATOM      1  C   UNL     1      10.633  -0.756  12.013  1.00  0.00     0.065 A 
ATOM      2  C   UNL     1      11.255  -1.487  10.991  1.00  0.00     0.208 A 
ATOM      3  O   UNL     1      12.367  -2.171  11.227  1.00  0.00    -0.463 OA
ATOM      4  C   UNL     1      12.963  -2.216  12.420  1.00  0.00     0.147 A 
ATOM      5  C   UNL     1      12.429  -1.463  13.493  1.00  0.00     0.066 A 
ATOM      6  C   UNL     1      11.225  -0.759  13.291  1.00  0.00     0.200 A 
ATOM      7  O   UNL     1      10.665  -0.153  14.253  1.00  0.00    -0.288 OA
ATOM      8  C   UNL     1      13.101  -1.435  14.726  1.00  0.00     0.020 A 
ATOM      9  C   UNL     1      14.295  -2.129  14.883  1.00  0.00     0.047 A 
ATOM     10  C   UNL     1      14.804  -2.933  13.853  1.00  0.00     0.125 A 
ATOM     11  C   UNL     1      14.124  -3.016  12.600  1.00  0.00     0.069 A 
ENDROOT
BRANCH   1  12
ATOM     12  C   UNL     1       9.368  -0.038  11.744  1.00  0.00    -0.011 A 
ATOM     13  C   UNL     1       9.141   1.236  12.293  1.00  0.00     0.013 A 
ATOM     14  C   UNL     1       7.948   1.913  12.031  1.00  0.00     0.047 A 
ATOM     15  C   UNL     1       6.945   1.305  11.266  1.00  0.00     0.115 A 
ATOM     16  C   UNL     1       8.373  -0.631  10.950  1.00  0.00     0.013 A 
ATOM     17  C   UNL     1       7.157   0.031  10.724  1.00  0.00     0.047 A 
BRANCH  15  18
ATOM     18  O   UNL     1       5.735   1.972  11.050  1.00  0.00    -0.508 OA
ATOM     19  H   UNL     1       5.148   1.762  10.243  1.00  0.00     0.293 HD
ENDBRANCH  15  18
ENDBRANCH   1  12
BRANCH  11  20
ATOM     20  C   UNL     1      14.540  -3.913  11.410  1.00  0.00     0.188 C 
ATOM     21  C   UNL     1      15.559  -5.074  11.630  1.00  0.00     0.179 C 
ATOM     22  O   UNL     1      13.397  -4.409  10.713  1.00  0.00    -0.362 OA
ATOM     23  C   UNL     1      14.874  -6.278  12.333  1.00  0.00     0.177 C 
ATOM     24  C   UNL     1      12.678  -5.365  11.485  1.00  0.00     0.176 C 
ATOM     25  C   UNL     1      13.522  -6.651  11.689  1.00  0.00     0.177 C 
BRANCH  21  26
ATOM     26  O   UNL     1      16.168  -5.470  10.421  1.00  0.00    -0.387 OA
ATOM     27  H   UNL     1      16.251  -6.459  10.394  1.00  0.00     0.211 HD
ENDBRANCH  21  26
BRANCH  23  28
ATOM     28  O   UNL     1      15.730  -7.389  12.425  1.00  0.00    -0.387 OA
ATOM     29  H   UNL     1      16.028  -7.468  13.367  1.00  0.00     0.211 HD
ENDBRANCH  23  28
BRANCH  24  30
ATOM     30  C   UNL     1      11.326  -5.655  10.807  1.00  0.00     0.191 C 
BRANCH  30  31
ATOM     31  O   UNL     1      10.826  -6.912  11.174  1.00  0.00    -0.394 OA
ATOM     32  H   UNL     1      10.336  -7.287  10.395  1.00  0.00     0.210 HD
ENDBRANCH  30  31
ENDBRANCH  24  30
BRANCH  25  33
ATOM     33  O   UNL     1      13.703  -7.377  10.497  1.00  0.00    -0.388 OA
ATOM     34  H   UNL     1      13.719  -6.750   9.732  1.00  0.00     0.211 HD
ENDBRANCH  25  33
ENDBRANCH  11  20
BRANCH  10  35
ATOM     35  O   UNL     1      15.993  -3.616  14.092  1.00  0.00    -0.507 OA
ATOM     36  H   UNL     1      16.882  -3.301  13.735  1.00  0.00     0.293 HD
ENDBRANCH  10  35
TORSDOF 9
ENDMDL
MODEL 7
REMARK VINA RESULT:    -6.814      2.889      5.883
REMARK INTER + INTRA:          -9.026
REMARK INTER:                  -9.371
REMARK INTRA:                   0.346
REMARK UNBOUND:                 0.178
REMARK SMILES O=c1c(-c2ccc(O)cc2)coc2c([C@@H]3O[C@@H](CO)[C@@H](O)[C@@H](O)[C@H]3O)c(O)ccc12
REMARK SMILES IDX 3 1 11 2 12 3 13 4 30 5 2 6 1 7 29 8 28 9 26 10 14 11 4 12
REMARK SMILES IDX 5 13 6 14 7 15 10 16 9 17 8 18 15 20 24 21 16 22 22 23 17 24
REMARK SMILES IDX 20 25 25 26 23 28 18 30 19 31 21 33 27 35
REMARK H PARENT 8 19 25 27 23 29 19 32 21 34 27 36
REMARK Flexibility Score: inf
ROOT
ATOM      1  C   UNL     1      10.124  -2.034  11.215  1.00  0.00     0.065 A 
ATOM      2  C   UNL     1      11.442  -1.653  11.502  1.00  0.00     0.208 A 
ATOM      3  O   UNL     1      12.423  -2.546  11.499  1.00  0.00    -0.463 OA
ATOM      4  C   UNL     1      12.237  -3.839  11.229  1.00  0.00     0.147 A 
ATOM      5  C   UNL     1      10.928  -4.318  10.980  1.00  0.00     0.066 A 
ATOM      6  C   UNL     1       9.868  -3.389  10.934  1.00  0.00     0.200 A 
ATOM      7  O   UNL     1       8.699  -3.764  10.618  1.00  0.00    -0.288 OA
ATOM      8  C   UNL     1      10.714  -5.691  10.784  1.00  0.00     0.020 A 
ATOM      9  C   UNL     1      11.781  -6.578  10.854  1.00  0.00     0.047 A 
ATOM     10  C   UNL     1      13.093  -6.117  11.034  1.00  0.00     0.125 A 
ATOM     11  C   UNL     1      13.351  -4.722  11.196  1.00  0.00     0.069 A 
ENDROOT
BRANCH   1  12
ATOM     12  C   UNL     1       9.052  -1.016  11.176  1.00  0.00    -0.011 A 
ATOM     13  C   UNL     1       8.749  -0.255  12.319  1.00  0.00     0.013 A 
ATOM     14  C   UNL     1       7.740   0.709  12.276  1.00  0.00     0.047 A 
ATOM     15  C   UNL     1       6.983   0.888  11.111  1.00  0.00     0.115 A 
ATOM     16  C   UNL     1       8.313  -0.811   9.999  1.00  0.00     0.013 A 
ATOM     17  C   UNL     1       7.270   0.127   9.971  1.00  0.00     0.047 A 
BRANCH  15  18
ATOM     18  O   UNL     1       5.944   1.823  11.094  1.00  0.00    -0.508 OA
ATOM     19  H   UNL     1       5.112   1.683  10.522  1.00  0.00     0.293 HD
ENDBRANCH  15  18
ENDBRANCH   1  12
BRANCH  11  20
ATOM     20  C   UNL     1      14.751  -4.077  11.335  1.00  0.00     0.188 C 
ATOM     21  C   UNL     1      14.899  -2.679  12.011  1.00  0.00     0.179 C 
ATOM     22  O   UNL     1      15.684  -4.988  11.917  1.00  0.00    -0.362 OA
ATOM     23  C   UNL     1      14.773  -2.801  13.556  1.00  0.00     0.177 C 
ATOM     24  C   UNL     1      15.402  -5.231  13.291  1.00  0.00     0.176 C 
ATOM     25  C   UNL     1      15.629  -3.947  14.133  1.00  0.00     0.177 C 
BRANCH  21  26
ATOM     26  O   UNL     1      16.108  -2.049  11.649  1.00  0.00    -0.387 OA
ATOM     27  H   UNL     1      15.918  -1.232  11.118  1.00  0.00     0.211 HD
ENDBRANCH  21  26
BRANCH  23  28
ATOM     28  O   UNL     1      15.034  -1.580  14.202  1.00  0.00    -0.387 OA
ATOM     29  H   UNL     1      14.648  -1.629  15.113  1.00  0.00     0.211 HD
ENDBRANCH  23  28
BRANCH  24  30
ATOM     30  C   UNL     1      16.257  -6.412  13.786  1.00  0.00     0.191 C 
BRANCH  30  31
ATOM     31  O   UNL     1      15.780  -7.635  13.292  1.00  0.00    -0.394 OA
ATOM     32  H   UNL     1      14.805  -7.541  13.128  1.00  0.00     0.210 HD
ENDBRANCH  30  31
ENDBRANCH  24  30
BRANCH  25  33
ATOM     33  O   UNL     1      16.985  -3.585  14.216  1.00  0.00    -0.388 OA
ATOM     34  H   UNL     1      17.533  -4.260  13.743  1.00  0.00     0.211 HD
ENDBRANCH  25  33
ENDBRANCH  11  20
BRANCH  10  35
ATOM     35  O   UNL     1      14.114  -7.063  11.071  1.00  0.00    -0.507 OA
ATOM     36  H   UNL     1      14.890  -7.000  11.711  1.00  0.00     0.293 HD
ENDBRANCH  10  35
TORSDOF 9
ENDMDL
MODEL 8
REMARK VINA RESULT:    -6.769      4.973      8.689
REMARK INTER + INTRA:          -8.965
REMARK INTER:                 -10.678
REMARK INTRA:                   1.712
REMARK UNBOUND:                 0.178
REMARK SMILES O=c1c(-c2ccc(O)cc2)coc2c([C@@H]3O[C@@H](CO)[C@@H](O)[C@@H](O)[C@H]3O)c(O)ccc12
REMARK SMILES IDX 3 1 11 2 12 3 13 4 30 5 2 6 1 7 29 8 28 9 26 10 14 11 4 12
REMARK SMILES IDX 5 13 6 14 7 15 10 16 9 17 8 18 15 20 24 21 16 22 22 23 17 24
REMARK SMILES IDX 20 25 25 26 23 28 18 30 19 31 21 33 27 35
REMARK H PARENT 8 19 25 27 23 29 19 32 21 34 27 36
REMARK Flexibility Score: inf
ROOT
ATOM      1  C   UNL     1       9.602   0.971  14.241  1.00  0.00     0.065 A 
ATOM      2  C   UNL     1      10.835   0.411  13.878  1.00  0.00     0.208 A 
ATOM      3  O   UNL     1      11.002  -0.147  12.686  1.00  0.00    -0.463 OA
ATOM      4  C   UNL     1      10.038  -0.216  11.767  1.00  0.00     0.147 A 
ATOM      5  C   UNL     1       8.747   0.279  12.072  1.00  0.00     0.066 A 
ATOM      6  C   UNL     1       8.545   0.916  13.313  1.00  0.00     0.200 A 
ATOM      7  O   UNL     1       7.432   1.458  13.584  1.00  0.00    -0.288 OA
ATOM      8  C   UNL     1       7.705   0.129  11.143  1.00  0.00     0.020 A 
ATOM      9  C   UNL     1       7.939  -0.520   9.936  1.00  0.00     0.047 A 
ATOM     10  C   UNL     1       9.225  -0.958   9.588  1.00  0.00     0.125 A 
ATOM     11  C   UNL     1      10.315  -0.785  10.494  1.00  0.00     0.069 A 
ENDROOT
BRANCH   1  12
ATOM     12  C   UNL     1       9.448   1.631  15.556  1.00  0.00    -0.011 A 
ATOM     13  C   UNL     1       9.825   2.975  15.728  1.00  0.00     0.013 A 
ATOM     14  C   UNL     1       9.672   3.596  16.969  1.00  0.00     0.047 A 
ATOM     15  C   UNL     1       9.195   2.869  18.068  1.00  0.00     0.115 A 
ATOM     16  C   UNL     1       8.940   0.915  16.652  1.00  0.00     0.013 A 
ATOM     17  C   UNL     1       8.829   1.527  17.910  1.00  0.00     0.047 A 
BRANCH  15  18
ATOM     18  O   UNL     1       9.092   3.487  19.318  1.00  0.00    -0.508 OA
ATOM     19  H   UNL     1       9.882   3.978  19.736  1.00  0.00     0.293 HD
ENDBRANCH  15  18
ENDBRANCH   1  12
BRANCH  11  20
ATOM     20  C   UNL     1      11.789  -1.160  10.207  1.00  0.00     0.188 C 
ATOM     21  C   UNL     1      12.922  -0.624  11.136  1.00  0.00     0.179 C 
ATOM     22  O   UNL     1      11.939  -2.570  10.038  1.00  0.00    -0.362 OA
ATOM     23  C   UNL     1      12.953  -1.414  12.475  1.00  0.00     0.177 C 
ATOM     24  C   UNL     1      11.753  -3.274  11.261  1.00  0.00     0.176 C 
ATOM     25  C   UNL     1      12.889  -2.941  12.264  1.00  0.00     0.177 C 
BRANCH  21  26
ATOM     26  O   UNL     1      14.179  -0.657  10.499  1.00  0.00    -0.387 OA
ATOM     27  H   UNL     1      14.250   0.094   9.852  1.00  0.00     0.211 HD
ENDBRANCH  21  26
BRANCH  23  28
ATOM     28  O   UNL     1      14.046  -1.045  13.277  1.00  0.00    -0.387 OA
ATOM     29  H   UNL     1      14.747  -1.737  13.175  1.00  0.00     0.211 HD
ENDBRANCH  23  28
BRANCH  24  30
ATOM     30  C   UNL     1      11.654  -4.783  10.970  1.00  0.00     0.191 C 
BRANCH  30  31
ATOM     31  O   UNL     1      10.375  -5.280  11.258  1.00  0.00    -0.394 OA
ATOM     32  H   UNL     1      10.049  -4.831  12.082  1.00  0.00     0.210 HD
ENDBRANCH  30  31
ENDBRANCH  24  30
BRANCH  25  33
ATOM     33  O   UNL     1      14.135  -3.458  11.866  1.00  0.00    -0.388 OA
ATOM     34  H   UNL     1      14.512  -2.887  11.150  1.00  0.00     0.211 HD
ENDBRANCH  25  33
ENDBRANCH  11  20
BRANCH  10  35
ATOM     35  O   UNL     1       9.385  -1.580   8.353  1.00  0.00    -0.507 OA
ATOM     36  H   UNL     1      10.139  -2.221   8.161  1.00  0.00     0.293 HD
ENDBRANCH  10  35
TORSDOF 9
ENDMDL
MODEL 9
REMARK VINA RESULT:    -6.707      2.025      7.495
REMARK INTER + INTRA:          -8.881
REMARK INTER:                  -9.136
REMARK INTRA:                   0.255
REMARK UNBOUND:                 0.178
REMARK SMILES O=c1c(-c2ccc(O)cc2)coc2c([C@@H]3O[C@@H](CO)[C@@H](O)[C@@H](O)[C@H]3O)c(O)ccc12
REMARK SMILES IDX 3 1 11 2 12 3 13 4 30 5 2 6 1 7 29 8 28 9 26 10 14 11 4 12
REMARK SMILES IDX 5 13 6 14 7 15 10 16 9 17 8 18 15 20 24 21 16 22 22 23 17 24
REMARK SMILES IDX 20 25 25 26 23 28 18 30 19 31 21 33 27 35
REMARK H PARENT 8 19 25 27 23 29 19 32 21 34 27 36
REMARK Flexibility Score: inf
ROOT
ATOM      1  C   UNL     1      12.737  -3.693  11.052  1.00  0.00     0.065 A 
ATOM      2  C   UNL     1      11.421  -4.165  10.938  1.00  0.00     0.208 A 
ATOM      3  O   UNL     1      11.176  -5.457  10.767  1.00  0.00    -0.463 OA
ATOM      4  C   UNL     1      12.134  -6.382  10.691  1.00  0.00     0.147 A 
ATOM      5  C   UNL     1      13.492  -5.985  10.744  1.00  0.00     0.066 A 
ATOM      6  C   UNL     1      13.788  -4.625  10.968  1.00  0.00     0.200 A 
ATOM      7  O   UNL     1      14.989  -4.245  11.119  1.00  0.00    -0.288 OA
ATOM      8  C   UNL     1      14.505  -6.942  10.576  1.00  0.00     0.020 A 
ATOM      9  C   UNL     1      14.174  -8.271  10.340  1.00  0.00     0.047 A 
ATOM     10  C   UNL     1      12.837  -8.695  10.350  1.00  0.00     0.125 A 
ATOM     11  C   UNL     1      11.784  -7.754  10.558  1.00  0.00     0.069 A 
ENDROOT
BRANCH   1  12
ATOM     12  C   UNL     1      12.989  -2.256  11.290  1.00  0.00    -0.011 A 
ATOM     13  C   UNL     1      12.674  -1.672  12.530  1.00  0.00     0.013 A 
ATOM     14  C   UNL     1      12.920  -0.316  12.753  1.00  0.00     0.047 A 
ATOM     15  C   UNL     1      13.429   0.487  11.725  1.00  0.00     0.115 A 
ATOM     16  C   UNL     1      13.530  -1.454  10.272  1.00  0.00     0.013 A 
ATOM     17  C   UNL     1      13.735  -0.082  10.483  1.00  0.00     0.047 A 
BRANCH  15  18
ATOM     18  O   UNL     1      13.626   1.854  11.944  1.00  0.00    -0.508 OA
ATOM     19  H   UNL     1      14.008   2.460  11.218  1.00  0.00     0.293 HD
ENDBRANCH  15  18
ENDBRANCH   1  12
BRANCH  11  20
ATOM     20  C   UNL     1      10.278  -8.098  10.659  1.00  0.00     0.188 C 
ATOM     21  C   UNL     1       9.211  -6.972  10.496  1.00  0.00     0.179 C 
ATOM     22  O   UNL     1       9.942  -9.198   9.813  1.00  0.00    -0.362 OA
ATOM     23  C   UNL     1       9.049  -6.583   9.000  1.00  0.00     0.177 C 
ATOM     24  C   UNL     1      10.010  -8.849   8.435  1.00  0.00     0.176 C 
ATOM     25  C   UNL     1       8.911  -7.813   8.078  1.00  0.00     0.177 C 
BRANCH  21  26
ATOM     26  O   UNL     1       7.972  -7.340  11.061  1.00  0.00    -0.387 OA
ATOM     27  H   UNL     1       8.119  -7.966  11.817  1.00  0.00     0.211 HD
ENDBRANCH  21  26
BRANCH  23  28
ATOM     28  O   UNL     1       8.001  -5.667   8.805  1.00  0.00    -0.387 OA
ATOM     29  H   UNL     1       7.188  -6.038   9.231  1.00  0.00     0.211 HD
ENDBRANCH  23  28
BRANCH  24  30
ATOM     30  C   UNL     1       9.910 -10.125   7.580  1.00  0.00     0.191 C 
BRANCH  30  31
ATOM     31  O   UNL     1       9.305  -9.868   6.341  1.00  0.00    -0.394 OA
ATOM     32  H   UNL     1       8.866  -8.977   6.392  1.00  0.00     0.210 HD
ENDBRANCH  30  31
ENDBRANCH  24  30
BRANCH  25  33
ATOM     33  O   UNL     1       7.614  -8.355   8.135  1.00  0.00    -0.388 OA
ATOM     34  H   UNL     1       7.532  -8.923   8.942  1.00  0.00     0.211 HD
ENDBRANCH  25  33
ENDBRANCH  11  20
BRANCH  10  35
ATOM     35  O   UNL     1      12.584 -10.046  10.128  1.00  0.00    -0.507 OA
ATOM     36  H   UNL     1      12.873 -10.522   9.288  1.00  0.00     0.293 HD
ENDBRANCH  10  35
TORSDOF 9
ENDMDL
