MODEL 1
REMARK VINA RESULT:    -6.272      0.000      0.000
REMARK INTER + INTRA:          -6.455
REMARK INTER:                  -6.455
REMARK INTRA:                   0.000
REMARK UNBOUND:                 0.000
REMARK SMILES C=C1[C@H]2C[C@]3(C[C@@H]1O)[C@H](C)CC[C@H]3C2(C)C
REMARK SMILES IDX 10 1 9 2 11 3 12 4 13 5 5 6 4 7 3 8 14 9 15 10 16 11 2 12
REMARK SMILES IDX 1 13 7 14 6 15 8 16
REMARK H PARENT 8 17
REMARK Flexibility Score: inf
ROOT
ATOM      1  C   UNL     1      -2.880  17.137  48.855  1.00  0.00     0.008 C 
ATOM      2  C   UNL     1      -3.754  18.013  47.939  1.00  0.00    -0.008 C 
ATOM      3  C   UNL     1      -3.596  17.637  46.430  1.00  0.00     0.004 C 
ATOM      4  C   UNL     1      -2.836  18.794  45.732  1.00  0.00     0.005 C 
ATOM      5  C   UNL     1      -2.307  19.579  46.913  1.00  0.00     0.002 C 
ATOM      6  C   UNL     1      -3.402  19.521  47.969  1.00  0.00    -0.020 C 
ATOM      7  C   UNL     1      -2.666  20.206  49.116  1.00  0.00     0.016 C 
ATOM      8  C   UNL     1      -2.177  21.486  48.383  1.00  0.00     0.023 C 
ATOM      9  C   UNL     1      -1.746  21.016  46.936  1.00  0.00    -0.025 C 
ATOM     10  C   UNL     1      -2.275  21.870  45.757  1.00  0.00     0.012 C 
ATOM     11  C   UNL     1      -0.201  21.006  46.844  1.00  0.00     0.012 C 
ATOM     12  C   UNL     1      -3.358  22.431  48.339  1.00  0.00    -0.045 C 
ATOM     13  C   UNL     1      -3.190  23.742  48.576  1.00  0.00     0.011 C 
ATOM     14  C   UNL     1      -4.738  21.856  48.074  1.00  0.00     0.140 C 
ATOM     15  C   UNL     1      -4.709  20.359  47.630  1.00  0.00     0.044 C 
ENDROOT
BRANCH  14  16
ATOM     16  O   UNL     1      -5.399  22.612  47.088  1.00  0.00    -0.389 OA
ATOM     17  H   UNL     1      -6.375  22.517  47.244  1.00  0.00     0.211 HD
ENDBRANCH  14  16
TORSDOF 1
ENDMDL
MODEL 2
REMARK VINA RESULT:    -6.171      1.776      3.244
REMARK INTER + INTRA:          -6.352
REMARK INTER:                  -6.352
REMARK INTRA:                   0.000
REMARK UNBOUND:                 0.000
REMARK SMILES C=C1[C@H]2C[C@]3(C[C@@H]1O)[C@H](C)CC[C@H]3C2(C)C
REMARK SMILES IDX 10 1 9 2 11 3 12 4 13 5 5 6 4 7 3 8 14 9 15 10 16 11 2 12
REMARK SMILES IDX 1 13 7 14 6 15 8 16
REMARK H PARENT 8 17
REMARK Flexibility Score: inf
ROOT
ATOM      1  C   UNL     1      -3.491  17.163  45.540  1.00  0.00     0.008 C 
ATOM      2  C   UNL     1      -2.619  17.716  46.682  1.00  0.00    -0.008 C 
ATOM      3  C   UNL     1      -3.149  17.295  48.091  1.00  0.00     0.004 C 
ATOM      4  C   UNL     1      -3.720  18.562  48.779  1.00  0.00     0.005 C 
ATOM      5  C   UNL     1      -3.804  19.536  47.623  1.00  0.00     0.002 C 
ATOM      6  C   UNL     1      -2.577  19.262  46.765  1.00  0.00    -0.020 C 
ATOM      7  C   UNL     1      -2.889  20.191  45.596  1.00  0.00     0.016 C 
ATOM      8  C   UNL     1      -3.178  21.503  46.378  1.00  0.00     0.023 C 
ATOM      9  C   UNL     1      -3.979  21.067  47.670  1.00  0.00    -0.025 C 
ATOM     10  C   UNL     1      -3.490  21.672  49.010  1.00  0.00     0.012 C 
ATOM     11  C   UNL     1      -5.467  21.457  47.502  1.00  0.00     0.012 C 
ATOM     12  C   UNL     1      -1.832  22.099  46.725  1.00  0.00    -0.045 C 
ATOM     13  C   UNL     1      -1.623  23.421  46.613  1.00  0.00     0.011 C 
ATOM     14  C   UNL     1      -0.712  21.165  47.149  1.00  0.00     0.140 C 
ATOM     15  C   UNL     1      -1.193  19.702  47.409  1.00  0.00     0.044 C 
ENDROOT
BRANCH  14  16
ATOM     16  O   UNL     1      -0.085  21.654  48.311  1.00  0.00    -0.389 OA
ATOM     17  H   UNL     1       0.896  21.602  48.164  1.00  0.00     0.211 HD
ENDBRANCH  14  16
TORSDOF 1
ENDMDL
MODEL 3
REMARK VINA RESULT:    -6.042      1.905      4.510
REMARK INTER + INTRA:          -6.218
REMARK INTER:                  -6.218
REMARK INTRA:                   0.000
REMARK UNBOUND:                 0.000
REMARK SMILES C=C1[C@H]2C[C@]3(C[C@@H]1O)[C@H](C)CC[C@H]3C2(C)C
REMARK SMILES IDX 10 1 9 2 11 3 12 4 13 5 5 6 4 7 3 8 14 9 15 10 16 11 2 12
REMARK SMILES IDX 1 13 7 14 6 15 8 16
REMARK H PARENT 8 17
REMARK Flexibility Score: inf
ROOT
ATOM      1  C   UNL     1      -1.340  22.693  47.985  1.00  0.00     0.008 C 
ATOM      2  C   UNL     1      -2.470  21.955  47.245  1.00  0.00    -0.008 C 
ATOM      3  C   UNL     1      -3.861  22.161  47.929  1.00  0.00     0.004 C 
ATOM      4  C   UNL     1      -4.275  20.813  48.572  1.00  0.00     0.005 C 
ATOM      5  C   UNL     1      -2.979  20.032  48.528  1.00  0.00     0.002 C 
ATOM      6  C   UNL     1      -2.315  20.415  47.213  1.00  0.00    -0.020 C 
ATOM      7  C   UNL     1      -0.988  19.684  47.392  1.00  0.00     0.016 C 
ATOM      8  C   UNL     1      -1.518  18.272  47.767  1.00  0.00     0.023 C 
ATOM      9  C   UNL     1      -2.767  18.516  48.707  1.00  0.00    -0.025 C 
ATOM     10  C   UNL     1      -4.041  17.701  48.370  1.00  0.00     0.012 C 
ATOM     11  C   UNL     1      -2.377  18.182  50.167  1.00  0.00     0.012 C 
ATOM     12  C   UNL     1      -1.914  17.606  46.468  1.00  0.00    -0.045 C 
ATOM     13  C   UNL     1      -1.621  16.314  46.248  1.00  0.00     0.011 C 
ATOM     14  C   UNL     1      -2.600  18.442  45.402  1.00  0.00     0.140 C 
ATOM     15  C   UNL     1      -3.031  19.855  45.909  1.00  0.00     0.044 C 
ENDROOT
BRANCH  14  16
ATOM     16  O   UNL     1      -3.732  17.769  44.909  1.00  0.00    -0.389 OA
ATOM     17  H   UNL     1      -4.493  17.985  45.509  1.00  0.00     0.211 HD
ENDBRANCH  14  16
TORSDOF 1
ENDMDL
MODEL 4
REMARK VINA RESULT:    -6.035      1.794      4.172
REMARK INTER + INTRA:          -6.212
REMARK INTER:                  -6.212
REMARK INTRA:                   0.000
REMARK UNBOUND:                 0.000
REMARK SMILES C=C1[C@H]2C[C@]3(C[C@@H]1O)[C@H](C)CC[C@H]3C2(C)C
REMARK SMILES IDX 10 1 9 2 11 3 12 4 13 5 5 6 4 7 3 8 14 9 15 10 16 11 2 12
REMARK SMILES IDX 1 13 7 14 6 15 8 16
REMARK H PARENT 8 17
REMARK Flexibility Score: inf
ROOT
ATOM      1  C   UNL     1      -5.217  23.743  48.648  1.00  0.00     0.008 C 
ATOM      2  C   UNL     1      -4.367  22.601  49.232  1.00  0.00    -0.008 C 
ATOM      3  C   UNL     1      -3.087  23.125  49.960  1.00  0.00     0.004 C 
ATOM      4  C   UNL     1      -1.859  22.734  49.098  1.00  0.00     0.005 C 
ATOM      5  C   UNL     1      -2.509  22.331  47.791  1.00  0.00     0.002 C 
ATOM      6  C   UNL     1      -3.799  21.621  48.176  1.00  0.00    -0.020 C 
ATOM      7  C   UNL     1      -4.390  21.425  46.784  1.00  0.00     0.016 C 
ATOM      8  C   UNL     1      -3.171  20.775  46.073  1.00  0.00     0.023 C 
ATOM      9  C   UNL     1      -1.896  21.535  46.621  1.00  0.00    -0.025 C 
ATOM     10  C   UNL     1      -0.715  20.641  47.075  1.00  0.00     0.012 C 
ATOM     11  C   UNL     1      -1.362  22.488  45.526  1.00  0.00     0.012 C 
ATOM     12  C   UNL     1      -3.171  19.316  46.473  1.00  0.00    -0.045 C 
ATOM     13  C   UNL     1      -2.908  18.361  45.566  1.00  0.00     0.011 C 
ATOM     14  C   UNL     1      -3.528  18.956  47.905  1.00  0.00     0.140 C 
ATOM     15  C   UNL     1      -3.607  20.195  48.852  1.00  0.00     0.044 C 
ENDROOT
BRANCH  14  16
ATOM     16  O   UNL     1      -2.590  18.043  48.424  1.00  0.00    -0.389 OA
ATOM     17  H   UNL     1      -3.028  17.152  48.455  1.00  0.00     0.211 HD
ENDBRANCH  14  16
TORSDOF 1
ENDMDL
MODEL 5
REMARK VINA RESULT:    -6.023      1.727      4.215
REMARK INTER + INTRA:          -6.199
REMARK INTER:                  -6.199
REMARK INTRA:                   0.000
REMARK UNBOUND:                 0.000
REMARK SMILES C=C1[C@H]2C[C@]3(C[C@@H]1O)[C@H](C)CC[C@H]3C2(C)C
REMARK SMILES IDX 10 1 9 2 11 3 12 4 13 5 5 6 4 7 3 8 14 9 15 10 16 11 2 12
REMARK SMILES IDX 1 13 7 14 6 15 8 16
REMARK H PARENT 8 17
REMARK Flexibility Score: inf
ROOT
ATOM      1  C   UNL     1      -4.380  23.753  50.784  1.00  0.00     0.008 C 
ATOM      2  C   UNL     1      -4.182  23.811  49.258  1.00  0.00    -0.008 C 
ATOM      3  C   UNL     1      -5.511  23.555  48.477  1.00  0.00     0.004 C 
ATOM      4  C   UNL     1      -5.397  22.169  47.792  1.00  0.00     0.005 C 
ATOM      5  C   UNL     1      -4.191  21.574  48.486  1.00  0.00     0.002 C 
ATOM      6  C   UNL     1      -3.225  22.731  48.695  1.00  0.00    -0.020 C 
ATOM      7  C   UNL     1      -2.164  22.013  49.522  1.00  0.00     0.016 C 
ATOM      8  C   UNL     1      -1.919  20.777  48.613  1.00  0.00     0.023 C 
ATOM      9  C   UNL     1      -3.341  20.359  48.061  1.00  0.00    -0.025 C 
ATOM     10  C   UNL     1      -3.428  20.088  46.538  1.00  0.00     0.012 C 
ATOM     11  C   UNL     1      -3.812  19.076  48.787  1.00  0.00     0.012 C 
ATOM     12  C   UNL     1      -0.999  21.238  47.504  1.00  0.00    -0.045 C 
ATOM     13  C   UNL     1       0.014  20.458  47.092  1.00  0.00     0.011 C 
ATOM     14  C   UNL     1      -1.214  22.618  46.909  1.00  0.00     0.140 C 
ATOM     15  C   UNL     1      -2.546  23.289  47.371  1.00  0.00     0.044 C 
ENDROOT
BRANCH  14  16
ATOM     16  O   UNL     1      -1.201  22.549  45.503  1.00  0.00    -0.389 OA
ATOM     17  H   UNL     1      -2.101  22.821  45.183  1.00  0.00     0.211 HD
ENDBRANCH  14  16
TORSDOF 1
ENDMDL
MODEL 6
REMARK VINA RESULT:    -5.860      2.303      4.938
REMARK INTER + INTRA:          -6.031
REMARK INTER:                  -6.031
REMARK INTRA:                   0.000
REMARK UNBOUND:                 0.000
REMARK SMILES C=C1[C@H]2C[C@]3(C[C@@H]1O)[C@H](C)CC[C@H]3C2(C)C
REMARK SMILES IDX 10 1 9 2 11 3 12 4 13 5 5 6 4 7 3 8 14 9 15 10 16 11 2 12
REMARK SMILES IDX 1 13 7 14 6 15 8 16
REMARK H PARENT 8 17
REMARK Flexibility Score: inf
ROOT
ATOM      1  C   UNL     1      -5.706  26.141  48.401  1.00  0.00     0.008 C 
ATOM      2  C   UNL     1      -5.796  24.665  48.826  1.00  0.00    -0.008 C 
ATOM      3  C   UNL     1      -5.535  24.469  50.354  1.00  0.00     0.004 C 
ATOM      4  C   UNL     1      -4.164  23.762  50.513  1.00  0.00     0.005 C 
ATOM      5  C   UNL     1      -3.574  23.906  49.126  1.00  0.00     0.002 C 
ATOM      6  C   UNL     1      -4.743  23.742  48.164  1.00  0.00    -0.020 C 
ATOM      7  C   UNL     1      -4.025  24.062  46.857  1.00  0.00     0.016 C 
ATOM      8  C   UNL     1      -2.810  23.101  46.986  1.00  0.00     0.023 C 
ATOM      9  C   UNL     1      -2.382  23.150  48.508  1.00  0.00    -0.025 C 
ATOM     10  C   UNL     1      -2.139  21.780  49.191  1.00  0.00     0.012 C 
ATOM     11  C   UNL     1      -1.077  23.971  48.643  1.00  0.00     0.012 C 
ATOM     12  C   UNL     1      -3.307  21.730  46.585  1.00  0.00    -0.045 C 
ATOM     13  C   UNL     1      -2.551  20.930  45.815  1.00  0.00     0.011 C 
ATOM     14  C   UNL     1      -4.695  21.302  47.028  1.00  0.00     0.140 C 
ATOM     15  C   UNL     1      -5.337  22.271  48.071  1.00  0.00     0.044 C 
ENDROOT
BRANCH  14  16
ATOM     16  O   UNL     1      -4.654  20.006  47.574  1.00  0.00    -0.389 OA
ATOM     17  H   UNL     1      -5.404  19.931  48.221  1.00  0.00     0.211 HD
ENDBRANCH  14  16
TORSDOF 1
ENDMDL
MODEL 7
REMARK VINA RESULT:    -5.828      2.991      4.701
REMARK INTER + INTRA:          -5.998
REMARK INTER:                  -5.998
REMARK INTRA:                   0.000
REMARK UNBOUND:                 0.000
REMARK SMILES C=C1[C@H]2C[C@]3(C[C@@H]1O)[C@H](C)CC[C@H]3C2(C)C
REMARK SMILES IDX 10 1 9 2 11 3 12 4 13 5 5 6 4 7 3 8 14 9 15 10 16 11 2 12
REMARK SMILES IDX 1 13 7 14 6 15 8 16
REMARK H PARENT 8 17
REMARK Flexibility Score: inf
ROOT
ATOM      1  C   UNL     1      -2.360  21.635  49.079  1.00  0.00     0.008 C 
ATOM      2  C   UNL     1      -3.810  22.124  49.250  1.00  0.00    -0.008 C 
ATOM      3  C   UNL     1      -4.757  21.572  48.136  1.00  0.00     0.004 C 
ATOM      4  C   UNL     1      -5.147  22.759  47.217  1.00  0.00     0.005 C 
ATOM      5  C   UNL     1      -4.151  23.819  47.634  1.00  0.00     0.002 C 
ATOM      6  C   UNL     1      -3.986  23.658  49.139  1.00  0.00    -0.020 C 
ATOM      7  C   UNL     1      -2.865  24.667  49.367  1.00  0.00     0.016 C 
ATOM      8  C   UNL     1      -3.476  25.901  48.646  1.00  0.00     0.023 C 
ATOM      9  C   UNL     1      -4.188  25.335  47.352  1.00  0.00    -0.025 C 
ATOM     10  C   UNL     1      -5.627  25.846  47.090  1.00  0.00     0.012 C 
ATOM     11  C   UNL     1      -3.338  25.686  46.108  1.00  0.00     0.012 C 
ATOM     12  C   UNL     1      -4.466  26.514  49.612  1.00  0.00    -0.045 C 
ATOM     13  C   UNL     1      -4.541  27.847  49.756  1.00  0.00     0.011 C 
ATOM     14  C   UNL     1      -5.331  25.588  50.449  1.00  0.00     0.140 C 
ATOM     15  C   UNL     1      -5.245  24.093  50.005  1.00  0.00     0.044 C 
ENDROOT
BRANCH  14  16
ATOM     16  O   UNL     1      -6.675  26.003  50.401  1.00  0.00    -0.389 OA
ATOM     17  H   UNL     1      -6.858  26.313  49.475  1.00  0.00     0.211 HD
ENDBRANCH  14  16
TORSDOF 1
ENDMDL
MODEL 8
REMARK VINA RESULT:    -5.811      2.083      4.092
REMARK INTER + INTRA:          -5.981
REMARK INTER:                  -5.981
REMARK INTRA:                   0.000
REMARK UNBOUND:                 0.000
REMARK SMILES C=C1[C@H]2C[C@]3(C[C@@H]1O)[C@H](C)CC[C@H]3C2(C)C
REMARK SMILES IDX 10 1 9 2 11 3 12 4 13 5 5 6 4 7 3 8 14 9 15 10 16 11 2 12
REMARK SMILES IDX 1 13 7 14 6 15 8 16
REMARK H PARENT 8 17
REMARK Flexibility Score: inf
ROOT
ATOM      1  C   UNL     1      -4.347  19.711  48.186  1.00  0.00     0.008 C 
ATOM      2  C   UNL     1      -3.423  20.832  47.677  1.00  0.00    -0.008 C 
ATOM      3  C   UNL     1      -2.074  20.893  48.464  1.00  0.00     0.004 C 
ATOM      4  C   UNL     1      -2.089  22.179  49.330  1.00  0.00     0.005 C 
ATOM      5  C   UNL     1      -3.546  22.585  49.262  1.00  0.00     0.002 C 
ATOM      6  C   UNL     1      -3.998  22.260  47.846  1.00  0.00    -0.020 C 
ATOM      7  C   UNL     1      -5.484  22.574  47.989  1.00  0.00     0.016 C 
ATOM      8  C   UNL     1      -5.390  23.995  48.611  1.00  0.00     0.023 C 
ATOM      9  C   UNL     1      -4.182  23.941  49.630  1.00  0.00    -0.025 C 
ATOM     10  C   UNL     1      -3.165  25.108  49.543  1.00  0.00     0.012 C 
ATOM     11  C   UNL     1      -4.736  23.917  51.075  1.00  0.00     0.012 C 
ATOM     12  C   UNL     1      -5.117  24.945  47.465  1.00  0.00    -0.045 C 
ATOM     13  C   UNL     1      -5.744  26.131  47.400  1.00  0.00     0.011 C 
ATOM     14  C   UNL     1      -4.164  24.505  46.368  1.00  0.00     0.140 C 
ATOM     15  C   UNL     1      -3.388  23.194  46.713  1.00  0.00     0.044 C 
ENDROOT
BRANCH  14  16
ATOM     16  O   UNL     1      -3.235  25.526  46.093  1.00  0.00    -0.389 OA
ATOM     17  H   UNL     1      -3.575  26.359  46.512  1.00  0.00     0.211 HD
ENDBRANCH  14  16
TORSDOF 1
ENDMDL
MODEL 9
REMARK VINA RESULT:    -5.767      3.607      6.860
REMARK INTER + INTRA:          -5.936
REMARK INTER:                  -5.936
REMARK INTRA:                   0.000
REMARK UNBOUND:                 0.000
REMARK SMILES C=C1[C@H]2C[C@]3(C[C@@H]1O)[C@H](C)CC[C@H]3C2(C)C
REMARK SMILES IDX 10 1 9 2 11 3 12 4 13 5 5 6 4 7 3 8 14 9 15 10 16 11 2 12
REMARK SMILES IDX 1 13 7 14 6 15 8 16
REMARK H PARENT 8 17
REMARK Flexibility Score: inf
ROOT
ATOM      1  C   UNL     1      -3.563  26.216  53.220  1.00  0.00     0.008 C 
ATOM      2  C   UNL     1      -2.908  26.178  51.828  1.00  0.00    -0.008 C 
ATOM      3  C   UNL     1      -2.845  27.592  51.163  1.00  0.00     0.004 C 
ATOM      4  C   UNL     1      -3.848  27.603  49.982  1.00  0.00     0.005 C 
ATOM      5  C   UNL     1      -4.661  26.354  50.247  1.00  0.00     0.002 C 
ATOM      6  C   UNL     1      -3.672  25.328  50.784  1.00  0.00    -0.020 C 
ATOM      7  C   UNL     1      -4.651  24.213  51.138  1.00  0.00     0.016 C 
ATOM      8  C   UNL     1      -5.427  24.113  49.795  1.00  0.00     0.023 C 
ATOM      9  C   UNL     1      -5.604  25.601  49.288  1.00  0.00    -0.025 C 
ATOM     10  C   UNL     1      -5.254  25.858  47.800  1.00  0.00     0.012 C 
ATOM     11  C   UNL     1      -7.072  26.040  49.500  1.00  0.00     0.012 C 
ATOM     12  C   UNL     1      -4.560  23.299  48.860  1.00  0.00    -0.045 C 
ATOM     13  C   UNL     1      -5.107  22.365  48.065  1.00  0.00     0.011 C 
ATOM     14  C   UNL     1      -3.058  23.523  48.882  1.00  0.00     0.140 C 
ATOM     15  C   UNL     1      -2.633  24.772  49.717  1.00  0.00     0.044 C 
ENDROOT
BRANCH  14  16
ATOM     16  O   UNL     1      -2.569  23.662  47.570  1.00  0.00    -0.389 OA
ATOM     17  H   UNL     1      -1.586  23.789  47.631  1.00  0.00     0.211 HD
ENDBRANCH  14  16
TORSDOF 1
ENDMDL
