MODEL 1
REMARK VINA RESULT:     0.000      0.000      0.000
REMARK INTER + INTRA:          -2.549
REMARK INTER:                   0.000
REMARK INTRA:                  -2.549
REMARK UNBOUND:                -2.549
REMARK SMILES CCCCCCCCCCCCCC(=O)[O-]
REMARK SMILES IDX 8 1 9 2 10 3 11 4 12 5 13 6 14 7 15 8 16 9 7 10 6 11 5 12
REMARK SMILES IDX 4 13 3 14 2 15 1 16
REMARK H PARENT
REMARK Flexibility Score: inf
ROOT
ATOM      1  C   UNL     1     166.567 193.908 185.510  1.00  0.00     0.000 C 
ENDROOT
BRANCH   1   2
ATOM      2  C   UNL     1     167.535 194.252 184.367  1.00  0.00     0.000 C 
BRANCH   2   3
ATOM      3  C   UNL     1     167.741 195.768 184.199  1.00  0.00     0.000 C 
BRANCH   3   4
ATOM      4  C   UNL     1     167.184 196.296 182.867  1.00  0.00     0.000 C 
BRANCH   4   5
ATOM      5  C   UNL     1     166.438 197.632 183.026  1.00  0.00     0.006 C 
BRANCH   5   6
ATOM      6  C   UNL     1     166.653 198.254 184.412  1.00  0.00     0.053 C 
BRANCH   6   7
ATOM      7  C   UNL     1     165.379 198.801 184.980  1.00  0.00     0.041 C 
ATOM      8  O   UNL     1     165.246 198.938 186.225  1.00  0.00    -0.550 OA
ATOM      9  O   UNL     1     164.350 199.187 184.131  1.00  0.00    -0.550 OA
ENDBRANCH   6   7
ENDBRANCH   5   6
ENDBRANCH   4   5
ENDBRANCH   3   4
ENDBRANCH   2   3
ENDBRANCH   1   2
BRANCH   1  10
ATOM     10  C   UNL     1     166.196 195.137 186.358  1.00  0.00     0.000 C 
BRANCH  10  11
ATOM     11  C   UNL     1     164.681 195.405 186.378  1.00  0.00    -0.000 C 
BRANCH  11  12
ATOM     12  C   UNL     1     163.943 194.707 185.222  1.00  0.00    -0.000 C 
BRANCH  12  13
ATOM     13  C   UNL     1     163.468 195.695 184.143  1.00  0.00    -0.000 C 
BRANCH  13  14
ATOM     14  C   UNL     1     163.651 195.148 182.717  1.00  0.00    -0.000 C 
BRANCH  14  15
ATOM     15  C   UNL     1     164.157 193.697 182.704  1.00  0.00    -0.003 C 
ATOM     16  C   UNL     1     165.168 193.431 181.588  1.00  0.00     0.004 C 
ENDBRANCH  14  15
ENDBRANCH  13  14
ENDBRANCH  12  13
ENDBRANCH  11  12
ENDBRANCH  10  11
ENDBRANCH   1  10
TORSDOF 12
ENDMDL
MODEL 2
REMARK VINA RESULT:     0.000     12.446     14.623
REMARK INTER + INTRA:          -2.549
REMARK INTER:                   0.000
REMARK INTRA:                  -2.549
REMARK UNBOUND:                -2.549
REMARK SMILES CCCCCCCCCCCCCC(=O)[O-]
REMARK SMILES IDX 8 1 9 2 10 3 11 4 12 5 13 6 14 7 15 8 16 9 7 10 6 11 5 12
REMARK SMILES IDX 4 13 3 14 2 15 1 16
REMARK H PARENT
REMARK Flexibility Score: inf
ROOT
ATOM      1  C   UNL     1     170.420 184.642 183.032  1.00  0.00     0.000 C 
ENDROOT
BRANCH   1   2
ATOM      2  C   UNL     1     168.994 184.509 183.592  1.00  0.00     0.000 C 
BRANCH   2   3
ATOM      3  C   UNL     1     168.769 183.177 184.330  1.00  0.00     0.000 C 
BRANCH   3   4
ATOM      4  C   UNL     1     168.601 183.362 185.847  1.00  0.00     0.000 C 
BRANCH   4   5
ATOM      5  C   UNL     1     169.337 182.283 186.659  1.00  0.00     0.006 C 
BRANCH   5   6
ATOM      6  C   UNL     1     169.920 181.182 185.765  1.00  0.00     0.053 C 
BRANCH   6   7
ATOM      7  C   UNL     1     171.272 180.739 186.236  1.00  0.00     0.041 C 
ATOM      8  O   UNL     1     172.068 180.172 185.441  1.00  0.00    -0.550 OA
ATOM      9  O   UNL     1     171.664 180.981 187.546  1.00  0.00    -0.550 OA
ENDBRANCH   6   7
ENDBRANCH   5   6
ENDBRANCH   4   5
ENDBRANCH   3   4
ENDBRANCH   2   3
ENDBRANCH   1   2
BRANCH   1  10
ATOM     10  C   UNL     1     171.178 183.304 183.027  1.00  0.00     0.000 C 
BRANCH  10  11
ATOM     11  C   UNL     1     172.479 183.359 183.846  1.00  0.00    -0.000 C 
BRANCH  11  12
ATOM     12  C   UNL     1     172.560 184.608 184.742  1.00  0.00    -0.000 C 
BRANCH  12  13
ATOM     13  C   UNL     1     172.463 184.268 186.239  1.00  0.00    -0.000 C 
BRANCH  13  14
ATOM     14  C   UNL     1     171.579 185.259 187.016  1.00  0.00    -0.000 C 
BRANCH  14  15
ATOM     15  C   UNL     1     171.169 186.473 186.166  1.00  0.00    -0.003 C 
ATOM     16  C   UNL     1     169.713 186.883 186.382  1.00  0.00     0.004 C 
ENDBRANCH  14  15
ENDBRANCH  13  14
ENDBRANCH  12  13
ENDBRANCH  11  12
ENDBRANCH  10  11
ENDBRANCH   1  10
TORSDOF 12
ENDMDL
MODEL 3
REMARK VINA RESULT:     0.000      1.628      2.076
REMARK INTER + INTRA:          -2.548
REMARK INTER:                   0.000
REMARK INTRA:                  -2.548
REMARK UNBOUND:                -2.549
REMARK SMILES CCCCCCCCCCCCCC(=O)[O-]
REMARK SMILES IDX 8 1 9 2 10 3 11 4 12 5 13 6 14 7 15 8 16 9 7 10 6 11 5 12
REMARK SMILES IDX 4 13 3 14 2 15 1 16
REMARK H PARENT
REMARK Flexibility Score: inf
ROOT
ATOM      1  C   UNL     1     167.222 192.436 186.530  1.00  0.00     0.000 C 
ENDROOT
BRANCH   1   2
ATOM      2  C   UNL     1     167.923 192.425 185.162  1.00  0.00     0.000 C 
BRANCH   2   3
ATOM      3  C   UNL     1     168.393 193.825 184.725  1.00  0.00     0.000 C 
BRANCH   3   4
ATOM      4  C   UNL     1     167.651 194.336 183.480  1.00  0.00     0.000 C 
BRANCH   4   5
ATOM      5  C   UNL     1     167.260 195.819 183.593  1.00  0.00     0.006 C 
BRANCH   5   6
ATOM      6  C   UNL     1     167.940 196.509 184.783  1.00  0.00     0.053 C 
BRANCH   6   7
ATOM      7  C   UNL     1     166.987 197.386 185.535  1.00  0.00     0.041 C 
ATOM      8  O   UNL     1     167.199 197.663 186.746  1.00  0.00    -0.550 OA
ATOM      9  O   UNL     1     165.881 197.924 184.891  1.00  0.00    -0.550 OA
ENDBRANCH   6   7
ENDBRANCH   5   6
ENDBRANCH   4   5
ENDBRANCH   3   4
ENDBRANCH   2   3
ENDBRANCH   1   2
BRANCH   1  10
ATOM     10  C   UNL     1     167.326 193.799 187.235  1.00  0.00     0.000 C 
BRANCH  10  11
ATOM     11  C   UNL     1     165.949 194.407 187.552  1.00  0.00    -0.000 C 
BRANCH  11  12
ATOM     12  C   UNL     1     164.824 193.797 186.697  1.00  0.00    -0.000 C 
BRANCH  12  13
ATOM     13  C   UNL     1     164.324 194.759 185.606  1.00  0.00    -0.000 C 
BRANCH  13  14
ATOM     14  C   UNL     1     164.030 194.045 184.276  1.00  0.00    -0.000 C 
BRANCH  14  15
ATOM     15  C   UNL     1     164.208 192.521 184.374  1.00  0.00    -0.003 C 
ATOM     16  C   UNL     1     164.834 191.914 183.119  1.00  0.00     0.004 C 
ENDBRANCH  14  15
ENDBRANCH  13  14
ENDBRANCH  12  13
ENDBRANCH  11  12
ENDBRANCH  10  11
ENDBRANCH   1  10
TORSDOF 12
ENDMDL
MODEL 4
REMARK VINA RESULT:     0.002      4.938      6.978
REMARK INTER + INTRA:          -2.546
REMARK INTER:                   0.000
REMARK INTRA:                  -2.546
REMARK UNBOUND:                -2.549
REMARK SMILES CCCCCCCCCCCCCC(=O)[O-]
REMARK SMILES IDX 8 1 9 2 10 3 11 4 12 5 13 6 14 7 15 8 16 9 7 10 6 11 5 12
REMARK SMILES IDX 4 13 3 14 2 15 1 16
REMARK H PARENT
REMARK Flexibility Score: inf
ROOT
ATOM      1  C   UNL     1     171.118 193.411 186.536  1.00  0.00     0.000 C 
ENDROOT
BRANCH   1   2
ATOM      2  C   UNL     1     172.147 193.990 187.520  1.00  0.00     0.000 C 
BRANCH   2   3
ATOM      3  C   UNL     1     171.617 195.223 188.276  1.00  0.00     0.000 C 
BRANCH   3   4
ATOM      4  C   UNL     1     171.406 194.952 189.775  1.00  0.00     0.000 C 
BRANCH   4   5
ATOM      5  C   UNL     1     170.110 195.582 190.312  1.00  0.00     0.006 C 
BRANCH   5   6
ATOM      6  C   UNL     1     169.421 196.471 189.268  1.00  0.00     0.053 C 
BRANCH   6   7
ATOM      7  C   UNL     1     167.930 196.334 189.318  1.00  0.00     0.041 C 
ATOM      8  O   UNL     1     167.228 196.672 188.329  1.00  0.00    -0.550 OA
ATOM      9  O   UNL     1     167.318 195.804 190.447  1.00  0.00    -0.550 OA
ENDBRANCH   6   7
ENDBRANCH   5   6
ENDBRANCH   4   5
ENDBRANCH   3   4
ENDBRANCH   2   3
ENDBRANCH   1   2
BRANCH   1  10
ATOM     10  C   UNL     1     169.954 194.379 186.262  1.00  0.00     0.000 C 
BRANCH  10  11
ATOM     11  C   UNL     1     168.590 193.788 186.657  1.00  0.00    -0.000 C 
BRANCH  11  12
ATOM     12  C   UNL     1     168.722 192.495 187.481  1.00  0.00    -0.000 C 
BRANCH  12  13
ATOM     13  C   UNL     1     168.228 192.664 188.927  1.00  0.00    -0.000 C 
BRANCH  13  14
ATOM     14  C   UNL     1     169.159 191.997 189.954  1.00  0.00    -0.000 C 
BRANCH  14  15
ATOM     15  C   UNL     1     170.226 191.111 189.292  1.00  0.00    -0.003 C 
ATOM     16  C   UNL     1     171.591 191.216 189.972  1.00  0.00     0.004 C 
ENDBRANCH  14  15
ENDBRANCH  13  14
ENDBRANCH  12  13
ENDBRANCH  11  12
ENDBRANCH  10  11
ENDBRANCH   1  10
TORSDOF 12
ENDMDL
MODEL 5
REMARK VINA RESULT:     0.002      6.954      9.318
REMARK INTER + INTRA:          -2.546
REMARK INTER:                   0.000
REMARK INTRA:                  -2.546
REMARK UNBOUND:                -2.549
REMARK SMILES CCCCCCCCCCCCCC(=O)[O-]
REMARK SMILES IDX 8 1 9 2 10 3 11 4 12 5 13 6 14 7 15 8 16 9 7 10 6 11 5 12
REMARK SMILES IDX 4 13 3 14 2 15 1 16
REMARK H PARENT
REMARK Flexibility Score: inf
ROOT
ATOM      1  C   UNL     1     169.467 190.888 182.979  1.00  0.00     0.000 C 
ENDROOT
BRANCH   1   2
ATOM      2  C   UNL     1     168.908 189.829 183.943  1.00  0.00     0.000 C 
BRANCH   2   3
ATOM      3  C   UNL     1     169.992 188.866 184.460  1.00  0.00     0.000 C 
BRANCH   3   4
ATOM      4  C   UNL     1     170.305 189.075 185.951  1.00  0.00     0.000 C 
BRANCH   4   5
ATOM      5  C   UNL     1     171.809 188.982 186.258  1.00  0.00     0.006 C 
BRANCH   5   6
ATOM      6  C   UNL     1     172.621 188.518 185.042  1.00  0.00     0.053 C 
BRANCH   6   7
ATOM      7  C   UNL     1     173.908 189.273 184.912  1.00  0.00     0.041 C 
ATOM      8  O   UNL     1     174.424 189.828 185.918  1.00  0.00    -0.550 OA
ATOM      9  O   UNL     1     174.555 189.337 183.684  1.00  0.00    -0.550 OA
ENDBRANCH   6   7
ENDBRANCH   5   6
ENDBRANCH   4   5
ENDBRANCH   3   4
ENDBRANCH   2   3
ENDBRANCH   1   2
BRANCH   1  10
ATOM     10  C   UNL     1     170.872 190.532 182.463  1.00  0.00     0.000 C 
BRANCH  10  11
ATOM     11  C   UNL     1     171.916 191.612 182.798  1.00  0.00    -0.000 C 
BRANCH  11  12
ATOM     12  C   UNL     1     171.397 192.636 183.823  1.00  0.00    -0.000 C 
BRANCH  12  13
ATOM     13  C   UNL     1     172.113 192.528 185.180  1.00  0.00    -0.000 C 
BRANCH  13  14
ATOM     14  C   UNL     1     171.151 192.668 186.371  1.00  0.00    -0.000 C 
BRANCH  14  15
ATOM     15  C   UNL     1     169.737 193.090 185.939  1.00  0.00    -0.003 C 
ATOM     16  C   UNL     1     168.638 192.342 186.694  1.00  0.00     0.004 C 
ENDBRANCH  14  15
ENDBRANCH  13  14
ENDBRANCH  12  13
ENDBRANCH  11  12
ENDBRANCH  10  11
ENDBRANCH   1  10
TORSDOF 12
ENDMDL
MODEL 6
REMARK VINA RESULT:     0.003      9.428     11.395
REMARK INTER + INTRA:          -2.543
REMARK INTER:                   0.000
REMARK INTRA:                  -2.543
REMARK UNBOUND:                -2.549
REMARK SMILES CCCCCCCCCCCCCC(=O)[O-]
REMARK SMILES IDX 8 1 9 2 10 3 11 4 12 5 13 6 14 7 15 8 16 9 7 10 6 11 5 12
REMARK SMILES IDX 4 13 3 14 2 15 1 16
REMARK H PARENT
REMARK Flexibility Score: inf
ROOT
ATOM      1  C   UNL     1     167.145 187.718 186.371  1.00  0.00     0.000 C 
ENDROOT
BRANCH   1   2
ATOM      2  C   UNL     1     167.972 188.900 186.899  1.00  0.00     0.000 C 
BRANCH   2   3
ATOM      3  C   UNL     1     169.280 188.453 187.578  1.00  0.00     0.000 C 
BRANCH   3   4
ATOM      4  C   UNL     1     169.244 188.629 189.105  1.00  0.00     0.000 C 
BRANCH   4   5
ATOM      5  C   UNL     1     169.913 187.461 189.849  1.00  0.00     0.006 C 
BRANCH   5   6
ATOM      6  C   UNL     1     170.559 186.455 188.888  1.00  0.00     0.053 C 
BRANCH   6   7
ATOM      7  C   UNL     1     170.354 185.042 189.341  1.00  0.00     0.041 C 
ATOM      8  O   UNL     1     170.445 184.091 188.519  1.00  0.00    -0.550 OA
ATOM      9  O   UNL     1     170.092 184.772 190.679  1.00  0.00    -0.550 OA
ENDBRANCH   6   7
ENDBRANCH   5   6
ENDBRANCH   4   5
ENDBRANCH   3   4
ENDBRANCH   2   3
ENDBRANCH   1   2
BRANCH   1  10
ATOM     10  C   UNL     1     167.972 186.425 186.255  1.00  0.00     0.000 C 
BRANCH  10  11
ATOM     11  C   UNL     1     167.375 185.267 187.074  1.00  0.00    -0.000 C 
BRANCH  11  12
ATOM     12  C   UNL     1     166.273 185.736 188.042  1.00  0.00    -0.000 C 
BRANCH  12  13
ATOM     13  C   UNL     1     166.695 185.619 189.516  1.00  0.00    -0.000 C 
BRANCH  13  14
ATOM     14  C   UNL     1     166.243 186.825 190.359  1.00  0.00    -0.000 C 
BRANCH  14  15
ATOM     15  C   UNL     1     165.307 187.765 189.584  1.00  0.00    -0.003 C 
ATOM     16  C   UNL     1     165.637 189.242 189.801  1.00  0.00     0.004 C 
ENDBRANCH  14  15
ENDBRANCH  13  14
ENDBRANCH  12  13
ENDBRANCH  11  12
ENDBRANCH  10  11
ENDBRANCH   1  10
TORSDOF 12
ENDMDL
MODEL 7
REMARK VINA RESULT:     0.004      7.714      9.971
REMARK INTER + INTRA:          -2.542
REMARK INTER:                   0.000
REMARK INTRA:                  -2.542
REMARK UNBOUND:                -2.549
REMARK SMILES CCCCCCCCCCCCCC(=O)[O-]
REMARK SMILES IDX 8 1 9 2 10 3 11 4 12 5 13 6 14 7 15 8 16 9 7 10 6 11 5 12
REMARK SMILES IDX 4 13 3 14 2 15 1 16
REMARK H PARENT
REMARK Flexibility Score: inf
ROOT
ATOM      1  C   UNL     1     171.519 191.608 188.130  1.00  0.00     0.000 C 
ENDROOT
BRANCH   1   2
ATOM      2  C   UNL     1     172.754 190.788 188.538  1.00  0.00     0.000 C 
BRANCH   2   3
ATOM      3  C   UNL     1     173.130 189.722 187.493  1.00  0.00     0.000 C 
BRANCH   3   4
ATOM      4  C   UNL     1     174.470 190.020 186.800  1.00  0.00     0.000 C 
BRANCH   4   5
ATOM      5  C   UNL     1     174.425 189.750 185.287  1.00  0.00     0.006 C 
BRANCH   5   6
ATOM      6  C   UNL     1     173.124 189.057 184.860  1.00  0.00     0.053 C 
BRANCH   6   7
ATOM      7  C   UNL     1     172.620 189.580 183.550  1.00  0.00     0.041 C 
ATOM      8  O   UNL     1     173.395 190.197 182.771  1.00  0.00    -0.550 OA
ATOM      9  O   UNL     1     171.301 189.359 183.175  1.00  0.00    -0.550 OA
ENDBRANCH   6   7
ENDBRANCH   5   6
ENDBRANCH   4   5
ENDBRANCH   3   4
ENDBRANCH   2   3
ENDBRANCH   1   2
BRANCH   1  10
ATOM     10  C   UNL     1     170.755 190.976 186.955  1.00  0.00     0.000 C 
BRANCH  10  11
ATOM     11  C   UNL     1     170.696 191.898 185.725  1.00  0.00    -0.000 C 
BRANCH  11  12
ATOM     12  C   UNL     1     171.633 193.113 185.853  1.00  0.00    -0.000 C 
BRANCH  12  13
ATOM     13  C   UNL     1     172.783 193.082 184.832  1.00  0.00    -0.000 C 
BRANCH  13  14
ATOM     14  C   UNL     1     174.137 193.465 185.454  1.00  0.00    -0.000 C 
BRANCH  14  15
ATOM     15  C   UNL     1     173.991 194.051 186.867  1.00  0.00    -0.003 C 
ATOM     16  C   UNL     1     175.088 193.579 187.821  1.00  0.00     0.004 C 
ENDBRANCH  14  15
ENDBRANCH  13  14
ENDBRANCH  12  13
ENDBRANCH  11  12
ENDBRANCH  10  11
ENDBRANCH   1  10
TORSDOF 12
ENDMDL
MODEL 8
REMARK VINA RESULT:     0.009     10.688     12.775
REMARK INTER + INTRA:          -2.533
REMARK INTER:                   0.000
REMARK INTRA:                  -2.533
REMARK UNBOUND:                -2.549
REMARK SMILES CCCCCCCCCCCCCC(=O)[O-]
REMARK SMILES IDX 8 1 9 2 10 3 11 4 12 5 13 6 14 7 15 8 16 9 7 10 6 11 5 12
REMARK SMILES IDX 4 13 3 14 2 15 1 16
REMARK H PARENT
REMARK Flexibility Score: inf
ROOT
ATOM      1  C   UNL     1     174.832 193.305 194.617  1.00  0.00     0.000 C 
ENDROOT
BRANCH   1   2
ATOM      2  C   UNL     1     174.579 194.694 195.226  1.00  0.00     0.000 C 
BRANCH   2   3
ATOM      3  C   UNL     1     173.208 194.797 195.919  1.00  0.00     0.000 C 
BRANCH   3   4
ATOM      4  C   UNL     1     172.194 195.616 195.104  1.00  0.00     0.000 C 
BRANCH   4   5
ATOM      5  C   UNL     1     170.762 195.064 195.216  1.00  0.00     0.006 C 
BRANCH   5   6
ATOM      6  C   UNL     1     170.690 193.820 196.111  1.00  0.00     0.053 C 
BRANCH   6   7
ATOM      7  C   UNL     1     169.808 192.762 195.522  1.00  0.00     0.041 C 
ATOM      8  O   UNL     1     168.964 193.059 194.635  1.00  0.00    -0.550 OA
ATOM      9  O   UNL     1     169.938 191.441 195.931  1.00  0.00    -0.550 OA
ENDBRANCH   6   7
ENDBRANCH   5   6
ENDBRANCH   4   5
ENDBRANCH   3   4
ENDBRANCH   2   3
ENDBRANCH   1   2
BRANCH   1  10
ATOM     10  C   UNL     1     173.920 192.223 195.218  1.00  0.00     0.000 C 
BRANCH  10  11
ATOM     11  C   UNL     1     173.063 191.515 194.154  1.00  0.00    -0.000 C 
BRANCH  11  12
ATOM     12  C   UNL     1     173.128 192.213 192.784  1.00  0.00    -0.000 C 
BRANCH  12  13
ATOM     13  C   UNL     1     171.794 192.870 192.393  1.00  0.00    -0.000 C 
BRANCH  13  14
ATOM     14  C   UNL     1     171.985 194.216 191.672  1.00  0.00    -0.000 C 
BRANCH  14  15
ATOM     15  C   UNL     1     173.461 194.515 191.368  1.00  0.00    -0.003 C 
ATOM     16  C   UNL     1     173.882 195.922 191.795  1.00  0.00     0.004 C 
ENDBRANCH  14  15
ENDBRANCH  13  14
ENDBRANCH  12  13
ENDBRANCH  11  12
ENDBRANCH  10  11
ENDBRANCH   1  10
TORSDOF 12
ENDMDL
MODEL 9
REMARK VINA RESULT:     0.022      5.629      7.650
REMARK INTER + INTRA:          -2.512
REMARK INTER:                   0.000
REMARK INTRA:                  -2.512
REMARK UNBOUND:                -2.549
REMARK SMILES CCCCCCCCCCCCCC(=O)[O-]
REMARK SMILES IDX 8 1 9 2 10 3 11 4 12 5 13 6 14 7 15 8 16 9 7 10 6 11 5 12
REMARK SMILES IDX 4 13 3 14 2 15 1 16
REMARK H PARENT
REMARK Flexibility Score: inf
ROOT
ATOM      1  C   UNL     1     171.419 194.799 187.519  1.00  0.00     0.000 C 
ENDROOT
BRANCH   1   2
ATOM      2  C   UNL     1     170.998 193.559 188.323  1.00  0.00     0.000 C 
BRANCH   2   3
ATOM      3  C   UNL     1     171.510 192.246 187.703  1.00  0.00     0.000 C 
BRANCH   3   4
ATOM      4  C   UNL     1     170.368 191.321 187.250  1.00  0.00     0.000 C 
BRANCH   4   5
ATOM      5  C   UNL     1     170.658 190.642 185.902  1.00  0.00     0.006 C 
BRANCH   5   6
ATOM      6  C   UNL     1     172.073 190.944 185.393  1.00  0.00     0.053 C 
BRANCH   6   7
ATOM      7  C   UNL     1     172.123 191.015 183.897  1.00  0.00     0.041 C 
ATOM      8  O   UNL     1     172.767 191.935 183.326  1.00  0.00    -0.550 OA
ATOM      9  O   UNL     1     171.484 190.047 183.133  1.00  0.00    -0.550 OA
ENDBRANCH   6   7
ENDBRANCH   5   6
ENDBRANCH   4   5
ENDBRANCH   3   4
ENDBRANCH   2   3
ENDBRANCH   1   2
BRANCH   1  10
ATOM     10  C   UNL     1     172.412 194.461 186.393  1.00  0.00     0.000 C 
BRANCH  10  11
ATOM     11  C   UNL     1     171.903 194.893 185.007  1.00  0.00    -0.000 C 
BRANCH  11  12
ATOM     12  C   UNL     1     170.370 195.029 184.957  1.00  0.00    -0.000 C 
BRANCH  12  13
ATOM     13  C   UNL     1     169.694 193.837 184.260  1.00  0.00    -0.000 C 
BRANCH  13  14
ATOM     14  C   UNL     1     168.365 193.437 184.924  1.00  0.00    -0.000 C 
BRANCH  14  15
ATOM     15  C   UNL     1     168.012 194.335 186.120  1.00  0.00    -0.003 C 
ATOM     16  C   UNL     1     167.394 193.558 187.283  1.00  0.00     0.004 C 
ENDBRANCH  14  15
ENDBRANCH  13  14
ENDBRANCH  12  13
ENDBRANCH  11  12
ENDBRANCH  10  11
ENDBRANCH   1  10
TORSDOF 12
ENDMDL
