MODEL 1
REMARK VINA RESULT:    -3.098      0.000      0.000
REMARK INTER + INTRA:          -3.443
REMARK INTER:                  -3.370
REMARK INTRA:                  -0.073
REMARK UNBOUND:                -0.073
REMARK SMILES CCc1cccc(O)c1
REMARK SMILES IDX 3 1 9 2 7 3 6 4 5 5 4 6 2 7 1 8 8 9
REMARK H PARENT 8 10
REMARK Flexibility Score: inf
ROOT
ATOM      1  C   UNL     1     -19.060   4.879  -2.875  1.00  0.00    -0.045 A 
ATOM      2  C   UNL     1     -17.786   5.471  -2.900  1.00  0.00     0.049 A 
ATOM      3  C   UNL     1     -17.655   6.866  -2.903  1.00  0.00     0.115 A 
ATOM      4  C   UNL     1     -18.798   7.672  -2.889  1.00  0.00     0.046 A 
ATOM      5  C   UNL     1     -20.067   7.090  -2.879  1.00  0.00     0.004 A 
ATOM      6  C   UNL     1     -20.200   5.698  -2.876  1.00  0.00     0.004 A 
ENDROOT
BRANCH   1   7
ATOM      7  C   UNL     1     -19.202   3.381  -2.906  1.00  0.00     0.032 C 
ATOM      8  C   UNL     1     -20.495   2.974  -3.604  1.00  0.00     0.009 C 
ENDBRANCH   1   7
BRANCH   3   9
ATOM      9  O   UNL     1     -16.395   7.461  -2.921  1.00  0.00    -0.508 OA
ATOM     10  H   UNL     1     -16.281   8.458  -3.062  1.00  0.00     0.293 HD
ENDBRANCH   3   9
TORSDOF 2
ENDMDL
MODEL 2
REMARK VINA RESULT:    -3.022      2.426      4.229
REMARK INTER + INTRA:          -3.361
REMARK INTER:                  -3.285
REMARK INTRA:                  -0.075
REMARK UNBOUND:                -0.073
REMARK SMILES CCc1cccc(O)c1
REMARK SMILES IDX 3 1 9 2 7 3 6 4 5 5 4 6 2 7 1 8 8 9
REMARK H PARENT 8 10
REMARK Flexibility Score: inf
ROOT
ATOM      1  C   UNL     1     -18.920   5.670  -2.886  1.00  0.00    -0.045 A 
ATOM      2  C   UNL     1     -20.299   5.397  -2.889  1.00  0.00     0.049 A 
ATOM      3  C   UNL     1     -20.758   4.073  -2.931  1.00  0.00     0.115 A 
ATOM      4  C   UNL     1     -19.839   3.020  -2.977  1.00  0.00     0.046 A 
ATOM      5  C   UNL     1     -18.468   3.285  -2.988  1.00  0.00     0.004 A 
ATOM      6  C   UNL     1     -18.008   4.604  -2.947  1.00  0.00     0.004 A 
ENDROOT
BRANCH   1   7
ATOM      7  C   UNL     1     -18.428   7.092  -2.875  1.00  0.00     0.032 C 
ATOM      8  C   UNL     1     -16.947   7.154  -3.235  1.00  0.00     0.009 C 
ENDBRANCH   1   7
BRANCH   3   9
ATOM      9  O   UNL     1     -22.123   3.795  -2.928  1.00  0.00    -0.508 OA
ATOM     10  H   UNL     1     -22.498   2.986  -2.446  1.00  0.00     0.293 HD
ENDBRANCH   3   9
TORSDOF 2
ENDMDL
MODEL 3
REMARK VINA RESULT:    -2.605      1.821      3.586
REMARK INTER + INTRA:          -2.907
REMARK INTER:                  -2.856
REMARK INTRA:                  -0.051
REMARK UNBOUND:                -0.073
REMARK SMILES CCc1cccc(O)c1
REMARK SMILES IDX 3 1 9 2 7 3 6 4 5 5 4 6 2 7 1 8 8 9
REMARK H PARENT 8 10
REMARK Flexibility Score: inf
ROOT
ATOM      1  C   UNL     1     -19.604   6.177  -3.049  1.00  0.00    -0.045 A 
ATOM      2  C   UNL     1     -18.587   5.207  -3.051  1.00  0.00     0.049 A 
ATOM      3  C   UNL     1     -18.912   3.843  -3.055  1.00  0.00     0.115 A 
ATOM      4  C   UNL     1     -20.253   3.448  -3.048  1.00  0.00     0.046 A 
ATOM      5  C   UNL     1     -21.268   4.408  -3.031  1.00  0.00     0.004 A 
ATOM      6  C   UNL     1     -20.946   5.768  -3.027  1.00  0.00     0.004 A 
ENDROOT
BRANCH   1   7
ATOM      7  C   UNL     1     -19.255   7.641  -3.011  1.00  0.00     0.032 C 
ATOM      8  C   UNL     1     -17.743   7.838  -3.072  1.00  0.00     0.009 C 
ENDBRANCH   1   7
BRANCH   3   9
ATOM      9  O   UNL     1     -17.910   2.875  -3.064  1.00  0.00    -0.508 OA
ATOM     10  H   UNL     1     -17.795   2.224  -2.296  1.00  0.00     0.293 HD
ENDBRANCH   3   9
TORSDOF 2
ENDMDL
MODEL 4
REMARK VINA RESULT:    -2.367      1.052      2.153
REMARK INTER + INTRA:          -2.648
REMARK INTER:                  -2.576
REMARK INTRA:                  -0.071
REMARK UNBOUND:                -0.073
REMARK SMILES CCc1cccc(O)c1
REMARK SMILES IDX 3 1 9 2 7 3 6 4 5 5 4 6 2 7 1 8 8 9
REMARK H PARENT 8 10
REMARK Flexibility Score: inf
ROOT
ATOM      1  C   UNL     1     -20.110   5.419  -2.920  1.00  0.00    -0.045 A 
ATOM      2  C   UNL     1     -19.505   6.687  -2.890  1.00  0.00     0.049 A 
ATOM      3  C   UNL     1     -18.108   6.804  -2.900  1.00  0.00     0.115 A 
ATOM      4  C   UNL     1     -17.314   5.653  -2.931  1.00  0.00     0.046 A 
ATOM      5  C   UNL     1     -17.910   4.390  -2.947  1.00  0.00     0.004 A 
ATOM      6  C   UNL     1     -19.302   4.271  -2.937  1.00  0.00     0.004 A 
ENDROOT
BRANCH   1   7
ATOM      7  C   UNL     1     -21.609   5.293  -2.876  1.00  0.00     0.032 C 
ATOM      8  C   UNL     1     -22.066   4.025  -3.590  1.00  0.00     0.009 C 
ENDBRANCH   1   7
BRANCH   3   9
ATOM      9  O   UNL     1     -17.500   8.057  -2.877  1.00  0.00    -0.508 OA
ATOM     10  H   UNL     1     -16.495   8.158  -2.807  1.00  0.00     0.293 HD
ENDBRANCH   3   9
TORSDOF 2
ENDMDL
MODEL 5
REMARK VINA RESULT:    -0.558     21.895     22.502
REMARK INTER + INTRA:          -0.680
REMARK INTER:                  -0.613
REMARK INTRA:                  -0.067
REMARK UNBOUND:                -0.073
REMARK SMILES CCc1cccc(O)c1
REMARK SMILES IDX 3 1 9 2 7 3 6 4 5 5 4 6 2 7 1 8 8 9
REMARK H PARENT 8 10
REMARK Flexibility Score: inf
ROOT
ATOM      1  C   UNL     1      -8.341   4.914 -22.503  1.00  0.00    -0.045 A 
ATOM      2  C   UNL     1      -7.153   4.480 -23.115  1.00  0.00     0.049 A 
ATOM      3  C   UNL     1      -6.377   3.476 -22.520  1.00  0.00     0.115 A 
ATOM      4  C   UNL     1      -6.782   2.910 -21.307  1.00  0.00     0.046 A 
ATOM      5  C   UNL     1      -7.955   3.348 -20.686  1.00  0.00     0.004 A 
ATOM      6  C   UNL     1      -8.730   4.349 -21.278  1.00  0.00     0.004 A 
ENDROOT
BRANCH   1   7
ATOM      7  C   UNL     1      -9.156   6.015 -23.125  1.00  0.00     0.032 C 
ATOM      8  C   UNL     1     -10.641   5.664 -23.107  1.00  0.00     0.009 C 
ENDBRANCH   1   7
BRANCH   3   9
ATOM      9  O   UNL     1      -5.201   3.035 -23.125  1.00  0.00    -0.508 OA
ATOM     10  H   UNL     1      -4.343   2.927 -22.598  1.00  0.00     0.293 HD
ENDBRANCH   3   9
TORSDOF 2
ENDMDL
