MODEL 1
REMARK VINA RESULT:    -4.308      0.000      0.000
REMARK INTER + INTRA:          -5.937
REMARK INTER:                  -6.071
REMARK INTRA:                   0.134
REMARK UNBOUND:                 0.134
REMARK SMILES CC1=CCC(=C(C)C)C(=O)CC(C)=CCC1
REMARK SMILES IDX 12 1 14 2 13 3 15 4 16 5 2 6 1 7 3 8 11 10 9 11 10 12 5 13
REMARK SMILES IDX 6 14 7 15 8 16 4 17
REMARK H PARENT
REMARK Flexibility Score: 60.00
ROOT
ATOM      1  C   UNL     1      -8.202  74.236  21.194  1.00  0.00    -0.070 C 
ATOM      2  C   UNL     1      -7.040  73.655  20.822  1.00  0.00    -0.027 C 
ATOM      3  C   UNL     1      -9.251  74.460  20.134  1.00  0.00     0.039 C 
ENDROOT
BRANCH   2   4
ATOM      4  C   UNL     1      -5.912  73.262  21.750  1.00  0.00     0.032 C 
BRANCH   4   5
ATOM      5  C   UNL     1      -6.063  71.870  22.399  1.00  0.00     0.034 C 
BRANCH   5   6
ATOM      6  C   UNL     1      -5.791  71.874  23.893  1.00  0.00    -0.077 C 
ATOM      7  C   UNL     1      -4.361  72.035  24.343  1.00  0.00     0.039 C 
ATOM      8  C   UNL     1      -6.753  71.813  24.845  1.00  0.00    -0.023 CG0
ATOM      9  G   UNL     1      -8.243  71.633  24.630  1.00  0.00     0.000 G0
ENDBRANCH   5   6
ENDBRANCH   4   5
ENDBRANCH   2   4
BRANCH   1  10
ATOM     10  C   UNL     1      -8.535  74.583  22.631  1.00  0.00     0.111 C 
BRANCH  10  11
ATOM     11  C   UNL     1      -9.357  73.504  23.286  1.00  0.00     0.163 C 
ATOM     12  O   UNL     1     -10.340  73.037  22.651  1.00  0.00    -0.294 OA
BRANCH  11  13
ATOM     13  C   UNL     1      -9.010  72.931  24.622  1.00  0.00    -0.002 C 
ATOM     14  C   UNL     1      -9.444  73.529  25.772  1.00  0.00    -0.069 C 
ATOM     15  C   UNL     1      -9.244  72.891  27.129  1.00  0.00     0.039 C 
ATOM     16  C   UNL     1     -10.151  74.866  25.743  1.00  0.00     0.039 C 
BRANCH  13  17
ATOM     17  C   UNL     1      -8.243  71.619  24.638  1.00  0.00     0.066 CG0
ATOM     18  G   UNL     1      -6.754  71.823  24.828  1.00  0.00     0.000 G0
ENDBRANCH  13  17
ENDBRANCH  11  13
ENDBRANCH  10  11
ENDBRANCH   1  10
TORSDOF 0
ENDMDL
MODEL 2
REMARK VINA RESULT:    -3.871      2.002      4.769
REMARK INTER + INTRA:          -5.321
REMARK INTER:                  -5.475
REMARK INTRA:                   0.155
REMARK UNBOUND:                 0.134
REMARK SMILES CC1=CCC(=C(C)C)C(=O)CC(C)=CCC1
REMARK SMILES IDX 12 1 14 2 13 3 15 4 16 5 2 6 1 7 3 8 11 10 9 11 10 12 5 13
REMARK SMILES IDX 6 14 7 15 8 16 4 17
REMARK H PARENT
REMARK Flexibility Score: 60.00
ROOT
ATOM      1  C   UNL     1      -9.126  72.854  24.936  1.00  0.00    -0.070 C 
ATOM      2  C   UNL     1      -9.478  73.986  24.287  1.00  0.00    -0.027 C 
ATOM      3  C   UNL     1      -9.479  72.739  26.398  1.00  0.00     0.039 C 
ENDROOT
BRANCH   2   4
ATOM      4  C   UNL     1      -9.299  74.248  22.808  1.00  0.00     0.032 C 
BRANCH   4   5
ATOM      5  C   UNL     1      -7.864  74.626  22.385  1.00  0.00     0.034 C 
BRANCH   5   6
ATOM      6  C   UNL     1      -7.348  73.800  21.220  1.00  0.00    -0.077 C 
ATOM      7  C   UNL     1      -8.003  73.999  19.877  1.00  0.00     0.039 C 
ATOM      8  C   UNL     1      -6.295  72.950  21.293  1.00  0.00    -0.023 CG0
ATOM      9  G   UNL     1      -5.501  72.581  22.530  1.00  0.00     0.000 G0
ENDBRANCH   5   6
ENDBRANCH   4   5
ENDBRANCH   2   4
BRANCH   1  10
ATOM     10  C   UNL     1      -8.485  71.666  24.248  1.00  0.00     0.111 C 
BRANCH  10  11
ATOM     11  C   UNL     1      -6.988  71.672  24.411  1.00  0.00     0.163 C 
ATOM     12  O   UNL     1      -6.516  71.882  25.561  1.00  0.00    -0.294 OA
BRANCH  11  13
ATOM     13  C   UNL     1      -6.057  71.378  23.281  1.00  0.00    -0.002 C 
ATOM     14  C   UNL     1      -5.811  70.090  22.895  1.00  0.00    -0.069 C 
ATOM     15  C   UNL     1      -5.001  69.765  21.659  1.00  0.00     0.039 C 
ATOM     16  C   UNL     1      -6.344  68.918  23.690  1.00  0.00     0.039 C 
BRANCH  13  17
ATOM     17  C   UNL     1      -5.478  72.566  22.529  1.00  0.00     0.066 CG0
ATOM     18  G   UNL     1      -6.303  72.936  21.313  1.00  0.00     0.000 G0
ENDBRANCH  13  17
ENDBRANCH  11  13
ENDBRANCH  10  11
ENDBRANCH   1  10
TORSDOF 0
ENDMDL
MODEL 3
REMARK VINA RESULT:    -3.417     10.622     13.959
REMARK INTER + INTRA:          -4.681
REMARK INTER:                  -4.899
REMARK INTRA:                   0.218
REMARK UNBOUND:                 0.134
REMARK SMILES CC1=CCC(=C(C)C)C(=O)CC(C)=CCC1
REMARK SMILES IDX 12 1 14 2 13 3 15 4 16 5 2 6 1 7 3 8 11 10 9 11 10 12 5 13
REMARK SMILES IDX 6 14 7 15 8 16 4 17
REMARK H PARENT
REMARK Flexibility Score: 60.00
ROOT
ATOM      1  C   UNL     1     -11.534  71.121  38.997  1.00  0.00    -0.070 C 
ATOM      2  C   UNL     1     -10.785  70.116  39.503  1.00  0.00    -0.027 C 
ATOM      3  C   UNL     1     -11.993  72.205  39.941  1.00  0.00     0.039 C 
ENDROOT
BRANCH   2   4
ATOM      4  C   UNL     1     -10.153  68.998  38.705  1.00  0.00     0.032 C 
BRANCH   4   5
ATOM      5  C   UNL     1      -8.870  69.390  37.943  1.00  0.00     0.034 C 
BRANCH   5   6
ATOM      6  C   UNL     1      -8.923  69.043  36.465  1.00  0.00    -0.077 C 
ATOM      7  C   UNL     1      -8.979  67.583  36.091  1.00  0.00     0.039 C 
ATOM      8  C   UNL     1      -8.993  69.957  35.467  1.00  0.00    -0.023 CG0
ATOM      9  G   UNL     1      -8.935  71.465  35.603  1.00  0.00     0.000 G0
ENDBRANCH   5   6
ENDBRANCH   4   5
ENDBRANCH   2   4
BRANCH   1  10
ATOM     10  C   UNL     1     -11.852  71.259  37.522  1.00  0.00     0.111 C 
BRANCH  10  11
ATOM     11  C   UNL     1     -11.011  72.326  36.871  1.00  0.00     0.163 C 
ATOM     12  O   UNL     1     -10.851  73.414  37.486  1.00  0.00    -0.294 OA
BRANCH  11  13
ATOM     13  C   UNL     1     -10.317  72.113  35.565  1.00  0.00    -0.002 C 
ATOM     14  C   UNL     1     -10.872  72.559  34.399  1.00  0.00    -0.069 C 
ATOM     15  C   UNL     1     -10.125  72.501  33.084  1.00  0.00     0.039 C 
ATOM     16  C   UNL     1     -12.269  73.137  34.365  1.00  0.00     0.039 C 
BRANCH  13  17
ATOM     17  C   UNL     1      -8.939  71.473  35.607  1.00  0.00     0.066 CG0
ATOM     18  G   UNL     1      -8.998  69.967  35.451  1.00  0.00     0.000 G0
ENDBRANCH  13  17
ENDBRANCH  11  13
ENDBRANCH  10  11
ENDBRANCH   1  10
TORSDOF 0
ENDMDL
MODEL 4
REMARK VINA RESULT:    -3.266      2.055      4.347
REMARK INTER + INTRA:          -4.469
REMARK INTER:                  -4.939
REMARK INTRA:                   0.470
REMARK UNBOUND:                 0.134
REMARK SMILES CC1=CCC(=C(C)C)C(=O)CC(C)=CCC1
REMARK SMILES IDX 12 1 14 2 13 3 15 4 16 5 2 6 1 7 3 8 11 10 9 11 10 12 5 13
REMARK SMILES IDX 6 14 7 15 8 16 4 17
REMARK H PARENT
REMARK Flexibility Score: 60.00
ROOT
ATOM      1  C   UNL     1      -6.779  73.208  21.251  1.00  0.00    -0.070 C 
ATOM      2  C   UNL     1      -8.101  73.413  21.443  1.00  0.00    -0.027 C 
ATOM      3  C   UNL     1      -6.329  72.731  19.892  1.00  0.00     0.039 C 
ENDROOT
BRANCH   2   4
ATOM      4  C   UNL     1      -8.733  73.979  22.695  1.00  0.00     0.032 C 
BRANCH   4   5
ATOM      5  C   UNL     1      -9.409  72.934  23.608  1.00  0.00     0.034 C 
BRANCH   5   6
ATOM      6  C   UNL     1      -8.501  72.432  24.716  1.00  0.00    -0.077 C 
ATOM      7  C   UNL     1      -8.641  73.066  26.077  1.00  0.00     0.039 C 
ATOM      8  C   UNL     1      -7.624  71.408  24.580  1.00  0.00    -0.023 CG0
ATOM      9  G   UNL     1      -7.304  70.640  23.314  1.00  0.00     0.000 G0
ENDBRANCH   5   6
ENDBRANCH   4   5
ENDBRANCH   2   4
BRANCH   1  10
ATOM     10  C   UNL     1      -5.728  73.520  22.296  1.00  0.00     0.111 C 
BRANCH  10  11
ATOM     11  C   UNL     1      -5.340  72.293  23.077  1.00  0.00     0.163 C 
ATOM     12  O   UNL     1      -4.554  72.434  24.053  1.00  0.00    -0.294 OA
BRANCH  11  13
ATOM     13  C   UNL     1      -5.899  70.941  22.777  1.00  0.00    -0.002 C 
ATOM     14  C   UNL     1      -5.148  70.004  22.122  1.00  0.00    -0.069 C 
ATOM     15  C   UNL     1      -5.625  68.579  21.943  1.00  0.00     0.039 C 
ATOM     16  C   UNL     1      -3.794  70.349  21.543  1.00  0.00     0.039 C 
BRANCH  13  17
ATOM     17  C   UNL     1      -7.287  70.628  23.310  1.00  0.00     0.066 CG0
ATOM     18  G   UNL     1      -7.599  71.386  24.585  1.00  0.00     0.000 G0
ENDBRANCH  13  17
ENDBRANCH  11  13
ENDBRANCH  10  11
ENDBRANCH   1  10
TORSDOF 0
ENDMDL
MODEL 5
REMARK VINA RESULT:    -3.226      6.729      8.913
REMARK INTER + INTRA:          -4.412
REMARK INTER:                  -4.669
REMARK INTRA:                   0.257
REMARK UNBOUND:                 0.134
REMARK SMILES CC1=CCC(=C(C)C)C(=O)CC(C)=CCC1
REMARK SMILES IDX 12 1 14 2 13 3 15 4 16 5 2 6 1 7 3 8 11 10 9 11 10 12 5 13
REMARK SMILES IDX 6 14 7 15 8 16 4 17
REMARK H PARENT
REMARK Flexibility Score: 60.00
ROOT
ATOM      1  C   UNL     1      -3.867  69.089  27.884  1.00  0.00    -0.070 C 
ATOM      2  C   UNL     1      -4.200  69.350  29.168  1.00  0.00    -0.027 C 
ATOM      3  C   UNL     1      -4.603  69.834  26.798  1.00  0.00     0.039 C 
ENDROOT
BRANCH   2   4
ATOM      4  C   UNL     1      -3.515  68.781  30.390  1.00  0.00     0.032 C 
BRANCH   4   5
ATOM      5  C   UNL     1      -3.747  67.274  30.621  1.00  0.00     0.034 C 
BRANCH   5   6
ATOM      6  C   UNL     1      -5.152  66.823  30.261  1.00  0.00    -0.077 C 
ATOM      7  C   UNL     1      -6.282  67.283  31.145  1.00  0.00     0.039 C 
ATOM      8  C   UNL     1      -5.462  66.095  29.161  1.00  0.00    -0.023 CG0
ATOM      9  G   UNL     1      -4.498  65.512  28.147  1.00  0.00     0.000 G0
ENDBRANCH   5   6
ENDBRANCH   4   5
ENDBRANCH   2   4
BRANCH   1  10
ATOM     10  C   UNL     1      -2.736  68.162  27.491  1.00  0.00     0.111 C 
BRANCH  10  11
ATOM     11  C   UNL     1      -3.210  67.065  26.574  1.00  0.00     0.163 C 
ATOM     12  O   UNL     1      -2.501  66.780  25.572  1.00  0.00    -0.294 OA
BRANCH  11  13
ATOM     13  C   UNL     1      -4.446  66.271  26.846  1.00  0.00    -0.002 C 
ATOM     14  C   UNL     1      -5.443  66.189  25.915  1.00  0.00    -0.069 C 
ATOM     15  C   UNL     1      -6.632  65.271  26.093  1.00  0.00     0.039 C 
ATOM     16  C   UNL     1      -5.405  67.019  24.650  1.00  0.00     0.039 C 
BRANCH  13  17
ATOM     17  C   UNL     1      -4.499  65.491  28.150  1.00  0.00     0.066 CG0
ATOM     18  G   UNL     1      -5.468  66.098  29.145  1.00  0.00     0.000 G0
ENDBRANCH  13  17
ENDBRANCH  11  13
ENDBRANCH  10  11
ENDBRANCH   1  10
TORSDOF 0
ENDMDL
MODEL 6
REMARK VINA RESULT:    -3.189      1.995      3.713
REMARK INTER + INTRA:          -4.360
REMARK INTER:                  -4.825
REMARK INTRA:                   0.464
REMARK UNBOUND:                 0.134
REMARK SMILES CC1=CCC(=C(C)C)C(=O)CC(C)=CCC1
REMARK SMILES IDX 12 1 14 2 13 3 15 4 16 5 2 6 1 7 3 8 11 10 9 11 10 12 5 13
REMARK SMILES IDX 6 14 7 15 8 16 4 17
REMARK H PARENT
REMARK Flexibility Score: 60.00
ROOT
ATOM      1  C   UNL     1      -4.049  71.889  21.834  1.00  0.00    -0.070 C 
ATOM      2  C   UNL     1      -3.704  71.179  22.930  1.00  0.00    -0.027 C 
ATOM      3  C   UNL     1      -3.601  71.375  20.488  1.00  0.00     0.039 C 
ENDROOT
BRANCH   2   4
ATOM      4  C   UNL     1      -4.138  71.477  24.348  1.00  0.00     0.032 C 
BRANCH   4   5
ATOM      5  C   UNL     1      -5.057  70.411  24.982  1.00  0.00     0.034 C 
BRANCH   5   6
ATOM      6  C   UNL     1      -6.135  69.913  24.037  1.00  0.00    -0.077 C 
ATOM      7  C   UNL     1      -6.093  68.462  23.631  1.00  0.00     0.039 C 
ATOM      8  C   UNL     1      -7.169  70.668  23.591  1.00  0.00    -0.023 CG0
ATOM      9  G   UNL     1      -7.404  72.142  23.851  1.00  0.00     0.000 G0
ENDBRANCH   5   6
ENDBRANCH   4   5
ENDBRANCH   2   4
BRANCH   1  10
ATOM     10  C   UNL     1      -4.937  73.116  21.884  1.00  0.00     0.111 C 
BRANCH  10  11
ATOM     11  C   UNL     1      -6.370  72.777  21.567  1.00  0.00     0.163 C 
ATOM     12  O   UNL     1      -6.624  72.261  20.445  1.00  0.00    -0.294 OA
BRANCH  11  13
ATOM     13  C   UNL     1      -7.477  72.972  22.550  1.00  0.00    -0.002 C 
ATOM     14  C   UNL     1      -8.537  73.783  22.258  1.00  0.00    -0.069 C 
ATOM     15  C   UNL     1      -9.746  73.879  23.163  1.00  0.00     0.039 C 
ATOM     16  C   UNL     1      -8.554  74.631  21.004  1.00  0.00     0.039 C 
BRANCH  13  17
ATOM     17  C   UNL     1      -7.416  72.162  23.835  1.00  0.00     0.066 CG0
ATOM     18  G   UNL     1      -7.164  70.690  23.577  1.00  0.00     0.000 G0
ENDBRANCH  13  17
ENDBRANCH  11  13
ENDBRANCH  10  11
ENDBRANCH   1  10
TORSDOF 0
ENDMDL
MODEL 7
REMARK VINA RESULT:    -3.120      4.636      6.377
REMARK INTER + INTRA:          -4.263
REMARK INTER:                  -4.549
REMARK INTRA:                   0.286
REMARK UNBOUND:                 0.134
REMARK SMILES CC1=CCC(=C(C)C)C(=O)CC(C)=CCC1
REMARK SMILES IDX 12 1 14 2 13 3 15 4 16 5 2 6 1 7 3 8 11 10 9 11 10 12 5 13
REMARK SMILES IDX 6 14 7 15 8 16 4 17
REMARK H PARENT
REMARK Flexibility Score: 60.00
ROOT
ATOM      1  C   UNL     1      -6.932  66.130  23.243  1.00  0.00    -0.070 C 
ATOM      2  C   UNL     1      -6.370  65.362  24.203  1.00  0.00    -0.027 C 
ATOM      3  C   UNL     1      -7.448  65.444  22.002  1.00  0.00     0.039 C 
ENDROOT
BRANCH   2   4
ATOM      4  C   UNL     1      -5.885  65.848  25.551  1.00  0.00     0.032 C 
BRANCH   4   5
ATOM      5  C   UNL     1      -4.424  66.344  25.574  1.00  0.00     0.034 C 
BRANCH   5   6
ATOM      6  C   UNL     1      -4.253  67.663  26.307  1.00  0.00    -0.077 C 
ATOM      7  C   UNL     1      -4.287  67.635  27.814  1.00  0.00     0.039 C 
ATOM      8  C   UNL     1      -4.002  68.848  25.699  1.00  0.00    -0.023 CG0
ATOM      9  G   UNL     1      -3.942  69.117  24.209  1.00  0.00     0.000 G0
ENDBRANCH   5   6
ENDBRANCH   4   5
ENDBRANCH   2   4
BRANCH   1  10
ATOM     10  C   UNL     1      -7.151  67.621  23.394  1.00  0.00     0.111 C 
BRANCH  10  11
ATOM     11  C   UNL     1      -5.994  68.411  22.841  1.00  0.00     0.163 C 
ATOM     12  O   UNL     1      -5.640  68.193  21.652  1.00  0.00    -0.294 OA
BRANCH  11  13
ATOM     13  C   UNL     1      -5.303  69.477  23.627  1.00  0.00    -0.002 C 
ATOM     14  C   UNL     1      -5.919  70.671  23.878  1.00  0.00    -0.069 C 
ATOM     15  C   UNL     1      -5.312  71.707  24.799  1.00  0.00     0.039 C 
ATOM     16  C   UNL     1      -7.249  71.016  23.244  1.00  0.00     0.039 C 
BRANCH  13  17
ATOM     17  C   UNL     1      -3.938  69.139  24.206  1.00  0.00     0.066 CG0
ATOM     18  G   UNL     1      -3.998  68.858  25.694  1.00  0.00     0.000 G0
ENDBRANCH  13  17
ENDBRANCH  11  13
ENDBRANCH  10  11
ENDBRANCH   1  10
TORSDOF 0
ENDMDL
MODEL 8
REMARK VINA RESULT:    -3.016      2.295      4.343
REMARK INTER + INTRA:          -4.116
REMARK INTER:                  -4.305
REMARK INTRA:                   0.189
REMARK UNBOUND:                 0.134
REMARK SMILES CC1=CCC(=C(C)C)C(=O)CC(C)=CCC1
REMARK SMILES IDX 12 1 14 2 13 3 15 4 16 5 2 6 1 7 3 8 11 10 9 11 10 12 5 13
REMARK SMILES IDX 6 14 7 15 8 16 4 17
REMARK H PARENT
REMARK Flexibility Score: 60.00
ROOT
ATOM      1  C   UNL     1      -8.392  72.718  23.776  1.00  0.00    -0.070 C 
ATOM      2  C   UNL     1      -8.375  73.429  22.627  1.00  0.00    -0.027 C 
ATOM      3  C   UNL     1      -9.734  72.341  24.354  1.00  0.00     0.039 C 
ENDROOT
BRANCH   2   4
ATOM      4  C   UNL     1      -7.138  73.816  21.847  1.00  0.00     0.032 C 
BRANCH   4   5
ATOM      5  C   UNL     1      -6.532  72.685  20.989  1.00  0.00     0.034 C 
BRANCH   5   6
ATOM      6  C   UNL     1      -5.022  72.588  21.109  1.00  0.00    -0.077 C 
ATOM      7  C   UNL     1      -4.204  73.752  20.610  1.00  0.00     0.039 C 
ATOM      8  C   UNL     1      -4.366  71.557  21.696  1.00  0.00    -0.023 CG0
ATOM      9  G   UNL     1      -4.973  70.283  22.248  1.00  0.00     0.000 G0
ENDBRANCH   5   6
ENDBRANCH   4   5
ENDBRANCH   2   4
BRANCH   1  10
ATOM     10  C   UNL     1      -7.139  72.205  24.455  1.00  0.00     0.111 C 
BRANCH  10  11
ATOM     11  C   UNL     1      -6.786  70.815  23.994  1.00  0.00     0.163 C 
ATOM     12  O   UNL     1      -7.726  70.001  23.791  1.00  0.00    -0.294 OA
BRANCH  11  13
ATOM     13  C   UNL     1      -5.381  70.396  23.713  1.00  0.00    -0.002 C 
ATOM     14  C   UNL     1      -4.538  70.048  24.731  1.00  0.00    -0.069 C 
ATOM     15  C   UNL     1      -3.164  69.471  24.471  1.00  0.00     0.039 C 
ATOM     16  C   UNL     1      -4.942  70.224  26.178  1.00  0.00     0.039 C 
BRANCH  13  17
ATOM     17  C   UNL     1      -4.968  70.284  22.254  1.00  0.00     0.066 CG0
ATOM     18  G   UNL     1      -4.365  71.570  21.725  1.00  0.00     0.000 G0
ENDBRANCH  13  17
ENDBRANCH  11  13
ENDBRANCH  10  11
ENDBRANCH   1  10
TORSDOF 0
ENDMDL
MODEL 9
REMARK VINA RESULT:    -2.899      4.644      6.445
REMARK INTER + INTRA:          -3.951
REMARK INTER:                  -4.161
REMARK INTRA:                   0.210
REMARK UNBOUND:                 0.134
REMARK SMILES CC1=CCC(=C(C)C)C(=O)CC(C)=CCC1
REMARK SMILES IDX 12 1 14 2 13 3 15 4 16 5 2 6 1 7 3 8 11 10 9 11 10 12 5 13
REMARK SMILES IDX 6 14 7 15 8 16 4 17
REMARK H PARENT
REMARK Flexibility Score: 60.00
ROOT
ATOM      1  C   UNL     1      -5.268  70.150  23.883  1.00  0.00    -0.070 C 
ATOM      2  C   UNL     1      -4.953  70.898  24.964  1.00  0.00    -0.027 C 
ATOM      3  C   UNL     1      -6.710  70.118  23.442  1.00  0.00     0.039 C 
ENDROOT
BRANCH   2   4
ATOM      4  C   UNL     1      -3.558  71.133  25.498  1.00  0.00     0.032 C 
BRANCH   4   5
ATOM      5  C   UNL     1      -2.912  69.911  26.186  1.00  0.00     0.034 C 
BRANCH   5   6
ATOM      6  C   UNL     1      -3.902  69.086  26.989  1.00  0.00    -0.077 C 
ATOM      7  C   UNL     1      -4.448  69.688  28.258  1.00  0.00     0.039 C 
ATOM      8  C   UNL     1      -4.377  67.876  26.605  1.00  0.00    -0.023 CG0
ATOM      9  G   UNL     1      -3.962  67.074  25.387  1.00  0.00     0.000 G0
ENDBRANCH   5   6
ENDBRANCH   4   5
ENDBRANCH   2   4
BRANCH   1  10
ATOM     10  C   UNL     1      -4.236  69.424  23.045  1.00  0.00     0.111 C 
BRANCH  10  11
ATOM     11  C   UNL     1      -4.491  67.940  23.012  1.00  0.00     0.163 C 
ATOM     12  O   UNL     1      -4.267  67.323  21.936  1.00  0.00    -0.294 OA
BRANCH  11  13
ATOM     13  C   UNL     1      -4.936  67.176  24.215  1.00  0.00    -0.002 C 
ATOM     14  C   UNL     1      -6.143  66.536  24.230  1.00  0.00    -0.069 C 
ATOM     15  C   UNL     1      -6.554  65.626  25.368  1.00  0.00     0.039 C 
ATOM     16  C   UNL     1      -7.135  66.707  23.101  1.00  0.00     0.039 C 
BRANCH  13  17
ATOM     17  C   UNL     1      -3.953  67.065  25.370  1.00  0.00     0.066 CG0
ATOM     18  G   UNL     1      -4.386  67.876  26.575  1.00  0.00     0.000 G0
ENDBRANCH  13  17
ENDBRANCH  11  13
ENDBRANCH  10  11
ENDBRANCH   1  10
TORSDOF 0
ENDMDL
