MODEL 1
REMARK VINA RESULT:    -3.049      0.000      0.000
REMARK INTER + INTRA:          -4.641
REMARK INTER:                  -4.654
REMARK INTRA:                   0.013
REMARK UNBOUND:                 0.013
REMARK SMILES CC1=CCC[C@H](C)C(=O)C[C@H](C(C)C)C(=O)C1
REMARK SMILES IDX 8 1 9 2 6 3 7 4 5 5 4 6 3 7 2 8 1 9 10 11 11 12 15 13 16 14
REMARK SMILES IDX 17 15 12 17 13 18 14 19
REMARK H PARENT
REMARK Flexibility Score: 70.00
ROOT
ATOM      1  C   UNL     1      -4.588 -15.824  -5.405  1.00  0.00     0.136 C 
ATOM      2  O   UNL     1      -4.634 -17.023  -5.167  1.00  0.00    -0.299 OA
ENDROOT
BRANCH   1   3
ATOM      3  C   UNL     1      -3.386 -15.015  -4.965  1.00  0.00     0.053 C 
ATOM      4  C   UNL     1      -3.219 -15.135  -3.448  1.00  0.00     0.016 C 
BRANCH   3   5
ATOM      5  C   UNL     1      -2.087 -15.454  -5.682  1.00  0.00     0.015 C 
BRANCH   5   6
ATOM      6  C   UNL     1      -2.140 -15.313  -7.210  1.00  0.00     0.028 C 
BRANCH   6   7
ATOM      7  C   UNL     1      -2.087 -13.865  -7.631  1.00  0.00    -0.028 C 
ATOM      8  C   UNL     1      -2.955 -13.271  -8.481  1.00  0.00    -0.070 CG0
ATOM      9  C   UNL     1      -2.752 -11.811  -8.798  1.00  0.00     0.039 C 
ATOM     10  G   UNL     1      -4.108 -14.013  -9.132  1.00  0.00     0.000 G0
ENDBRANCH   6   7
ENDBRANCH   5   6
ENDBRANCH   3   5
ENDBRANCH   1   3
BRANCH   1  11
ATOM     11  C   UNL     1      -5.764 -15.162  -6.081  1.00  0.00     0.087 C 
BRANCH  11  12
ATOM     12  C   UNL     1      -5.413 -13.823  -6.784  1.00  0.00     0.066 C 
BRANCH  12  13
ATOM     13  C   UNL     1      -5.393 -14.009  -8.299  1.00  0.00     0.140 C 
ATOM     14  O   UNL     1      -6.458 -14.078  -8.896  1.00  0.00    -0.299 OA
BRANCH  13  15
ATOM     15  C   UNL     1      -4.117 -14.015  -9.118  1.00  0.00     0.106 CG0
ATOM     16  G   UNL     1      -2.956 -13.279  -8.474  1.00  0.00     0.000 G0
ENDBRANCH  13  15
ENDBRANCH  12  13
BRANCH  12  17
ATOM     17  C   UNL     1      -6.415 -12.690  -6.390  1.00  0.00    -0.006 C 
ATOM     18  C   UNL     1      -6.465 -12.462  -4.867  1.00  0.00     0.008 C 
ATOM     19  C   UNL     1      -6.064 -11.360  -7.079  1.00  0.00     0.008 C 
ENDBRANCH  12  17
ENDBRANCH  11  12
ENDBRANCH   1  11
TORSDOF 1
ENDMDL
MODEL 2
REMARK VINA RESULT:    -2.764      1.528      4.036
REMARK INTER + INTRA:          -4.205
REMARK INTER:                  -4.180
REMARK INTRA:                  -0.025
REMARK UNBOUND:                 0.013
REMARK SMILES CC1=CCC[C@H](C)C(=O)C[C@H](C(C)C)C(=O)C1
REMARK SMILES IDX 8 1 9 2 6 3 7 4 5 5 4 6 3 7 2 8 1 9 10 11 11 12 15 13 16 14
REMARK SMILES IDX 17 15 12 17 13 18 14 19
REMARK H PARENT
REMARK Flexibility Score: 70.00
ROOT
ATOM      1  C   UNL     1      -5.763 -14.259  -7.603  1.00  0.00     0.136 C 
ATOM      2  O   UNL     1      -5.714 -14.969  -8.598  1.00  0.00    -0.299 OA
ENDROOT
BRANCH   1   3
ATOM      3  C   UNL     1      -6.391 -12.884  -7.689  1.00  0.00     0.053 C 
ATOM      4  C   UNL     1      -6.312 -12.202  -6.320  1.00  0.00     0.016 C 
BRANCH   3   5
ATOM      5  C   UNL     1      -5.721 -11.997  -8.766  1.00  0.00     0.015 C 
BRANCH   5   6
ATOM      6  C   UNL     1      -4.286 -11.576  -8.420  1.00  0.00     0.028 C 
BRANCH   6   7
ATOM      7  C   UNL     1      -3.274 -12.509  -9.038  1.00  0.00    -0.028 C 
ATOM      8  C   UNL     1      -2.432 -13.309  -8.346  1.00  0.00    -0.070 CG0
ATOM      9  C   UNL     1      -1.478 -14.179  -9.124  1.00  0.00     0.039 C 
ATOM     10  G   UNL     1      -2.401 -13.357  -6.829  1.00  0.00     0.000 G0
ENDBRANCH   6   7
ENDBRANCH   5   6
ENDBRANCH   3   5
ENDBRANCH   1   3
BRANCH   1  11
ATOM     11  C   UNL     1      -5.138 -14.748  -6.318  1.00  0.00     0.087 C 
BRANCH  11  12
ATOM     12  C   UNL     1      -3.840 -15.573  -6.525  1.00  0.00     0.066 C 
BRANCH  12  13
ATOM     13  C   UNL     1      -2.613 -14.716  -6.227  1.00  0.00     0.140 C 
ATOM     14  O   UNL     1      -1.724 -15.184  -5.529  1.00  0.00    -0.299 OA
BRANCH  13  15
ATOM     15  C   UNL     1      -2.393 -13.343  -6.833  1.00  0.00     0.106 CG0
ATOM     16  G   UNL     1      -2.428 -13.315  -8.349  1.00  0.00     0.000 G0
ENDBRANCH  13  15
ENDBRANCH  12  13
BRANCH  12  17
ATOM     17  C   UNL     1      -3.831 -16.859  -5.636  1.00  0.00    -0.006 C 
ATOM     18  C   UNL     1      -5.006 -16.884  -4.639  1.00  0.00     0.008 C 
ATOM     19  C   UNL     1      -3.879 -18.138  -6.489  1.00  0.00     0.008 C 
ENDBRANCH  12  17
ENDBRANCH  11  12
ENDBRANCH   1  11
TORSDOF 1
ENDMDL
MODEL 3
REMARK VINA RESULT:    -2.234      2.071      4.494
REMARK INTER + INTRA:          -3.396
REMARK INTER:                  -5.280
REMARK INTRA:                   1.884
REMARK UNBOUND:                 0.013
REMARK SMILES CC1=CCC[C@H](C)C(=O)C[C@H](C(C)C)C(=O)C1
REMARK SMILES IDX 8 1 9 2 6 3 7 4 5 5 4 6 3 7 2 8 1 9 10 11 11 12 15 13 16 14
REMARK SMILES IDX 17 15 12 17 13 18 14 19
REMARK H PARENT
REMARK Flexibility Score: 70.00
ROOT
ATOM      1  C   UNL     1      -2.315 -13.938  -7.247  1.00  0.00     0.136 C 
ATOM      2  O   UNL     1      -2.063 -12.945  -6.579  1.00  0.00    -0.299 OA
ENDROOT
BRANCH   1   3
ATOM      3  C   UNL     1      -2.849 -13.783  -8.656  1.00  0.00     0.053 C 
ATOM      4  C   UNL     1      -3.711 -14.998  -9.010  1.00  0.00     0.016 C 
BRANCH   3   5
ATOM      5  C   UNL     1      -3.663 -12.479  -8.836  1.00  0.00     0.015 C 
BRANCH   5   6
ATOM      6  C   UNL     1      -5.182 -12.696  -8.889  1.00  0.00     0.028 C 
BRANCH   6   7
ATOM      7  C   UNL     1      -5.852 -12.214  -7.626  1.00  0.00    -0.028 C 
ATOM      8  C   UNL     1      -5.970 -12.935  -6.488  1.00  0.00    -0.070 CG0
ATOM      9  C   UNL     1      -6.675 -12.299  -5.316  1.00  0.00     0.039 C 
ATOM     10  G   UNL     1      -5.438 -14.349  -6.348  1.00  0.00     0.000 G0
ENDBRANCH   6   7
ENDBRANCH   5   6
ENDBRANCH   3   5
ENDBRANCH   1   3
BRANCH   1  11
ATOM     11  C   UNL     1      -2.146 -15.305  -6.627  1.00  0.00     0.087 C 
BRANCH  11  12
ATOM     12  C   UNL     1      -3.236 -15.658  -5.579  1.00  0.00     0.066 C 
BRANCH  12  13
ATOM     13  C   UNL     1      -4.232 -14.510  -5.442  1.00  0.00     0.140 C 
ATOM     14  O   UNL     1      -4.002 -13.626  -4.630  1.00  0.00    -0.299 OA
BRANCH  13  15
ATOM     15  C   UNL     1      -5.450 -14.358  -6.332  1.00  0.00     0.106 CG0
ATOM     16  G   UNL     1      -5.954 -12.933  -6.466  1.00  0.00     0.000 G0
ENDBRANCH  13  15
ENDBRANCH  12  13
BRANCH  12  17
ATOM     17  C   UNL     1      -3.981 -16.980  -5.954  1.00  0.00    -0.006 C 
ATOM     18  C   UNL     1      -3.013 -18.168  -6.115  1.00  0.00     0.008 C 
ATOM     19  C   UNL     1      -5.044 -17.347  -4.904  1.00  0.00     0.008 C 
ENDBRANCH  12  17
ENDBRANCH  11  12
ENDBRANCH   1  11
TORSDOF 1
ENDMDL
MODEL 4
REMARK VINA RESULT:    -1.974      1.634      3.763
REMARK INTER + INTRA:          -2.999
REMARK INTER:                  -5.616
REMARK INTRA:                   2.617
REMARK UNBOUND:                 0.013
REMARK SMILES CC1=CCC[C@H](C)C(=O)C[C@H](C(C)C)C(=O)C1
REMARK SMILES IDX 8 1 9 2 6 3 7 4 5 5 4 6 3 7 2 8 1 9 10 11 11 12 15 13 16 14
REMARK SMILES IDX 17 15 12 17 13 18 14 19
REMARK H PARENT
REMARK Flexibility Score: 70.00
ROOT
ATOM      1  C   UNL     1      -5.828 -13.139  -6.100  1.00  0.00     0.136 C 
ATOM      2  O   UNL     1      -6.451 -13.298  -5.060  1.00  0.00    -0.299 OA
ENDROOT
BRANCH   1   3
ATOM      3  C   UNL     1      -6.385 -12.239  -7.183  1.00  0.00     0.053 C 
ATOM      4  C   UNL     1      -6.164 -10.775  -6.791  1.00  0.00     0.016 C 
BRANCH   3   5
ATOM      5  C   UNL     1      -5.754 -12.522  -8.567  1.00  0.00     0.015 C 
BRANCH   5   6
ATOM      6  C   UNL     1      -4.548 -11.630  -8.896  1.00  0.00     0.028 C 
BRANCH   6   7
ATOM      7  C   UNL     1      -3.270 -12.430  -8.950  1.00  0.00    -0.028 C 
ATOM      8  C   UNL     1      -3.201 -13.776  -9.054  1.00  0.00    -0.070 CG0
ATOM      9  C   UNL     1      -1.836 -14.416  -9.091  1.00  0.00     0.039 C 
ATOM     10  G   UNL     1      -4.431 -14.661  -9.123  1.00  0.00     0.000 G0
ENDBRANCH   6   7
ENDBRANCH   5   6
ENDBRANCH   3   5
ENDBRANCH   1   3
BRANCH   1  11
ATOM     11  C   UNL     1      -4.538 -13.897  -6.308  1.00  0.00     0.087 C 
BRANCH  11  12
ATOM     12  C   UNL     1      -4.737 -15.415  -6.563  1.00  0.00     0.066 C 
BRANCH  12  13
ATOM     13  C   UNL     1      -4.531 -15.737  -8.041  1.00  0.00     0.140 C 
ATOM     14  O   UNL     1      -4.519 -16.908  -8.391  1.00  0.00    -0.299 OA
BRANCH  13  15
ATOM     15  C   UNL     1      -4.435 -14.672  -9.116  1.00  0.00     0.106 CG0
ATOM     16  G   UNL     1      -3.188 -13.812  -9.037  1.00  0.00     0.000 G0
ENDBRANCH  13  15
ENDBRANCH  12  13
BRANCH  12  17
ATOM     17  C   UNL     1      -3.771 -16.273  -5.683  1.00  0.00    -0.006 C 
ATOM     18  C   UNL     1      -3.983 -17.785  -5.891  1.00  0.00     0.008 C 
ATOM     19  C   UNL     1      -2.296 -15.937  -5.968  1.00  0.00     0.008 C 
ENDBRANCH  12  17
ENDBRANCH  11  12
ENDBRANCH   1  11
TORSDOF 1
ENDMDL
MODEL 5
REMARK VINA RESULT:    -1.924      1.707      3.751
REMARK INTER + INTRA:          -2.924
REMARK INTER:                  -4.181
REMARK INTRA:                   1.258
REMARK UNBOUND:                 0.013
REMARK SMILES CC1=CCC[C@H](C)C(=O)C[C@H](C(C)C)C(=O)C1
REMARK SMILES IDX 8 1 9 2 6 3 7 4 5 5 4 6 3 7 2 8 1 9 10 11 11 12 15 13 16 14
REMARK SMILES IDX 17 15 12 17 13 18 14 19
REMARK H PARENT
REMARK Flexibility Score: 70.00
ROOT
ATOM      1  C   UNL     1      -4.737 -12.701  -8.928  1.00  0.00     0.136 C 
ATOM      2  O   UNL     1      -5.329 -11.649  -9.125  1.00  0.00    -0.299 OA
ENDROOT
BRANCH   1   3
ATOM      3  C   UNL     1      -3.230 -12.755  -9.064  1.00  0.00     0.053 C 
ATOM      4  C   UNL     1      -2.610 -11.554  -8.344  1.00  0.00     0.016 C 
BRANCH   3   5
ATOM      5  C   UNL     1      -2.636 -14.073  -8.514  1.00  0.00     0.015 C 
BRANCH   5   6
ATOM      6  C   UNL     1      -2.174 -13.985  -7.052  1.00  0.00     0.028 C 
BRANCH   6   7
ATOM      7  C   UNL     1      -2.042 -15.355  -6.433  1.00  0.00    -0.028 C 
ATOM      8  C   UNL     1      -2.977 -16.330  -6.500  1.00  0.00    -0.070 CG0
ATOM      9  C   UNL     1      -2.683 -17.643  -5.820  1.00  0.00     0.039 C 
ATOM     10  G   UNL     1      -4.302 -16.152  -7.217  1.00  0.00     0.000 G0
ENDBRANCH   6   7
ENDBRANCH   5   6
ENDBRANCH   3   5
ENDBRANCH   1   3
BRANCH   1  11
ATOM     11  C   UNL     1      -5.533 -13.944  -8.611  1.00  0.00     0.087 C 
BRANCH  11  12
ATOM     12  C   UNL     1      -5.944 -14.064  -7.118  1.00  0.00     0.066 C 
BRANCH  12  13
ATOM     13  C   UNL     1      -5.308 -15.300  -6.490  1.00  0.00     0.140 C 
ATOM     14  O   UNL     1      -5.673 -15.647  -5.376  1.00  0.00    -0.299 OA
BRANCH  13  15
ATOM     15  C   UNL     1      -4.311 -16.181  -7.218  1.00  0.00     0.106 CG0
ATOM     16  G   UNL     1      -2.975 -16.329  -6.513  1.00  0.00     0.000 G0
ENDBRANCH  13  15
ENDBRANCH  12  13
BRANCH  12  17
ATOM     17  C   UNL     1      -5.549 -12.783  -6.313  1.00  0.00    -0.006 C 
ATOM     18  C   UNL     1      -6.774 -12.086  -5.691  1.00  0.00     0.008 C 
ATOM     19  C   UNL     1      -4.543 -13.106  -5.194  1.00  0.00     0.008 C 
ENDBRANCH  12  17
ENDBRANCH  11  12
ENDBRANCH   1  11
TORSDOF 1
ENDMDL
MODEL 6
REMARK VINA RESULT:    -1.505      2.050      4.470
REMARK INTER + INTRA:          -2.284
REMARK INTER:                  -5.142
REMARK INTRA:                   2.858
REMARK UNBOUND:                 0.013
REMARK SMILES CC1=CCC[C@H](C)C(=O)C[C@H](C(C)C)C(=O)C1
REMARK SMILES IDX 8 1 9 2 6 3 7 4 5 5 4 6 3 7 2 8 1 9 10 11 11 12 15 13 16 14
REMARK SMILES IDX 17 15 12 17 13 18 14 19
REMARK H PARENT
REMARK Flexibility Score: 70.00
ROOT
ATOM      1  C   UNL     1      -5.688 -12.693  -7.189  1.00  0.00     0.136 C 
ATOM      2  O   UNL     1      -6.105 -11.550  -7.064  1.00  0.00    -0.299 OA
ENDROOT
BRANCH   1   3
ATOM      3  C   UNL     1      -5.512 -13.284  -8.572  1.00  0.00     0.053 C 
ATOM      4  C   UNL     1      -4.140 -12.887  -9.125  1.00  0.00     0.016 C 
BRANCH   3   5
ATOM      5  C   UNL     1      -5.665 -14.823  -8.578  1.00  0.00     0.015 C 
BRANCH   5   6
ATOM      6  C   UNL     1      -4.330 -15.581  -8.617  1.00  0.00     0.028 C 
BRANCH   6   7
ATOM      7  C   UNL     1      -4.381 -16.829  -7.769  1.00  0.00    -0.028 C 
ATOM      8  C   UNL     1      -3.723 -16.999  -6.600  1.00  0.00    -0.070 CG0
ATOM      9  C   UNL     1      -3.882 -18.315  -5.881  1.00  0.00     0.039 C 
ATOM     10  G   UNL     1      -2.830 -15.932  -5.994  1.00  0.00     0.000 G0
ENDBRANCH   6   7
ENDBRANCH   5   6
ENDBRANCH   3   5
ENDBRANCH   1   3
BRANCH   1  11
ATOM     11  C   UNL     1      -5.414 -13.516  -5.953  1.00  0.00     0.087 C 
BRANCH  11  12
ATOM     12  C   UNL     1      -3.919 -13.546  -5.537  1.00  0.00     0.066 C 
BRANCH  12  13
ATOM     13  C   UNL     1      -3.523 -14.948  -5.082  1.00  0.00     0.140 C 
ATOM     14  O   UNL     1      -3.862 -15.322  -3.968  1.00  0.00    -0.299 OA
BRANCH  13  15
ATOM     15  C   UNL     1      -2.810 -15.941  -5.979  1.00  0.00     0.106 CG0
ATOM     16  G   UNL     1      -3.718 -16.987  -6.600  1.00  0.00     0.000 G0
ENDBRANCH  13  15
ENDBRANCH  12  13
BRANCH  12  17
ATOM     17  C   UNL     1      -2.992 -13.074  -6.703  1.00  0.00    -0.006 C 
ATOM     18  C   UNL     1      -2.592 -11.592  -6.565  1.00  0.00     0.008 C 
ATOM     19  C   UNL     1      -1.713 -13.925  -6.790  1.00  0.00     0.008 C 
ENDBRANCH  12  17
ENDBRANCH  11  12
ENDBRANCH   1  11
TORSDOF 1
ENDMDL
MODEL 7
REMARK VINA RESULT:    -1.450      1.881      3.738
REMARK INTER + INTRA:          -2.200
REMARK INTER:                  -3.815
REMARK INTRA:                   1.615
REMARK UNBOUND:                 0.013
REMARK SMILES CC1=CCC[C@H](C)C(=O)C[C@H](C(C)C)C(=O)C1
REMARK SMILES IDX 8 1 9 2 6 3 7 4 5 5 4 6 3 7 2 8 1 9 10 11 11 12 15 13 16 14
REMARK SMILES IDX 17 15 12 17 13 18 14 19
REMARK H PARENT
REMARK Flexibility Score: 70.00
ROOT
ATOM      1  C   UNL     1      -4.614 -13.378  -4.932  1.00  0.00     0.136 C 
ATOM      2  O   UNL     1      -4.593 -13.188  -3.724  1.00  0.00    -0.299 OA
ENDROOT
BRANCH   1   3
ATOM      3  C   UNL     1      -5.937 -13.405  -5.667  1.00  0.00     0.053 C 
ATOM      4  C   UNL     1      -6.739 -12.148  -5.319  1.00  0.00     0.016 C 
BRANCH   3   5
ATOM      5  C   UNL     1      -5.756 -13.515  -7.200  1.00  0.00     0.015 C 
BRANCH   5   6
ATOM      6  C   UNL     1      -6.118 -12.233  -7.963  1.00  0.00     0.028 C 
BRANCH   6   7
ATOM      7  C   UNL     1      -4.904 -11.369  -8.197  1.00  0.00    -0.028 C 
ATOM      8  C   UNL     1      -3.729 -11.804  -8.706  1.00  0.00    -0.070 CG0
ATOM      9  C   UNL     1      -2.612 -10.804  -8.870  1.00  0.00     0.039 C 
ATOM     10  G   UNL     1      -3.488 -13.249  -9.104  1.00  0.00     0.000 G0
ENDBRANCH   6   7
ENDBRANCH   5   6
ENDBRANCH   3   5
ENDBRANCH   1   3
BRANCH   1  11
ATOM     11  C   UNL     1      -3.316 -13.645  -5.658  1.00  0.00     0.087 C 
BRANCH  11  12
ATOM     12  C   UNL     1      -3.450 -14.650  -6.833  1.00  0.00     0.066 C 
BRANCH  12  13
ATOM     13  C   UNL     1      -2.749 -14.110  -8.076  1.00  0.00     0.140 C 
ATOM     14  O   UNL     1      -1.587 -14.430  -8.281  1.00  0.00    -0.299 OA
BRANCH  13  15
ATOM     15  C   UNL     1      -3.451 -13.269  -9.125  1.00  0.00     0.106 CG0
ATOM     16  G   UNL     1      -3.711 -11.834  -8.707  1.00  0.00     0.000 G0
ENDBRANCH  13  15
ENDBRANCH  12  13
BRANCH  12  17
ATOM     17  C   UNL     1      -2.873 -16.053  -6.453  1.00  0.00    -0.006 C 
ATOM     18  C   UNL     1      -1.828 -15.966  -5.324  1.00  0.00     0.008 C 
ATOM     19  C   UNL     1      -3.986 -17.025  -6.024  1.00  0.00     0.008 C 
ENDBRANCH  12  17
ENDBRANCH  11  12
ENDBRANCH   1  11
TORSDOF 1
ENDMDL
MODEL 8
REMARK VINA RESULT:    -1.088      1.753      3.368
REMARK INTER + INTRA:          -1.647
REMARK INTER:                  -2.754
REMARK INTRA:                   1.106
REMARK UNBOUND:                 0.013
REMARK SMILES CC1=CCC[C@H](C)C(=O)C[C@H](C(C)C)C(=O)C1
REMARK SMILES IDX 8 1 9 2 6 3 7 4 5 5 4 6 3 7 2 8 1 9 10 11 11 12 15 13 16 14
REMARK SMILES IDX 17 15 12 17 13 18 14 19
REMARK H PARENT
REMARK Flexibility Score: 70.00
ROOT
ATOM      1  C   UNL     1      -5.098 -15.085  -9.046  1.00  0.00     0.136 C 
ATOM      2  O   UNL     1      -6.110 -15.768  -9.115  1.00  0.00    -0.299 OA
ENDROOT
BRANCH   1   3
ATOM      3  C   UNL     1      -3.752 -15.750  -8.847  1.00  0.00     0.053 C 
ATOM      4  C   UNL     1      -2.638 -14.725  -9.078  1.00  0.00     0.016 C 
BRANCH   3   5
ATOM      5  C   UNL     1      -3.611 -16.386  -7.444  1.00  0.00     0.015 C 
BRANCH   5   6
ATOM      6  C   UNL     1      -2.379 -15.904  -6.663  1.00  0.00     0.028 C 
BRANCH   6   7
ATOM      7  C   UNL     1      -2.756 -15.421  -5.284  1.00  0.00    -0.028 C 
ATOM      8  C   UNL     1      -3.439 -14.284  -5.020  1.00  0.00    -0.070 CG0
ATOM      9  C   UNL     1      -3.729 -13.948  -3.579  1.00  0.00     0.039 C 
ATOM     10  G   UNL     1      -3.912 -13.336  -6.106  1.00  0.00     0.000 G0
ENDBRANCH   6   7
ENDBRANCH   5   6
ENDBRANCH   3   5
ENDBRANCH   1   3
BRANCH   1  11
ATOM     11  C   UNL     1      -5.220 -13.581  -9.100  1.00  0.00     0.087 C 
BRANCH  11  12
ATOM     12  C   UNL     1      -5.904 -12.962  -7.852  1.00  0.00     0.066 C 
BRANCH  12  13
ATOM     13  C   UNL     1      -5.335 -13.575  -6.575  1.00  0.00     0.140 C 
ATOM     14  O   UNL     1      -6.025 -14.361  -5.942  1.00  0.00    -0.299 OA
BRANCH  13  15
ATOM     15  C   UNL     1      -3.915 -13.334  -6.100  1.00  0.00     0.106 CG0
ATOM     16  G   UNL     1      -3.449 -14.284  -5.013  1.00  0.00     0.000 G0
ENDBRANCH  13  15
ENDBRANCH  12  13
BRANCH  12  17
ATOM     17  C   UNL     1      -5.742 -11.407  -7.824  1.00  0.00    -0.006 C 
ATOM     18  C   UNL     1      -5.959 -10.825  -6.414  1.00  0.00     0.008 C 
ATOM     19  C   UNL     1      -4.355 -10.973  -8.331  1.00  0.00     0.008 C 
ENDBRANCH  12  17
ENDBRANCH  11  12
ENDBRANCH   1  11
TORSDOF 1
ENDMDL
MODEL 9
REMARK VINA RESULT:    -0.994      1.576      3.139
REMARK INTER + INTRA:          -1.505
REMARK INTER:                  -4.682
REMARK INTRA:                   3.177
REMARK UNBOUND:                 0.013
REMARK SMILES CC1=CCC[C@H](C)C(=O)C[C@H](C(C)C)C(=O)C1
REMARK SMILES IDX 8 1 9 2 6 3 7 4 5 5 4 6 3 7 2 8 1 9 10 11 11 12 15 13 16 14
REMARK SMILES IDX 17 15 12 17 13 18 14 19
REMARK H PARENT
REMARK Flexibility Score: 70.00
ROOT
ATOM      1  C   UNL     1      -2.526 -14.654  -6.063  1.00  0.00     0.136 C 
ATOM      2  O   UNL     1      -1.882 -15.429  -6.756  1.00  0.00    -0.299 OA
ENDROOT
BRANCH   1   3
ATOM      3  C   UNL     1      -3.184 -15.148  -4.792  1.00  0.00     0.053 C 
ATOM      4  C   UNL     1      -3.554 -13.951  -3.912  1.00  0.00     0.016 C 
BRANCH   3   5
ATOM      5  C   UNL     1      -4.438 -16.010  -5.075  1.00  0.00     0.015 C 
BRANCH   5   6
ATOM      6  C   UNL     1      -5.287 -15.507  -6.251  1.00  0.00     0.028 C 
BRANCH   6   7
ATOM      7  C   UNL     1      -5.827 -14.123  -5.986  1.00  0.00    -0.028 C 
ATOM      8  C   UNL     1      -5.934 -13.142  -6.911  1.00  0.00    -0.070 CG0
ATOM      9  C   UNL     1      -6.494 -11.812  -6.475  1.00  0.00     0.039 C 
ATOM     10  G   UNL     1      -5.507 -13.322  -8.356  1.00  0.00     0.000 G0
ENDBRANCH   6   7
ENDBRANCH   5   6
ENDBRANCH   3   5
ENDBRANCH   1   3
BRANCH   1  11
ATOM     11  C   UNL     1      -2.703 -13.227  -6.524  1.00  0.00     0.087 C 
BRANCH  11  12
ATOM     12  C   UNL     1      -2.856 -13.079  -8.062  1.00  0.00     0.066 C 
BRANCH  12  13
ATOM     13  C   UNL     1      -4.088 -13.836  -8.549  1.00  0.00     0.140 C 
ATOM     14  O   UNL     1      -3.940 -14.944  -9.044  1.00  0.00    -0.299 OA
BRANCH  13  15
ATOM     15  C   UNL     1      -5.503 -13.324  -8.361  1.00  0.00     0.106 CG0
ATOM     16  G   UNL     1      -5.918 -13.146  -6.912  1.00  0.00     0.000 G0
ENDBRANCH  13  15
ENDBRANCH  12  13
BRANCH  12  17
ATOM     17  C   UNL     1      -2.941 -11.576  -8.486  1.00  0.00    -0.006 C 
ATOM     18  C   UNL     1      -4.299 -11.228  -9.124  1.00  0.00     0.008 C 
ATOM     19  C   UNL     1      -2.701 -10.637  -7.290  1.00  0.00     0.008 C 
ENDBRANCH  12  17
ENDBRANCH  11  12
ENDBRANCH   1  11
TORSDOF 1
ENDMDL
