MODEL 1
REMARK VINA RESULT:    -6.112      0.000      0.000
REMARK INTER + INTRA:          -6.566
REMARK INTER:                  -6.470
REMARK INTRA:                  -0.096
REMARK UNBOUND:                -0.096
REMARK SMILES C=C(C)[C@H]1CC=C(C)C(=O)C1
REMARK SMILES IDX 8 1 7 2 6 3 5 4 4 5 11 6 9 7 10 8 2 9 1 10 3 11
REMARK H PARENT
REMARK Flexibility Score: inf
ROOT
ATOM      1  C   UNL     1      -2.746 -11.325  26.052  1.00  0.00     0.048 C 
ATOM      2  C   UNL     1      -3.442 -12.031  27.183  1.00  0.00    -0.012 C 
ATOM      3  C   UNL     1      -4.004 -13.236  26.983  1.00  0.00    -0.019 C 
ATOM      4  C   UNL     1      -4.780 -13.945  28.062  1.00  0.00     0.036 C 
ATOM      5  C   UNL     1      -4.243 -13.586  29.461  1.00  0.00     0.025 C 
ATOM      6  C   UNL     1      -4.236 -12.059  29.655  1.00  0.00     0.089 C 
ATOM      7  C   UNL     1      -3.527 -11.382  28.513  1.00  0.00     0.158 C 
ATOM      8  O   UNL     1      -3.042 -10.231  28.689  1.00  0.00    -0.295 OA
ENDROOT
BRANCH   5   9
ATOM      9  C   UNL     1      -5.029 -14.289  30.561  1.00  0.00    -0.077 C 
ATOM     10  C   UNL     1      -6.132 -15.005  30.285  1.00  0.00     0.008 C 
ATOM     11  C   UNL     1      -4.574 -14.190  31.994  1.00  0.00     0.039 C 
ENDBRANCH   5   9
TORSDOF 1
ENDMDL
MODEL 2
REMARK VINA RESULT:    -6.049      2.859      3.920
REMARK INTER + INTRA:          -6.499
REMARK INTER:                  -6.401
REMARK INTRA:                  -0.098
REMARK UNBOUND:                -0.096
REMARK SMILES C=C(C)[C@H]1CC=C(C)C(=O)C1
REMARK SMILES IDX 8 1 7 2 6 3 5 4 4 5 11 6 9 7 10 8 2 9 1 10 3 11
REMARK H PARENT
REMARK Flexibility Score: inf
ROOT
ATOM      1  C   UNL     1       0.250 -12.500  31.515  1.00  0.00     0.048 C 
ATOM      2  C   UNL     1      -0.922 -12.914  30.668  1.00  0.00    -0.012 C 
ATOM      3  C   UNL     1      -2.153 -12.983  31.204  1.00  0.00    -0.019 C 
ATOM      4  C   UNL     1      -3.341 -13.468  30.417  1.00  0.00     0.036 C 
ATOM      5  C   UNL     1      -3.189 -13.140  28.919  1.00  0.00     0.025 C 
ATOM      6  C   UNL     1      -1.862 -13.705  28.380  1.00  0.00     0.089 C 
ATOM      7  C   UNL     1      -0.710 -13.268  29.243  1.00  0.00     0.158 C 
ATOM      8  O   UNL     1       0.452 -13.250  28.752  1.00  0.00    -0.295 OA
ENDROOT
BRANCH   5   9
ATOM      9  C   UNL     1      -4.381 -13.636  28.110  1.00  0.00    -0.077 C 
ATOM     10  C   UNL     1      -4.250 -14.000  26.823  1.00  0.00     0.008 C 
ATOM     11  C   UNL     1      -5.742 -13.728  28.750  1.00  0.00     0.039 C 
ENDBRANCH   5   9
TORSDOF 1
ENDMDL
MODEL 3
REMARK VINA RESULT:    -5.991      2.071      4.824
REMARK INTER + INTRA:          -6.437
REMARK INTER:                  -6.341
REMARK INTRA:                  -0.096
REMARK UNBOUND:                -0.096
REMARK SMILES C=C(C)[C@H]1CC=C(C)C(=O)C1
REMARK SMILES IDX 8 1 7 2 6 3 5 4 4 5 11 6 9 7 10 8 2 9 1 10 3 11
REMARK H PARENT
REMARK Flexibility Score: inf
ROOT
ATOM      1  C   UNL     1      -5.358 -15.265  32.333  1.00  0.00     0.048 C 
ATOM      2  C   UNL     1      -4.919 -14.324  31.244  1.00  0.00    -0.012 C 
ATOM      3  C   UNL     1      -3.974 -13.399  31.491  1.00  0.00    -0.019 C 
ATOM      4  C   UNL     1      -3.561 -12.385  30.458  1.00  0.00     0.036 C 
ATOM      5  C   UNL     1      -3.709 -12.949  29.032  1.00  0.00     0.025 C 
ATOM      6  C   UNL     1      -5.144 -13.460  28.806  1.00  0.00     0.089 C 
ATOM      7  C   UNL     1      -5.551 -14.404  29.905  1.00  0.00     0.158 C 
ATOM      8  O   UNL     1      -6.470 -15.239  29.687  1.00  0.00    -0.295 OA
ENDROOT
BRANCH   5   9
ATOM      9  C   UNL     1      -3.304 -11.927  27.977  1.00  0.00    -0.077 C 
ATOM     10  C   UNL     1      -3.041 -10.650  28.306  1.00  0.00     0.008 C 
ATOM     11  C   UNL     1      -3.189 -12.337  26.532  1.00  0.00     0.039 C 
ENDBRANCH   5   9
TORSDOF 1
ENDMDL
MODEL 4
REMARK VINA RESULT:    -5.838      2.654      4.072
REMARK INTER + INTRA:          -6.275
REMARK INTER:                  -6.186
REMARK INTRA:                  -0.089
REMARK UNBOUND:                -0.096
REMARK SMILES C=C(C)[C@H]1CC=C(C)C(=O)C1
REMARK SMILES IDX 8 1 7 2 6 3 5 4 4 5 11 6 9 7 10 8 2 9 1 10 3 11
REMARK H PARENT
REMARK Flexibility Score: inf
ROOT
ATOM      1  C   UNL     1      -6.748 -14.715  28.692  1.00  0.00     0.048 C 
ATOM      2  C   UNL     1      -5.468 -14.139  29.233  1.00  0.00    -0.012 C 
ATOM      3  C   UNL     1      -4.628 -13.478  28.419  1.00  0.00    -0.019 C 
ATOM      4  C   UNL     1      -3.299 -12.953  28.898  1.00  0.00     0.036 C 
ATOM      5  C   UNL     1      -3.354 -12.579  30.391  1.00  0.00     0.025 C 
ATOM      6  C   UNL     1      -3.843 -13.776  31.226  1.00  0.00     0.089 C 
ATOM      7  C   UNL     1      -5.127 -14.325  30.665  1.00  0.00     0.158 C 
ATOM      8  O   UNL     1      -5.892 -14.987  31.418  1.00  0.00    -0.295 OA
ENDROOT
BRANCH   5   9
ATOM      9  C   UNL     1      -2.012 -12.057  30.890  1.00  0.00    -0.077 C 
ATOM     10  C   UNL     1      -1.673 -10.762  30.762  1.00  0.00     0.008 C 
ATOM     11  C   UNL     1      -1.031 -12.997  31.541  1.00  0.00     0.039 C 
ENDBRANCH   5   9
TORSDOF 1
ENDMDL
MODEL 5
REMARK VINA RESULT:    -5.768      1.744      4.403
REMARK INTER + INTRA:          -6.201
REMARK INTER:                  -6.106
REMARK INTRA:                  -0.095
REMARK UNBOUND:                -0.096
REMARK SMILES C=C(C)[C@H]1CC=C(C)C(=O)C1
REMARK SMILES IDX 8 1 7 2 6 3 5 4 4 5 11 6 9 7 10 8 2 9 1 10 3 11
REMARK H PARENT
REMARK Flexibility Score: inf
ROOT
ATOM      1  C   UNL     1      -5.569 -14.914  32.411  1.00  0.00     0.048 C 
ATOM      2  C   UNL     1      -5.024 -14.407  31.104  1.00  0.00    -0.012 C 
ATOM      3  C   UNL     1      -5.765 -14.490  29.986  1.00  0.00    -0.019 C 
ATOM      4  C   UNL     1      -5.232 -14.069  28.641  1.00  0.00     0.036 C 
ATOM      5  C   UNL     1      -4.203 -12.931  28.781  1.00  0.00     0.025 C 
ATOM      6  C   UNL     1      -3.080 -13.343  29.751  1.00  0.00     0.089 C 
ATOM      7  C   UNL     1      -3.655 -13.838  31.050  1.00  0.00     0.158 C 
ATOM      8  O   UNL     1      -2.942 -13.804  32.089  1.00  0.00    -0.295 OA
ENDROOT
BRANCH   5   9
ATOM      9  C   UNL     1      -3.648 -12.505  27.427  1.00  0.00    -0.077 C 
ATOM     10  C   UNL     1      -3.608 -13.357  26.389  1.00  0.00     0.008 C 
ATOM     11  C   UNL     1      -3.130 -11.104  27.230  1.00  0.00     0.039 C 
ENDBRANCH   5   9
TORSDOF 1
ENDMDL
MODEL 6
REMARK VINA RESULT:    -5.688      2.751      4.204
REMARK INTER + INTRA:          -6.116
REMARK INTER:                  -6.027
REMARK INTRA:                  -0.089
REMARK UNBOUND:                -0.096
REMARK SMILES C=C(C)[C@H]1CC=C(C)C(=O)C1
REMARK SMILES IDX 8 1 7 2 6 3 5 4 4 5 11 6 9 7 10 8 2 9 1 10 3 11
REMARK H PARENT
REMARK Flexibility Score: inf
ROOT
ATOM      1  C   UNL     1       0.267 -12.413  31.770  1.00  0.00     0.048 C 
ATOM      2  C   UNL     1      -0.565 -12.480  30.518  1.00  0.00    -0.012 C 
ATOM      3  C   UNL     1      -0.391 -13.487  29.645  1.00  0.00    -0.019 C 
ATOM      4  C   UNL     1      -1.142 -13.552  28.341  1.00  0.00     0.036 C 
ATOM      5  C   UNL     1      -2.529 -12.892  28.465  1.00  0.00     0.025 C 
ATOM      6  C   UNL     1      -2.391 -11.450  28.986  1.00  0.00     0.089 C 
ATOM      7  C   UNL     1      -1.561 -11.417  30.241  1.00  0.00     0.158 C 
ATOM      8  O   UNL     1      -1.691 -10.447  31.036  1.00  0.00    -0.295 OA
ENDROOT
BRANCH   5   9
ATOM      9  C   UNL     1      -3.295 -12.942  27.148  1.00  0.00    -0.077 C 
ATOM     10  C   UNL     1      -4.146 -13.946  26.873  1.00  0.00     0.008 C 
ATOM     11  C   UNL     1      -3.108 -11.854  26.123  1.00  0.00     0.039 C 
ENDBRANCH   5   9
TORSDOF 1
ENDMDL
MODEL 7
REMARK VINA RESULT:    -5.663      2.364      4.165
REMARK INTER + INTRA:          -6.090
REMARK INTER:                  -5.998
REMARK INTRA:                  -0.093
REMARK UNBOUND:                -0.096
REMARK SMILES C=C(C)[C@H]1CC=C(C)C(=O)C1
REMARK SMILES IDX 8 1 7 2 6 3 5 4 4 5 11 6 9 7 10 8 2 9 1 10 3 11
REMARK H PARENT
REMARK Flexibility Score: inf
ROOT
ATOM      1  C   UNL     1      -6.500 -15.217  29.517  1.00  0.00     0.048 C 
ATOM      2  C   UNL     1      -5.347 -14.366  29.977  1.00  0.00    -0.012 C 
ATOM      3  C   UNL     1      -5.031 -14.305  31.282  1.00  0.00    -0.019 C 
ATOM      4  C   UNL     1      -3.938 -13.407  31.798  1.00  0.00     0.036 C 
ATOM      5  C   UNL     1      -2.831 -13.215  30.744  1.00  0.00     0.025 C 
ATOM      6  C   UNL     1      -3.432 -12.702  29.423  1.00  0.00     0.089 C 
ATOM      7  C   UNL     1      -4.577 -13.576  28.986  1.00  0.00     0.158 C 
ATOM      8  O   UNL     1      -4.903 -13.595  27.768  1.00  0.00    -0.295 OA
ENDROOT
BRANCH   5   9
ATOM      9  C   UNL     1      -1.724 -12.298  31.251  1.00  0.00    -0.077 C 
ATOM     10  C   UNL     1      -1.956 -10.999  31.509  1.00  0.00     0.008 C 
ATOM     11  C   UNL     1      -0.336 -12.841  31.474  1.00  0.00     0.039 C 
ENDBRANCH   5   9
TORSDOF 1
ENDMDL
MODEL 8
REMARK VINA RESULT:    -5.625      1.517      3.208
REMARK INTER + INTRA:          -6.050
REMARK INTER:                  -5.960
REMARK INTRA:                  -0.091
REMARK UNBOUND:                -0.096
REMARK SMILES C=C(C)[C@H]1CC=C(C)C(=O)C1
REMARK SMILES IDX 8 1 7 2 6 3 5 4 4 5 11 6 9 7 10 8 2 9 1 10 3 11
REMARK H PARENT
REMARK Flexibility Score: inf
ROOT
ATOM      1  C   UNL     1      -2.843 -10.330  31.883  1.00  0.00     0.048 C 
ATOM      2  C   UNL     1      -3.418 -11.344  30.932  1.00  0.00    -0.012 C 
ATOM      3  C   UNL     1      -3.858 -12.528  31.392  1.00  0.00    -0.019 C 
ATOM      4  C   UNL     1      -4.367 -13.604  30.470  1.00  0.00     0.036 C 
ATOM      5  C   UNL     1      -5.014 -12.997  29.210  1.00  0.00     0.025 C 
ATOM      6  C   UNL     1      -4.029 -12.046  28.508  1.00  0.00     0.089 C 
ATOM      7  C   UNL     1      -3.476 -11.040  29.481  1.00  0.00     0.158 C 
ATOM      8  O   UNL     1      -3.020  -9.950  29.044  1.00  0.00    -0.295 OA
ENDROOT
BRANCH   5   9
ATOM      9  C   UNL     1      -5.524 -14.078  28.264  1.00  0.00    -0.077 C 
ATOM     10  C   UNL     1      -6.648 -14.766  28.528  1.00  0.00     0.008 C 
ATOM     11  C   UNL     1      -4.766 -14.395  27.001  1.00  0.00     0.039 C 
ENDBRANCH   5   9
TORSDOF 1
ENDMDL
MODEL 9
REMARK VINA RESULT:    -5.576      1.597      2.507
REMARK INTER + INTRA:          -5.998
REMARK INTER:                  -5.902
REMARK INTRA:                  -0.096
REMARK UNBOUND:                -0.096
REMARK SMILES C=C(C)[C@H]1CC=C(C)C(=O)C1
REMARK SMILES IDX 8 1 7 2 6 3 5 4 4 5 11 6 9 7 10 8 2 9 1 10 3 11
REMARK H PARENT
REMARK Flexibility Score: inf
ROOT
ATOM      1  C   UNL     1      -2.718 -10.999  26.662  1.00  0.00     0.048 C 
ATOM      2  C   UNL     1      -3.494 -12.012  27.457  1.00  0.00    -0.012 C 
ATOM      3  C   UNL     1      -3.830 -11.756  28.733  1.00  0.00    -0.019 C 
ATOM      4  C   UNL     1      -4.536 -12.772  29.593  1.00  0.00     0.036 C 
ATOM      5  C   UNL     1      -5.440 -13.687  28.744  1.00  0.00     0.025 C 
ATOM      6  C   UNL     1      -4.626 -14.344  27.615  1.00  0.00     0.089 C 
ATOM      7  C   UNL     1      -3.867 -13.306  26.834  1.00  0.00     0.158 C 
ATOM      8  O   UNL     1      -3.511 -13.566  25.653  1.00  0.00    -0.295 OA
ENDROOT
BRANCH   5   9
ATOM      9  C   UNL     1      -6.152 -14.726  29.602  1.00  0.00    -0.077 C 
ATOM     10  C   UNL     1      -5.788 -14.947  30.878  1.00  0.00     0.008 C 
ATOM     11  C   UNL     1      -7.288 -15.531  29.027  1.00  0.00     0.039 C 
ENDBRANCH   5   9
TORSDOF 1
ENDMDL
