MODEL 1
REMARK VINA RESULT:    82.479      0.000      0.000
REMARK INTER + INTRA:          92.129
REMARK INTER:                  92.123
REMARK INTRA:                   0.007
REMARK UNBOUND:                 0.007
REMARK SMILES CC1(C)CC[C@@]2(CO)CC=C3[C@]4(C)CC[C@@H]5C(C)(C)[C@@H](O)CC[C@]5(C)[C@H]4CC[C@@]3(C)[C@H]2C1
REMARK SMILES IDX 1 1 2 2 4 3 5 4 6 5 9 6 10 7 11 8 12 9 14 10 15 11 16 12
REMARK SMILES IDX 17 13 20 14 22 15 23 16 24 17 26 18 27 19 28 20 29 21 31 22
REMARK SMILES IDX 32 23 30 24 25 25 18 26 19 27 13 28 3 29 7 30 8 31 21 33
REMARK H PARENT 8 32 21 34
REMARK Flexibility Score: inf
ROOT
ATOM      1  C   UNL     1     -23.939  35.107  -8.487  1.00  0.00     0.011 C 
ATOM      2  C   UNL     1     -24.340  33.686  -8.942  1.00  0.00    -0.035 C 
ATOM      3  C   UNL     1     -23.102  32.782  -8.845  1.00  0.00     0.007 C 
ATOM      4  C   UNL     1     -23.426  31.346  -9.234  1.00  0.00     0.010 C 
ATOM      5  C   UNL     1     -24.564  30.671  -8.390  1.00  0.00     0.001 C 
ATOM      6  C   UNL     1     -23.982  30.208  -7.002  1.00  0.00     0.037 C 
ATOM      7  C   UNL     1     -24.621  30.798  -5.763  1.00  0.00    -0.026 C 
ATOM      8  C   UNL     1     -25.901  31.248  -5.693  1.00  0.00    -0.062 C 
ATOM      9  C   UNL     1     -26.419  31.817  -4.345  1.00  0.00    -0.008 C 
ATOM     10  C   UNL     1     -26.287  30.710  -3.243  1.00  0.00     0.012 C 
ATOM     11  C   UNL     1     -27.448  30.647  -2.222  1.00  0.00     0.006 C 
ATOM     12  C   UNL     1     -27.970  32.060  -1.841  1.00  0.00     0.003 C 
ATOM     13  C   UNL     1     -28.869  32.095  -0.524  1.00  0.00    -0.006 C 
ATOM     14  C   UNL     1     -30.340  31.712  -0.846  1.00  0.00     0.120 C 
ATOM     15  C   UNL     1     -30.929  32.587  -1.953  1.00  0.00     0.033 C 
ATOM     16  C   UNL     1     -30.130  32.437  -3.245  1.00  0.00     0.010 C 
ATOM     17  C   UNL     1     -28.601  32.771  -3.127  1.00  0.00    -0.025 C 
ATOM     18  C   UNL     1     -27.920  32.209  -4.463  1.00  0.00     0.005 C 
ATOM     19  C   UNL     1     -28.180  33.010  -5.757  1.00  0.00     0.006 C 
ATOM     20  C   UNL     1     -28.057  32.084  -6.964  1.00  0.00     0.012 C 
ATOM     21  C   UNL     1     -26.755  31.187  -6.979  1.00  0.00    -0.008 C 
ATOM     22  C   UNL     1     -25.823  31.630  -8.189  1.00  0.00     0.008 C 
ATOM     23  C   UNL     1     -25.412  33.136  -7.986  1.00  0.00     0.011 C 
ATOM     24  C   UNL     1     -27.255  29.723  -7.097  1.00  0.00     0.016 C 
ATOM     25  C   UNL     1     -28.428  34.326  -3.021  1.00  0.00     0.012 C 
ATOM     26  C   UNL     1     -28.345  31.109   0.556  1.00  0.00     0.014 C 
ATOM     27  C   UNL     1     -28.797  33.502   0.138  1.00  0.00     0.014 C 
ATOM     28  C   UNL     1     -25.532  33.049  -3.984  1.00  0.00     0.016 C 
ATOM     29  C   UNL     1     -24.883  33.786 -10.388  1.00  0.00     0.011 C 
ENDROOT
BRANCH   5  30
ATOM     30  C   UNL     1     -24.931  29.392  -9.228  1.00  0.00     0.163 C 
BRANCH  30  31
ATOM     31  O   UNL     1     -24.814  28.216  -8.467  1.00  0.00    -0.396 OA
ATOM     32  H   UNL     1     -24.694  27.464  -9.104  1.00  0.00     0.210 HD
ENDBRANCH  30  31
ENDBRANCH   5  30
BRANCH  14  33
ATOM     33  O   UNL     1     -31.138  31.819   0.307  1.00  0.00    -0.393 OA
ATOM     34  H   UNL     1     -31.463  30.905   0.522  1.00  0.00     0.210 HD
ENDBRANCH  14  33
TORSDOF 3
ENDMDL
MODEL 2
REMARK VINA RESULT:    85.302      1.523      8.060
REMARK INTER + INTRA:          95.283
REMARK INTER:                  95.350
REMARK INTRA:                  -0.067
REMARK UNBOUND:                 0.007
REMARK SMILES CC1(C)CC[C@@]2(CO)CC=C3[C@]4(C)CC[C@@H]5C(C)(C)[C@@H](O)CC[C@]5(C)[C@H]4CC[C@@]3(C)[C@H]2C1
REMARK SMILES IDX 1 1 2 2 4 3 5 4 6 5 9 6 10 7 11 8 12 9 14 10 15 11 16 12
REMARK SMILES IDX 17 13 20 14 22 15 23 16 24 17 26 18 27 19 28 20 29 21 31 22
REMARK SMILES IDX 32 23 30 24 25 25 18 26 19 27 13 28 3 29 7 30 8 31 21 33
REMARK H PARENT 8 32 21 34
REMARK Flexibility Score: inf
ROOT
ATOM      1  C   UNL     1     -32.348  29.694  -2.927  1.00  0.00     0.011 C 
ATOM      2  C   UNL     1     -31.781  30.968  -2.261  1.00  0.00    -0.035 C 
ATOM      3  C   UNL     1     -31.237  30.587  -0.876  1.00  0.00     0.007 C 
ATOM      4  C   UNL     1     -30.615  31.784  -0.171  1.00  0.00     0.010 C 
ATOM      5  C   UNL     1     -29.449  32.483  -0.954  1.00  0.00     0.001 C 
ATOM      6  C   UNL     1     -28.127  31.645  -0.784  1.00  0.00     0.037 C 
ATOM      7  C   UNL     1     -27.485  31.120  -2.050  1.00  0.00    -0.026 C 
ATOM      8  C   UNL     1     -27.611  31.693  -3.276  1.00  0.00    -0.062 C 
ATOM      9  C   UNL     1     -26.881  31.044  -4.481  1.00  0.00    -0.008 C 
ATOM     10  C   UNL     1     -25.343  31.002  -4.180  1.00  0.00     0.012 C 
ATOM     11  C   UNL     1     -24.421  31.293  -5.387  1.00  0.00     0.006 C 
ATOM     12  C   UNL     1     -24.967  30.676  -6.704  1.00  0.00     0.003 C 
ATOM     13  C   UNL     1     -23.898  30.589  -7.883  1.00  0.00    -0.006 C 
ATOM     14  C   UNL     1     -23.792  31.943  -8.639  1.00  0.00     0.120 C 
ATOM     15  C   UNL     1     -25.153  32.419  -9.149  1.00  0.00     0.033 C 
ATOM     16  C   UNL     1     -26.125  32.623  -7.989  1.00  0.00     0.010 C 
ATOM     17  C   UNL     1     -26.362  31.361  -7.086  1.00  0.00    -0.025 C 
ATOM     18  C   UNL     1     -27.100  31.891  -5.768  1.00  0.00     0.005 C 
ATOM     19  C   UNL     1     -28.586  32.284  -5.922  1.00  0.00     0.006 C 
ATOM     20  C   UNL     1     -28.953  33.319  -4.864  1.00  0.00     0.012 C 
ATOM     21  C   UNL     1     -28.505  32.948  -3.393  1.00  0.00    -0.008 C 
ATOM     22  C   UNL     1     -29.794  32.698  -2.496  1.00  0.00     0.008 C 
ATOM     23  C   UNL     1     -30.611  31.499  -3.107  1.00  0.00     0.011 C 
ATOM     24  C   UNL     1     -27.642  34.141  -2.903  1.00  0.00     0.016 C 
ATOM     25  C   UNL     1     -27.265  30.343  -7.864  1.00  0.00     0.012 C 
ATOM     26  C   UNL     1     -22.482  30.230  -7.350  1.00  0.00     0.014 C 
ATOM     27  C   UNL     1     -24.269  29.437  -8.862  1.00  0.00     0.014 C 
ATOM     28  C   UNL     1     -27.440  29.597  -4.646  1.00  0.00     0.016 C 
ATOM     29  C   UNL     1     -32.924  32.009  -2.178  1.00  0.00     0.011 C 
ENDROOT
BRANCH   5  30
ATOM     30  C   UNL     1     -29.271  33.852  -0.199  1.00  0.00     0.163 C 
BRANCH  30  31
ATOM     31  O   UNL     1     -29.760  33.791   1.118  1.00  0.00    -0.396 OA
ATOM     32  H   UNL     1     -29.007  33.509   1.699  1.00  0.00     0.210 HD
ENDBRANCH  30  31
ENDBRANCH   5  30
BRANCH  14  33
ATOM     33  O   UNL     1     -22.902  31.832  -9.722  1.00  0.00    -0.393 OA
ATOM     34  H   UNL     1     -22.962  30.897 -10.053  1.00  0.00     0.210 HD
ENDBRANCH  14  33
TORSDOF 3
ENDMDL
