MODEL 1
REMARK VINA RESULT:     0.927      0.000      0.000
REMARK INTER + INTRA:           0.673
REMARK INTER:                   1.171
REMARK INTRA:                  -0.499
REMARK UNBOUND:                -0.499
REMARK SMILES O=C(C=Cc1ccc(O)cc1)c1ccc(O)cc1O
REMARK SMILES IDX 4 1 3 2 5 3 6 4 7 5 8 6 11 7 10 8 9 9 2 11 1 12 12 13 18 14
REMARK SMILES IDX 13 15 17 16 14 17 15 18 19 19 16 21
REMARK H PARENT 9 10 19 20 16 22
REMARK Flexibility Score: inf
ROOT
ATOM      1  C   UNL     1     -23.588  11.880   5.461  1.00  0.00     0.012 C 
ATOM      2  C   UNL     1     -22.722  10.911   5.789  1.00  0.00     0.053 C 
ENDROOT
BRANCH   1   3
ATOM      3  C   UNL     1     -23.297  13.328   5.604  1.00  0.00    -0.025 A 
ATOM      4  C   UNL     1     -24.354  14.200   5.914  1.00  0.00     0.012 A 
ATOM      5  C   UNL     1     -24.127  15.573   6.049  1.00  0.00     0.047 A 
ATOM      6  C   UNL     1     -22.845  16.096   5.865  1.00  0.00     0.115 A 
ATOM      7  C   UNL     1     -22.008  13.865   5.405  1.00  0.00     0.012 A 
ATOM      8  C   UNL     1     -21.786  15.240   5.540  1.00  0.00     0.047 A 
BRANCH   6   9
ATOM      9  O   UNL     1     -22.633  17.466   6.003  1.00  0.00    -0.508 OA
ATOM     10  H   UNL     1     -22.389  18.047   5.209  1.00  0.00     0.293 HD
ENDBRANCH   6   9
ENDBRANCH   1   3
BRANCH   2  11
ATOM     11  C   UNL     1     -23.056   9.475   5.649  1.00  0.00     0.189 C 
ATOM     12  O   UNL     1     -24.150   9.040   6.103  1.00  0.00    -0.289 OA
BRANCH  11  13
ATOM     13  C   UNL     1     -22.116   8.533   4.990  1.00  0.00     0.064 A 
ATOM     14  C   UNL     1     -22.193   7.144   5.232  1.00  0.00     0.130 A 
ATOM     15  C   UNL     1     -21.145   9.015   4.092  1.00  0.00     0.020 A 
ATOM     16  C   UNL     1     -21.306   6.269   4.586  1.00  0.00     0.093 A 
ATOM     17  C   UNL     1     -20.265   8.135   3.455  1.00  0.00     0.047 A 
ATOM     18  C   UNL     1     -20.344   6.760   3.701  1.00  0.00     0.119 A 
BRANCH  14  19
ATOM     19  O   UNL     1     -23.136   6.632   6.124  1.00  0.00    -0.507 OA
ATOM     20  H   UNL     1     -24.131   6.696   5.943  1.00  0.00     0.293 HD
ENDBRANCH  14  19
BRANCH  18  21
ATOM     21  O   UNL     1     -19.472   5.875   3.071  1.00  0.00    -0.508 OA
ATOM     22  H   UNL     1     -19.239   5.969   2.090  1.00  0.00     0.293 HD
ENDBRANCH  18  21
ENDBRANCH  11  13
ENDBRANCH   2  11
TORSDOF 6
ENDMDL
MODEL 2
REMARK VINA RESULT:     0.987      0.958      1.590
REMARK INTER + INTRA:           0.747
REMARK INTER:                   0.461
REMARK INTRA:                   0.287
REMARK UNBOUND:                -0.499
REMARK SMILES O=C(C=Cc1ccc(O)cc1)c1ccc(O)cc1O
REMARK SMILES IDX 4 1 3 2 5 3 6 4 7 5 8 6 11 7 10 8 9 9 2 11 1 12 12 13 18 14
REMARK SMILES IDX 13 15 17 16 14 17 15 18 19 19 16 21
REMARK H PARENT 9 10 19 20 16 22
REMARK Flexibility Score: inf
ROOT
ATOM      1  C   UNL     1     -23.709  11.874   5.599  1.00  0.00     0.012 C 
ATOM      2  C   UNL     1     -22.747  10.944   5.685  1.00  0.00     0.053 C 
ENDROOT
BRANCH   1   3
ATOM      3  C   UNL     1     -23.456  13.333   5.685  1.00  0.00    -0.025 A 
ATOM      4  C   UNL     1     -24.520  14.182   6.031  1.00  0.00     0.012 A 
ATOM      5  C   UNL     1     -24.329  15.565   6.115  1.00  0.00     0.047 A 
ATOM      6  C   UNL     1     -23.076  16.120   5.843  1.00  0.00     0.115 A 
ATOM      7  C   UNL     1     -22.198  13.901   5.397  1.00  0.00     0.012 A 
ATOM      8  C   UNL     1     -22.011  15.286   5.482  1.00  0.00     0.047 A 
BRANCH   6   9
ATOM      9  O   UNL     1     -22.899  17.499   5.931  1.00  0.00    -0.508 OA
ATOM     10  H   UNL     1     -23.336  18.132   5.272  1.00  0.00     0.293 HD
ENDBRANCH   6   9
ENDBRANCH   1   3
BRANCH   2  11
ATOM     11  C   UNL     1     -23.041   9.495   5.612  1.00  0.00     0.189 C 
ATOM     12  O   UNL     1     -24.106   9.047   6.121  1.00  0.00    -0.289 OA
BRANCH  11  13
ATOM     13  C   UNL     1     -22.096   8.556   4.958  1.00  0.00     0.064 A 
ATOM     14  C   UNL     1     -21.141   9.020   4.026  1.00  0.00     0.130 A 
ATOM     15  C   UNL     1     -22.125   7.185   5.277  1.00  0.00     0.020 A 
ATOM     16  C   UNL     1     -20.245   8.118   3.432  1.00  0.00     0.093 A 
ATOM     17  C   UNL     1     -21.229   6.296   4.678  1.00  0.00     0.047 A 
ATOM     18  C   UNL     1     -20.288   6.760   3.754  1.00  0.00     0.119 A 
BRANCH  14  19
ATOM     19  O   UNL     1     -21.090  10.370   3.678  1.00  0.00    -0.507 OA
ATOM     20  H   UNL     1     -20.669  10.682   2.811  1.00  0.00     0.293 HD
ENDBRANCH  14  19
BRANCH  18  21
ATOM     21  O   UNL     1     -19.390   5.881   3.151  1.00  0.00    -0.508 OA
ATOM     22  H   UNL     1     -18.476   5.701   3.549  1.00  0.00     0.293 HD
ENDBRANCH  18  21
ENDBRANCH  11  13
ENDBRANCH   2  11
TORSDOF 6
ENDMDL
MODEL 3
REMARK VINA RESULT:     2.295      1.770      2.790
REMARK INTER + INTRA:           2.399
REMARK INTER:                   2.800
REMARK INTRA:                  -0.400
REMARK UNBOUND:                -0.499
REMARK SMILES O=C(C=Cc1ccc(O)cc1)c1ccc(O)cc1O
REMARK SMILES IDX 4 1 3 2 5 3 6 4 7 5 8 6 11 7 10 8 9 9 2 11 1 12 12 13 18 14
REMARK SMILES IDX 13 15 17 16 14 17 15 18 19 19 16 21
REMARK H PARENT 9 10 19 20 16 22
REMARK Flexibility Score: inf
ROOT
ATOM      1  C   UNL     1     -21.983  13.636   4.913  1.00  0.00     0.012 C 
ATOM      2  C   UNL     1     -22.378  12.365   5.073  1.00  0.00     0.053 C 
ENDROOT
BRANCH   1   3
ATOM      3  C   UNL     1     -22.825  14.810   5.248  1.00  0.00    -0.025 A 
ATOM      4  C   UNL     1     -24.194  14.768   4.936  1.00  0.00     0.012 A 
ATOM      5  C   UNL     1     -25.024  15.855   5.227  1.00  0.00     0.047 A 
ATOM      6  C   UNL     1     -24.497  17.004   5.821  1.00  0.00     0.115 A 
ATOM      7  C   UNL     1     -22.297  15.979   5.835  1.00  0.00     0.012 A 
ATOM      8  C   UNL     1     -23.131  17.065   6.122  1.00  0.00     0.047 A 
BRANCH   6   9
ATOM      9  O   UNL     1     -25.335  18.080   6.105  1.00  0.00    -0.508 OA
ATOM     10  H   UNL     1     -25.338  18.915   5.531  1.00  0.00     0.293 HD
ENDBRANCH   6   9
ENDBRANCH   1   3
BRANCH   2  11
ATOM     11  C   UNL     1     -21.515  11.219   4.709  1.00  0.00     0.189 C 
ATOM     12  O   UNL     1     -20.410  11.426   4.136  1.00  0.00    -0.289 OA
BRANCH  11  13
ATOM     13  C   UNL     1     -21.935   9.824   4.999  1.00  0.00     0.064 A 
ATOM     14  C   UNL     1     -21.222   8.727   4.466  1.00  0.00     0.130 A 
ATOM     15  C   UNL     1     -23.041   9.577   5.833  1.00  0.00     0.020 A 
ATOM     16  C   UNL     1     -21.625   7.417   4.767  1.00  0.00     0.093 A 
ATOM     17  C   UNL     1     -23.435   8.268   6.124  1.00  0.00     0.047 A 
ATOM     18  C   UNL     1     -22.727   7.185   5.591  1.00  0.00     0.119 A 
BRANCH  14  19
ATOM     19  O   UNL     1     -20.127   8.935   3.627  1.00  0.00    -0.507 OA
ATOM     20  H   UNL     1     -19.316   9.461   3.930  1.00  0.00     0.293 HD
ENDBRANCH  14  19
BRANCH  18  21
ATOM     21  O   UNL     1     -23.112   5.877   5.876  1.00  0.00    -0.508 OA
ATOM     22  H   UNL     1     -23.913   5.676   6.463  1.00  0.00     0.293 HD
ENDBRANCH  18  21
ENDBRANCH  11  13
ENDBRANCH   2  11
TORSDOF 6
ENDMDL
