MODEL 1
REMARK VINA RESULT:    -4.179      0.000      0.000
REMARK INTER + INTRA:          -5.482
REMARK INTER:                  -5.156
REMARK INTRA:                  -0.326
REMARK UNBOUND:                -0.326
REMARK SMILES CCCCC=CC(C)=O
REMARK SMILES IDX 4 1 3 2 2 3 1 4 5 5 6 6 7 7 9 8 8 9
REMARK H PARENT
REMARK Flexibility Score: inf
ROOT
ATOM      1  C   UNL     1       1.502  20.804  -8.091  1.00  0.00     0.027 C 
ENDROOT
BRANCH   1   2
ATOM      2  C   UNL     1       1.388  21.990  -7.123  1.00  0.00     0.004 C 
BRANCH   2   3
ATOM      3  C   UNL     1       0.257  22.952  -7.515  1.00  0.00    -0.003 C 
ATOM      4  C   UNL     1       0.623  23.754  -8.760  1.00  0.00     0.004 C 
ENDBRANCH   2   3
ENDBRANCH   1   2
BRANCH   1   5
ATOM      5  C   UNL     1       2.902  20.667  -8.632  1.00  0.00    -0.023 C 
ATOM      6  C   UNL     1       3.815  19.780  -8.208  1.00  0.00     0.042 C 
BRANCH   6   7
ATOM      7  C   UNL     1       3.563  18.701  -7.237  1.00  0.00     0.152 C 
ATOM      8  O   UNL     1       3.069  17.617  -7.649  1.00  0.00    -0.295 OA
ATOM      9  C   UNL     1       3.772  18.888  -5.767  1.00  0.00     0.093 C 
ENDBRANCH   6   7
ENDBRANCH   1   5
TORSDOF 4
ENDMDL
MODEL 2
REMARK VINA RESULT:    -4.154      2.122      3.418
REMARK INTER + INTRA:          -5.451
REMARK INTER:                  -5.123
REMARK INTRA:                  -0.329
REMARK UNBOUND:                -0.326
REMARK SMILES CCCCC=CC(C)=O
REMARK SMILES IDX 4 1 3 2 2 3 1 4 5 5 6 6 7 7 9 8 8 9
REMARK H PARENT
REMARK Flexibility Score: inf
ROOT
ATOM      1  C   UNL     1       3.745  19.346  -6.588  1.00  0.00     0.027 C 
ENDROOT
BRANCH   1   2
ATOM      2  C   UNL     1       3.759  19.425  -8.121  1.00  0.00     0.004 C 
BRANCH   2   3
ATOM      3  C   UNL     1       2.493  20.090  -8.679  1.00  0.00    -0.003 C 
ATOM      4  C   UNL     1       2.676  21.599  -8.810  1.00  0.00     0.004 C 
ENDBRANCH   2   3
ENDBRANCH   1   2
BRANCH   1   5
ATOM      5  C   UNL     1       2.601  18.500  -6.090  1.00  0.00    -0.023 C 
ATOM      6  C   UNL     1       2.701  17.229  -5.672  1.00  0.00     0.042 C 
BRANCH   6   7
ATOM      7  C   UNL     1       3.963  16.489  -5.499  1.00  0.00     0.152 C 
ATOM      8  O   UNL     1       4.668  16.718  -4.479  1.00  0.00    -0.295 OA
ATOM      9  C   UNL     1       4.487  15.555  -6.545  1.00  0.00     0.093 C 
ENDBRANCH   6   7
ENDBRANCH   1   5
TORSDOF 4
ENDMDL
MODEL 3
REMARK VINA RESULT:    -4.144      1.440      1.662
REMARK INTER + INTRA:          -5.439
REMARK INTER:                  -5.241
REMARK INTRA:                  -0.198
REMARK UNBOUND:                -0.326
REMARK SMILES CCCCC=CC(C)=O
REMARK SMILES IDX 4 1 3 2 2 3 1 4 5 5 6 6 7 7 9 8 8 9
REMARK H PARENT
REMARK Flexibility Score: inf
ROOT
ATOM      1  C   UNL     1       2.223  21.109  -8.204  1.00  0.00     0.027 C 
ENDROOT
BRANCH   1   2
ATOM      2  C   UNL     1       2.297  22.335  -9.125  1.00  0.00     0.004 C 
BRANCH   2   3
ATOM      3  C   UNL     1       1.088  23.265  -8.951  1.00  0.00    -0.003 C 
ATOM      4  C   UNL     1       0.373  22.998  -7.630  1.00  0.00     0.004 C 
ENDBRANCH   2   3
ENDBRANCH   1   2
BRANCH   1   5
ATOM      5  C   UNL     1       3.252  20.074  -8.581  1.00  0.00    -0.023 C 
ATOM      6  C   UNL     1       3.767  19.154  -7.751  1.00  0.00     0.042 C 
BRANCH   6   7
ATOM      7  C   UNL     1       3.317  18.910  -6.370  1.00  0.00     0.152 C 
ATOM      8  O   UNL     1       3.767  19.638  -5.445  1.00  0.00    -0.295 OA
ATOM      9  C   UNL     1       2.428  17.758  -6.016  1.00  0.00     0.093 C 
ENDBRANCH   6   7
ENDBRANCH   1   5
TORSDOF 4
ENDMDL
MODEL 4
REMARK VINA RESULT:    -3.974      1.697      2.622
REMARK INTER + INTRA:          -5.229
REMARK INTER:                  -4.743
REMARK INTRA:                  -0.486
REMARK UNBOUND:                -0.326
REMARK SMILES CCCCC=CC(C)=O
REMARK SMILES IDX 4 1 3 2 2 3 1 4 5 5 6 6 7 7 9 8 8 9
REMARK H PARENT
REMARK Flexibility Score: inf
ROOT
ATOM      1  C   UNL     1       3.354  19.988  -7.734  1.00  0.00     0.027 C 
ENDROOT
BRANCH   1   2
ATOM      2  C   UNL     1       2.994  21.056  -8.776  1.00  0.00     0.004 C 
BRANCH   2   3
ATOM      3  C   UNL     1       1.520  21.476  -8.691  1.00  0.00    -0.003 C 
ATOM      4  C   UNL     1       1.172  21.985  -7.295  1.00  0.00     0.004 C 
ENDBRANCH   2   3
ENDBRANCH   1   2
BRANCH   1   5
ATOM      5  C   UNL     1       3.601  18.649  -8.379  1.00  0.00    -0.023 C 
ATOM      6  C   UNL     1       2.809  17.573  -8.263  1.00  0.00     0.042 C 
BRANCH   6   7
ATOM      7  C   UNL     1       1.493  17.555  -7.601  1.00  0.00     0.152 C 
ATOM      8  O   UNL     1       1.412  17.129  -6.418  1.00  0.00    -0.295 OA
ATOM      9  C   UNL     1       0.234  17.926  -8.324  1.00  0.00     0.093 C 
ENDBRANCH   6   7
ENDBRANCH   1   5
TORSDOF 4
ENDMDL
MODEL 5
REMARK VINA RESULT:    -3.714      4.476      7.504
REMARK INTER + INTRA:          -4.909
REMARK INTER:                  -4.668
REMARK INTRA:                  -0.240
REMARK UNBOUND:                -0.326
REMARK SMILES CCCCC=CC(C)=O
REMARK SMILES IDX 4 1 3 2 2 3 1 4 5 5 6 6 7 7 9 8 8 9
REMARK H PARENT
REMARK Flexibility Score: inf
ROOT
ATOM      1  C   UNL     1       5.286  14.697  -7.123  1.00  0.00     0.027 C 
ENDROOT
BRANCH   1   2
ATOM      2  C   UNL     1       5.470  14.368  -8.610  1.00  0.00     0.004 C 
BRANCH   2   3
ATOM      3  C   UNL     1       4.992  12.951  -8.955  1.00  0.00    -0.003 C 
ATOM      4  C   UNL     1       5.795  11.899  -8.196  1.00  0.00     0.004 C 
ENDBRANCH   2   3
ENDBRANCH   1   2
BRANCH   1   5
ATOM      5  C   UNL     1       3.827  14.743  -6.745  1.00  0.00    -0.023 C 
ATOM      6  C   UNL     1       3.271  15.629  -5.904  1.00  0.00     0.042 C 
BRANCH   6   7
ATOM      7  C   UNL     1       3.961  16.790  -5.315  1.00  0.00     0.152 C 
ATOM      8  O   UNL     1       4.730  16.607  -4.334  1.00  0.00    -0.295 OA
ATOM      9  C   UNL     1       3.697  18.190  -5.777  1.00  0.00     0.093 C 
ENDBRANCH   6   7
ENDBRANCH   1   5
TORSDOF 4
ENDMDL
MODEL 6
REMARK VINA RESULT:    -3.695      3.020      4.271
REMARK INTER + INTRA:          -4.885
REMARK INTER:                  -4.707
REMARK INTRA:                  -0.178
REMARK UNBOUND:                -0.326
REMARK SMILES CCCCC=CC(C)=O
REMARK SMILES IDX 4 1 3 2 2 3 1 4 5 5 6 6 7 7 9 8 8 9
REMARK H PARENT
REMARK Flexibility Score: inf
ROOT
ATOM      1  C   UNL     1       3.576  17.415  -7.771  1.00  0.00     0.027 C 
ENDROOT
BRANCH   1   2
ATOM      2  C   UNL     1       3.965  18.780  -8.355  1.00  0.00     0.004 C 
BRANCH   2   3
ATOM      3  C   UNL     1       3.235  19.938  -7.660  1.00  0.00    -0.003 C 
ATOM      4  C   UNL     1       2.897  21.049  -8.650  1.00  0.00     0.004 C 
ENDBRANCH   2   3
ENDBRANCH   1   2
BRANCH   1   5
ATOM      5  C   UNL     1       4.235  16.286  -8.522  1.00  0.00    -0.023 C 
ATOM      6  C   UNL     1       4.759  15.185  -7.963  1.00  0.00     0.042 C 
BRANCH   6   7
ATOM      7  C   UNL     1       4.657  14.825  -6.538  1.00  0.00     0.152 C 
ATOM      8  O   UNL     1       5.646  15.034  -5.786  1.00  0.00    -0.295 OA
ATOM      9  C   UNL     1       3.459  14.122  -5.979  1.00  0.00     0.093 C 
ENDBRANCH   6   7
ENDBRANCH   1   5
TORSDOF 4
ENDMDL
MODEL 7
REMARK VINA RESULT:    -3.590      5.467      7.777
REMARK INTER + INTRA:          -4.755
REMARK INTER:                  -4.222
REMARK INTRA:                  -0.533
REMARK UNBOUND:                -0.326
REMARK SMILES CCCCC=CC(C)=O
REMARK SMILES IDX 4 1 3 2 2 3 1 4 5 5 6 6 7 7 9 8 8 9
REMARK H PARENT
REMARK Flexibility Score: inf
ROOT
ATOM      1  C   UNL     1       5.657  14.593  -8.669  1.00  0.00     0.027 C 
ENDROOT
BRANCH   1   2
ATOM      2  C   UNL     1       4.944  13.301  -9.091  1.00  0.00     0.004 C 
BRANCH   2   3
ATOM      3  C   UNL     1       5.564  12.057  -8.438  1.00  0.00    -0.003 C 
ATOM      4  C   UNL     1       5.940  12.327  -6.985  1.00  0.00     0.004 C 
ENDBRANCH   2   3
ENDBRANCH   1   2
BRANCH   1   5
ATOM      5  C   UNL     1       4.702  15.758  -8.622  1.00  0.00    -0.023 C 
ATOM      6  C   UNL     1       3.916  16.076  -7.582  1.00  0.00     0.042 C 
BRANCH   6   7
ATOM      7  C   UNL     1       3.952  15.424  -6.261  1.00  0.00     0.152 C 
ATOM      8  O   UNL     1       4.833  15.777  -5.432  1.00  0.00    -0.295 OA
ATOM      9  C   UNL     1       3.046  14.284  -5.912  1.00  0.00     0.093 C 
ENDBRANCH   6   7
ENDBRANCH   1   5
TORSDOF 4
ENDMDL
MODEL 8
REMARK VINA RESULT:    -3.564      2.088      4.376
REMARK INTER + INTRA:          -4.723
REMARK INTER:                  -4.315
REMARK INTRA:                  -0.408
REMARK UNBOUND:                -0.326
REMARK SMILES CCCCC=CC(C)=O
REMARK SMILES IDX 4 1 3 2 2 3 1 4 5 5 6 6 7 7 9 8 8 9
REMARK H PARENT
REMARK Flexibility Score: inf
ROOT
ATOM      1  C   UNL     1       2.776  18.223  -8.173  1.00  0.00     0.027 C 
ENDROOT
BRANCH   1   2
ATOM      2  C   UNL     1       2.336  17.491  -6.899  1.00  0.00     0.004 C 
BRANCH   2   3
ATOM      3  C   UNL     1       3.282  17.757  -5.720  1.00  0.00    -0.003 C 
ATOM      4  C   UNL     1       3.845  19.174  -5.775  1.00  0.00     0.004 C 
ENDBRANCH   2   3
ENDBRANCH   1   2
BRANCH   1   5
ATOM      5  C   UNL     1       1.590  18.699  -8.973  1.00  0.00    -0.023 C 
ATOM      6  C   UNL     1       1.123  19.956  -8.996  1.00  0.00     0.042 C 
BRANCH   6   7
ATOM      7  C   UNL     1       1.771  21.114  -8.353  1.00  0.00     0.152 C 
ATOM      8  O   UNL     1       1.538  21.342  -7.136  1.00  0.00    -0.295 OA
ATOM      9  C   UNL     1       2.608  22.086  -9.125  1.00  0.00     0.093 C 
ENDBRANCH   6   7
ENDBRANCH   1   5
TORSDOF 4
ENDMDL
MODEL 9
REMARK VINA RESULT:    -3.503      4.189      5.097
REMARK INTER + INTRA:          -4.648
REMARK INTER:                  -4.055
REMARK INTRA:                  -0.594
REMARK UNBOUND:                -0.326
REMARK SMILES CCCCC=CC(C)=O
REMARK SMILES IDX 4 1 3 2 2 3 1 4 5 5 6 6 7 7 9 8 8 9
REMARK H PARENT
REMARK Flexibility Score: inf
ROOT
ATOM      1  C   UNL     1       3.734  17.234  -8.116  1.00  0.00     0.027 C 
ENDROOT
BRANCH   1   2
ATOM      2  C   UNL     1       2.224  16.968  -8.189  1.00  0.00     0.004 C 
BRANCH   2   3
ATOM      3  C   UNL     1       1.513  17.294  -6.868  1.00  0.00    -0.003 C 
ATOM      4  C   UNL     1       2.518  17.621  -5.768  1.00  0.00     0.004 C 
ENDBRANCH   2   3
ENDBRANCH   1   2
BRANCH   1   5
ATOM      5  C   UNL     1       4.523  16.098  -8.716  1.00  0.00    -0.023 C 
ATOM      6  C   UNL     1       5.036  15.064  -8.034  1.00  0.00     0.042 C 
BRANCH   6   7
ATOM      7  C   UNL     1       4.800  14.788  -6.606  1.00  0.00     0.152 C 
ATOM      8  O   UNL     1       5.676  15.131  -5.767  1.00  0.00    -0.295 OA
ATOM      9  C   UNL     1       3.605  14.019  -6.132  1.00  0.00     0.093 C 
ENDBRANCH   6   7
ENDBRANCH   1   5
TORSDOF 4
ENDMDL
