MODEL 1
REMARK VINA RESULT:     0.727      0.000      0.000
REMARK INTER + INTRA:           0.733
REMARK INTER:                   1.067
REMARK INTRA:                  -0.333
REMARK UNBOUND:                -0.333
REMARK SMILES O=C([O-])CCCCCCCC(=O)[O-]
REMARK SMILES IDX 7 1 6 2 5 3 4 4 2 5 1 6 3 7 8 8 9 9 10 10 11 11 12 12 13 13
REMARK H PARENT
REMARK Flexibility Score: inf
ROOT
ATOM      1  C   UNL     1     104.721 105.370 104.726  1.00  0.00     0.000 C 
ENDROOT
BRANCH   1   2
ATOM      2  C   UNL     1     104.504 106.242 105.969  1.00  0.00     0.000 C 
BRANCH   2   3
ATOM      3  C   UNL     1     104.259 105.375 107.213  1.00  0.00     0.006 C 
BRANCH   3   4
ATOM      4  C   UNL     1     104.639 103.906 106.980  1.00  0.00     0.053 C 
BRANCH   4   5
ATOM      5  C   UNL     1     103.483 102.986 107.227  1.00  0.00     0.041 C 
ATOM      6  O   UNL     1     102.312 103.444 107.301  1.00  0.00    -0.550 OA
ATOM      7  O   UNL     1     103.702 101.627 107.409  1.00  0.00    -0.550 OA
ENDBRANCH   4   5
ENDBRANCH   3   4
ENDBRANCH   2   3
ENDBRANCH   1   2
BRANCH   1   8
ATOM      8  C   UNL     1     104.624 106.208 103.442  1.00  0.00     0.000 C 
BRANCH   8   9
ATOM      9  C   UNL     1     104.083 105.404 102.249  1.00  0.00     0.006 C 
BRANCH   9  10
ATOM     10  C   UNL     1     104.604 103.961 102.224  1.00  0.00     0.053 C 
BRANCH  10  11
ATOM     11  C   UNL     1     103.487 102.998 102.469  1.00  0.00     0.041 C 
ATOM     12  O   UNL     1     102.295 103.405 102.501  1.00  0.00    -0.550 OA
ATOM     13  O   UNL     1     103.755 101.643 102.613  1.00  0.00    -0.550 OA
ENDBRANCH  10  11
ENDBRANCH   9  10
ENDBRANCH   8   9
ENDBRANCH   1   8
TORSDOF 8
ENDMDL
MODEL 2
REMARK VINA RESULT:     0.735      2.314      5.533
REMARK INTER + INTRA:           0.745
REMARK INTER:                   1.068
REMARK INTRA:                  -0.323
REMARK UNBOUND:                -0.333
REMARK SMILES O=C([O-])CCCCCCCC(=O)[O-]
REMARK SMILES IDX 7 1 6 2 5 3 4 4 2 5 1 6 3 7 8 8 9 9 10 10 11 11 12 12 13 13
REMARK H PARENT
REMARK Flexibility Score: inf
ROOT
ATOM      1  C   UNL     1     103.306 102.968 104.668  1.00  0.00     0.000 C 
ENDROOT
BRANCH   1   2
ATOM      2  C   UNL     1     103.383 102.093 103.411  1.00  0.00     0.000 C 
BRANCH   2   3
ATOM      3  C   UNL     1     103.892 102.903 102.209  1.00  0.00     0.006 C 
BRANCH   3   4
ATOM      4  C   UNL     1     103.395 104.354 102.234  1.00  0.00     0.053 C 
BRANCH   4   5
ATOM      5  C   UNL     1     104.520 105.324 102.429  1.00  0.00     0.041 C 
ATOM      6  O   UNL     1     105.708 104.912 102.499  1.00  0.00    -0.550 OA
ATOM      7  O   UNL     1     104.254 106.680 102.567  1.00  0.00    -0.550 OA
ENDBRANCH   4   5
ENDBRANCH   3   4
ENDBRANCH   2   3
ENDBRANCH   1   2
BRANCH   1   8
ATOM      8  C   UNL     1     103.403 102.111 105.940  1.00  0.00     0.000 C 
BRANCH   8   9
ATOM      9  C   UNL     1     103.745 102.940 107.188  1.00  0.00     0.006 C 
BRANCH   9  10
ATOM     10  C   UNL     1     103.328 104.411 107.053  1.00  0.00     0.053 C 
BRANCH  10  11
ATOM     11  C   UNL     1     104.507 105.308 107.254  1.00  0.00     0.041 C 
ATOM     12  O   UNL     1     105.675 104.839 107.210  1.00  0.00    -0.550 OA
ATOM     13  O   UNL     1     104.321 106.672 107.441  1.00  0.00    -0.550 OA
ENDBRANCH  10  11
ENDBRANCH   9  10
ENDBRANCH   8   9
ENDBRANCH   1   8
TORSDOF 8
ENDMDL
MODEL 3
REMARK VINA RESULT:     0.740      0.051      4.345
REMARK INTER + INTRA:           0.753
REMARK INTER:                   1.099
REMARK INTRA:                  -0.345
REMARK UNBOUND:                -0.333
REMARK SMILES O=C([O-])CCCCCCCC(=O)[O-]
REMARK SMILES IDX 7 1 6 2 5 3 4 4 2 5 1 6 3 7 8 8 9 9 10 10 11 11 12 12 13 13
REMARK H PARENT
REMARK Flexibility Score: inf
ROOT
ATOM      1  C   UNL     1     104.721 105.360 104.694  1.00  0.00     0.000 C 
ENDROOT
BRANCH   1   2
ATOM      2  C   UNL     1     104.633 106.209 103.420  1.00  0.00     0.000 C 
BRANCH   2   3
ATOM      3  C   UNL     1     104.063 105.391 102.252  1.00  0.00     0.006 C 
BRANCH   3   4
ATOM      4  C   UNL     1     104.574 103.944 102.253  1.00  0.00     0.053 C 
BRANCH   4   5
ATOM      5  C   UNL     1     103.460 102.960 102.444  1.00  0.00     0.041 C 
ATOM      6  O   UNL     1     102.268 103.358 102.514  1.00  0.00    -0.550 OA
ATOM      7  O   UNL     1     103.743 101.607 102.579  1.00  0.00    -0.550 OA
ENDBRANCH   4   5
ENDBRANCH   3   4
ENDBRANCH   2   3
ENDBRANCH   1   2
BRANCH   1   8
ATOM      8  C   UNL     1     104.530 106.227 105.948  1.00  0.00     0.000 C 
BRANCH   8   9
ATOM      9  C   UNL     1     104.203 105.396 107.199  1.00  0.00     0.006 C 
BRANCH   9  10
ATOM     10  C   UNL     1     104.663 103.937 107.076  1.00  0.00     0.053 C 
BRANCH  10  11
ATOM     11  C   UNL     1     103.505 103.009 107.263  1.00  0.00     0.041 C 
ATOM     12  O   UNL     1     102.329 103.458 107.280  1.00  0.00    -0.550 OA
ATOM     13  O   UNL     1     103.721 101.641 107.369  1.00  0.00    -0.550 OA
ENDBRANCH  10  11
ENDBRANCH   9  10
ENDBRANCH   8   9
ENDBRANCH   1   8
TORSDOF 8
ENDMDL
MODEL 4
REMARK VINA RESULT:     0.763      2.309      3.419
REMARK INTER + INTRA:           0.786
REMARK INTER:                   1.131
REMARK INTRA:                  -0.345
REMARK UNBOUND:                -0.333
REMARK SMILES O=C([O-])CCCCCCCC(=O)[O-]
REMARK SMILES IDX 7 1 6 2 5 3 4 4 2 5 1 6 3 7 8 8 9 9 10 10 11 11 12 12 13 13
REMARK H PARENT
REMARK Flexibility Score: inf
ROOT
ATOM      1  C   UNL     1     103.285 102.931 104.746  1.00  0.00     0.000 C 
ENDROOT
BRANCH   1   2
ATOM      2  C   UNL     1     103.521 102.078 105.998  1.00  0.00     0.000 C 
BRANCH   2   3
ATOM      3  C   UNL     1     103.643 102.960 107.250  1.00  0.00     0.006 C 
BRANCH   3   4
ATOM      4  C   UNL     1     103.335 104.434 106.953  1.00  0.00     0.053 C 
BRANCH   4   5
ATOM      5  C   UNL     1     104.513 105.316 107.235  1.00  0.00     0.041 C 
ATOM      6  O   UNL     1     105.672 104.827 107.292  1.00  0.00    -0.550 OA
ATOM      7  O   UNL     1     104.327 106.672 107.467  1.00  0.00    -0.550 OA
ENDBRANCH   4   5
ENDBRANCH   3   4
ENDBRANCH   2   3
ENDBRANCH   1   2
BRANCH   1   8
ATOM      8  C   UNL     1     103.395 102.080 103.472  1.00  0.00     0.000 C 
BRANCH   8   9
ATOM      9  C   UNL     1     103.910 102.882 102.266  1.00  0.00     0.006 C 
BRANCH   9  10
ATOM     10  C   UNL     1     103.392 104.326 102.252  1.00  0.00     0.053 C 
BRANCH  10  11
ATOM     11  C   UNL     1     104.517 105.286 102.467  1.00  0.00     0.041 C 
ATOM     12  O   UNL     1     105.704 104.869 102.526  1.00  0.00    -0.550 OA
ATOM     13  O   UNL     1     104.263 106.649 102.555  1.00  0.00    -0.550 OA
ENDBRANCH  10  11
ENDBRANCH   9  10
ENDBRANCH   8   9
ENDBRANCH   1   8
TORSDOF 8
ENDMDL
MODEL 5
REMARK VINA RESULT:     0.834      3.836      7.251
REMARK INTER + INTRA:           0.891
REMARK INTER:                   1.286
REMARK INTRA:                  -0.395
REMARK UNBOUND:                -0.333
REMARK SMILES O=C([O-])CCCCCCCC(=O)[O-]
REMARK SMILES IDX 7 1 6 2 5 3 4 4 2 5 1 6 3 7 8 8 9 9 10 10 11 11 12 12 13 13
REMARK H PARENT
REMARK Flexibility Score: inf
ROOT
ATOM      1  C   UNL     1     103.267 102.839 100.029  1.00  0.00     0.000 C 
ENDROOT
BRANCH   1   2
ATOM      2  C   UNL     1     103.475 101.978  98.777  1.00  0.00     0.000 C 
BRANCH   2   3
ATOM      3  C   UNL     1     103.869 102.845  97.573  1.00  0.00     0.006 C 
BRANCH   3   4
ATOM      4  C   UNL     1     103.361 104.287  97.705  1.00  0.00     0.053 C 
BRANCH   4   5
ATOM      5  C   UNL     1     104.489 105.274  97.744  1.00  0.00     0.041 C 
ATOM      6  O   UNL     1     105.682 104.872  97.748  1.00  0.00    -0.550 OA
ATOM      7  O   UNL     1     104.220 106.635  97.811  1.00  0.00    -0.550 OA
ENDBRANCH   4   5
ENDBRANCH   3   4
ENDBRANCH   2   3
ENDBRANCH   1   2
BRANCH   1   8
ATOM      8  C   UNL     1     103.620 102.053 101.302  1.00  0.00     0.000 C 
BRANCH   8   9
ATOM      9  C   UNL     1     103.710 102.950 102.546  1.00  0.00     0.006 C 
BRANCH   9  10
ATOM     10  C   UNL     1     103.332 104.408 102.252  1.00  0.00     0.053 C 
BRANCH  10  11
ATOM     11  C   UNL     1     104.498 105.310 102.502  1.00  0.00     0.041 C 
ATOM     12  O   UNL     1     105.669 104.845 102.512  1.00  0.00    -0.550 OA
ATOM     13  O   UNL     1     104.299 106.674 102.674  1.00  0.00    -0.550 OA
ENDBRANCH  10  11
ENDBRANCH   9  10
ENDBRANCH   8   9
ENDBRANCH   1   8
TORSDOF 8
ENDMDL
MODEL 6
REMARK VINA RESULT:     0.839      3.171      4.698
REMARK INTER + INTRA:           0.898
REMARK INTER:                   1.303
REMARK INTRA:                  -0.405
REMARK UNBOUND:                -0.333
REMARK SMILES O=C([O-])CCCCCCCC(=O)[O-]
REMARK SMILES IDX 7 1 6 2 5 3 4 4 2 5 1 6 3 7 8 8 9 9 10 10 11 11 12 12 13 13
REMARK H PARENT
REMARK Flexibility Score: inf
ROOT
ATOM      1  C   UNL     1     104.788 105.473 100.070  1.00  0.00     0.000 C 
ENDROOT
BRANCH   1   2
ATOM      2  C   UNL     1     104.502 106.273 101.346  1.00  0.00     0.000 C 
BRANCH   2   3
ATOM      3  C   UNL     1     104.233 105.336 102.533  1.00  0.00     0.006 C 
BRANCH   3   4
ATOM      4  C   UNL     1     104.618 103.883 102.224  1.00  0.00     0.053 C 
BRANCH   4   5
ATOM      5  C   UNL     1     103.485 102.939 102.489  1.00  0.00     0.041 C 
ATOM      6  O   UNL     1     102.302 103.367 102.540  1.00  0.00    -0.550 OA
ATOM      7  O   UNL     1     103.740 101.592 102.713  1.00  0.00    -0.550 OA
ENDBRANCH   4   5
ENDBRANCH   3   4
ENDBRANCH   2   3
ENDBRANCH   1   2
BRANCH   1   8
ATOM      8  C   UNL     1     104.505 106.317  98.817  1.00  0.00     0.000 C 
BRANCH   8   9
ATOM      9  C   UNL     1     104.140 105.459  97.595  1.00  0.00     0.006 C 
BRANCH   9  10
ATOM     10  C   UNL     1     104.666 104.021  97.704  1.00  0.00     0.053 C 
BRANCH  10  11
ATOM     11  C   UNL     1     103.529 103.052  97.747  1.00  0.00     0.041 C 
ATOM     12  O   UNL     1     102.340 103.466  97.701  1.00  0.00    -0.550 OA
ATOM     13  O   UNL     1     103.780 101.686  97.790  1.00  0.00    -0.550 OA
ENDBRANCH  10  11
ENDBRANCH   9  10
ENDBRANCH   8   9
ENDBRANCH   1   8
TORSDOF 8
ENDMDL
MODEL 7
REMARK VINA RESULT:     0.854      3.828      5.805
REMARK INTER + INTRA:           0.921
REMARK INTER:                   1.278
REMARK INTRA:                  -0.357
REMARK UNBOUND:                -0.333
REMARK SMILES O=C([O-])CCCCCCCC(=O)[O-]
REMARK SMILES IDX 7 1 6 2 5 3 4 4 2 5 1 6 3 7 8 8 9 9 10 10 11 11 12 12 13 13
REMARK H PARENT
REMARK Flexibility Score: inf
ROOT
ATOM      1  C   UNL     1     103.257 102.856 100.104  1.00  0.00     0.000 C 
ENDROOT
BRANCH   1   2
ATOM      2  C   UNL     1     103.593 101.998 101.329  1.00  0.00     0.000 C 
BRANCH   2   3
ATOM      3  C   UNL     1     103.769 102.872 102.581  1.00  0.00     0.006 C 
BRANCH   3   4
ATOM      4  C   UNL     1     103.346 104.326 102.337  1.00  0.00     0.053 C 
BRANCH   4   5
ATOM      5  C   UNL     1     104.494 105.275 102.503  1.00  0.00     0.041 C 
ATOM      6  O   UNL     1     105.676 104.843 102.517  1.00  0.00    -0.550 OA
ATOM      7  O   UNL     1     104.255 106.632 102.677  1.00  0.00    -0.550 OA
ENDBRANCH   4   5
ENDBRANCH   3   4
ENDBRANCH   2   3
ENDBRANCH   1   2
BRANCH   1   8
ATOM      8  C   UNL     1     103.358 102.032  98.811  1.00  0.00     0.000 C 
BRANCH   8   9
ATOM      9  C   UNL     1     103.977 102.825  97.649  1.00  0.00     0.006 C 
BRANCH   9  10
ATOM     10  C   UNL     1     103.418 104.250  97.542  1.00  0.00     0.053 C 
BRANCH  10  11
ATOM     11  C   UNL     1     104.507 105.255  97.741  1.00  0.00     0.041 C 
ATOM     12  O   UNL     1     105.712 104.887  97.759  1.00  0.00    -0.550 OA
ATOM     13  O   UNL     1     104.198 106.604  97.856  1.00  0.00    -0.550 OA
ENDBRANCH  10  11
ENDBRANCH   9  10
ENDBRANCH   8   9
ENDBRANCH   1   8
TORSDOF 8
ENDMDL
MODEL 8
REMARK VINA RESULT:     0.859      3.902      7.286
REMARK INTER + INTRA:           0.928
REMARK INTER:                   1.273
REMARK INTRA:                  -0.346
REMARK UNBOUND:                -0.333
REMARK SMILES O=C([O-])CCCCCCCC(=O)[O-]
REMARK SMILES IDX 7 1 6 2 5 3 4 4 2 5 1 6 3 7 8 8 9 9 10 10 11 11 12 12 13 13
REMARK H PARENT
REMARK Flexibility Score: inf
ROOT
ATOM      1  C   UNL     1     103.253 102.909 109.435  1.00  0.00     0.000 C 
ENDROOT
BRANCH   1   2
ATOM      2  C   UNL     1     103.401 102.042 108.179  1.00  0.00     0.000 C 
BRANCH   2   3
ATOM      3  C   UNL     1     103.926 102.871 106.997  1.00  0.00     0.006 C 
BRANCH   3   4
ATOM      4  C   UNL     1     103.423 104.321 107.038  1.00  0.00     0.053 C 
BRANCH   4   5
ATOM      5  C   UNL     1     104.545 105.293 107.240  1.00  0.00     0.041 C 
ATOM      6  O   UNL     1     105.734 104.885 107.309  1.00  0.00    -0.550 OA
ATOM      7  O   UNL     1     104.274 106.648 107.385  1.00  0.00    -0.550 OA
ENDBRANCH   4   5
ENDBRANCH   3   4
ENDBRANCH   2   3
ENDBRANCH   1   2
BRANCH   1   8
ATOM      8  C   UNL     1     103.435 102.068 110.708  1.00  0.00     0.000 C 
BRANCH   8   9
ATOM      9  C   UNL     1     103.708 102.928 111.952  1.00  0.00     0.006 C 
BRANCH   9  10
ATOM     10  C   UNL     1     103.356 104.406 111.738  1.00  0.00     0.053 C 
BRANCH  10  11
ATOM     11  C   UNL     1     104.548 105.269 112.004  1.00  0.00     0.041 C 
ATOM     12  O   UNL     1     105.698 104.761 112.065  1.00  0.00    -0.550 OA
ATOM     13  O   UNL     1     104.396 106.644 112.135  1.00  0.00    -0.550 OA
ENDBRANCH  10  11
ENDBRANCH   9  10
ENDBRANCH   8   9
ENDBRANCH   1   8
TORSDOF 8
ENDMDL
MODEL 9
REMARK VINA RESULT:     0.884      3.864      5.862
REMARK INTER + INTRA:           0.964
REMARK INTER:                   1.262
REMARK INTRA:                  -0.298
REMARK UNBOUND:                -0.333
REMARK SMILES O=C([O-])CCCCCCCC(=O)[O-]
REMARK SMILES IDX 7 1 6 2 5 3 4 4 2 5 1 6 3 7 8 8 9 9 10 10 11 11 12 12 13 13
REMARK H PARENT
REMARK Flexibility Score: inf
ROOT
ATOM      1  C   UNL     1     103.306 102.979 109.497  1.00  0.00     0.000 C 
ENDROOT
BRANCH   1   2
ATOM      2  C   UNL     1     103.362 102.090 110.745  1.00  0.00     0.000 C 
BRANCH   2   3
ATOM      3  C   UNL     1     103.729 102.911 111.990  1.00  0.00     0.006 C 
BRANCH   3   4
ATOM      4  C   UNL     1     103.334 104.387 111.848  1.00  0.00     0.053 C 
BRANCH   4   5
ATOM      5  C   UNL     1     104.514 105.297 112.000  1.00  0.00     0.041 C 
ATOM      6  O   UNL     1     105.682 104.825 112.009  1.00  0.00    -0.550 OA
ATOM      7  O   UNL     1     104.323 106.663 112.166  1.00  0.00    -0.550 OA
ENDBRANCH   4   5
ENDBRANCH   3   4
ENDBRANCH   2   3
ENDBRANCH   1   2
BRANCH   1   8
ATOM      8  C   UNL     1     103.338 102.132 108.216  1.00  0.00     0.000 C 
BRANCH   8   9
ATOM      9  C   UNL     1     103.922 102.895 107.016  1.00  0.00     0.006 C 
BRANCH   9  10
ATOM     10  C   UNL     1     103.419 104.343 106.934  1.00  0.00     0.053 C 
BRANCH  10  11
ATOM     11  C   UNL     1     104.536 105.299 107.205  1.00  0.00     0.041 C 
ATOM     12  O   UNL     1     105.728 104.893 107.218  1.00  0.00    -0.550 OA
ATOM     13  O   UNL     1     104.267 106.648 107.394  1.00  0.00    -0.550 OA
ENDBRANCH  10  11
ENDBRANCH   9  10
ENDBRANCH   8   9
ENDBRANCH   1   8
TORSDOF 8
ENDMDL
