MODEL 1
REMARK VINA RESULT:    -3.365      0.000      0.000
REMARK INTER + INTRA:          -4.976
REMARK INTER:                  -4.742
REMARK INTRA:                  -0.234
REMARK UNBOUND:                -0.234
REMARK SMILES CCCCCCCCC(=O)[O-]
REMARK SMILES IDX 6 1 7 2 8 3 9 4 10 5 11 6 5 7 4 8 3 9 2 10 1 11
REMARK H PARENT
REMARK Flexibility Score: inf
ROOT
ATOM      1  C   UNL     1      16.113  -3.380  15.184  1.00  0.00     0.000 C 
ENDROOT
BRANCH   1   2
ATOM      2  C   UNL     1      15.609  -2.218  14.315  1.00  0.00     0.006 C 
BRANCH   2   3
ATOM      3  C   UNL     1      16.485  -0.975  14.502  1.00  0.00     0.053 C 
BRANCH   3   4
ATOM      4  C   UNL     1      15.772   0.051  15.325  1.00  0.00     0.041 C 
ATOM      5  O   UNL     1      14.880  -0.301  16.142  1.00  0.00    -0.550 OA
ATOM      6  O   UNL     1      16.056   1.399  15.156  1.00  0.00    -0.550 OA
ENDBRANCH   3   4
ENDBRANCH   2   3
ENDBRANCH   1   2
BRANCH   1   7
ATOM      7  C   UNL     1      16.021  -4.739  14.470  1.00  0.00     0.000 C 
BRANCH   7   8
ATOM      8  C   UNL     1      15.916  -4.596  12.941  1.00  0.00    -0.000 C 
BRANCH   8   9
ATOM      9  C   UNL     1      15.730  -5.948  12.234  1.00  0.00    -0.000 C 
BRANCH   9  10
ATOM     10  C   UNL     1      15.474  -5.800  10.727  1.00  0.00    -0.003 C 
ATOM     11  C   UNL     1      14.385  -6.760  10.258  1.00  0.00     0.004 C 
ENDBRANCH   9  10
ENDBRANCH   8   9
ENDBRANCH   7   8
ENDBRANCH   1   7
TORSDOF 7
ENDMDL
MODEL 2
REMARK VINA RESULT:    -3.284     18.127     19.961
REMARK INTER + INTRA:          -4.862
REMARK INTER:                  -4.361
REMARK INTRA:                  -0.501
REMARK UNBOUND:                -0.234
REMARK SMILES CCCCCCCCC(=O)[O-]
REMARK SMILES IDX 6 1 7 2 8 3 9 4 10 5 11 6 5 7 4 8 3 9 2 10 1 11
REMARK H PARENT
REMARK Flexibility Score: inf
ROOT
ATOM      1  C   UNL     1      27.392   9.087   4.687  1.00  0.00     0.000 C 
ENDROOT
BRANCH   1   2
ATOM      2  C   UNL     1      28.694   9.807   4.305  1.00  0.00     0.006 C 
BRANCH   2   3
ATOM      3  C   UNL     1      28.437  11.290   4.019  1.00  0.00     0.053 C 
BRANCH   3   4
ATOM      4  C   UNL     1      29.030  12.142   5.096  1.00  0.00     0.041 C 
ATOM      5  O   UNL     1      30.176  12.642   4.949  1.00  0.00    -0.550 OA
ATOM      6  O   UNL     1      28.339  12.343   6.283  1.00  0.00    -0.550 OA
ENDBRANCH   3   4
ENDBRANCH   2   3
ENDBRANCH   1   2
BRANCH   1   7
ATOM      7  C   UNL     1      27.176   9.018   6.207  1.00  0.00     0.000 C 
BRANCH   7   8
ATOM      8  C   UNL     1      25.762   9.463   6.623  1.00  0.00    -0.000 C 
BRANCH   8   9
ATOM      9  C   UNL     1      24.909   9.910   5.426  1.00  0.00    -0.000 C 
BRANCH   9  10
ATOM     10  C   UNL     1      23.993  11.097   5.759  1.00  0.00    -0.003 C 
ATOM     11  C   UNL     1      22.757  10.640   6.527  1.00  0.00     0.004 C 
ENDBRANCH   9  10
ENDBRANCH   8   9
ENDBRANCH   7   8
ENDBRANCH   1   7
TORSDOF 7
ENDMDL
MODEL 3
REMARK VINA RESULT:    -3.275      1.781      2.419
REMARK INTER + INTRA:          -4.849
REMARK INTER:                  -4.497
REMARK INTRA:                  -0.353
REMARK UNBOUND:                -0.234
REMARK SMILES CCCCCCCCC(=O)[O-]
REMARK SMILES IDX 6 1 7 2 8 3 9 4 10 5 11 6 5 7 4 8 3 9 2 10 1 11
REMARK H PARENT
REMARK Flexibility Score: inf
ROOT
ATOM      1  C   UNL     1      15.266  -1.614  14.648  1.00  0.00     0.000 C 
ENDROOT
BRANCH   1   2
ATOM      2  C   UNL     1      16.270  -0.456  14.550  1.00  0.00     0.006 C 
BRANCH   2   3
ATOM      3  C   UNL     1      16.470   0.212  15.914  1.00  0.00     0.053 C 
BRANCH   3   4
ATOM      4  C   UNL     1      17.540  -0.490  16.690  1.00  0.00     0.041 C 
ATOM      5  O   UNL     1      17.660  -0.289  17.928  1.00  0.00    -0.550 OA
ATOM      6  O   UNL     1      18.434  -1.329  16.039  1.00  0.00    -0.550 OA
ENDBRANCH   3   4
ENDBRANCH   2   3
ENDBRANCH   1   2
BRANCH   1   7
ATOM      7  C   UNL     1      15.761  -2.890  13.945  1.00  0.00     0.000 C 
BRANCH   7   8
ATOM      8  C   UNL     1      15.968  -4.059  14.924  1.00  0.00    -0.000 C 
BRANCH   8   9
ATOM      9  C   UNL     1      15.884  -5.429  14.232  1.00  0.00    -0.000 C 
BRANCH   9  10
ATOM     10  C   UNL     1      16.630  -5.463  12.889  1.00  0.00    -0.003 C 
ATOM     11  C   UNL     1      15.692  -5.846  11.749  1.00  0.00     0.004 C 
ENDBRANCH   9  10
ENDBRANCH   8   9
ENDBRANCH   7   8
ENDBRANCH   1   7
TORSDOF 7
ENDMDL
MODEL 4
REMARK VINA RESULT:    -3.207      3.552      6.283
REMARK INTER + INTRA:          -4.753
REMARK INTER:                  -4.496
REMARK INTRA:                  -0.257
REMARK UNBOUND:                -0.234
REMARK SMILES CCCCCCCCC(=O)[O-]
REMARK SMILES IDX 6 1 7 2 8 3 9 4 10 5 11 6 5 7 4 8 3 9 2 10 1 11
REMARK H PARENT
REMARK Flexibility Score: inf
ROOT
ATOM      1  C   UNL     1      16.027  -3.936  15.010  1.00  0.00     0.000 C 
ENDROOT
BRANCH   1   2
ATOM      2  C   UNL     1      15.918  -5.346  14.410  1.00  0.00     0.006 C 
BRANCH   2   3
ATOM      3  C   UNL     1      16.152  -5.316  12.896  1.00  0.00     0.053 C 
BRANCH   3   4
ATOM      4  C   UNL     1      17.429  -6.013  12.549  1.00  0.00     0.041 C 
ATOM      5  O   UNL     1      18.365  -6.075  13.389  1.00  0.00    -0.550 OA
ATOM      6  O   UNL     1      17.605  -6.551  11.281  1.00  0.00    -0.550 OA
ENDBRANCH   3   4
ENDBRANCH   2   3
ENDBRANCH   1   2
BRANCH   1   7
ATOM      7  C   UNL     1      15.729  -2.829  13.986  1.00  0.00     0.000 C 
BRANCH   7   8
ATOM      8  C   UNL     1      15.270  -1.518  14.649  1.00  0.00    -0.000 C 
BRANCH   8   9
ATOM      9  C   UNL     1      16.343  -0.419  14.587  1.00  0.00    -0.000 C 
BRANCH   9  10
ATOM     10  C   UNL     1      16.178   0.635  15.692  1.00  0.00    -0.003 C 
ATOM     11  C   UNL     1      15.755   1.980  15.110  1.00  0.00     0.004 C 
ENDBRANCH   9  10
ENDBRANCH   8   9
ENDBRANCH   7   8
ENDBRANCH   1   7
TORSDOF 7
ENDMDL
MODEL 5
REMARK VINA RESULT:    -3.173     12.546     13.912
REMARK INTER + INTRA:          -4.705
REMARK INTER:                  -4.358
REMARK INTRA:                  -0.347
REMARK UNBOUND:                -0.234
REMARK SMILES CCCCCCCCC(=O)[O-]
REMARK SMILES IDX 6 1 7 2 8 3 9 4 10 5 11 6 5 7 4 8 3 9 2 10 1 11
REMARK H PARENT
REMARK Flexibility Score: inf
ROOT
ATOM      1  C   UNL     1      25.638   0.685   7.388  1.00  0.00     0.000 C 
ENDROOT
BRANCH   1   2
ATOM      2  C   UNL     1      24.649   1.093   6.286  1.00  0.00     0.006 C 
BRANCH   2   3
ATOM      3  C   UNL     1      24.484   2.615   6.233  1.00  0.00     0.053 C 
BRANCH   3   4
ATOM      4  C   UNL     1      23.094   2.979   5.817  1.00  0.00     0.041 C 
ATOM      5  O   UNL     1      22.104   2.520   6.446  1.00  0.00    -0.550 OA
ATOM      6  O   UNL     1      22.890   3.784   4.704  1.00  0.00    -0.550 OA
ENDBRANCH   3   4
ENDBRANCH   2   3
ENDBRANCH   1   2
BRANCH   1   7
ATOM      7  C   UNL     1      27.104   0.906   6.982  1.00  0.00     0.000 C 
BRANCH   7   8
ATOM      8  C   UNL     1      27.832   1.894   7.911  1.00  0.00    -0.000 C 
BRANCH   8   9
ATOM      9  C   UNL     1      27.540   1.630   9.397  1.00  0.00    -0.000 C 
BRANCH   9  10
ATOM     10  C   UNL     1      28.683   2.085  10.317  1.00  0.00    -0.003 C 
ATOM     11  C   UNL     1      29.829   2.689   9.512  1.00  0.00     0.004 C 
ENDBRANCH   9  10
ENDBRANCH   8   9
ENDBRANCH   7   8
ENDBRANCH   1   7
TORSDOF 7
ENDMDL
MODEL 6
REMARK VINA RESULT:    -3.140      3.408      5.328
REMARK INTER + INTRA:          -4.660
REMARK INTER:                  -4.278
REMARK INTRA:                  -0.382
REMARK UNBOUND:                -0.234
REMARK SMILES CCCCCCCCC(=O)[O-]
REMARK SMILES IDX 6 1 7 2 8 3 9 4 10 5 11 6 5 7 4 8 3 9 2 10 1 11
REMARK H PARENT
REMARK Flexibility Score: inf
ROOT
ATOM      1  C   UNL     1      15.485  -5.762  10.476  1.00  0.00     0.000 C 
ENDROOT
BRANCH   1   2
ATOM      2  C   UNL     1      15.551  -6.423  11.861  1.00  0.00     0.006 C 
BRANCH   2   3
ATOM      3  C   UNL     1      16.895  -6.142  12.539  1.00  0.00     0.053 C 
BRANCH   3   4
ATOM      4  C   UNL     1      16.704  -5.274  13.743  1.00  0.00     0.041 C 
ATOM      5  O   UNL     1      17.206  -5.606  14.849  1.00  0.00    -0.550 OA
ATOM      6  O   UNL     1      15.931  -4.124  13.655  1.00  0.00    -0.550 OA
ENDBRANCH   3   4
ENDBRANCH   2   3
ENDBRANCH   1   2
BRANCH   1   7
ATOM      7  C   UNL     1      15.412  -6.786   9.332  1.00  0.00     0.000 C 
BRANCH   7   8
ATOM      8  C   UNL     1      16.424  -6.492   8.210  1.00  0.00    -0.000 C 
BRANCH   8   9
ATOM      9  C   UNL     1      17.452  -5.422   8.610  1.00  0.00    -0.000 C 
BRANCH   9  10
ATOM     10  C   UNL     1      17.792  -4.464   7.458  1.00  0.00    -0.003 C 
ATOM     11  C   UNL     1      19.222  -3.946   7.578  1.00  0.00     0.004 C 
ENDBRANCH   9  10
ENDBRANCH   8   9
ENDBRANCH   7   8
ENDBRANCH   1   7
TORSDOF 7
ENDMDL
MODEL 7
REMARK VINA RESULT:    -3.136     16.788     18.811
REMARK INTER + INTRA:          -4.653
REMARK INTER:                  -4.324
REMARK INTRA:                  -0.329
REMARK UNBOUND:                -0.234
REMARK SMILES CCCCCCCCC(=O)[O-]
REMARK SMILES IDX 6 1 7 2 8 3 9 4 10 5 11 6 5 7 4 8 3 9 2 10 1 11
REMARK H PARENT
REMARK Flexibility Score: inf
ROOT
ATOM      1  C   UNL     1      25.371   9.726   5.440  1.00  0.00     0.000 C 
ENDROOT
BRANCH   1   2
ATOM      2  C   UNL     1      26.710   9.754   6.192  1.00  0.00     0.006 C 
BRANCH   2   3
ATOM      3  C   UNL     1      27.748  10.585   5.431  1.00  0.00     0.053 C 
BRANCH   3   4
ATOM      4  C   UNL     1      27.609  12.036   5.767  1.00  0.00     0.041 C 
ATOM      5  O   UNL     1      27.825  12.437   6.942  1.00  0.00    -0.550 OA
ATOM      6  O   UNL     1      27.193  12.938   4.798  1.00  0.00    -0.550 OA
ENDBRANCH   3   4
ENDBRANCH   2   3
ENDBRANCH   1   2
BRANCH   1   7
ATOM      7  C   UNL     1      24.218  10.333   6.257  1.00  0.00     0.000 C 
BRANCH   7   8
ATOM      8  C   UNL     1      22.948  10.549   5.415  1.00  0.00    -0.000 C 
BRANCH   8   9
ATOM      9  C   UNL     1      21.679  10.651   6.276  1.00  0.00    -0.000 C 
BRANCH   9  10
ATOM     10  C   UNL     1      21.989  10.821   7.771  1.00  0.00    -0.003 C 
ATOM     11  C   UNL     1      20.788  10.435   8.628  1.00  0.00     0.004 C 
ENDBRANCH   9  10
ENDBRANCH   8   9
ENDBRANCH   7   8
ENDBRANCH   1   7
TORSDOF 7
ENDMDL
MODEL 8
REMARK VINA RESULT:    -3.106      2.360      3.846
REMARK INTER + INTRA:          -4.612
REMARK INTER:                  -4.369
REMARK INTRA:                  -0.242
REMARK UNBOUND:                -0.234
REMARK SMILES CCCCCCCCC(=O)[O-]
REMARK SMILES IDX 6 1 7 2 8 3 9 4 10 5 11 6 5 7 4 8 3 9 2 10 1 11
REMARK H PARENT
REMARK Flexibility Score: inf
ROOT
ATOM      1  C   UNL     1      15.611  -6.307  12.298  1.00  0.00     0.000 C 
ENDROOT
BRANCH   1   2
ATOM      2  C   UNL     1      15.977  -4.850  12.618  1.00  0.00     0.006 C 
BRANCH   2   3
ATOM      3  C   UNL     1      15.985  -4.606  14.130  1.00  0.00     0.053 C 
BRANCH   3   4
ATOM      4  C   UNL     1      16.036  -3.140  14.426  1.00  0.00     0.041 C 
ATOM      5  O   UNL     1      15.455  -2.320  13.667  1.00  0.00    -0.550 OA
ATOM      6  O   UNL     1      16.767  -2.675  15.511  1.00  0.00    -0.550 OA
ENDBRANCH   3   4
ENDBRANCH   2   3
ENDBRANCH   1   2
BRANCH   1   7
ATOM      7  C   UNL     1      15.485  -6.570  10.789  1.00  0.00     0.000 C 
BRANCH   7   8
ATOM      8  C   UNL     1      16.794  -6.292  10.030  1.00  0.00    -0.000 C 
BRANCH   8   9
ATOM      9  C   UNL     1      16.566  -6.053   8.528  1.00  0.00    -0.000 C 
BRANCH   9  10
ATOM     10  C   UNL     1      17.375  -4.864   7.987  1.00  0.00    -0.003 C 
ATOM     11  C   UNL     1      18.874  -5.118   8.112  1.00  0.00     0.004 C 
ENDBRANCH   9  10
ENDBRANCH   8   9
ENDBRANCH   7   8
ENDBRANCH   1   7
TORSDOF 7
ENDMDL
MODEL 9
REMARK VINA RESULT:    -3.076     11.624     12.657
REMARK INTER + INTRA:          -4.569
REMARK INTER:                  -3.870
REMARK INTRA:                  -0.699
REMARK UNBOUND:                -0.234
REMARK SMILES CCCCCCCCC(=O)[O-]
REMARK SMILES IDX 6 1 7 2 8 3 9 4 10 5 11 6 5 7 4 8 3 9 2 10 1 11
REMARK H PARENT
REMARK Flexibility Score: inf
ROOT
ATOM      1  C   UNL     1      20.899   1.331   4.126  1.00  0.00     0.000 C 
ENDROOT
BRANCH   1   2
ATOM      2  C   UNL     1      21.160   1.820   5.559  1.00  0.00     0.006 C 
BRANCH   2   3
ATOM      3  C   UNL     1      22.172   2.969   5.569  1.00  0.00     0.053 C 
BRANCH   3   4
ATOM      4  C   UNL     1      23.508   2.488   6.042  1.00  0.00     0.041 C 
ATOM      5  O   UNL     1      23.698   1.263   6.264  1.00  0.00    -0.550 OA
ATOM      6  O   UNL     1      24.528   3.398   6.284  1.00  0.00    -0.550 OA
ENDBRANCH   3   4
ENDBRANCH   2   3
ENDBRANCH   1   2
BRANCH   1   7
ATOM      7  C   UNL     1      20.244   2.406   3.242  1.00  0.00     0.000 C 
BRANCH   7   8
ATOM      8  C   UNL     1      18.711   2.283   3.202  1.00  0.00    -0.000 C 
BRANCH   8   9
ATOM      9  C   UNL     1      18.004   3.597   3.575  1.00  0.00    -0.000 C 
BRANCH   9  10
ATOM     10  C   UNL     1      18.974   4.662   4.107  1.00  0.00    -0.003 C 
ATOM     11  C   UNL     1      18.731   4.937   5.588  1.00  0.00     0.004 C 
ENDBRANCH   9  10
ENDBRANCH   8   9
ENDBRANCH   7   8
ENDBRANCH   1   7
TORSDOF 7
ENDMDL
