MODEL 1
REMARK VINA RESULT:    -4.438      0.000      0.000
REMARK INTER + INTRA:         -12.350
REMARK INTER:                 -10.146
REMARK INTRA:                  -2.204
REMARK UNBOUND:                -2.204
REMARK SMILES CCCCCCCCCCCCCCCCCCCCCCCC(=O)[O-]
REMARK SMILES IDX 13 1 14 2 15 3 16 4 17 5 18 6 19 7 20 8 21 9 22 10 23 11
REMARK SMILES IDX 24 12 25 13 26 14 12 15 11 16 10 17 9 18 8 19 7 20 6 21 5 22
REMARK SMILES IDX 4 23 3 24 2 25 1 26
REMARK H PARENT
REMARK Flexibility Score: inf
ROOT
ATOM      1  C   UNL     1       0.587   2.788   7.856  1.00  0.00     0.000 C 
ENDROOT
BRANCH   1   2
ATOM      2  C   UNL     1      -0.350   2.555   9.053  1.00  0.00     0.000 C 
BRANCH   2   3
ATOM      3  C   UNL     1      -1.776   2.175   8.619  1.00  0.00     0.000 C 
BRANCH   3   4
ATOM      4  C   UNL     1      -2.562   1.446   9.724  1.00  0.00     0.000 C 
BRANCH   4   5
ATOM      5  C   UNL     1      -2.092   0.009  10.027  1.00  0.00     0.000 C 
BRANCH   5   6
ATOM      6  C   UNL     1      -2.647  -1.073   9.081  1.00  0.00     0.000 C 
BRANCH   6   7
ATOM      7  C   UNL     1      -1.714  -1.457   7.916  1.00  0.00     0.000 C 
BRANCH   7   8
ATOM      8  C   UNL     1      -0.209  -1.445   8.251  1.00  0.00     0.000 C 
BRANCH   8   9
ATOM      9  C   UNL     1       0.685  -0.728   7.223  1.00  0.00     0.000 C 
BRANCH   9  10
ATOM     10  C   UNL     1      -0.084  -0.283   5.968  1.00  0.00     0.006 C 
BRANCH  10  11
ATOM     11  C   UNL     1       0.811   0.475   4.980  1.00  0.00     0.053 C 
BRANCH  11  12
ATOM     12  C   UNL     1       0.128   1.690   4.429  1.00  0.00     0.041 C 
ATOM     13  O   UNL     1      -0.996   2.042   4.875  1.00  0.00    -0.550 OA
ATOM     14  O   UNL     1       0.718   2.420   3.407  1.00  0.00    -0.550 OA
ENDBRANCH  11  12
ENDBRANCH  10  11
ENDBRANCH   9  10
ENDBRANCH   8   9
ENDBRANCH   7   8
ENDBRANCH   6   7
ENDBRANCH   5   6
ENDBRANCH   4   5
ENDBRANCH   3   4
ENDBRANCH   2   3
ENDBRANCH   1   2
BRANCH   1  15
ATOM     15  C   UNL     1       1.750   3.740   8.185  1.00  0.00     0.000 C 
BRANCH  15  16
ATOM     16  C   UNL     1       1.456   4.645   9.394  1.00  0.00     0.000 C 
BRANCH  16  17
ATOM     17  C   UNL     1       2.501   5.762   9.602  1.00  0.00     0.000 C 
BRANCH  17  18
ATOM     18  C   UNL     1       3.551   5.796   8.479  1.00  0.00    -0.000 C 
BRANCH  18  19
ATOM     19  C   UNL     1       4.990   5.716   9.010  1.00  0.00    -0.000 C 
BRANCH  19  20
ATOM     20  C   UNL     1       5.623   7.101   9.214  1.00  0.00    -0.000 C 
BRANCH  20  21
ATOM     21  C   UNL     1       6.767   7.334   8.217  1.00  0.00    -0.000 C 
BRANCH  21  22
ATOM     22  C   UNL     1       6.268   7.588   6.784  1.00  0.00    -0.000 C 
BRANCH  22  23
ATOM     23  C   UNL     1       6.604   8.999   6.250  1.00  0.00    -0.000 C 
BRANCH  23  24
ATOM     24  C   UNL     1       5.833   9.392   4.972  1.00  0.00    -0.000 C 
BRANCH  24  25
ATOM     25  C   UNL     1       6.551   9.061   3.649  1.00  0.00    -0.003 C 
ATOM     26  C   UNL     1       8.076   9.029   3.770  1.00  0.00     0.004 C 
ENDBRANCH  24  25
ENDBRANCH  23  24
ENDBRANCH  22  23
ENDBRANCH  21  22
ENDBRANCH  20  21
ENDBRANCH  19  20
ENDBRANCH  18  19
ENDBRANCH  17  18
ENDBRANCH  16  17
ENDBRANCH  15  16
ENDBRANCH   1  15
TORSDOF 22
ENDMDL
MODEL 2
REMARK VINA RESULT:    -4.417      1.049      1.619
REMARK INTER + INTRA:         -12.303
REMARK INTER:                 -10.171
REMARK INTRA:                  -2.132
REMARK UNBOUND:                -2.204
REMARK SMILES CCCCCCCCCCCCCCCCCCCCCCCC(=O)[O-]
REMARK SMILES IDX 13 1 14 2 15 3 16 4 17 5 18 6 19 7 20 8 21 9 22 10 23 11
REMARK SMILES IDX 24 12 25 13 26 14 12 15 11 16 10 17 9 18 8 19 7 20 6 21 5 22
REMARK SMILES IDX 4 23 3 24 2 25 1 26
REMARK H PARENT
REMARK Flexibility Score: inf
ROOT
ATOM      1  C   UNL     1       2.160   4.366   7.487  1.00  0.00     0.000 C 
ENDROOT
BRANCH   1   2
ATOM      2  C   UNL     1       1.379   3.814   8.691  1.00  0.00     0.000 C 
BRANCH   2   3
ATOM      3  C   UNL     1       0.321   2.776   8.281  1.00  0.00     0.000 C 
BRANCH   3   4
ATOM      4  C   UNL     1      -0.783   2.596   9.339  1.00  0.00     0.000 C 
BRANCH   4   5
ATOM      5  C   UNL     1      -2.128   2.064   8.803  1.00  0.00     0.000 C 
BRANCH   5   6
ATOM      6  C   UNL     1      -2.431   0.593   9.146  1.00  0.00     0.000 C 
BRANCH   6   7
ATOM      7  C   UNL     1      -2.066  -0.418   8.042  1.00  0.00     0.000 C 
BRANCH   7   8
ATOM      8  C   UNL     1      -0.765  -1.211   8.283  1.00  0.00     0.000 C 
BRANCH   8   9
ATOM      9  C   UNL     1       0.223  -1.223   7.103  1.00  0.00     0.000 C 
BRANCH   9  10
ATOM     10  C   UNL     1       0.622   0.189   6.641  1.00  0.00     0.006 C 
BRANCH  10  11
ATOM     11  C   UNL     1       0.583   0.331   5.115  1.00  0.00     0.053 C 
BRANCH  11  12
ATOM     12  C   UNL     1      -0.141   1.572   4.690  1.00  0.00     0.041 C 
ATOM     13  O   UNL     1      -1.251   1.866   5.206  1.00  0.00    -0.550 OA
ATOM     14  O   UNL     1       0.396   2.392   3.707  1.00  0.00    -0.550 OA
ENDBRANCH  11  12
ENDBRANCH  10  11
ENDBRANCH   9  10
ENDBRANCH   8   9
ENDBRANCH   7   8
ENDBRANCH   6   7
ENDBRANCH   5   6
ENDBRANCH   4   5
ENDBRANCH   3   4
ENDBRANCH   2   3
ENDBRANCH   1   2
BRANCH   1  15
ATOM     15  C   UNL     1       2.889   5.683   7.803  1.00  0.00     0.000 C 
BRANCH  15  16
ATOM     16  C   UNL     1       1.923   6.842   8.104  1.00  0.00     0.000 C 
BRANCH  16  17
ATOM     17  C   UNL     1       2.160   7.508   9.476  1.00  0.00     0.000 C 
BRANCH  17  18
ATOM     18  C   UNL     1       3.513   7.112  10.092  1.00  0.00    -0.000 C 
BRANCH  18  19
ATOM     19  C   UNL     1       4.512   8.279  10.125  1.00  0.00    -0.000 C 
BRANCH  19  20
ATOM     20  C   UNL     1       5.966   7.818   9.941  1.00  0.00    -0.000 C 
BRANCH  20  21
ATOM     21  C   UNL     1       6.094   6.868   8.742  1.00  0.00    -0.000 C 
BRANCH  21  22
ATOM     22  C   UNL     1       7.009   7.422   7.636  1.00  0.00    -0.000 C 
BRANCH  22  23
ATOM     23  C   UNL     1       6.387   8.596   6.846  1.00  0.00    -0.000 C 
BRANCH  23  24
ATOM     24  C   UNL     1       5.338   8.169   5.798  1.00  0.00    -0.000 C 
BRANCH  24  25
ATOM     25  C   UNL     1       5.763   8.368   4.330  1.00  0.00    -0.003 C 
ATOM     26  C   UNL     1       7.245   8.712   4.162  1.00  0.00     0.004 C 
ENDBRANCH  24  25
ENDBRANCH  23  24
ENDBRANCH  22  23
ENDBRANCH  21  22
ENDBRANCH  20  21
ENDBRANCH  19  20
ENDBRANCH  18  19
ENDBRANCH  17  18
ENDBRANCH  16  17
ENDBRANCH  15  16
ENDBRANCH   1  15
TORSDOF 22
ENDMDL
MODEL 3
REMARK VINA RESULT:    -4.411      3.153      9.234
REMARK INTER + INTRA:         -12.289
REMARK INTER:                  -9.367
REMARK INTRA:                  -2.922
REMARK UNBOUND:                -2.204
REMARK SMILES CCCCCCCCCCCCCCCCCCCCCCCC(=O)[O-]
REMARK SMILES IDX 13 1 14 2 15 3 16 4 17 5 18 6 19 7 20 8 21 9 22 10 23 11
REMARK SMILES IDX 24 12 25 13 26 14 12 15 11 16 10 17 9 18 8 19 7 20 6 21 5 22
REMARK SMILES IDX 4 23 3 24 2 25 1 26
REMARK H PARENT
REMARK Flexibility Score: inf
ROOT
ATOM      1  C   UNL     1       0.611   3.277   8.890  1.00  0.00     0.000 C 
ENDROOT
BRANCH   1   2
ATOM      2  C   UNL     1       1.396   4.495   9.405  1.00  0.00     0.000 C 
BRANCH   2   3
ATOM      3  C   UNL     1       2.524   4.917   8.447  1.00  0.00     0.000 C 
BRANCH   3   4
ATOM      4  C   UNL     1       2.352   6.352   7.917  1.00  0.00     0.000 C 
BRANCH   4   5
ATOM      5  C   UNL     1       1.768   7.361   8.928  1.00  0.00     0.000 C 
BRANCH   5   6
ATOM      6  C   UNL     1       0.808   8.405   8.328  1.00  0.00     0.000 C 
BRANCH   6   7
ATOM      7  C   UNL     1       0.875   8.541   6.794  1.00  0.00     0.000 C 
BRANCH   7   8
ATOM      8  C   UNL     1       1.531   9.838   6.278  1.00  0.00     0.000 C 
BRANCH   8   9
ATOM      9  C   UNL     1       2.849   9.644   5.508  1.00  0.00     0.000 C 
BRANCH   9  10
ATOM     10  C   UNL     1       4.061   9.448   6.434  1.00  0.00     0.006 C 
BRANCH  10  11
ATOM     11  C   UNL     1       4.855   8.182   6.088  1.00  0.00     0.053 C 
BRANCH  11  12
ATOM     12  C   UNL     1       6.126   8.503   5.362  1.00  0.00     0.041 C 
ATOM     13  O   UNL     1       6.631   7.666   4.568  1.00  0.00    -0.550 OA
ATOM     14  O   UNL     1       6.767   9.714   5.580  1.00  0.00    -0.550 OA
ENDBRANCH  11  12
ENDBRANCH  10  11
ENDBRANCH   9  10
ENDBRANCH   8   9
ENDBRANCH   7   8
ENDBRANCH   6   7
ENDBRANCH   5   6
ENDBRANCH   4   5
ENDBRANCH   3   4
ENDBRANCH   2   3
ENDBRANCH   1   2
BRANCH   1  15
ATOM     15  C   UNL     1      -0.557   2.888   9.812  1.00  0.00     0.000 C 
BRANCH  15  16
ATOM     16  C   UNL     1      -1.828   2.503   9.035  1.00  0.00     0.000 C 
BRANCH  16  17
ATOM     17  C   UNL     1      -2.611   1.332   9.667  1.00  0.00     0.000 C 
BRANCH  17  18
ATOM     18  C   UNL     1      -1.800   0.026   9.678  1.00  0.00    -0.000 C 
BRANCH  18  19
ATOM     19  C   UNL     1      -2.399  -1.051   8.761  1.00  0.00    -0.000 C 
BRANCH  19  20
ATOM     20  C   UNL     1      -1.326  -1.837   7.991  1.00  0.00    -0.000 C 
BRANCH  20  21
ATOM     21  C   UNL     1      -0.017  -1.038   7.904  1.00  0.00    -0.000 C 
BRANCH  21  22
ATOM     22  C   UNL     1       0.351  -0.652   6.461  1.00  0.00    -0.000 C 
BRANCH  22  23
ATOM     23  C   UNL     1       0.315   0.871   6.197  1.00  0.00    -0.000 C 
BRANCH  23  24
ATOM     24  C   UNL     1      -0.814   1.321   5.245  1.00  0.00    -0.000 C 
BRANCH  24  25
ATOM     25  C   UNL     1      -2.235   1.250   5.837  1.00  0.00    -0.003 C 
ATOM     26  C   UNL     1      -3.176   0.324   5.063  1.00  0.00     0.004 C 
ENDBRANCH  24  25
ENDBRANCH  23  24
ENDBRANCH  22  23
ENDBRANCH  21  22
ENDBRANCH  20  21
ENDBRANCH  19  20
ENDBRANCH  18  19
ENDBRANCH  17  18
ENDBRANCH  16  17
ENDBRANCH  15  16
ENDBRANCH   1  15
TORSDOF 22
ENDMDL
MODEL 4
REMARK VINA RESULT:    -4.323      2.756      9.366
REMARK INTER + INTRA:         -12.087
REMARK INTER:                  -9.448
REMARK INTRA:                  -2.639
REMARK UNBOUND:                -2.204
REMARK SMILES CCCCCCCCCCCCCCCCCCCCCCCC(=O)[O-]
REMARK SMILES IDX 13 1 14 2 15 3 16 4 17 5 18 6 19 7 20 8 21 9 22 10 23 11
REMARK SMILES IDX 24 12 25 13 26 14 12 15 11 16 10 17 9 18 8 19 7 20 6 21 5 22
REMARK SMILES IDX 4 23 3 24 2 25 1 26
REMARK H PARENT
REMARK Flexibility Score: inf
ROOT
ATOM      1  C   UNL     1       1.004   3.118   8.208  1.00  0.00     0.000 C 
ENDROOT
BRANCH   1   2
ATOM      2  C   UNL     1       1.852   4.176   7.483  1.00  0.00     0.000 C 
BRANCH   2   3
ATOM      3  C   UNL     1       3.051   4.648   8.324  1.00  0.00     0.000 C 
BRANCH   3   4
ATOM      4  C   UNL     1       3.111   6.179   8.472  1.00  0.00     0.000 C 
BRANCH   4   5
ATOM      5  C   UNL     1       3.523   6.688   9.869  1.00  0.00     0.000 C 
BRANCH   5   6
ATOM      6  C   UNL     1       5.043   6.766  10.113  1.00  0.00     0.000 C 
BRANCH   6   7
ATOM      7  C   UNL     1       5.910   6.632   8.846  1.00  0.00     0.000 C 
BRANCH   7   8
ATOM      8  C   UNL     1       6.613   7.928   8.393  1.00  0.00     0.000 C 
BRANCH   8   9
ATOM      9  C   UNL     1       5.677   9.033   7.871  1.00  0.00     0.000 C 
BRANCH   9  10
ATOM     10  C   UNL     1       5.858   9.311   6.370  1.00  0.00     0.006 C 
BRANCH  10  11
ATOM     11  C   UNL     1       6.678   8.217   5.674  1.00  0.00     0.053 C 
BRANCH  11  12
ATOM     12  C   UNL     1       6.916   8.535   4.228  1.00  0.00     0.041 C 
ATOM     13  O   UNL     1       5.942   8.675   3.442  1.00  0.00    -0.550 OA
ATOM     14  O   UNL     1       8.211   8.652   3.743  1.00  0.00    -0.550 OA
ENDBRANCH  11  12
ENDBRANCH  10  11
ENDBRANCH   9  10
ENDBRANCH   8   9
ENDBRANCH   7   8
ENDBRANCH   6   7
ENDBRANCH   5   6
ENDBRANCH   4   5
ENDBRANCH   3   4
ENDBRANCH   2   3
ENDBRANCH   1   2
BRANCH   1  15
ATOM     15  C   UNL     1       0.278   3.681   9.442  1.00  0.00     0.000 C 
BRANCH  15  16
ATOM     16  C   UNL     1      -0.675   2.661  10.091  1.00  0.00     0.000 C 
BRANCH  16  17
ATOM     17  C   UNL     1      -1.956   2.399   9.271  1.00  0.00     0.000 C 
BRANCH  17  18
ATOM     18  C   UNL     1      -2.635   1.074   9.657  1.00  0.00    -0.000 C 
BRANCH  18  19
ATOM     19  C   UNL     1      -1.673  -0.122   9.604  1.00  0.00    -0.000 C 
BRANCH  19  20
ATOM     20  C   UNL     1      -2.048  -1.135   8.511  1.00  0.00    -0.000 C 
BRANCH  20  21
ATOM     21  C   UNL     1      -0.825  -1.500   7.657  1.00  0.00    -0.000 C 
BRANCH  21  22
ATOM     22  C   UNL     1       0.079  -0.291   7.362  1.00  0.00    -0.000 C 
BRANCH  22  23
ATOM     23  C   UNL     1       0.205   0.040   5.857  1.00  0.00    -0.000 C 
BRANCH  23  24
ATOM     24  C   UNL     1      -0.467   1.365   5.441  1.00  0.00    -0.000 C 
BRANCH  24  25
ATOM     25  C   UNL     1      -1.933   1.522   5.890  1.00  0.00    -0.003 C 
ATOM     26  C   UNL     1      -2.883   0.507   5.250  1.00  0.00     0.004 C 
ENDBRANCH  24  25
ENDBRANCH  23  24
ENDBRANCH  22  23
ENDBRANCH  21  22
ENDBRANCH  20  21
ENDBRANCH  19  20
ENDBRANCH  18  19
ENDBRANCH  17  18
ENDBRANCH  16  17
ENDBRANCH  15  16
ENDBRANCH   1  15
TORSDOF 22
ENDMDL
MODEL 5
REMARK VINA RESULT:    -4.241      1.416      2.183
REMARK INTER + INTRA:         -11.899
REMARK INTER:                  -9.833
REMARK INTRA:                  -2.066
REMARK UNBOUND:                -2.204
REMARK SMILES CCCCCCCCCCCCCCCCCCCCCCCC(=O)[O-]
REMARK SMILES IDX 13 1 14 2 15 3 16 4 17 5 18 6 19 7 20 8 21 9 22 10 23 11
REMARK SMILES IDX 24 12 25 13 26 14 12 15 11 16 10 17 9 18 8 19 7 20 6 21 5 22
REMARK SMILES IDX 4 23 3 24 2 25 1 26
REMARK H PARENT
REMARK Flexibility Score: inf
ROOT
ATOM      1  C   UNL     1       1.066   3.332   7.805  1.00  0.00     0.000 C 
ENDROOT
BRANCH   1   2
ATOM      2  C   UNL     1       0.734   3.596   9.283  1.00  0.00     0.000 C 
BRANCH   2   3
ATOM      3  C   UNL     1      -0.225   2.545   9.868  1.00  0.00     0.000 C 
BRANCH   3   4
ATOM      4  C   UNL     1      -1.706   2.926   9.695  1.00  0.00     0.000 C 
BRANCH   4   5
ATOM      5  C   UNL     1      -2.578   1.871   8.984  1.00  0.00     0.000 C 
BRANCH   5   6
ATOM      6  C   UNL     1      -1.977   1.292   7.689  1.00  0.00     0.000 C 
BRANCH   6   7
ATOM      7  C   UNL     1      -1.900  -0.246   7.640  1.00  0.00     0.000 C 
BRANCH   7   8
ATOM      8  C   UNL     1      -0.501  -0.841   7.900  1.00  0.00     0.000 C 
BRANCH   8   9
ATOM      9  C   UNL     1       0.654  -0.148   7.155  1.00  0.00     0.000 C 
BRANCH   9  10
ATOM     10  C   UNL     1       0.500  -0.204   5.626  1.00  0.00     0.006 C 
BRANCH  10  11
ATOM     11  C   UNL     1       1.261   0.928   4.925  1.00  0.00     0.053 C 
BRANCH  11  12
ATOM     12  C   UNL     1       0.331   1.888   4.248  1.00  0.00     0.041 C 
ATOM     13  O   UNL     1       0.763   2.671   3.361  1.00  0.00    -0.550 OA
ATOM     14  O   UNL     1      -1.008   1.938   4.612  1.00  0.00    -0.550 OA
ENDBRANCH  11  12
ENDBRANCH  10  11
ENDBRANCH   9  10
ENDBRANCH   8   9
ENDBRANCH   7   8
ENDBRANCH   6   7
ENDBRANCH   5   6
ENDBRANCH   4   5
ENDBRANCH   3   4
ENDBRANCH   2   3
ENDBRANCH   1   2
BRANCH   1  15
ATOM     15  C   UNL     1       2.323   4.081   7.333  1.00  0.00     0.000 C 
BRANCH  15  16
ATOM     16  C   UNL     1       2.883   5.038   8.400  1.00  0.00     0.000 C 
BRANCH  16  17
ATOM     17  C   UNL     1       2.823   6.526   7.993  1.00  0.00     0.000 C 
BRANCH  17  18
ATOM     18  C   UNL     1       4.137   7.012   7.359  1.00  0.00    -0.000 C 
BRANCH  18  19
ATOM     19  C   UNL     1       4.386   8.510   7.588  1.00  0.00    -0.000 C 
BRANCH  19  20
ATOM     20  C   UNL     1       3.491   9.400   6.712  1.00  0.00    -0.000 C 
BRANCH  20  21
ATOM     21  C   UNL     1       4.315  10.117   5.633  1.00  0.00    -0.000 C 
BRANCH  21  22
ATOM     22  C   UNL     1       4.383   9.331   4.313  1.00  0.00    -0.000 C 
BRANCH  22  23
ATOM     23  C   UNL     1       5.664   9.605   3.491  1.00  0.00    -0.000 C 
BRANCH  23  24
ATOM     24  C   UNL     1       6.838   8.659   3.815  1.00  0.00    -0.000 C 
BRANCH  24  25
ATOM     25  C   UNL     1       8.223   9.333   3.873  1.00  0.00    -0.003 C 
ATOM     26  C   UNL     1       8.838   9.590   2.496  1.00  0.00     0.004 C 
ENDBRANCH  24  25
ENDBRANCH  23  24
ENDBRANCH  22  23
ENDBRANCH  21  22
ENDBRANCH  20  21
ENDBRANCH  19  20
ENDBRANCH  18  19
ENDBRANCH  17  18
ENDBRANCH  16  17
ENDBRANCH  15  16
ENDBRANCH   1  15
TORSDOF 22
ENDMDL
MODEL 6
REMARK VINA RESULT:    -4.210      1.262      2.217
REMARK INTER + INTRA:         -11.829
REMARK INTER:                  -9.860
REMARK INTRA:                  -1.969
REMARK UNBOUND:                -2.204
REMARK SMILES CCCCCCCCCCCCCCCCCCCCCCCC(=O)[O-]
REMARK SMILES IDX 13 1 14 2 15 3 16 4 17 5 18 6 19 7 20 8 21 9 22 10 23 11
REMARK SMILES IDX 24 12 25 13 26 14 12 15 11 16 10 17 9 18 8 19 7 20 6 21 5 22
REMARK SMILES IDX 4 23 3 24 2 25 1 26
REMARK H PARENT
REMARK Flexibility Score: inf
ROOT
ATOM      1  C   UNL     1       0.707   3.085   8.278  1.00  0.00     0.000 C 
ENDROOT
BRANCH   1   2
ATOM      2  C   UNL     1      -0.353   2.862   9.369  1.00  0.00     0.000 C 
BRANCH   2   3
ATOM      3  C   UNL     1      -1.725   2.480   8.787  1.00  0.00     0.000 C 
BRANCH   3   4
ATOM      4  C   UNL     1      -2.462   1.428   9.636  1.00  0.00     0.000 C 
BRANCH   4   5
ATOM      5  C   UNL     1      -1.760   0.059   9.741  1.00  0.00     0.000 C 
BRANCH   5   6
ATOM      6  C   UNL     1      -2.342  -1.045   8.837  1.00  0.00     0.000 C 
BRANCH   6   7
ATOM      7  C   UNL     1      -1.639  -1.205   7.475  1.00  0.00     0.000 C 
BRANCH   7   8
ATOM      8  C   UNL     1      -0.098  -1.211   7.529  1.00  0.00     0.000 C 
BRANCH   8   9
ATOM      9  C   UNL     1       0.585   0.003   6.873  1.00  0.00     0.000 C 
BRANCH   9  10
ATOM     10  C   UNL     1       0.780  -0.166   5.357  1.00  0.00     0.006 C 
BRANCH  10  11
ATOM     11  C   UNL     1       1.315   1.111   4.696  1.00  0.00     0.053 C 
BRANCH  11  12
ATOM     12  C   UNL     1       0.207   2.045   4.312  1.00  0.00     0.041 C 
ATOM     13  O   UNL     1      -0.928   1.936   4.847  1.00  0.00    -0.550 OA
ATOM     14  O   UNL     1       0.419   3.019   3.346  1.00  0.00    -0.550 OA
ENDBRANCH  11  12
ENDBRANCH  10  11
ENDBRANCH   9  10
ENDBRANCH   8   9
ENDBRANCH   7   8
ENDBRANCH   6   7
ENDBRANCH   5   6
ENDBRANCH   4   5
ENDBRANCH   3   4
ENDBRANCH   2   3
ENDBRANCH   1   2
BRANCH   1  15
ATOM     15  C   UNL     1       1.797   4.084   8.702  1.00  0.00     0.000 C 
BRANCH  15  16
ATOM     16  C   UNL     1       1.314   5.076   9.774  1.00  0.00     0.000 C 
BRANCH  16  17
ATOM     17  C   UNL     1       1.800   6.523   9.546  1.00  0.00     0.000 C 
BRANCH  17  18
ATOM     18  C   UNL     1       1.876   6.885   8.053  1.00  0.00    -0.000 C 
BRANCH  18  19
ATOM     19  C   UNL     1       3.236   7.478   7.656  1.00  0.00    -0.000 C 
BRANCH  19  20
ATOM     20  C   UNL     1       3.136   8.946   7.213  1.00  0.00    -0.000 C 
BRANCH  20  21
ATOM     21  C   UNL     1       4.401   9.381   6.460  1.00  0.00    -0.000 C 
BRANCH  21  22
ATOM     22  C   UNL     1       5.092   8.215   5.732  1.00  0.00    -0.000 C 
BRANCH  22  23
ATOM     23  C   UNL     1       6.592   8.070   6.075  1.00  0.00    -0.000 C 
BRANCH  23  24
ATOM     24  C   UNL     1       6.870   7.313   7.391  1.00  0.00    -0.000 C 
BRANCH  24  25
ATOM     25  C   UNL     1       7.032   8.207   8.636  1.00  0.00    -0.003 C 
ATOM     26  C   UNL     1       7.155   7.421   9.943  1.00  0.00     0.004 C 
ENDBRANCH  24  25
ENDBRANCH  23  24
ENDBRANCH  22  23
ENDBRANCH  21  22
ENDBRANCH  20  21
ENDBRANCH  19  20
ENDBRANCH  18  19
ENDBRANCH  17  18
ENDBRANCH  16  17
ENDBRANCH  15  16
ENDBRANCH   1  15
TORSDOF 22
ENDMDL
MODEL 7
REMARK VINA RESULT:    -4.206      2.443      3.813
REMARK INTER + INTRA:         -11.820
REMARK INTER:                  -9.436
REMARK INTRA:                  -2.385
REMARK UNBOUND:                -2.204
REMARK SMILES CCCCCCCCCCCCCCCCCCCCCCCC(=O)[O-]
REMARK SMILES IDX 13 1 14 2 15 3 16 4 17 5 18 6 19 7 20 8 21 9 22 10 23 11
REMARK SMILES IDX 24 12 25 13 26 14 12 15 11 16 10 17 9 18 8 19 7 20 6 21 5 22
REMARK SMILES IDX 4 23 3 24 2 25 1 26
REMARK H PARENT
REMARK Flexibility Score: inf
ROOT
ATOM      1  C   UNL     1       1.244   2.935   7.603  1.00  0.00     0.000 C 
ENDROOT
BRANCH   1   2
ATOM      2  C   UNL     1       1.256   2.317   6.195  1.00  0.00     0.000 C 
BRANCH   2   3
ATOM      3  C   UNL     1       0.904   0.820   6.206  1.00  0.00     0.000 C 
BRANCH   3   4
ATOM      4  C   UNL     1       0.082   0.390   4.977  1.00  0.00     0.000 C 
BRANCH   4   5
ATOM      5  C   UNL     1      -1.298   1.065   4.841  1.00  0.00     0.000 C 
BRANCH   5   6
ATOM      6  C   UNL     1      -2.291   0.756   5.977  1.00  0.00     0.000 C 
BRANCH   6   7
ATOM      7  C   UNL     1      -2.360   1.824   7.087  1.00  0.00     0.000 C 
BRANCH   7   8
ATOM      8  C   UNL     1      -1.989   1.326   8.498  1.00  0.00     0.000 C 
BRANCH   8   9
ATOM      9  C   UNL     1      -2.062  -0.199   8.696  1.00  0.00     0.000 C 
BRANCH   9  10
ATOM     10  C   UNL     1      -0.824  -0.771   9.407  1.00  0.00     0.006 C 
BRANCH  10  11
ATOM     11  C   UNL     1      -0.116  -1.841   8.566  1.00  0.00     0.053 C 
BRANCH  11  12
ATOM     12  C   UNL     1       0.977  -2.519   9.335  1.00  0.00     0.041 C 
ATOM     13  O   UNL     1       2.084  -1.944   9.504  1.00  0.00    -0.550 OA
ATOM     14  O   UNL     1       0.784  -3.797   9.843  1.00  0.00    -0.550 OA
ENDBRANCH  11  12
ENDBRANCH  10  11
ENDBRANCH   9  10
ENDBRANCH   8   9
ENDBRANCH   7   8
ENDBRANCH   6   7
ENDBRANCH   5   6
ENDBRANCH   4   5
ENDBRANCH   3   4
ENDBRANCH   2   3
ENDBRANCH   1   2
BRANCH   1  15
ATOM     15  C   UNL     1       2.033   4.253   7.683  1.00  0.00     0.000 C 
BRANCH  15  16
ATOM     16  C   UNL     1       2.008   4.880   9.087  1.00  0.00     0.000 C 
BRANCH  16  17
ATOM     17  C   UNL     1       3.111   5.935   9.317  1.00  0.00     0.000 C 
BRANCH  17  18
ATOM     18  C   UNL     1       2.684   7.337   8.851  1.00  0.00    -0.000 C 
BRANCH  18  19
ATOM     19  C   UNL     1       3.794   8.384   9.030  1.00  0.00    -0.000 C 
BRANCH  19  20
ATOM     20  C   UNL     1       5.119   7.767   9.504  1.00  0.00    -0.000 C 
BRANCH  20  21
ATOM     21  C   UNL     1       6.261   8.789   9.425  1.00  0.00    -0.000 C 
BRANCH  21  22
ATOM     22  C   UNL     1       7.238   8.505   8.272  1.00  0.00    -0.000 C 
BRANCH  22  23
ATOM     23  C   UNL     1       6.784   9.087   6.914  1.00  0.00    -0.000 C 
BRANCH  23  24
ATOM     24  C   UNL     1       6.548   8.026   5.818  1.00  0.00    -0.000 C 
BRANCH  24  25
ATOM     25  C   UNL     1       5.432   8.366   4.810  1.00  0.00    -0.003 C 
ATOM     26  C   UNL     1       4.297   9.199   5.409  1.00  0.00     0.004 C 
ENDBRANCH  24  25
ENDBRANCH  23  24
ENDBRANCH  22  23
ENDBRANCH  21  22
ENDBRANCH  20  21
ENDBRANCH  19  20
ENDBRANCH  18  19
ENDBRANCH  17  18
ENDBRANCH  16  17
ENDBRANCH  15  16
ENDBRANCH   1  15
TORSDOF 22
ENDMDL
MODEL 8
REMARK VINA RESULT:    -4.145      1.682      3.485
REMARK INTER + INTRA:         -11.679
REMARK INTER:                  -9.247
REMARK INTRA:                  -2.432
REMARK UNBOUND:                -2.204
REMARK SMILES CCCCCCCCCCCCCCCCCCCCCCCC(=O)[O-]
REMARK SMILES IDX 13 1 14 2 15 3 16 4 17 5 18 6 19 7 20 8 21 9 22 10 23 11
REMARK SMILES IDX 24 12 25 13 26 14 12 15 11 16 10 17 9 18 8 19 7 20 6 21 5 22
REMARK SMILES IDX 4 23 3 24 2 25 1 26
REMARK H PARENT
REMARK Flexibility Score: inf
ROOT
ATOM      1  C   UNL     1       2.226   5.184   8.285  1.00  0.00     0.000 C 
ENDROOT
BRANCH   1   2
ATOM      2  C   UNL     1       1.503   4.334   9.344  1.00  0.00     0.000 C 
BRANCH   2   3
ATOM      3  C   UNL     1       0.654   3.213   8.719  1.00  0.00     0.000 C 
BRANCH   3   4
ATOM      4  C   UNL     1      -0.611   2.896   9.537  1.00  0.00     0.000 C 
BRANCH   4   5
ATOM      5  C   UNL     1      -1.779   2.291   8.732  1.00  0.00     0.000 C 
BRANCH   5   6
ATOM      6  C   UNL     1      -2.291   0.931   9.245  1.00  0.00     0.000 C 
BRANCH   6   7
ATOM      7  C   UNL     1      -1.277  -0.225   9.139  1.00  0.00     0.000 C 
BRANCH   7   8
ATOM      8  C   UNL     1      -1.388  -1.079   7.860  1.00  0.00     0.000 C 
BRANCH   8   9
ATOM      9  C   UNL     1      -0.093  -1.198   7.037  1.00  0.00     0.000 C 
BRANCH   9  10
ATOM     10  C   UNL     1       0.538   0.167   6.713  1.00  0.00     0.006 C 
BRANCH  10  11
ATOM     11  C   UNL     1       0.566   0.448   5.205  1.00  0.00     0.053 C 
BRANCH  11  12
ATOM     12  C   UNL     1      -0.407   1.521   4.820  1.00  0.00     0.041 C 
ATOM     13  O   UNL     1      -1.571   1.523   5.301  1.00  0.00    -0.550 OA
ATOM     14  O   UNL     1      -0.038   2.505   3.913  1.00  0.00    -0.550 OA
ENDBRANCH  11  12
ENDBRANCH  10  11
ENDBRANCH   9  10
ENDBRANCH   8   9
ENDBRANCH   7   8
ENDBRANCH   6   7
ENDBRANCH   5   6
ENDBRANCH   4   5
ENDBRANCH   3   4
ENDBRANCH   2   3
ENDBRANCH   1   2
BRANCH   1  15
ATOM     15  C   UNL     1       3.747   5.245   8.509  1.00  0.00     0.000 C 
BRANCH  15  16
ATOM     16  C   UNL     1       4.263   6.681   8.707  1.00  0.00     0.000 C 
BRANCH  16  17
ATOM     17  C   UNL     1       5.768   6.759   9.039  1.00  0.00     0.000 C 
BRANCH  17  18
ATOM     18  C   UNL     1       6.611   7.198   7.830  1.00  0.00    -0.000 C 
BRANCH  18  19
ATOM     19  C   UNL     1       6.402   8.677   7.468  1.00  0.00    -0.000 C 
BRANCH  19  20
ATOM     20  C   UNL     1       6.193   8.893   5.962  1.00  0.00    -0.000 C 
BRANCH  20  21
ATOM     21  C   UNL     1       4.853   8.302   5.502  1.00  0.00    -0.000 C 
BRANCH  21  22
ATOM     22  C   UNL     1       3.722   9.343   5.465  1.00  0.00    -0.000 C 
BRANCH  22  23
ATOM     23  C   UNL     1       2.997   9.523   6.818  1.00  0.00    -0.000 C 
BRANCH  23  24
ATOM     24  C   UNL     1       1.693   8.708   6.951  1.00  0.00    -0.000 C 
BRANCH  24  25
ATOM     25  C   UNL     1       0.739   9.180   8.066  1.00  0.00    -0.003 C 
ATOM     26  C   UNL     1       0.659   8.217   9.253  1.00  0.00     0.004 C 
ENDBRANCH  24  25
ENDBRANCH  23  24
ENDBRANCH  22  23
ENDBRANCH  21  22
ENDBRANCH  20  21
ENDBRANCH  19  20
ENDBRANCH  18  19
ENDBRANCH  17  18
ENDBRANCH  16  17
ENDBRANCH  15  16
ENDBRANCH   1  15
TORSDOF 22
ENDMDL
MODEL 9
REMARK VINA RESULT:    -4.062      2.759      9.064
REMARK INTER + INTRA:         -11.491
REMARK INTER:                  -8.547
REMARK INTRA:                  -2.944
REMARK UNBOUND:                -2.204
REMARK SMILES CCCCCCCCCCCCCCCCCCCCCCCC(=O)[O-]
REMARK SMILES IDX 13 1 14 2 15 3 16 4 17 5 18 6 19 7 20 8 21 9 22 10 23 11
REMARK SMILES IDX 24 12 25 13 26 14 12 15 11 16 10 17 9 18 8 19 7 20 6 21 5 22
REMARK SMILES IDX 4 23 3 24 2 25 1 26
REMARK H PARENT
REMARK Flexibility Score: inf
ROOT
ATOM      1  C   UNL     1       1.356   3.398   7.868  1.00  0.00     0.000 C 
ENDROOT
BRANCH   1   2
ATOM      2  C   UNL     1       2.416   4.512   7.874  1.00  0.00     0.000 C 
BRANCH   2   3
ATOM      3  C   UNL     1       2.218   5.507   9.031  1.00  0.00     0.000 C 
BRANCH   3   4
ATOM      4  C   UNL     1       3.541   5.907   9.708  1.00  0.00     0.000 C 
BRANCH   4   5
ATOM      5  C   UNL     1       4.818   5.402   9.005  1.00  0.00     0.000 C 
BRANCH   5   6
ATOM      6  C   UNL     1       6.027   6.355   9.083  1.00  0.00     0.000 C 
BRANCH   6   7
ATOM      7  C   UNL     1       5.814   7.728   8.416  1.00  0.00     0.000 C 
BRANCH   7   8
ATOM      8  C   UNL     1       5.790   7.711   6.874  1.00  0.00     0.000 C 
BRANCH   8   9
ATOM      9  C   UNL     1       4.502   8.258   6.232  1.00  0.00     0.000 C 
BRANCH   9  10
ATOM     10  C   UNL     1       3.594   8.984   7.238  1.00  0.00     0.006 C 
BRANCH  10  11
ATOM     11  C   UNL     1       2.110   8.675   7.007  1.00  0.00     0.053 C 
BRANCH  11  12
ATOM     12  C   UNL     1       1.282   8.982   8.217  1.00  0.00     0.041 C 
ATOM     13  O   UNL     1       0.027   9.042   8.128  1.00  0.00    -0.550 OA
ATOM     14  O   UNL     1       1.895   9.228   9.438  1.00  0.00    -0.550 OA
ENDBRANCH  11  12
ENDBRANCH  10  11
ENDBRANCH   9  10
ENDBRANCH   8   9
ENDBRANCH   7   8
ENDBRANCH   6   7
ENDBRANCH   5   6
ENDBRANCH   4   5
ENDBRANCH   3   4
ENDBRANCH   2   3
ENDBRANCH   1   2
BRANCH   1  15
ATOM     15  C   UNL     1       0.401   3.478   9.071  1.00  0.00     0.000 C 
BRANCH  15  16
ATOM     16  C   UNL     1      -0.467   2.217   9.228  1.00  0.00     0.000 C 
BRANCH  16  17
ATOM     17  C   UNL     1      -1.978   2.476   9.043  1.00  0.00     0.000 C 
BRANCH  17  18
ATOM     18  C   UNL     1      -2.841   1.362   9.660  1.00  0.00    -0.000 C 
BRANCH  18  19
ATOM     19  C   UNL     1      -2.059   0.057   9.875  1.00  0.00    -0.000 C 
BRANCH  19  20
ATOM     20  C   UNL     1      -2.126  -0.880   8.660  1.00  0.00    -0.000 C 
BRANCH  20  21
ATOM     21  C   UNL     1      -0.842  -1.713   8.537  1.00  0.00    -0.000 C 
BRANCH  21  22
ATOM     22  C   UNL     1      -0.105  -1.481   7.206  1.00  0.00    -0.000 C 
BRANCH  22  23
ATOM     23  C   UNL     1       0.357  -0.021   6.998  1.00  0.00    -0.000 C 
BRANCH  23  24
ATOM     24  C   UNL     1       0.519   0.387   5.518  1.00  0.00    -0.000 C 
BRANCH  24  25
ATOM     25  C   UNL     1      -0.547   1.368   4.991  1.00  0.00    -0.003 C 
ATOM     26  C   UNL     1      -1.938   1.141   5.589  1.00  0.00     0.004 C 
ENDBRANCH  24  25
ENDBRANCH  23  24
ENDBRANCH  22  23
ENDBRANCH  21  22
ENDBRANCH  20  21
ENDBRANCH  19  20
ENDBRANCH  18  19
ENDBRANCH  17  18
ENDBRANCH  16  17
ENDBRANCH  15  16
ENDBRANCH   1  15
TORSDOF 22
ENDMDL
