MODEL 1
REMARK VINA RESULT:    -7.036      0.000      0.000
REMARK INTER + INTRA:          -8.811
REMARK INTER:                  -8.270
REMARK INTRA:                  -0.541
REMARK UNBOUND:                -0.541
REMARK SMILES C=C(C)[C@@H]1CC[C@]2(CO)CC[C@@]3(C)[C@@H](CC[C@H]4[C@@]5(C)CC[C@@H](O)C(C)(C)[C@@H]5CC[C@]43C)[C@H]12
REMARK SMILES IDX 4 1 5 2 6 3 7 4 32 5 14 6 15 7 16 8 17 9 18 10 20 11 21 12
REMARK SMILES IDX 22 13 24 14 27 15 28 16 29 17 30 18 12 19 11 20 10 21 13 22
REMARK SMILES IDX 31 23 25 24 26 25 19 26 2 27 3 28 1 29 8 30 9 31 23 33
REMARK H PARENT 9 32 23 34
REMARK Flexibility Score: inf
ROOT
ATOM      1  C   UNL     1      55.659 -35.886 -24.688  1.00  0.00     0.018 C 
ATOM      2  C   UNL     1      56.948 -35.869 -23.847  1.00  0.00     0.009 C 
ATOM      3  C   UNL     1      56.933 -37.130 -23.006  1.00  0.00     0.010 C 
ATOM      4  C   UNL     1      55.460 -37.558 -22.873  1.00  0.00    -0.003 C 
ATOM      5  C   UNL     1      54.805 -37.133 -24.234  1.00  0.00     0.008 C 
ATOM      6  C   UNL     1      54.657 -38.269 -25.320  1.00  0.00    -0.000 C 
ATOM      7  C   UNL     1      53.602 -37.890 -26.366  1.00  0.00     0.005 C 
ATOM      8  C   UNL     1      53.695 -38.810 -27.568  1.00  0.00     0.005 C 
ATOM      9  C   UNL     1      53.465 -40.316 -27.242  1.00  0.00     0.002 C 
ATOM     10  C   UNL     1      53.594 -41.242 -28.557  1.00  0.00    -0.026 C 
ATOM     11  C   UNL     1      52.928 -40.560 -29.805  1.00  0.00     0.010 C 
ATOM     12  C   UNL     1      53.162 -41.302 -31.133  1.00  0.00     0.033 C 
ATOM     13  C   UNL     1      54.661 -41.461 -31.433  1.00  0.00     0.120 C 
ATOM     14  C   UNL     1      55.433 -42.177 -30.277  1.00  0.00    -0.006 C 
ATOM     15  C   UNL     1      55.119 -41.456 -28.899  1.00  0.00     0.003 C 
ATOM     16  C   UNL     1      55.902 -42.020 -27.693  1.00  0.00     0.005 C 
ATOM     17  C   UNL     1      55.793 -41.108 -26.463  1.00  0.00     0.008 C 
ATOM     18  C   UNL     1      54.335 -40.802 -25.981  1.00  0.00    -0.024 C 
ATOM     19  C   UNL     1      54.338 -39.703 -24.779  1.00  0.00    -0.024 C 
ATOM     20  C   UNL     1      55.454 -40.001 -23.729  1.00  0.00     0.008 C 
ATOM     21  C   UNL     1      55.387 -39.072 -22.522  1.00  0.00     0.010 C 
ATOM     22  C   UNL     1      52.945 -39.707 -24.054  1.00  0.00     0.012 C 
ATOM     23  C   UNL     1      53.740 -42.134 -25.402  1.00  0.00     0.012 C 
ATOM     24  C   UNL     1      56.953 -42.075 -30.597  1.00  0.00     0.014 C 
ATOM     25  C   UNL     1      55.090 -43.690 -30.281  1.00  0.00     0.014 C 
ATOM     26  C   UNL     1      52.818 -42.582 -28.309  1.00  0.00     0.012 C 
ENDROOT
BRANCH   1  27
ATOM     27  C   UNL     1      55.960 -35.689 -26.180  1.00  0.00    -0.077 C 
ATOM     28  C   UNL     1      56.950 -36.554 -26.928  1.00  0.00     0.039 C 
ATOM     29  C   UNL     1      55.380 -34.679 -26.850  1.00  0.00     0.008 C 
ENDBRANCH   1  27
BRANCH   4  30
ATOM     30  C   UNL     1      54.792 -36.800 -21.679  1.00  0.00     0.163 C 
BRANCH  30  31
ATOM     31  O   UNL     1      55.454 -37.027 -20.465  1.00  0.00    -0.396 OA
ATOM     32  H   UNL     1      54.748 -37.068 -19.768  1.00  0.00     0.210 HD
ENDBRANCH  30  31
ENDBRANCH   4  30
BRANCH  13  33
ATOM     33  O   UNL     1      55.220 -40.190 -31.676  1.00  0.00    -0.393 OA
ATOM     34  H   UNL     1      55.995 -40.090 -31.063  1.00  0.00     0.210 HD
ENDBRANCH  13  33
TORSDOF 4
ENDMDL
MODEL 2
REMARK VINA RESULT:    -6.924      2.603      5.270
REMARK INTER + INTRA:          -8.679
REMARK INTER:                  -8.020
REMARK INTRA:                  -0.660
REMARK UNBOUND:                -0.541
REMARK SMILES C=C(C)[C@@H]1CC[C@]2(CO)CC[C@@]3(C)[C@@H](CC[C@H]4[C@@]5(C)CC[C@@H](O)C(C)(C)[C@@H]5CC[C@]43C)[C@H]12
REMARK SMILES IDX 4 1 5 2 6 3 7 4 32 5 14 6 15 7 16 8 17 9 18 10 20 11 21 12
REMARK SMILES IDX 22 13 24 14 27 15 28 16 29 17 30 18 12 19 11 20 10 21 13 22
REMARK SMILES IDX 31 23 25 24 26 25 19 26 2 27 3 28 1 29 8 30 9 31 23 33
REMARK H PARENT 9 32 23 34
REMARK Flexibility Score: inf
ROOT
ATOM      1  C   UNL     1      50.819 -38.694 -20.609  1.00  0.00     0.018 C 
ATOM      2  C   UNL     1      49.786 -37.557 -20.699  1.00  0.00     0.009 C 
ATOM      3  C   UNL     1      50.560 -36.293 -21.017  1.00  0.00     0.010 C 
ATOM      4  C   UNL     1      52.002 -36.520 -20.529  1.00  0.00    -0.003 C 
ATOM      5  C   UNL     1      52.254 -38.053 -20.754  1.00  0.00     0.008 C 
ATOM      6  C   UNL     1      53.027 -38.444 -22.074  1.00  0.00    -0.000 C 
ATOM      7  C   UNL     1      53.634 -39.847 -21.956  1.00  0.00     0.005 C 
ATOM      8  C   UNL     1      54.082 -40.346 -23.316  1.00  0.00     0.005 C 
ATOM      9  C   UNL     1      55.165 -39.458 -23.999  1.00  0.00     0.002 C 
ATOM     10  C   UNL     1      55.586 -40.032 -25.447  1.00  0.00    -0.026 C 
ATOM     11  C   UNL     1      55.697 -41.599 -25.432  1.00  0.00     0.010 C 
ATOM     12  C   UNL     1      55.924 -42.231 -26.817  1.00  0.00     0.033 C 
ATOM     13  C   UNL     1      54.805 -41.852 -27.800  1.00  0.00     0.120 C 
ATOM     14  C   UNL     1      54.628 -40.305 -27.941  1.00  0.00    -0.006 C 
ATOM     15  C   UNL     1      54.478 -39.651 -26.503  1.00  0.00     0.003 C 
ATOM     16  C   UNL     1      54.203 -38.131 -26.521  1.00  0.00     0.005 C 
ATOM     17  C   UNL     1      53.773 -37.612 -25.142  1.00  0.00     0.008 C 
ATOM     18  C   UNL     1      54.774 -37.899 -23.973  1.00  0.00    -0.024 C 
ATOM     19  C   UNL     1      54.143 -37.450 -22.540  1.00  0.00    -0.024 C 
ATOM     20  C   UNL     1      53.438 -36.060 -22.633  1.00  0.00     0.008 C 
ATOM     21  C   UNL     1      52.964 -35.552 -21.276  1.00  0.00     0.010 C 
ATOM     22  C   UNL     1      55.280 -37.373 -21.461  1.00  0.00     0.012 C 
ATOM     23  C   UNL     1      56.053 -37.024 -24.221  1.00  0.00     0.012 C 
ATOM     24  C   UNL     1      53.337 -40.057 -28.776  1.00  0.00     0.014 C 
ATOM     25  C   UNL     1      55.800 -39.721 -28.772  1.00  0.00     0.014 C 
ATOM     26  C   UNL     1      57.009 -39.484 -25.813  1.00  0.00     0.012 C 
ENDROOT
BRANCH   1  27
ATOM     27  C   UNL     1      50.434 -39.877 -21.508  1.00  0.00    -0.077 C 
ATOM     28  C   UNL     1      49.893 -39.687 -22.908  1.00  0.00     0.039 C 
ATOM     29  C   UNL     1      50.514 -41.131 -21.033  1.00  0.00     0.008 C 
ENDBRANCH   1  27
BRANCH   4  30
ATOM     30  C   UNL     1      52.112 -36.161 -19.011  1.00  0.00     0.163 C 
BRANCH  30  31
ATOM     31  O   UNL     1      53.039 -36.969 -18.337  1.00  0.00    -0.396 OA
ATOM     32  H   UNL     1      53.770 -36.365 -18.042  1.00  0.00     0.210 HD
ENDBRANCH  30  31
ENDBRANCH   4  30
BRANCH  13  33
ATOM     33  O   UNL     1      53.597 -42.442 -27.375  1.00  0.00    -0.393 OA
ATOM     34  H   UNL     1      53.835 -43.169 -26.742  1.00  0.00     0.210 HD
ENDBRANCH  13  33
TORSDOF 4
ENDMDL
MODEL 3
REMARK VINA RESULT:    -6.905      3.633      7.306
REMARK INTER + INTRA:          -8.657
REMARK INTER:                  -8.008
REMARK INTRA:                  -0.649
REMARK UNBOUND:                -0.541
REMARK SMILES C=C(C)[C@@H]1CC[C@]2(CO)CC[C@@]3(C)[C@@H](CC[C@H]4[C@@]5(C)CC[C@@H](O)C(C)(C)[C@@H]5CC[C@]43C)[C@H]12
REMARK SMILES IDX 4 1 5 2 6 3 7 4 32 5 14 6 15 7 16 8 17 9 18 10 20 11 21 12
REMARK SMILES IDX 22 13 24 14 27 15 28 16 29 17 30 18 12 19 11 20 10 21 13 22
REMARK SMILES IDX 31 23 25 24 26 25 19 26 2 27 3 28 1 29 8 30 9 31 23 33
REMARK H PARENT 9 32 23 34
REMARK Flexibility Score: inf
ROOT
ATOM      1  C   UNL     1      56.000 -41.336 -27.186  1.00  0.00     0.018 C 
ATOM      2  C   UNL     1      56.464 -40.033 -27.860  1.00  0.00     0.009 C 
ATOM      3  C   UNL     1      55.831 -40.011 -29.238  1.00  0.00     0.010 C 
ATOM      4  C   UNL     1      55.529 -41.473 -29.612  1.00  0.00    -0.003 C 
ATOM      5  C   UNL     1      55.173 -42.161 -28.247  1.00  0.00     0.008 C 
ATOM      6  C   UNL     1      53.635 -42.308 -27.923  1.00  0.00    -0.000 C 
ATOM      7  C   UNL     1      53.402 -43.388 -26.860  1.00  0.00     0.005 C 
ATOM      8  C   UNL     1      51.988 -43.301 -26.318  1.00  0.00     0.005 C 
ATOM      9  C   UNL     1      50.877 -43.499 -27.392  1.00  0.00     0.002 C 
ATOM     10  C   UNL     1      49.399 -43.378 -26.756  1.00  0.00    -0.026 C 
ATOM     11  C   UNL     1      49.321 -44.078 -25.352  1.00  0.00     0.010 C 
ATOM     12  C   UNL     1      47.993 -43.855 -24.606  1.00  0.00     0.033 C 
ATOM     13  C   UNL     1      47.709 -42.359 -24.397  1.00  0.00     0.120 C 
ATOM     14  C   UNL     1      47.710 -41.554 -25.737  1.00  0.00    -0.006 C 
ATOM     15  C   UNL     1      49.046 -41.855 -26.540  1.00  0.00     0.003 C 
ATOM     16  C   UNL     1      49.203 -41.041 -27.842  1.00  0.00     0.005 C 
ATOM     17  C   UNL     1      50.625 -41.144 -28.413  1.00  0.00     0.008 C 
ATOM     18  C   UNL     1      51.131 -42.598 -28.699  1.00  0.00    -0.024 C 
ATOM     19  C   UNL     1      52.697 -42.593 -29.144  1.00  0.00    -0.024 C 
ATOM     20  C   UNL     1      53.001 -41.452 -30.166  1.00  0.00     0.008 C 
ATOM     21  C   UNL     1      54.425 -41.514 -30.707  1.00  0.00     0.010 C 
ATOM     22  C   UNL     1      53.067 -43.971 -29.797  1.00  0.00     0.012 C 
ATOM     23  C   UNL     1      50.298 -43.159 -29.904  1.00  0.00     0.012 C 
ATOM     24  C   UNL     1      47.637 -40.042 -25.374  1.00  0.00     0.014 C 
ATOM     25  C   UNL     1      46.419 -41.870 -26.536  1.00  0.00     0.014 C 
ATOM     26  C   UNL     1      48.385 -44.125 -27.689  1.00  0.00     0.012 C 
ENDROOT
BRANCH   1  27
ATOM     27  C   UNL     1      55.386 -41.067 -25.805  1.00  0.00    -0.077 C 
ATOM     28  C   UNL     1      54.348 -39.990 -25.576  1.00  0.00     0.039 C 
ATOM     29  C   UNL     1      55.815 -41.759 -24.736  1.00  0.00     0.008 C 
ENDBRANCH   1  27
BRANCH   4  30
ATOM     30  C   UNL     1      56.797 -42.133 -30.246  1.00  0.00     0.163 C 
BRANCH  30  31
ATOM     31  O   UNL     1      56.953 -43.471 -29.860  1.00  0.00    -0.396 OA
ATOM     32  H   UNL     1      57.009 -43.468 -28.868  1.00  0.00     0.210 HD
ENDBRANCH  30  31
ENDBRANCH   4  30
BRANCH  13  33
ATOM     33  O   UNL     1      48.666 -41.827 -23.510  1.00  0.00    -0.393 OA
ATOM     34  H   UNL     1      49.558 -41.981 -23.917  1.00  0.00     0.210 HD
ENDBRANCH  13  33
TORSDOF 4
ENDMDL
MODEL 4
REMARK VINA RESULT:    -6.901      2.000      7.477
REMARK INTER + INTRA:          -8.652
REMARK INTER:                  -8.063
REMARK INTRA:                  -0.589
REMARK UNBOUND:                -0.541
REMARK SMILES C=C(C)[C@@H]1CC[C@]2(CO)CC[C@@]3(C)[C@@H](CC[C@H]4[C@@]5(C)CC[C@@H](O)C(C)(C)[C@@H]5CC[C@]43C)[C@H]12
REMARK SMILES IDX 4 1 5 2 6 3 7 4 32 5 14 6 15 7 16 8 17 9 18 10 20 11 21 12
REMARK SMILES IDX 22 13 24 14 27 15 28 16 29 17 30 18 12 19 11 20 10 21 13 22
REMARK SMILES IDX 31 23 25 24 26 25 19 26 2 27 3 28 1 29 8 30 9 31 23 33
REMARK H PARENT 9 32 23 34
REMARK Flexibility Score: inf
ROOT
ATOM      1  C   UNL     1      53.108 -42.239 -28.984  1.00  0.00     0.018 C 
ATOM      2  C   UNL     1      53.074 -43.760 -28.757  1.00  0.00     0.009 C 
ATOM      3  C   UNL     1      54.380 -44.125 -28.079  1.00  0.00     0.010 C 
ATOM      4  C   UNL     1      55.392 -43.023 -28.441  1.00  0.00    -0.003 C 
ATOM      5  C   UNL     1      54.528 -41.716 -28.539  1.00  0.00     0.008 C 
ATOM      6  C   UNL     1      54.526 -40.787 -27.263  1.00  0.00    -0.000 C 
ATOM      7  C   UNL     1      54.084 -39.364 -27.626  1.00  0.00     0.005 C 
ATOM      8  C   UNL     1      53.767 -38.573 -26.371  1.00  0.00     0.005 C 
ATOM      9  C   UNL     1      54.968 -38.420 -25.390  1.00  0.00     0.002 C 
ATOM     10  C   UNL     1      54.562 -37.585 -24.070  1.00  0.00    -0.026 C 
ATOM     11  C   UNL     1      53.630 -36.372 -24.425  1.00  0.00     0.010 C 
ATOM     12  C   UNL     1      53.061 -35.631 -23.201  1.00  0.00     0.033 C 
ATOM     13  C   UNL     1      52.265 -36.580 -22.289  1.00  0.00     0.120 C 
ATOM     14  C   UNL     1      53.106 -37.812 -21.824  1.00  0.00    -0.006 C 
ATOM     15  C   UNL     1      53.759 -38.521 -23.085  1.00  0.00     0.003 C 
ATOM     16  C   UNL     1      54.540 -39.812 -22.757  1.00  0.00     0.005 C 
ATOM     17  C   UNL     1      54.888 -40.607 -24.024  1.00  0.00     0.008 C 
ATOM     18  C   UNL     1      55.701 -39.823 -25.108  1.00  0.00    -0.024 C 
ATOM     19  C   UNL     1      55.870 -40.709 -26.464  1.00  0.00    -0.024 C 
ATOM     20  C   UNL     1      56.239 -42.191 -26.141  1.00  0.00     0.008 C 
ATOM     21  C   UNL     1      56.542 -43.006 -27.393  1.00  0.00     0.010 C 
ATOM     22  C   UNL     1      56.997 -40.090 -27.365  1.00  0.00     0.012 C 
ATOM     23  C   UNL     1      57.137 -39.568 -24.528  1.00  0.00     0.012 C 
ATOM     24  C   UNL     1      52.137 -38.795 -21.105  1.00  0.00     0.014 C 
ATOM     25  C   UNL     1      54.140 -37.366 -20.757  1.00  0.00     0.014 C 
ATOM     26  C   UNL     1      55.862 -36.984 -23.434  1.00  0.00     0.012 C 
ENDROOT
BRANCH   1  27
ATOM     27  C   UNL     1      51.851 -41.559 -28.423  1.00  0.00    -0.077 C 
ATOM     28  C   UNL     1      51.347 -41.820 -27.021  1.00  0.00     0.039 C 
ATOM     29  C   UNL     1      51.124 -40.746 -29.208  1.00  0.00     0.008 C 
ENDBRANCH   1  27
BRANCH   4  30
ATOM     30  C   UNL     1      56.060 -43.347 -29.817  1.00  0.00     0.163 C 
BRANCH  30  31
ATOM     31  O   UNL     1      57.459 -43.383 -29.736  1.00  0.00    -0.396 OA
ATOM     32  H   UNL     1      57.796 -42.926 -30.552  1.00  0.00     0.210 HD
ENDBRANCH  30  31
ENDBRANCH   4  30
BRANCH  13  33
ATOM     33  O   UNL     1      51.108 -37.010 -22.968  1.00  0.00    -0.393 OA
ATOM     34  H   UNL     1      50.385 -37.089 -22.291  1.00  0.00     0.210 HD
ENDBRANCH  13  33
TORSDOF 4
ENDMDL
MODEL 5
REMARK VINA RESULT:    -6.827      2.328      4.358
REMARK INTER + INTRA:          -8.565
REMARK INTER:                  -7.970
REMARK INTRA:                  -0.595
REMARK UNBOUND:                -0.541
REMARK SMILES C=C(C)[C@@H]1CC[C@]2(CO)CC[C@@]3(C)[C@@H](CC[C@H]4[C@@]5(C)CC[C@@H](O)C(C)(C)[C@@H]5CC[C@]43C)[C@H]12
REMARK SMILES IDX 4 1 5 2 6 3 7 4 32 5 14 6 15 7 16 8 17 9 18 10 20 11 21 12
REMARK SMILES IDX 22 13 24 14 27 15 28 16 29 17 30 18 12 19 11 20 10 21 13 22
REMARK SMILES IDX 31 23 25 24 26 25 19 26 2 27 3 28 1 29 8 30 9 31 23 33
REMARK H PARENT 9 32 23 34
REMARK Flexibility Score: inf
ROOT
ATOM      1  C   UNL     1      55.865 -36.247 -22.766  1.00  0.00     0.018 C 
ATOM      2  C   UNL     1      55.239 -34.858 -22.985  1.00  0.00     0.009 C 
ATOM      3  C   UNL     1      55.588 -34.445 -24.402  1.00  0.00     0.010 C 
ATOM      4  C   UNL     1      56.853 -35.228 -24.795  1.00  0.00    -0.003 C 
ATOM      5  C   UNL     1      56.709 -36.603 -24.051  1.00  0.00     0.008 C 
ATOM      6  C   UNL     1      56.143 -37.801 -24.908  1.00  0.00    -0.000 C 
ATOM      7  C   UNL     1      56.499 -39.148 -24.266  1.00  0.00     0.005 C 
ATOM      8  C   UNL     1      55.688 -40.265 -24.896  1.00  0.00     0.005 C 
ATOM      9  C   UNL     1      55.917 -40.438 -26.427  1.00  0.00     0.002 C 
ATOM     10  C   UNL     1      55.015 -41.628 -27.038  1.00  0.00    -0.026 C 
ATOM     11  C   UNL     1      54.965 -42.863 -26.069  1.00  0.00     0.010 C 
ATOM     12  C   UNL     1      53.986 -43.969 -26.502  1.00  0.00     0.033 C 
ATOM     13  C   UNL     1      52.553 -43.428 -26.643  1.00  0.00     0.120 C 
ATOM     14  C   UNL     1      52.462 -42.218 -27.628  1.00  0.00    -0.006 C 
ATOM     15  C   UNL     1      53.533 -41.119 -27.225  1.00  0.00     0.003 C 
ATOM     16  C   UNL     1      53.474 -39.830 -28.073  1.00  0.00     0.005 C 
ATOM     17  C   UNL     1      54.312 -38.701 -27.457  1.00  0.00     0.008 C 
ATOM     18  C   UNL     1      55.822 -39.040 -27.215  1.00  0.00    -0.024 C 
ATOM     19  C   UNL     1      56.568 -37.834 -26.415  1.00  0.00    -0.024 C 
ATOM     20  C   UNL     1      56.170 -36.434 -26.981  1.00  0.00     0.008 C 
ATOM     21  C   UNL     1      56.962 -35.297 -26.345  1.00  0.00     0.010 C 
ATOM     22  C   UNL     1      58.125 -38.005 -26.531  1.00  0.00     0.012 C 
ATOM     23  C   UNL     1      56.508 -39.171 -28.620  1.00  0.00     0.012 C 
ATOM     24  C   UNL     1      51.026 -41.629 -27.512  1.00  0.00     0.014 C 
ATOM     25  C   UNL     1      52.607 -42.722 -29.088  1.00  0.00     0.014 C 
ATOM     26  C   UNL     1      55.674 -42.127 -28.370  1.00  0.00     0.012 C 
ENDROOT
BRANCH   1  27
ATOM     27  C   UNL     1      54.828 -37.255 -22.250  1.00  0.00    -0.077 C 
ATOM     28  C   UNL     1      53.422 -37.325 -22.802  1.00  0.00     0.039 C 
ATOM     29  C   UNL     1      55.141 -38.071 -21.229  1.00  0.00     0.008 C 
ENDBRANCH   1  27
BRANCH   4  30
ATOM     30  C   UNL     1      58.125 -34.465 -24.301  1.00  0.00     0.163 C 
BRANCH  30  31
ATOM     31  O   UNL     1      57.916 -33.083 -24.206  1.00  0.00    -0.396 OA
ATOM     32  H   UNL     1      58.662 -32.655 -24.702  1.00  0.00     0.210 HD
ENDBRANCH  30  31
ENDBRANCH   4  30
BRANCH  13  33
ATOM     33  O   UNL     1      52.072 -43.057 -25.372  1.00  0.00    -0.393 OA
ATOM     34  H   UNL     1      51.398 -42.342 -25.512  1.00  0.00     0.210 HD
ENDBRANCH  13  33
TORSDOF 4
ENDMDL
MODEL 6
REMARK VINA RESULT:    -6.811      1.995      4.117
REMARK INTER + INTRA:          -8.546
REMARK INTER:                  -8.149
REMARK INTRA:                  -0.397
REMARK UNBOUND:                -0.541
REMARK SMILES C=C(C)[C@@H]1CC[C@]2(CO)CC[C@@]3(C)[C@@H](CC[C@H]4[C@@]5(C)CC[C@@H](O)C(C)(C)[C@@H]5CC[C@]43C)[C@H]12
REMARK SMILES IDX 4 1 5 2 6 3 7 4 32 5 14 6 15 7 16 8 17 9 18 10 20 11 21 12
REMARK SMILES IDX 22 13 24 14 27 15 28 16 29 17 30 18 12 19 11 20 10 21 13 22
REMARK SMILES IDX 31 23 25 24 26 25 19 26 2 27 3 28 1 29 8 30 9 31 23 33
REMARK H PARENT 9 32 23 34
REMARK Flexibility Score: inf
ROOT
ATOM      1  C   UNL     1      52.681 -37.896 -21.479  1.00  0.00     0.018 C 
ATOM      2  C   UNL     1      52.236 -36.426 -21.578  1.00  0.00     0.009 C 
ATOM      3  C   UNL     1      53.267 -35.720 -22.438  1.00  0.00     0.010 C 
ATOM      4  C   UNL     1      54.565 -36.540 -22.340  1.00  0.00    -0.003 C 
ATOM      5  C   UNL     1      54.079 -38.026 -22.199  1.00  0.00     0.008 C 
ATOM      6  C   UNL     1      54.069 -38.883 -23.525  1.00  0.00    -0.000 C 
ATOM      7  C   UNL     1      54.061 -40.383 -23.205  1.00  0.00     0.005 C 
ATOM      8  C   UNL     1      53.721 -41.186 -24.446  1.00  0.00     0.005 C 
ATOM      9  C   UNL     1      54.722 -40.996 -25.625  1.00  0.00     0.002 C 
ATOM     10  C   UNL     1      54.296 -41.863 -26.918  1.00  0.00    -0.026 C 
ATOM     11  C   UNL     1      53.769 -43.284 -26.507  1.00  0.00     0.010 C 
ATOM     12  C   UNL     1      53.182 -44.104 -27.671  1.00  0.00     0.033 C 
ATOM     13  C   UNL     1      52.026 -43.358 -28.357  1.00  0.00     0.120 C 
ATOM     14  C   UNL     1      52.441 -41.938 -28.860  1.00  0.00    -0.006 C 
ATOM     15  C   UNL     1      53.122 -41.129 -27.676  1.00  0.00     0.003 C 
ATOM     16  C   UNL     1      53.491 -39.672 -28.030  1.00  0.00     0.005 C 
ATOM     17  C   UNL     1      53.861 -38.857 -26.782  1.00  0.00     0.008 C 
ATOM     18  C   UNL     1      55.026 -39.445 -25.917  1.00  0.00    -0.024 C 
ATOM     19  C   UNL     1      55.220 -38.591 -24.544  1.00  0.00    -0.024 C 
ATOM     20  C   UNL     1      55.151 -37.054 -24.808  1.00  0.00     0.008 C 
ATOM     21  C   UNL     1      55.471 -36.230 -23.565  1.00  0.00     0.010 C 
ATOM     22  C   UNL     1      56.610 -38.933 -23.899  1.00  0.00     0.012 C 
ATOM     23  C   UNL     1      56.349 -39.308 -26.750  1.00  0.00     0.012 C 
ATOM     24  C   UNL     1      51.146 -41.210 -29.325  1.00  0.00     0.014 C 
ATOM     25  C   UNL     1      53.338 -42.072 -30.119  1.00  0.00     0.014 C 
ATOM     26  C   UNL     1      55.564 -42.093 -27.811  1.00  0.00     0.012 C 
ENDROOT
BRANCH   1  27
ATOM     27  C   UNL     1      51.547 -38.854 -21.871  1.00  0.00    -0.077 C 
ATOM     28  C   UNL     1      51.375 -40.212 -21.227  1.00  0.00     0.039 C 
ATOM     29  C   UNL     1      50.703 -38.520 -22.862  1.00  0.00     0.008 C 
ENDBRANCH   1  27
BRANCH   4  30
ATOM     30  C   UNL     1      55.376 -36.104 -21.076  1.00  0.00     0.163 C 
BRANCH  30  31
ATOM     31  O   UNL     1      55.502 -37.138 -20.139  1.00  0.00    -0.396 OA
ATOM     32  H   UNL     1      55.091 -37.941 -20.555  1.00  0.00     0.210 HD
ENDBRANCH  30  31
ENDBRANCH   4  30
BRANCH  13  33
ATOM     33  O   UNL     1      50.944 -43.259 -27.460  1.00  0.00    -0.393 OA
ATOM     34  H   UNL     1      50.645 -42.312 -27.467  1.00  0.00     0.210 HD
ENDBRANCH  13  33
TORSDOF 4
ENDMDL
MODEL 7
REMARK VINA RESULT:    -6.601      3.248      6.431
REMARK INTER + INTRA:          -8.300
REMARK INTER:                  -7.789
REMARK INTRA:                  -0.511
REMARK UNBOUND:                -0.541
REMARK SMILES C=C(C)[C@@H]1CC[C@]2(CO)CC[C@@]3(C)[C@@H](CC[C@H]4[C@@]5(C)CC[C@@H](O)C(C)(C)[C@@H]5CC[C@]43C)[C@H]12
REMARK SMILES IDX 4 1 5 2 6 3 7 4 32 5 14 6 15 7 16 8 17 9 18 10 20 11 21 12
REMARK SMILES IDX 22 13 24 14 27 15 28 16 29 17 30 18 12 19 11 20 10 21 13 22
REMARK SMILES IDX 31 23 25 24 26 25 19 26 2 27 3 28 1 29 8 30 9 31 23 33
REMARK H PARENT 9 32 23 34
REMARK Flexibility Score: inf
ROOT
ATOM      1  C   UNL     1      56.142 -38.890 -26.534  1.00  0.00     0.018 C 
ATOM      2  C   UNL     1      56.279 -38.268 -27.935  1.00  0.00     0.009 C 
ATOM      3  C   UNL     1      56.009 -39.380 -28.930  1.00  0.00     0.010 C 
ATOM      4  C   UNL     1      56.313 -40.705 -28.209  1.00  0.00    -0.003 C 
ATOM      5  C   UNL     1      55.909 -40.440 -26.716  1.00  0.00     0.008 C 
ATOM      6  C   UNL     1      54.481 -40.954 -26.281  1.00  0.00    -0.000 C 
ATOM      7  C   UNL     1      54.391 -41.089 -24.756  1.00  0.00     0.005 C 
ATOM      8  C   UNL     1      52.946 -41.259 -24.324  1.00  0.00     0.005 C 
ATOM      9  C   UNL     1      52.245 -42.518 -24.916  1.00  0.00     0.002 C 
ATOM     10  C   UNL     1      50.709 -42.631 -24.434  1.00  0.00    -0.026 C 
ATOM     11  C   UNL     1      50.554 -42.238 -22.921  1.00  0.00     0.010 C 
ATOM     12  C   UNL     1      49.096 -42.154 -22.435  1.00  0.00     0.033 C 
ATOM     13  C   UNL     1      48.282 -41.148 -23.264  1.00  0.00     0.120 C 
ATOM     14  C   UNL     1      48.318 -41.462 -24.795  1.00  0.00    -0.006 C 
ATOM     15  C   UNL     1      49.822 -41.630 -25.271  1.00  0.00     0.003 C 
ATOM     16  C   UNL     1      49.988 -41.852 -26.790  1.00  0.00     0.005 C 
ATOM     17  C   UNL     1      51.451 -41.708 -27.233  1.00  0.00     0.008 C 
ATOM     18  C   UNL     1      52.470 -42.646 -26.503  1.00  0.00    -0.024 C 
ATOM     19  C   UNL     1      54.000 -42.292 -26.935  1.00  0.00    -0.024 C 
ATOM     20  C   UNL     1      54.125 -42.062 -28.474  1.00  0.00     0.008 C 
ATOM     21  C   UNL     1      55.569 -41.870 -28.923  1.00  0.00     0.010 C 
ATOM     22  C   UNL     1      54.953 -43.468 -26.518  1.00  0.00     0.012 C 
ATOM     23  C   UNL     1      52.175 -44.115 -26.967  1.00  0.00     0.012 C 
ATOM     24  C   UNL     1      47.656 -40.263 -25.534  1.00  0.00     0.014 C 
ATOM     25  C   UNL     1      47.428 -42.698 -25.093  1.00  0.00     0.014 C 
ATOM     26  C   UNL     1      50.250 -44.125 -24.561  1.00  0.00     0.012 C 
ENDROOT
BRANCH   1  27
ATOM     27  C   UNL     1      55.175 -38.087 -25.654  1.00  0.00    -0.077 C 
ATOM     28  C   UNL     1      55.400 -37.894 -24.170  1.00  0.00     0.039 C 
ATOM     29  C   UNL     1      54.050 -37.580 -26.188  1.00  0.00     0.008 C 
ENDBRANCH   1  27
BRANCH   4  30
ATOM     30  C   UNL     1      57.839 -41.031 -28.317  1.00  0.00     0.163 C 
BRANCH  30  31
ATOM     31  O   UNL     1      58.081 -42.249 -28.967  1.00  0.00    -0.396 OA
ATOM     32  H   UNL     1      57.497 -42.920 -28.525  1.00  0.00     0.210 HD
ENDBRANCH  30  31
ENDBRANCH   4  30
BRANCH  13  33
ATOM     33  O   UNL     1      48.773 -39.849 -23.024  1.00  0.00    -0.393 OA
ATOM     34  H   UNL     1      49.718 -39.833 -23.328  1.00  0.00     0.210 HD
ENDBRANCH  13  33
TORSDOF 4
ENDMDL
MODEL 8
REMARK VINA RESULT:    -6.502      2.934      4.765
REMARK INTER + INTRA:          -8.183
REMARK INTER:                  -7.795
REMARK INTRA:                  -0.388
REMARK UNBOUND:                -0.541
REMARK SMILES C=C(C)[C@@H]1CC[C@]2(CO)CC[C@@]3(C)[C@@H](CC[C@H]4[C@@]5(C)CC[C@@H](O)C(C)(C)[C@@H]5CC[C@]43C)[C@H]12
REMARK SMILES IDX 4 1 5 2 6 3 7 4 32 5 14 6 15 7 16 8 17 9 18 10 20 11 21 12
REMARK SMILES IDX 22 13 24 14 27 15 28 16 29 17 30 18 12 19 11 20 10 21 13 22
REMARK SMILES IDX 31 23 25 24 26 25 19 26 2 27 3 28 1 29 8 30 9 31 23 33
REMARK H PARENT 9 32 23 34
REMARK Flexibility Score: inf
ROOT
ATOM      1  C   UNL     1      54.646 -37.152 -23.170  1.00  0.00     0.018 C 
ATOM      2  C   UNL     1      54.897 -35.844 -23.941  1.00  0.00     0.009 C 
ATOM      3  C   UNL     1      55.647 -36.224 -25.203  1.00  0.00     0.010 C 
ATOM      4  C   UNL     1      56.353 -37.561 -24.916  1.00  0.00    -0.003 C 
ATOM      5  C   UNL     1      55.379 -38.316 -23.942  1.00  0.00     0.008 C 
ATOM      6  C   UNL     1      54.423 -39.382 -24.605  1.00  0.00    -0.000 C 
ATOM      7  C   UNL     1      53.897 -40.370 -23.557  1.00  0.00     0.005 C 
ATOM      8  C   UNL     1      52.741 -41.174 -24.121  1.00  0.00     0.005 C 
ATOM      9  C   UNL     1      53.102 -42.022 -25.377  1.00  0.00     0.002 C 
ATOM     10  C   UNL     1      51.828 -42.838 -25.936  1.00  0.00    -0.026 C 
ATOM     11  C   UNL     1      50.968 -43.431 -24.763  1.00  0.00     0.010 C 
ATOM     12  C   UNL     1      49.643 -44.074 -25.212  1.00  0.00     0.033 C 
ATOM     13  C   UNL     1      48.762 -43.074 -25.977  1.00  0.00     0.120 C 
ATOM     14  C   UNL     1      49.494 -42.446 -27.207  1.00  0.00    -0.006 C 
ATOM     15  C   UNL     1      50.897 -41.860 -26.752  1.00  0.00     0.003 C 
ATOM     16  C   UNL     1      51.673 -41.128 -27.868  1.00  0.00     0.005 C 
ATOM     17  C   UNL     1      52.862 -40.332 -27.311  1.00  0.00     0.008 C 
ATOM     18  C   UNL     1      53.896 -41.162 -26.479  1.00  0.00    -0.024 C 
ATOM     19  C   UNL     1      55.017 -40.191 -25.806  1.00  0.00    -0.024 C 
ATOM     20  C   UNL     1      55.522 -39.111 -26.814  1.00  0.00     0.008 C 
ATOM     21  C   UNL     1      56.673 -38.280 -26.257  1.00  0.00     0.010 C 
ATOM     22  C   UNL     1      56.241 -41.048 -25.325  1.00  0.00     0.012 C 
ATOM     23  C   UNL     1      54.639 -42.123 -27.473  1.00  0.00     0.012 C 
ATOM     24  C   UNL     1      48.592 -41.303 -27.755  1.00  0.00     0.014 C 
ATOM     25  C   UNL     1      49.598 -43.497 -28.344  1.00  0.00     0.014 C 
ATOM     26  C   UNL     1      52.340 -44.057 -26.780  1.00  0.00     0.012 C 
ENDROOT
BRANCH   1  27
ATOM     27  C   UNL     1      53.163 -37.315 -22.807  1.00  0.00    -0.077 C 
ATOM     28  C   UNL     1      52.710 -38.022 -21.549  1.00  0.00     0.039 C 
ATOM     29  C   UNL     1      52.216 -36.875 -23.653  1.00  0.00     0.008 C 
ENDBRANCH   1  27
BRANCH   4  30
ATOM     30  C   UNL     1      57.729 -37.297 -24.222  1.00  0.00     0.163 C 
BRANCH  30  31
ATOM     31  O   UNL     1      58.125 -35.956 -24.314  1.00  0.00    -0.396 OA
ATOM     32  H   UNL     1      57.479 -35.438 -23.766  1.00  0.00     0.210 HD
ENDBRANCH  30  31
ENDBRANCH   4  30
BRANCH  13  33
ATOM     33  O   UNL     1      48.340 -42.060 -25.094  1.00  0.00    -0.393 OA
ATOM     34  H   UNL     1      48.874 -41.250 -25.304  1.00  0.00     0.210 HD
ENDBRANCH  13  33
TORSDOF 4
ENDMDL
MODEL 9
REMARK VINA RESULT:    -6.228      2.313      4.866
REMARK INTER + INTRA:          -7.861
REMARK INTER:                  -7.212
REMARK INTRA:                  -0.649
REMARK UNBOUND:                -0.541
REMARK SMILES C=C(C)[C@@H]1CC[C@]2(CO)CC[C@@]3(C)[C@@H](CC[C@H]4[C@@]5(C)CC[C@@H](O)C(C)(C)[C@@H]5CC[C@]43C)[C@H]12
REMARK SMILES IDX 4 1 5 2 6 3 7 4 32 5 14 6 15 7 16 8 17 9 18 10 20 11 21 12
REMARK SMILES IDX 22 13 24 14 27 15 28 16 29 17 30 18 12 19 11 20 10 21 13 22
REMARK SMILES IDX 31 23 25 24 26 25 19 26 2 27 3 28 1 29 8 30 9 31 23 33
REMARK H PARENT 9 32 23 34
REMARK Flexibility Score: inf
ROOT
ATOM      1  C   UNL     1      52.870 -35.891 -21.130  1.00  0.00     0.018 C 
ATOM      2  C   UNL     1      51.859 -34.777 -21.451  1.00  0.00     0.009 C 
ATOM      3  C   UNL     1      52.471 -33.944 -22.561  1.00  0.00     0.010 C 
ATOM      4  C   UNL     1      53.994 -34.149 -22.481  1.00  0.00    -0.003 C 
ATOM      5  C   UNL     1      54.165 -35.630 -21.991  1.00  0.00     0.008 C 
ATOM      6  C   UNL     1      54.448 -36.704 -23.112  1.00  0.00    -0.000 C 
ATOM      7  C   UNL     1      55.069 -37.971 -22.511  1.00  0.00     0.005 C 
ATOM      8  C   UNL     1      55.033 -39.107 -23.516  1.00  0.00     0.005 C 
ATOM      9  C   UNL     1      55.815 -38.821 -24.832  1.00  0.00     0.002 C 
ATOM     10  C   UNL     1      55.724 -40.058 -25.864  1.00  0.00    -0.026 C 
ATOM     11  C   UNL     1      55.844 -41.436 -25.118  1.00  0.00     0.010 C 
ATOM     12  C   UNL     1      55.592 -42.664 -26.012  1.00  0.00     0.033 C 
ATOM     13  C   UNL     1      54.204 -42.608 -26.669  1.00  0.00     0.120 C 
ATOM     14  C   UNL     1      53.979 -41.296 -27.488  1.00  0.00    -0.006 C 
ATOM     15  C   UNL     1      54.321 -40.036 -26.586  1.00  0.00     0.003 C 
ATOM     16  C   UNL     1      54.045 -38.675 -27.261  1.00  0.00     0.005 C 
ATOM     17  C   UNL     1      54.105 -37.516 -26.256  1.00  0.00     0.008 C 
ATOM     18  C   UNL     1      55.445 -37.387 -25.457  1.00  0.00    -0.024 C 
ATOM     19  C   UNL     1      55.333 -36.232 -24.314  1.00  0.00    -0.024 C 
ATOM     20  C   UNL     1      54.630 -34.949 -24.859  1.00  0.00     0.008 C 
ATOM     21  C   UNL     1      54.640 -33.803 -23.854  1.00  0.00     0.010 C 
ATOM     22  C   UNL     1      56.768 -35.848 -23.807  1.00  0.00     0.012 C 
ATOM     23  C   UNL     1      56.558 -36.943 -26.470  1.00  0.00     0.012 C 
ATOM     24  C   UNL     1      52.480 -41.258 -27.908  1.00  0.00     0.014 C 
ATOM     25  C   UNL     1      54.796 -41.358 -28.806  1.00  0.00     0.014 C 
ATOM     26  C   UNL     1      56.935 -39.977 -26.857  1.00  0.00     0.012 C 
ENDROOT
BRANCH   1  27
ATOM     27  C   UNL     1      52.210 -37.277 -21.174  1.00  0.00    -0.077 C 
ATOM     28  C   UNL     1      51.343 -37.726 -22.329  1.00  0.00     0.039 C 
ATOM     29  C   UNL     1      52.344 -38.113 -20.131  1.00  0.00     0.008 C 
ENDBRANCH   1  27
BRANCH   4  30
ATOM     30  C   UNL     1      54.610 -33.151 -21.446  1.00  0.00     0.163 C 
BRANCH  30  31
ATOM     31  O   UNL     1      55.786 -33.645 -20.864  1.00  0.00    -0.396 OA
ATOM     32  H   UNL     1      55.518 -34.432 -20.321  1.00  0.00     0.210 HD
ENDBRANCH  30  31
ENDBRANCH   4  30
BRANCH  13  33
ATOM     33  O   UNL     1      53.216 -42.732 -25.672  1.00  0.00    -0.393 OA
ATOM     34  H   UNL     1      53.448 -42.092 -24.949  1.00  0.00     0.210 HD
ENDBRANCH  13  33
TORSDOF 4
ENDMDL
