MODEL 1
REMARK VINA RESULT:    -3.584      0.000      0.000
REMARK INTER + INTRA:          -4.066
REMARK INTER:                  -3.898
REMARK INTRA:                  -0.167
REMARK UNBOUND:                -0.167
REMARK SMILES Cc1ccc(C(C)C)c(O)c1
REMARK SMILES IDX 1 1 2 2 11 3 9 4 5 5 4 6 3 7 10 8 6 10 7 11 8 12
REMARK H PARENT 10 9
REMARK Flexibility Score: inf
ROOT
ATOM      1  C   UNL     1      14.765   1.815  -3.121  1.00  0.00     0.044 C 
ATOM      2  C   UNL     1      13.639   2.720  -2.718  1.00  0.00    -0.047 A 
ATOM      3  C   UNL     1      12.322   2.419  -3.090  1.00  0.00     0.049 A 
ATOM      4  C   UNL     1      11.267   3.279  -2.749  1.00  0.00     0.119 A 
ATOM      5  C   UNL     1      11.529   4.468  -2.034  1.00  0.00    -0.004 A 
ATOM      6  C   UNL     1      12.859   4.771  -1.682  1.00  0.00     0.008 A 
ATOM      7  C   UNL     1      13.902   3.909  -2.026  1.00  0.00     0.004 A 
ENDROOT
BRANCH   4   8
ATOM      8  O   UNL     1       9.965   2.949  -3.125  1.00  0.00    -0.508 OA
ATOM      9  H   UNL     1       9.386   2.338  -2.562  1.00  0.00     0.293 HD
ENDBRANCH   4   8
BRANCH   5  10
ATOM     10  C   UNL     1      10.402   5.418  -1.652  1.00  0.00     0.017 C 
ATOM     11  C   UNL     1      10.052   6.354  -2.814  1.00  0.00     0.012 C 
ATOM     12  C   UNL     1      10.754   6.214  -0.389  1.00  0.00     0.012 C 
ENDBRANCH   5  10
TORSDOF 2
ENDMDL
MODEL 2
REMARK VINA RESULT:    -3.295      2.005      4.647
REMARK INTER + INTRA:          -3.751
REMARK INTER:                  -3.550
REMARK INTRA:                  -0.200
REMARK UNBOUND:                -0.167
REMARK SMILES Cc1ccc(C(C)C)c(O)c1
REMARK SMILES IDX 1 1 2 2 11 3 9 4 5 5 4 6 3 7 10 8 6 10 7 11 8 12
REMARK H PARENT 10 9
REMARK Flexibility Score: inf
ROOT
ATOM      1  C   UNL     1       9.066   7.616  -1.215  1.00  0.00     0.044 C 
ATOM      2  C   UNL     1      10.205   6.687  -1.511  1.00  0.00    -0.047 A 
ATOM      3  C   UNL     1      11.394   7.181  -2.064  1.00  0.00     0.049 A 
ATOM      4  C   UNL     1      12.452   6.314  -2.379  1.00  0.00     0.119 A 
ATOM      5  C   UNL     1      12.320   4.927  -2.149  1.00  0.00    -0.004 A 
ATOM      6  C   UNL     1      11.112   4.439  -1.611  1.00  0.00     0.008 A 
ATOM      7  C   UNL     1      10.066   5.310  -1.302  1.00  0.00     0.004 A 
ENDROOT
BRANCH   4   8
ATOM      8  O   UNL     1      13.627   6.834  -2.920  1.00  0.00    -0.508 OA
ATOM      9  H   UNL     1      13.926   6.609  -3.861  1.00  0.00     0.293 HD
ENDBRANCH   4   8
BRANCH   5  10
ATOM     10  C   UNL     1      13.452   3.966  -2.482  1.00  0.00     0.017 C 
ATOM     11  C   UNL     1      12.915   2.682  -3.125  1.00  0.00     0.012 C 
ATOM     12  C   UNL     1      14.293   3.649  -1.238  1.00  0.00     0.012 C 
ENDBRANCH   5  10
TORSDOF 2
ENDMDL
MODEL 3
REMARK VINA RESULT:    -3.220      1.992      5.158
REMARK INTER + INTRA:          -3.670
REMARK INTER:                  -3.525
REMARK INTRA:                  -0.145
REMARK UNBOUND:                -0.167
REMARK SMILES Cc1ccc(C(C)C)c(O)c1
REMARK SMILES IDX 1 1 2 2 11 3 9 4 5 5 4 6 3 7 10 8 6 10 7 11 8 12
REMARK H PARENT 10 9
REMARK Flexibility Score: inf
ROOT
ATOM      1  C   UNL     1       6.875   8.581  -1.952  1.00  0.00     0.044 C 
ATOM      2  C   UNL     1       7.992   7.581  -1.915  1.00  0.00    -0.047 A 
ATOM      3  C   UNL     1       7.822   6.312  -2.485  1.00  0.00     0.049 A 
ATOM      4  C   UNL     1       8.848   5.356  -2.423  1.00  0.00     0.119 A 
ATOM      5  C   UNL     1      10.062   5.665  -1.770  1.00  0.00    -0.004 A 
ATOM      6  C   UNL     1      10.214   6.938  -1.184  1.00  0.00     0.008 A 
ATOM      7  C   UNL     1       9.186   7.881  -1.252  1.00  0.00     0.004 A 
ENDROOT
BRANCH   4   8
ATOM      8  O   UNL     1       8.655   4.104  -3.006  1.00  0.00    -0.508 OA
ATOM      9  H   UNL     1       8.220   4.000  -3.915  1.00  0.00     0.293 HD
ENDBRANCH   4   8
BRANCH   5  10
ATOM     10  C   UNL     1      11.190   4.647  -1.689  1.00  0.00     0.017 C 
ATOM     11  C   UNL     1      12.111   4.938  -0.499  1.00  0.00     0.012 C 
ATOM     12  C   UNL     1      11.983   4.593  -3.001  1.00  0.00     0.012 C 
ENDBRANCH   5  10
TORSDOF 2
ENDMDL
MODEL 4
REMARK VINA RESULT:    -3.178      2.719      5.731
REMARK INTER + INTRA:          -3.624
REMARK INTER:                  -3.532
REMARK INTRA:                  -0.093
REMARK UNBOUND:                -0.167
REMARK SMILES Cc1ccc(C(C)C)c(O)c1
REMARK SMILES IDX 1 1 2 2 11 3 9 4 5 5 4 6 3 7 10 8 6 10 7 11 8 12
REMARK H PARENT 10 9
REMARK Flexibility Score: inf
ROOT
ATOM      1  C   UNL     1      11.998   4.394  -2.007  1.00  0.00     0.044 C 
ATOM      2  C   UNL     1      13.249   3.571  -2.085  1.00  0.00    -0.047 A 
ATOM      3  C   UNL     1      14.345   3.873  -1.266  1.00  0.00     0.049 A 
ATOM      4  C   UNL     1      15.533   3.132  -1.358  1.00  0.00     0.119 A 
ATOM      5  C   UNL     1      15.637   2.078  -2.293  1.00  0.00    -0.004 A 
ATOM      6  C   UNL     1      14.535   1.797  -3.125  1.00  0.00     0.008 A 
ATOM      7  C   UNL     1      13.358   2.541  -3.025  1.00  0.00     0.004 A 
ENDROOT
BRANCH   4   8
ATOM      8  O   UNL     1      16.605   3.448  -0.524  1.00  0.00    -0.508 OA
ATOM      9  H   UNL     1      16.970   4.390  -0.458  1.00  0.00     0.293 HD
ENDBRANCH   4   8
BRANCH   5  10
ATOM     10  C   UNL     1      16.914   1.259  -2.412  1.00  0.00     0.017 C 
ATOM     11  C   UNL     1      18.016   2.056  -3.122  1.00  0.00     0.012 C 
ATOM     12  C   UNL     1      16.653  -0.074  -3.124  1.00  0.00     0.012 C 
ENDBRANCH   5  10
TORSDOF 2
ENDMDL
MODEL 5
REMARK VINA RESULT:    -3.126      2.224      3.546
REMARK INTER + INTRA:          -3.567
REMARK INTER:                  -3.367
REMARK INTRA:                  -0.200
REMARK UNBOUND:                -0.167
REMARK SMILES Cc1ccc(C(C)C)c(O)c1
REMARK SMILES IDX 1 1 2 2 11 3 9 4 5 5 4 6 3 7 10 8 6 10 7 11 8 12
REMARK H PARENT 10 9
REMARK Flexibility Score: inf
ROOT
ATOM      1  C   UNL     1      12.652   4.625  -0.877  1.00  0.00     0.044 C 
ATOM      2  C   UNL     1      11.397   5.355  -1.251  1.00  0.00    -0.047 A 
ATOM      3  C   UNL     1      10.317   4.661  -1.813  1.00  0.00     0.049 A 
ATOM      4  C   UNL     1       9.153   5.342  -2.201  1.00  0.00     0.119 A 
ATOM      5  C   UNL     1       9.065   6.742  -2.037  1.00  0.00    -0.004 A 
ATOM      6  C   UNL     1      10.165   7.432  -1.488  1.00  0.00     0.008 A 
ATOM      7  C   UNL     1      11.319   6.745  -1.106  1.00  0.00     0.004 A 
ENDROOT
BRANCH   4   8
ATOM      8  O   UNL     1       8.090   4.625  -2.750  1.00  0.00    -0.508 OA
ATOM      9  H   UNL     1       7.970   4.532  -3.752  1.00  0.00     0.293 HD
ENDBRANCH   4   8
BRANCH   5  10
ATOM     10  C   UNL     1       7.814   7.503  -2.449  1.00  0.00     0.017 C 
ATOM     11  C   UNL     1       8.173   8.831  -3.125  1.00  0.00     0.012 C 
ATOM     12  C   UNL     1       6.883   7.729  -1.251  1.00  0.00     0.012 C 
ENDBRANCH   5  10
TORSDOF 2
ENDMDL
MODEL 6
REMARK VINA RESULT:    -3.083     10.901     12.529
REMARK INTER + INTRA:          -3.520
REMARK INTER:                  -3.333
REMARK INTRA:                  -0.187
REMARK UNBOUND:                -0.167
REMARK SMILES Cc1ccc(C(C)C)c(O)c1
REMARK SMILES IDX 1 1 2 2 11 3 9 4 5 5 4 6 3 7 10 8 6 10 7 11 8 12
REMARK H PARENT 10 9
REMARK Flexibility Score: inf
ROOT
ATOM      1  C   UNL     1      14.503  13.399  -2.803  1.00  0.00     0.044 C 
ATOM      2  C   UNL     1      13.962  14.507  -1.950  1.00  0.00    -0.047 A 
ATOM      3  C   UNL     1      14.736  15.649  -1.701  1.00  0.00     0.049 A 
ATOM      4  C   UNL     1      14.253  16.674  -0.874  1.00  0.00     0.119 A 
ATOM      5  C   UNL     1      12.980  16.557  -0.273  1.00  0.00    -0.004 A 
ATOM      6  C   UNL     1      12.219  15.396  -0.515  1.00  0.00     0.008 A 
ATOM      7  C   UNL     1      12.709  14.381  -1.339  1.00  0.00     0.004 A 
ENDROOT
BRANCH   4   8
ATOM      8  O   UNL     1      15.040  17.804  -0.651  1.00  0.00    -0.508 OA
ATOM      9  H   UNL     1      15.275  18.114   0.284  1.00  0.00     0.293 HD
ENDBRANCH   4   8
BRANCH   5  10
ATOM     10  C   UNL     1      12.434  17.655   0.628  1.00  0.00     0.017 C 
ATOM     11  C   UNL     1      12.890  17.457   2.078  1.00  0.00     0.012 C 
ATOM     12  C   UNL     1      10.905  17.736   0.537  1.00  0.00     0.012 C 
ENDBRANCH   5  10
TORSDOF 2
ENDMDL
MODEL 7
REMARK VINA RESULT:    -3.027      1.730      2.430
REMARK INTER + INTRA:          -3.459
REMARK INTER:                  -3.350
REMARK INTRA:                  -0.109
REMARK UNBOUND:                -0.167
REMARK SMILES Cc1ccc(C(C)C)c(O)c1
REMARK SMILES IDX 1 1 2 2 11 3 9 4 5 5 4 6 3 7 10 8 6 10 7 11 8 12
REMARK H PARENT 10 9
REMARK Flexibility Score: inf
ROOT
ATOM      1  C   UNL     1      14.874   2.933  -1.928  1.00  0.00     0.044 C 
ATOM      2  C   UNL     1      13.510   3.539  -2.069  1.00  0.00    -0.047 A 
ATOM      3  C   UNL     1      13.104   4.574  -1.216  1.00  0.00     0.049 A 
ATOM      4  C   UNL     1      11.817   5.121  -1.316  1.00  0.00     0.119 A 
ATOM      5  C   UNL     1      10.909   4.622  -2.276  1.00  0.00    -0.004 A 
ATOM      6  C   UNL     1      11.322   3.568  -3.116  1.00  0.00     0.008 A 
ATOM      7  C   UNL     1      12.605   3.030  -3.008  1.00  0.00     0.004 A 
ENDROOT
BRANCH   4   8
ATOM      8  O   UNL     1      11.443   6.157  -0.459  1.00  0.00    -0.508 OA
ATOM      9  H   UNL     1      11.912   6.313   0.425  1.00  0.00     0.293 HD
ENDBRANCH   4   8
BRANCH   5  10
ATOM     10  C   UNL     1       9.507   5.198  -2.406  1.00  0.00     0.017 C 
ATOM     11  C   UNL     1       8.572   4.219  -3.125  1.00  0.00     0.012 C 
ATOM     12  C   UNL     1       9.531   6.559  -3.113  1.00  0.00     0.012 C 
ENDBRANCH   5  10
TORSDOF 2
ENDMDL
MODEL 8
REMARK VINA RESULT:    -3.017     10.345     11.993
REMARK INTER + INTRA:          -3.449
REMARK INTER:                  -3.310
REMARK INTRA:                  -0.139
REMARK UNBOUND:                -0.167
REMARK SMILES Cc1ccc(C(C)C)c(O)c1
REMARK SMILES IDX 1 1 2 2 11 3 9 4 5 5 4 6 3 7 10 8 6 10 7 11 8 12
REMARK H PARENT 10 9
REMARK Flexibility Score: inf
ROOT
ATOM      1  C   UNL     1      12.629  12.616  -2.745  1.00  0.00     0.044 C 
ATOM      2  C   UNL     1      12.796  13.861  -1.926  1.00  0.00    -0.047 A 
ATOM      3  C   UNL     1      11.676  14.610  -1.543  1.00  0.00     0.049 A 
ATOM      4  C   UNL     1      11.825  15.796  -0.809  1.00  0.00     0.119 A 
ATOM      5  C   UNL     1      13.115  16.253  -0.458  1.00  0.00    -0.004 A 
ATOM      6  C   UNL     1      14.236  15.501  -0.866  1.00  0.00     0.008 A 
ATOM      7  C   UNL     1      14.076  14.322  -1.597  1.00  0.00     0.004 A 
ENDROOT
BRANCH   4   8
ATOM      8  O   UNL     1      10.692  16.518  -0.433  1.00  0.00    -0.508 OA
ATOM      9  H   UNL     1      10.681  17.099   0.397  1.00  0.00     0.293 HD
ENDBRANCH   4   8
BRANCH   5  10
ATOM     10  C   UNL     1      13.304  17.535   0.338  1.00  0.00     0.017 C 
ATOM     11  C   UNL     1      14.703  18.123   0.113  1.00  0.00     0.012 C 
ATOM     12  C   UNL     1      13.036  17.306   1.830  1.00  0.00     0.012 C 
ENDBRANCH   5  10
TORSDOF 2
ENDMDL
MODEL 9
REMARK VINA RESULT:    -2.981      3.890      5.321
REMARK INTER + INTRA:          -3.409
REMARK INTER:                  -3.250
REMARK INTRA:                  -0.159
REMARK UNBOUND:                -0.167
REMARK SMILES Cc1ccc(C(C)C)c(O)c1
REMARK SMILES IDX 1 1 2 2 11 3 9 4 5 5 4 6 3 7 10 8 6 10 7 11 8 12
REMARK H PARENT 10 9
REMARK Flexibility Score: inf
ROOT
ATOM      1  C   UNL     1      14.666  11.122  -2.763  1.00  0.00     0.044 C 
ATOM      2  C   UNL     1      13.681  10.027  -2.484  1.00  0.00    -0.047 A 
ATOM      3  C   UNL     1      13.950   8.713  -2.893  1.00  0.00     0.049 A 
ATOM      4  C   UNL     1      13.018   7.689  -2.669  1.00  0.00     0.119 A 
ATOM      5  C   UNL     1      11.789   7.978  -2.036  1.00  0.00    -0.004 A 
ATOM      6  C   UNL     1      11.521   9.305  -1.647  1.00  0.00     0.008 A 
ATOM      7  C   UNL     1      12.455  10.318  -1.875  1.00  0.00     0.004 A 
ENDROOT
BRANCH   4   8
ATOM      8  O   UNL     1      13.316   6.389  -3.079  1.00  0.00    -0.508 OA
ATOM      9  H   UNL     1      14.269   6.082  -3.228  1.00  0.00     0.293 HD
ENDBRANCH   4   8
BRANCH   5  10
ATOM     10  C   UNL     1      10.761   6.885  -1.782  1.00  0.00     0.017 C 
ATOM     11  C   UNL     1       9.345   7.467  -1.697  1.00  0.00     0.012 C 
ATOM     12  C   UNL     1      11.105   6.085  -0.518  1.00  0.00     0.012 C 
ENDBRANCH   5  10
TORSDOF 2
ENDMDL
