MODEL 1
REMARK VINA RESULT:    -3.092      0.000      0.000
REMARK INTER + INTRA:         -12.835
REMARK INTER:                  -8.154
REMARK INTRA:                  -4.681
REMARK UNBOUND:                -4.681
REMARK SMILES CCCCCCCCCCCCCCCCCCCCCCCCCCCCCC(=O)[O-]
REMARK SMILES IDX 16 1 17 2 18 3 19 4 20 5 21 6 22 7 23 8 24 9 25 10 26 11
REMARK SMILES IDX 27 12 28 13 29 14 30 15 31 16 32 17 15 18 14 19 13 20 12 21
REMARK SMILES IDX 11 22 10 23 9 24 8 25 7 26 6 27 5 28 4 29 3 30 2 31 1 32
REMARK H PARENT
REMARK Flexibility Score: inf
ROOT
ATOM      1  C   UNL     1       5.255   4.126  -6.036  1.00  0.00     0.000 C 
ENDROOT
BRANCH   1   2
ATOM      2  C   UNL     1       4.143   3.567  -6.946  1.00  0.00     0.000 C 
BRANCH   2   3
ATOM      3  C   UNL     1       4.463   3.669  -8.447  1.00  0.00     0.000 C 
BRANCH   3   4
ATOM      4  C   UNL     1       5.133   2.403  -9.006  1.00  0.00     0.000 C 
BRANCH   4   5
ATOM      5  C   UNL     1       6.589   2.682  -9.394  1.00  0.00     0.000 C 
BRANCH   5   6
ATOM      6  C   UNL     1       7.562   2.179  -8.313  1.00  0.00     0.000 C 
BRANCH   6   7
ATOM      7  C   UNL     1       8.997   1.982  -8.844  1.00  0.00     0.000 C 
BRANCH   7   8
ATOM      8  C   UNL     1       9.473   0.515  -8.869  1.00  0.00     0.000 C 
BRANCH   8   9
ATOM      9  C   UNL     1       8.787  -0.396  -9.908  1.00  0.00     0.000 C 
BRANCH   9  10
ATOM     10  C   UNL     1       8.501  -1.829  -9.421  1.00  0.00     0.000 C 
BRANCH  10  11
ATOM     11  C   UNL     1       7.008  -2.200  -9.495  1.00  0.00     0.000 C 
BRANCH  11  12
ATOM     12  C   UNL     1       6.105  -1.126  -8.857  1.00  0.00     0.000 C 
BRANCH  12  13
ATOM     13  C   UNL     1       5.421  -1.563  -7.543  1.00  0.00     0.006 C 
BRANCH  13  14
ATOM     14  C   UNL     1       6.368  -1.652  -6.334  1.00  0.00     0.053 C 
BRANCH  14  15
ATOM     15  C   UNL     1       6.794  -0.297  -5.854  1.00  0.00     0.041 C 
ATOM     16  O   UNL     1       8.013  -0.052  -5.648  1.00  0.00    -0.550 OA
ATOM     17  O   UNL     1       5.845   0.699  -5.652  1.00  0.00    -0.550 OA
ENDBRANCH  14  15
ENDBRANCH  13  14
ENDBRANCH  12  13
ENDBRANCH  11  12
ENDBRANCH  10  11
ENDBRANCH   9  10
ENDBRANCH   8   9
ENDBRANCH   7   8
ENDBRANCH   6   7
ENDBRANCH   5   6
ENDBRANCH   4   5
ENDBRANCH   3   4
ENDBRANCH   2   3
ENDBRANCH   1   2
BRANCH   1  18
ATOM     18  C   UNL     1       5.973   5.328  -6.674  1.00  0.00     0.000 C 
BRANCH  18  19
ATOM     19  C   UNL     1       7.490   5.330  -6.415  1.00  0.00     0.000 C 
BRANCH  19  20
ATOM     20  C   UNL     1       8.359   5.696  -7.630  1.00  0.00     0.000 C 
BRANCH  20  21
ATOM     21  C   UNL     1       7.600   6.247  -8.854  1.00  0.00     0.000 C 
BRANCH  21  22
ATOM     22  C   UNL     1       8.146   7.587  -9.393  1.00  0.00     0.000 C 
BRANCH  22  23
ATOM     23  C   UNL     1       7.682   8.800  -8.566  1.00  0.00     0.000 C 
BRANCH  23  24
ATOM     24  C   UNL     1       6.215   8.699  -8.095  1.00  0.00    -0.000 C 
BRANCH  24  25
ATOM     25  C   UNL     1       5.910   9.433  -6.774  1.00  0.00    -0.000 C 
BRANCH  25  26
ATOM     26  C   UNL     1       6.716   8.978  -5.540  1.00  0.00    -0.000 C 
BRANCH  26  27
ATOM     27  C   UNL     1       5.895   8.739  -4.255  1.00  0.00    -0.000 C 
BRANCH  27  28
ATOM     28  C   UNL     1       6.039   7.334  -3.644  1.00  0.00    -0.000 C 
BRANCH  28  29
ATOM     29  C   UNL     1       6.654   7.356  -2.231  1.00  0.00    -0.000 C 
BRANCH  29  30
ATOM     30  C   UNL     1       6.175   8.570  -1.403  1.00  0.00    -0.000 C 
BRANCH  30  31
ATOM     31  C   UNL     1       6.542   8.488   0.086  1.00  0.00    -0.003 C 
ATOM     32  C   UNL     1       8.003   8.112   0.324  1.00  0.00     0.004 C 
ENDBRANCH  30  31
ENDBRANCH  29  30
ENDBRANCH  28  29
ENDBRANCH  27  28
ENDBRANCH  26  27
ENDBRANCH  25  26
ENDBRANCH  24  25
ENDBRANCH  23  24
ENDBRANCH  22  23
ENDBRANCH  21  22
ENDBRANCH  20  21
ENDBRANCH  19  20
ENDBRANCH  18  19
ENDBRANCH   1  18
TORSDOF 28
ENDMDL
MODEL 2
REMARK VINA RESULT:    -3.017      2.277      8.411
REMARK INTER + INTRA:         -12.636
REMARK INTER:                  -7.128
REMARK INTRA:                  -5.508
REMARK UNBOUND:                -4.681
REMARK SMILES CCCCCCCCCCCCCCCCCCCCCCCCCCCCCC(=O)[O-]
REMARK SMILES IDX 16 1 17 2 18 3 19 4 20 5 21 6 22 7 23 8 24 9 25 10 26 11
REMARK SMILES IDX 27 12 28 13 29 14 30 15 31 16 32 17 15 18 14 19 13 20 12 21
REMARK SMILES IDX 11 22 10 23 9 24 8 25 7 26 6 27 5 28 4 29 3 30 2 31 1 32
REMARK H PARENT
REMARK Flexibility Score: inf
ROOT
ATOM      1  C   UNL     1       5.236   4.400  -6.300  1.00  0.00     0.000 C 
ENDROOT
BRANCH   1   2
ATOM      2  C   UNL     1       6.156   5.600  -6.604  1.00  0.00     0.000 C 
BRANCH   2   3
ATOM      3  C   UNL     1       7.412   5.654  -5.719  1.00  0.00     0.000 C 
BRANCH   3   4
ATOM      4  C   UNL     1       8.676   5.152  -6.436  1.00  0.00     0.000 C 
BRANCH   4   5
ATOM      5  C   UNL     1       9.376   6.298  -7.175  1.00  0.00     0.000 C 
BRANCH   5   6
ATOM      6  C   UNL     1       9.882   5.846  -8.557  1.00  0.00     0.000 C 
BRANCH   6   7
ATOM      7  C   UNL     1       8.981   6.331  -9.712  1.00  0.00     0.000 C 
BRANCH   7   8
ATOM      8  C   UNL     1       8.252   7.662  -9.437  1.00  0.00     0.000 C 
BRANCH   8   9
ATOM      9  C   UNL     1       6.742   7.678  -9.752  1.00  0.00     0.000 C 
BRANCH   9  10
ATOM     10  C   UNL     1       5.870   8.387  -8.699  1.00  0.00     0.000 C 
BRANCH  10  11
ATOM     11  C   UNL     1       6.701   9.063  -7.592  1.00  0.00     0.000 C 
BRANCH  11  12
ATOM     12  C   UNL     1       5.833   9.512  -6.400  1.00  0.00     0.000 C 
BRANCH  12  13
ATOM     13  C   UNL     1       6.331   9.016  -5.024  1.00  0.00     0.006 C 
BRANCH  13  14
ATOM     14  C   UNL     1       5.261   9.033  -3.918  1.00  0.00     0.053 C 
BRANCH  14  15
ATOM     15  C   UNL     1       5.735   8.355  -2.669  1.00  0.00     0.041 C 
ATOM     16  O   UNL     1       6.311   7.235  -2.735  1.00  0.00    -0.550 OA
ATOM     17  O   UNL     1       5.556   8.968  -1.433  1.00  0.00    -0.550 OA
ENDBRANCH  14  15
ENDBRANCH  13  14
ENDBRANCH  12  13
ENDBRANCH  11  12
ENDBRANCH  10  11
ENDBRANCH   9  10
ENDBRANCH   8   9
ENDBRANCH   7   8
ENDBRANCH   6   7
ENDBRANCH   5   6
ENDBRANCH   4   5
ENDBRANCH   3   4
ENDBRANCH   2   3
ENDBRANCH   1   2
BRANCH   1  18
ATOM     18  C   UNL     1       4.755   3.702  -7.585  1.00  0.00     0.000 C 
BRANCH  18  19
ATOM     19  C   UNL     1       5.273   4.379  -8.866  1.00  0.00     0.000 C 
BRANCH  19  20
ATOM     20  C   UNL     1       6.333   3.580  -9.644  1.00  0.00     0.000 C 
BRANCH  20  21
ATOM     21  C   UNL     1       7.144   2.562  -8.817  1.00  0.00     0.000 C 
BRANCH  21  22
ATOM     22  C   UNL     1       8.651   2.528  -9.148  1.00  0.00     0.000 C 
BRANCH  22  23
ATOM     23  C   UNL     1       9.456   1.631  -8.188  1.00  0.00     0.000 C 
BRANCH  23  24
ATOM     24  C   UNL     1       9.932   0.312  -8.832  1.00  0.00    -0.000 C 
BRANCH  24  25
ATOM     25  C   UNL     1       9.191  -0.948  -8.345  1.00  0.00    -0.000 C 
BRANCH  25  26
ATOM     26  C   UNL     1       8.716  -1.926  -9.439  1.00  0.00    -0.000 C 
BRANCH  26  27
ATOM     27  C   UNL     1       7.187  -2.089  -9.574  1.00  0.00    -0.000 C 
BRANCH  27  28
ATOM     28  C   UNL     1       6.396  -0.769  -9.631  1.00  0.00    -0.000 C 
BRANCH  28  29
ATOM     29  C   UNL     1       5.209  -0.740  -8.650  1.00  0.00    -0.000 C 
BRANCH  29  30
ATOM     30  C   UNL     1       5.601  -1.242  -7.242  1.00  0.00    -0.000 C 
BRANCH  30  31
ATOM     31  C   UNL     1       6.280  -0.176  -6.370  1.00  0.00    -0.003 C 
ATOM     32  C   UNL     1       7.077  -0.769  -5.210  1.00  0.00     0.004 C 
ENDBRANCH  30  31
ENDBRANCH  29  30
ENDBRANCH  28  29
ENDBRANCH  27  28
ENDBRANCH  26  27
ENDBRANCH  25  26
ENDBRANCH  24  25
ENDBRANCH  23  24
ENDBRANCH  22  23
ENDBRANCH  21  22
ENDBRANCH  20  21
ENDBRANCH  19  20
ENDBRANCH  18  19
ENDBRANCH   1  18
TORSDOF 28
ENDMDL
MODEL 3
REMARK VINA RESULT:    -2.959      1.957      3.235
REMARK INTER + INTRA:         -12.483
REMARK INTER:                  -7.215
REMARK INTRA:                  -5.269
REMARK UNBOUND:                -4.681
REMARK SMILES CCCCCCCCCCCCCCCCCCCCCCCCCCCCCC(=O)[O-]
REMARK SMILES IDX 16 1 17 2 18 3 19 4 20 5 21 6 22 7 23 8 24 9 25 10 26 11
REMARK SMILES IDX 27 12 28 13 29 14 30 15 31 16 32 17 15 18 14 19 13 20 12 21
REMARK SMILES IDX 11 22 10 23 9 24 8 25 7 26 6 27 5 28 4 29 3 30 2 31 1 32
REMARK H PARENT
REMARK Flexibility Score: inf
ROOT
ATOM      1  C   UNL     1       4.804   3.467  -8.459  1.00  0.00     0.000 C 
ENDROOT
BRANCH   1   2
ATOM      2  C   UNL     1       4.243   3.565  -7.025  1.00  0.00     0.000 C 
BRANCH   2   3
ATOM      3  C   UNL     1       5.248   4.126  -6.006  1.00  0.00     0.000 C 
BRANCH   3   4
ATOM      4  C   UNL     1       5.870   5.462  -6.446  1.00  0.00     0.000 C 
BRANCH   4   5
ATOM      5  C   UNL     1       6.871   5.968  -5.402  1.00  0.00     0.000 C 
BRANCH   5   6
ATOM      6  C   UNL     1       8.315   5.893  -5.930  1.00  0.00     0.000 C 
BRANCH   6   7
ATOM      7  C   UNL     1       8.400   5.322  -7.361  1.00  0.00     0.000 C 
BRANCH   7   8
ATOM      8  C   UNL     1       8.930   3.876  -7.441  1.00  0.00     0.000 C 
BRANCH   8   9
ATOM      9  C   UNL     1       8.434   3.045  -8.643  1.00  0.00     0.000 C 
BRANCH   9  10
ATOM     10  C   UNL     1       7.952   1.626  -8.291  1.00  0.00     0.000 C 
BRANCH  10  11
ATOM     11  C   UNL     1       7.835   1.392  -6.773  1.00  0.00     0.000 C 
BRANCH  11  12
ATOM     12  C   UNL     1       6.600   0.547  -6.403  1.00  0.00     0.000 C 
BRANCH  12  13
ATOM     13  C   UNL     1       5.732   0.122  -7.608  1.00  0.00     0.006 C 
BRANCH  13  14
ATOM     14  C   UNL     1       5.848  -1.366  -7.980  1.00  0.00     0.053 C 
BRANCH  14  15
ATOM     15  C   UNL     1       4.697  -1.825  -8.822  1.00  0.00     0.041 C 
ATOM     16  O   UNL     1       4.224  -1.071  -9.715  1.00  0.00    -0.550 OA
ATOM     17  O   UNL     1       4.158  -3.094  -8.634  1.00  0.00    -0.550 OA
ENDBRANCH  14  15
ENDBRANCH  13  14
ENDBRANCH  12  13
ENDBRANCH  11  12
ENDBRANCH  10  11
ENDBRANCH   9  10
ENDBRANCH   8   9
ENDBRANCH   7   8
ENDBRANCH   6   7
ENDBRANCH   5   6
ENDBRANCH   4   5
ENDBRANCH   3   4
ENDBRANCH   2   3
ENDBRANCH   1   2
BRANCH   1  18
ATOM     18  C   UNL     1       4.145   4.485  -9.406  1.00  0.00     0.000 C 
BRANCH  18  19
ATOM     19  C   UNL     1       5.162   5.415 -10.091  1.00  0.00     0.000 C 
BRANCH  19  20
ATOM     20  C   UNL     1       5.004   6.910  -9.764  1.00  0.00     0.000 C 
BRANCH  20  21
ATOM     21  C   UNL     1       6.313   7.679  -9.497  1.00  0.00     0.000 C 
BRANCH  21  22
ATOM     22  C   UNL     1       6.208   9.206  -9.693  1.00  0.00     0.000 C 
BRANCH  22  23
ATOM     23  C   UNL     1       6.962  10.003  -8.612  1.00  0.00     0.000 C 
BRANCH  23  24
ATOM     24  C   UNL     1       7.632   9.112  -7.545  1.00  0.00    -0.000 C 
BRANCH  24  25
ATOM     25  C   UNL     1       7.322   9.506  -6.088  1.00  0.00    -0.000 C 
BRANCH  25  26
ATOM     26  C   UNL     1       5.829   9.622  -5.716  1.00  0.00    -0.000 C 
BRANCH  26  27
ATOM     27  C   UNL     1       5.529   9.891  -4.226  1.00  0.00    -0.000 C 
BRANCH  27  28
ATOM     28  C   UNL     1       5.193   8.639  -3.396  1.00  0.00    -0.000 C 
BRANCH  28  29
ATOM     29  C   UNL     1       5.898   8.622  -2.026  1.00  0.00    -0.000 C 
BRANCH  29  30
ATOM     30  C   UNL     1       6.961   7.505  -1.927  1.00  0.00    -0.000 C 
BRANCH  30  31
ATOM     31  C   UNL     1       8.295   7.857  -2.603  1.00  0.00    -0.003 C 
ATOM     32  C   UNL     1       8.767   9.277  -2.295  1.00  0.00     0.004 C 
ENDBRANCH  30  31
ENDBRANCH  29  30
ENDBRANCH  28  29
ENDBRANCH  27  28
ENDBRANCH  26  27
ENDBRANCH  25  26
ENDBRANCH  24  25
ENDBRANCH  23  24
ENDBRANCH  22  23
ENDBRANCH  21  22
ENDBRANCH  20  21
ENDBRANCH  19  20
ENDBRANCH  18  19
ENDBRANCH   1  18
TORSDOF 28
ENDMDL
MODEL 4
REMARK VINA RESULT:    -2.952      1.840      3.040
REMARK INTER + INTRA:         -12.465
REMARK INTER:                  -8.383
REMARK INTRA:                  -4.083
REMARK UNBOUND:                -4.681
REMARK SMILES CCCCCCCCCCCCCCCCCCCCCCCCCCCCCC(=O)[O-]
REMARK SMILES IDX 16 1 17 2 18 3 19 4 20 5 21 6 22 7 23 8 24 9 25 10 26 11
REMARK SMILES IDX 27 12 28 13 29 14 30 15 31 16 32 17 15 18 14 19 13 20 12 21
REMARK SMILES IDX 11 22 10 23 9 24 8 25 7 26 6 27 5 28 4 29 3 30 2 31 1 32
REMARK H PARENT
REMARK Flexibility Score: inf
ROOT
ATOM      1  C   UNL     1       6.359   4.406  -6.702  1.00  0.00     0.000 C 
ENDROOT
BRANCH   1   2
ATOM      2  C   UNL     1       4.958   3.838  -7.009  1.00  0.00     0.000 C 
BRANCH   2   3
ATOM      3  C   UNL     1       4.482   4.111  -8.445  1.00  0.00     0.000 C 
BRANCH   3   4
ATOM      4  C   UNL     1       4.523   2.862  -9.341  1.00  0.00     0.000 C 
BRANCH   4   5
ATOM      5  C   UNL     1       5.363   1.754  -8.694  1.00  0.00     0.000 C 
BRANCH   5   6
ATOM      6  C   UNL     1       6.615   1.440  -9.532  1.00  0.00     0.000 C 
BRANCH   6   7
ATOM      7  C   UNL     1       7.467   2.692  -9.826  1.00  0.00     0.000 C 
BRANCH   7   8
ATOM      8  C   UNL     1       8.963   2.405 -10.064  1.00  0.00     0.000 C 
BRANCH   8   9
ATOM      9  C   UNL     1       9.885   2.589  -8.840  1.00  0.00     0.000 C 
BRANCH   9  10
ATOM     10  C   UNL     1       9.150   2.764  -7.499  1.00  0.00     0.000 C 
BRANCH  10  11
ATOM     11  C   UNL     1       9.917   2.151  -6.312  1.00  0.00     0.000 C 
BRANCH  11  12
ATOM     12  C   UNL     1       9.634   0.645  -6.145  1.00  0.00     0.000 C 
BRANCH  12  13
ATOM     13  C   UNL     1       8.261   0.189  -6.688  1.00  0.00     0.006 C 
BRANCH  13  14
ATOM     14  C   UNL     1       7.219  -0.119  -5.598  1.00  0.00     0.053 C 
BRANCH  14  15
ATOM     15  C   UNL     1       6.523  -1.424  -5.840  1.00  0.00     0.041 C 
ATOM     16  O   UNL     1       5.891  -1.616  -6.914  1.00  0.00    -0.550 OA
ATOM     17  O   UNL     1       6.589  -2.435  -4.887  1.00  0.00    -0.550 OA
ENDBRANCH  14  15
ENDBRANCH  13  14
ENDBRANCH  12  13
ENDBRANCH  11  12
ENDBRANCH  10  11
ENDBRANCH   9  10
ENDBRANCH   8   9
ENDBRANCH   7   8
ENDBRANCH   6   7
ENDBRANCH   5   6
ENDBRANCH   4   5
ENDBRANCH   3   4
ENDBRANCH   2   3
ENDBRANCH   1   2
BRANCH   1  18
ATOM     18  C   UNL     1       6.285   5.758  -5.971  1.00  0.00     0.000 C 
BRANCH  18  19
ATOM     19  C   UNL     1       6.338   6.963  -6.928  1.00  0.00     0.000 C 
BRANCH  19  20
ATOM     20  C   UNL     1       7.752   7.404  -7.343  1.00  0.00     0.000 C 
BRANCH  20  21
ATOM     21  C   UNL     1       8.869   6.363  -7.127  1.00  0.00     0.000 C 
BRANCH  21  22
ATOM     22  C   UNL     1       9.832   6.691  -5.966  1.00  0.00     0.000 C 
BRANCH  22  23
ATOM     23  C   UNL     1       9.740   5.682  -4.806  1.00  0.00     0.000 C 
BRANCH  23  24
ATOM     24  C   UNL     1       9.497   6.344  -3.433  1.00  0.00    -0.000 C 
BRANCH  24  25
ATOM     25  C   UNL     1       9.819   7.850  -3.377  1.00  0.00    -0.000 C 
BRANCH  25  26
ATOM     26  C   UNL     1       8.677   8.774  -2.905  1.00  0.00    -0.000 C 
BRANCH  26  27
ATOM     27  C   UNL     1       7.414   8.783  -3.792  1.00  0.00    -0.000 C 
BRANCH  27  28
ATOM     28  C   UNL     1       6.149   8.213  -3.127  1.00  0.00    -0.000 C 
BRANCH  28  29
ATOM     29  C   UNL     1       6.254   8.157  -1.591  1.00  0.00    -0.000 C 
BRANCH  29  30
ATOM     30  C   UNL     1       5.421   9.264  -0.906  1.00  0.00    -0.000 C 
BRANCH  30  31
ATOM     31  C   UNL     1       5.813   9.519   0.557  1.00  0.00    -0.003 C 
ATOM     32  C   UNL     1       7.160   8.904   0.933  1.00  0.00     0.004 C 
ENDBRANCH  30  31
ENDBRANCH  29  30
ENDBRANCH  28  29
ENDBRANCH  27  28
ENDBRANCH  26  27
ENDBRANCH  25  26
ENDBRANCH  24  25
ENDBRANCH  23  24
ENDBRANCH  22  23
ENDBRANCH  21  22
ENDBRANCH  20  21
ENDBRANCH  19  20
ENDBRANCH  18  19
ENDBRANCH   1  18
TORSDOF 28
ENDMDL
MODEL 5
REMARK VINA RESULT:    -2.948      1.426      2.030
REMARK INTER + INTRA:         -12.454
REMARK INTER:                  -7.990
REMARK INTRA:                  -4.464
REMARK UNBOUND:                -4.681
REMARK SMILES CCCCCCCCCCCCCCCCCCCCCCCCCCCCCC(=O)[O-]
REMARK SMILES IDX 16 1 17 2 18 3 19 4 20 5 21 6 22 7 23 8 24 9 25 10 26 11
REMARK SMILES IDX 27 12 28 13 29 14 30 15 31 16 32 17 15 18 14 19 13 20 12 21
REMARK SMILES IDX 11 22 10 23 9 24 8 25 7 26 6 27 5 28 4 29 3 30 2 31 1 32
REMARK H PARENT
REMARK Flexibility Score: inf
ROOT
ATOM      1  C   UNL     1       5.030   2.805  -7.240  1.00  0.00     0.000 C 
ENDROOT
BRANCH   1   2
ATOM      2  C   UNL     1       4.880   2.945  -8.769  1.00  0.00     0.000 C 
BRANCH   2   3
ATOM      3  C   UNL     1       6.170   2.639  -9.547  1.00  0.00     0.000 C 
BRANCH   3   4
ATOM      4  C   UNL     1       7.212   3.766  -9.453  1.00  0.00     0.000 C 
BRANCH   4   5
ATOM      5  C   UNL     1       8.598   3.200  -9.124  1.00  0.00     0.000 C 
BRANCH   5   6
ATOM      6  C   UNL     1       8.562   2.333  -7.854  1.00  0.00     0.000 C 
BRANCH   6   7
ATOM      7  C   UNL     1       9.739   1.337  -7.776  1.00  0.00     0.000 C 
BRANCH   7   8
ATOM      8  C   UNL     1       9.706   0.226  -8.845  1.00  0.00     0.000 C 
BRANCH   8   9
ATOM      9  C   UNL     1       8.973  -1.071  -8.442  1.00  0.00     0.000 C 
BRANCH   9  10
ATOM     10  C   UNL     1       8.495  -1.936  -9.624  1.00  0.00     0.000 C 
BRANCH  10  11
ATOM     11  C   UNL     1       6.975  -2.183  -9.609  1.00  0.00     0.000 C 
BRANCH  11  12
ATOM     12  C   UNL     1       6.197  -1.008  -8.985  1.00  0.00     0.000 C 
BRANCH  12  13
ATOM     13  C   UNL     1       5.536  -1.329  -7.625  1.00  0.00     0.006 C 
BRANCH  13  14
ATOM     14  C   UNL     1       5.943  -0.382  -6.483  1.00  0.00     0.053 C 
BRANCH  14  15
ATOM     15  C   UNL     1       6.904  -1.029  -5.533  1.00  0.00     0.041 C 
ATOM     16  O   UNL     1       7.931  -0.406  -5.149  1.00  0.00    -0.550 OA
ATOM     17  O   UNL     1       6.656  -2.312  -5.059  1.00  0.00    -0.550 OA
ENDBRANCH  14  15
ENDBRANCH  13  14
ENDBRANCH  12  13
ENDBRANCH  11  12
ENDBRANCH  10  11
ENDBRANCH   9  10
ENDBRANCH   8   9
ENDBRANCH   7   8
ENDBRANCH   6   7
ENDBRANCH   5   6
ENDBRANCH   4   5
ENDBRANCH   3   4
ENDBRANCH   2   3
ENDBRANCH   1   2
BRANCH   1  18
ATOM     18  C   UNL     1       4.710   4.119  -6.507  1.00  0.00     0.000 C 
BRANCH  18  19
ATOM     19  C   UNL     1       5.966   4.837  -5.982  1.00  0.00     0.000 C 
BRANCH  19  20
ATOM     20  C   UNL     1       6.382   6.088  -6.774  1.00  0.00     0.000 C 
BRANCH  20  21
ATOM     21  C   UNL     1       7.840   6.550  -6.579  1.00  0.00     0.000 C 
BRANCH  21  22
ATOM     22  C   UNL     1       8.366   6.409  -5.134  1.00  0.00     0.000 C 
BRANCH  22  23
ATOM     23  C   UNL     1       8.981   7.712  -4.590  1.00  0.00     0.000 C 
BRANCH  23  24
ATOM     24  C   UNL     1       8.520   8.974  -5.351  1.00  0.00    -0.000 C 
BRANCH  24  25
ATOM     25  C   UNL     1       7.405   9.777  -4.653  1.00  0.00    -0.000 C 
BRANCH  25  26
ATOM     26  C   UNL     1       5.957   9.382  -5.007  1.00  0.00    -0.000 C 
BRANCH  26  27
ATOM     27  C   UNL     1       5.085   8.906  -3.825  1.00  0.00    -0.000 C 
BRANCH  27  28
ATOM     28  C   UNL     1       5.788   8.911  -2.456  1.00  0.00    -0.000 C 
BRANCH  28  29
ATOM     29  C   UNL     1       6.337   7.527  -2.061  1.00  0.00    -0.000 C 
BRANCH  29  30
ATOM     30  C   UNL     1       7.089   7.559  -0.712  1.00  0.00    -0.000 C 
BRANCH  30  31
ATOM     31  C   UNL     1       8.432   8.302  -0.768  1.00  0.00    -0.003 C 
ATOM     32  C   UNL     1       8.414   9.631  -0.014  1.00  0.00     0.004 C 
ENDBRANCH  30  31
ENDBRANCH  29  30
ENDBRANCH  28  29
ENDBRANCH  27  28
ENDBRANCH  26  27
ENDBRANCH  25  26
ENDBRANCH  24  25
ENDBRANCH  23  24
ENDBRANCH  22  23
ENDBRANCH  21  22
ENDBRANCH  20  21
ENDBRANCH  19  20
ENDBRANCH  18  19
ENDBRANCH   1  18
TORSDOF 28
ENDMDL
MODEL 6
REMARK VINA RESULT:    -2.946      3.048      8.640
REMARK INTER + INTRA:         -12.448
REMARK INTER:                  -6.778
REMARK INTRA:                  -5.670
REMARK UNBOUND:                -4.681
REMARK SMILES CCCCCCCCCCCCCCCCCCCCCCCCCCCCCC(=O)[O-]
REMARK SMILES IDX 16 1 17 2 18 3 19 4 20 5 21 6 22 7 23 8 24 9 25 10 26 11
REMARK SMILES IDX 27 12 28 13 29 14 30 15 31 16 32 17 15 18 14 19 13 20 12 21
REMARK SMILES IDX 11 22 10 23 9 24 8 25 7 26 6 27 5 28 4 29 3 30 2 31 1 32
REMARK H PARENT
REMARK Flexibility Score: inf
ROOT
ATOM      1  C   UNL     1       5.613   4.589  -6.148  1.00  0.00     0.000 C 
ENDROOT
BRANCH   1   2
ATOM      2  C   UNL     1       6.362   5.936  -6.084  1.00  0.00     0.000 C 
BRANCH   2   3
ATOM      3  C   UNL     1       6.681   6.398  -4.653  1.00  0.00     0.000 C 
BRANCH   3   4
ATOM      4  C   UNL     1       8.187   6.393  -4.340  1.00  0.00     0.000 C 
BRANCH   4   5
ATOM      5  C   UNL     1       8.737   7.823  -4.287  1.00  0.00     0.000 C 
BRANCH   5   6
ATOM      6  C   UNL     1       9.488   8.182  -5.581  1.00  0.00     0.000 C 
BRANCH   6   7
ATOM      7  C   UNL     1       8.636   9.025  -6.553  1.00  0.00     0.000 C 
BRANCH   7   8
ATOM      8  C   UNL     1       7.610   9.948  -5.866  1.00  0.00     0.000 C 
BRANCH   8   9
ATOM      9  C   UNL     1       6.149   9.799  -6.341  1.00  0.00     0.000 C 
BRANCH   9  10
ATOM     10  C   UNL     1       5.105   9.740  -5.211  1.00  0.00     0.000 C 
BRANCH  10  11
ATOM     11  C   UNL     1       5.705  10.047  -3.825  1.00  0.00     0.000 C 
BRANCH  11  12
ATOM     12  C   UNL     1       5.216   9.064  -2.744  1.00  0.00     0.000 C 
BRANCH  12  13
ATOM     13  C   UNL     1       6.244   8.780  -1.626  1.00  0.00     0.006 C 
BRANCH  13  14
ATOM     14  C   UNL     1       7.368   9.825  -1.517  1.00  0.00     0.053 C 
BRANCH  14  15
ATOM     15  C   UNL     1       8.524   9.323  -0.707  1.00  0.00     0.041 C 
ATOM     16  O   UNL     1       9.211  10.125  -0.018  1.00  0.00    -0.550 OA
ATOM     17  O   UNL     1       8.832   7.967  -0.699  1.00  0.00    -0.550 OA
ENDBRANCH  14  15
ENDBRANCH  13  14
ENDBRANCH  12  13
ENDBRANCH  11  12
ENDBRANCH  10  11
ENDBRANCH   9  10
ENDBRANCH   8   9
ENDBRANCH   7   8
ENDBRANCH   6   7
ENDBRANCH   5   6
ENDBRANCH   4   5
ENDBRANCH   3   4
ENDBRANCH   2   3
ENDBRANCH   1   2
BRANCH   1  18
ATOM     18  C   UNL     1       5.595   4.007  -7.571  1.00  0.00     0.000 C 
BRANCH  18  19
ATOM     19  C   UNL     1       5.062   4.999  -8.620  1.00  0.00     0.000 C 
BRANCH  19  20
ATOM     20  C   UNL     1       5.971   5.206  -9.844  1.00  0.00     0.000 C 
BRANCH  20  21
ATOM     21  C   UNL     1       7.468   4.912  -9.623  1.00  0.00     0.000 C 
BRANCH  21  22
ATOM     22  C   UNL     1       8.273   6.098  -9.049  1.00  0.00     0.000 C 
BRANCH  22  23
ATOM     23  C   UNL     1       9.550   5.655  -8.311  1.00  0.00     0.000 C 
BRANCH  23  24
ATOM     24  C   UNL     1       9.686   4.123  -8.182  1.00  0.00    -0.000 C 
BRANCH  24  25
ATOM     25  C   UNL     1       9.312   3.557  -6.798  1.00  0.00    -0.000 C 
BRANCH  25  26
ATOM     26  C   UNL     1       8.660   2.159  -6.788  1.00  0.00    -0.000 C 
BRANCH  26  27
ATOM     27  C   UNL     1       8.698   1.393  -8.128  1.00  0.00    -0.000 C 
BRANCH  27  28
ATOM     28  C   UNL     1       7.334   1.232  -8.823  1.00  0.00    -0.000 C 
BRANCH  28  29
ATOM     29  C   UNL     1       6.756  -0.189  -8.685  1.00  0.00    -0.000 C 
BRANCH  29  30
ATOM     30  C   UNL     1       5.891  -0.348  -7.415  1.00  0.00    -0.000 C 
BRANCH  30  31
ATOM     31  C   UNL     1       6.364  -1.472  -6.480  1.00  0.00    -0.003 C 
ATOM     32  C   UNL     1       7.017  -0.953  -5.201  1.00  0.00     0.004 C 
ENDBRANCH  30  31
ENDBRANCH  29  30
ENDBRANCH  28  29
ENDBRANCH  27  28
ENDBRANCH  26  27
ENDBRANCH  25  26
ENDBRANCH  24  25
ENDBRANCH  23  24
ENDBRANCH  22  23
ENDBRANCH  21  22
ENDBRANCH  20  21
ENDBRANCH  19  20
ENDBRANCH  18  19
ENDBRANCH   1  18
TORSDOF 28
ENDMDL
MODEL 7
REMARK VINA RESULT:    -2.941      2.479      8.060
REMARK INTER + INTRA:         -12.437
REMARK INTER:                  -6.752
REMARK INTRA:                  -5.685
REMARK UNBOUND:                -4.681
REMARK SMILES CCCCCCCCCCCCCCCCCCCCCCCCCCCCCC(=O)[O-]
REMARK SMILES IDX 16 1 17 2 18 3 19 4 20 5 21 6 22 7 23 8 24 9 25 10 26 11
REMARK SMILES IDX 27 12 28 13 29 14 30 15 31 16 32 17 15 18 14 19 13 20 12 21
REMARK SMILES IDX 11 22 10 23 9 24 8 25 7 26 6 27 5 28 4 29 3 30 2 31 1 32
REMARK H PARENT
REMARK Flexibility Score: inf
ROOT
ATOM      1  C   UNL     1       4.834   3.178  -6.977  1.00  0.00     0.000 C 
ENDROOT
BRANCH   1   2
ATOM      2  C   UNL     1       4.211   3.971  -8.145  1.00  0.00     0.000 C 
BRANCH   2   3
ATOM      3  C   UNL     1       4.760   3.571  -9.524  1.00  0.00     0.000 C 
BRANCH   3   4
ATOM      4  C   UNL     1       5.719   4.616 -10.117  1.00  0.00     0.000 C 
BRANCH   4   5
ATOM      5  C   UNL     1       5.261   6.036  -9.767  1.00  0.00     0.000 C 
BRANCH   5   6
ATOM      6  C   UNL     1       6.460   6.948  -9.448  1.00  0.00     0.000 C 
BRANCH   6   7
ATOM      7  C   UNL     1       6.044   8.260  -8.750  1.00  0.00     0.000 C 
BRANCH   7   8
ATOM      8  C   UNL     1       7.159   8.918  -7.914  1.00  0.00     0.000 C 
BRANCH   8   9
ATOM      9  C   UNL     1       6.689   9.728  -6.687  1.00  0.00     0.000 C 
BRANCH   9  10
ATOM     10  C   UNL     1       5.518   9.100  -5.910  1.00  0.00     0.000 C 
BRANCH  10  11
ATOM     11  C   UNL     1       4.816  10.102  -4.973  1.00  0.00     0.000 C 
BRANCH  11  12
ATOM     12  C   UNL     1       4.854   9.652  -3.499  1.00  0.00     0.000 C 
BRANCH  12  13
ATOM     13  C   UNL     1       5.537   8.285  -3.265  1.00  0.00     0.006 C 
BRANCH  13  14
ATOM     14  C   UNL     1       6.591   8.287  -2.144  1.00  0.00     0.053 C 
BRANCH  14  15
ATOM     15  C   UNL     1       7.986   8.205  -2.685  1.00  0.00     0.041 C 
ATOM     16  O   UNL     1       8.356   8.984  -3.604  1.00  0.00    -0.550 OA
ATOM     17  O   UNL     1       8.882   7.279  -2.162  1.00  0.00    -0.550 OA
ENDBRANCH  14  15
ENDBRANCH  13  14
ENDBRANCH  12  13
ENDBRANCH  11  12
ENDBRANCH  10  11
ENDBRANCH   9  10
ENDBRANCH   8   9
ENDBRANCH   7   8
ENDBRANCH   6   7
ENDBRANCH   5   6
ENDBRANCH   4   5
ENDBRANCH   3   4
ENDBRANCH   2   3
ENDBRANCH   1   2
BRANCH   1  18
ATOM     18  C   UNL     1       5.247   4.095  -5.814  1.00  0.00     0.000 C 
BRANCH  18  19
ATOM     19  C   UNL     1       5.983   5.364  -6.281  1.00  0.00     0.000 C 
BRANCH  19  20
ATOM     20  C   UNL     1       7.164   5.797  -5.395  1.00  0.00     0.000 C 
BRANCH  20  21
ATOM     21  C   UNL     1       8.503   6.017  -6.128  1.00  0.00     0.000 C 
BRANCH  21  22
ATOM     22  C   UNL     1       9.285   4.722  -6.432  1.00  0.00     0.000 C 
BRANCH  22  23
ATOM     23  C   UNL     1       9.188   4.295  -7.909  1.00  0.00     0.000 C 
BRANCH  23  24
ATOM     24  C   UNL     1       8.292   3.059  -8.134  1.00  0.00    -0.000 C 
BRANCH  24  25
ATOM     25  C   UNL     1       8.469   2.375  -9.505  1.00  0.00    -0.000 C 
BRANCH  25  26
ATOM     26  C   UNL     1       8.117   0.875  -9.568  1.00  0.00    -0.000 C 
BRANCH  26  27
ATOM     27  C   UNL     1       6.673   0.544 -10.002  1.00  0.00    -0.000 C 
BRANCH  27  28
ATOM     28  C   UNL     1       5.757   0.032  -8.876  1.00  0.00    -0.000 C 
BRANCH  28  29
ATOM     29  C   UNL     1       6.441  -1.019  -7.981  1.00  0.00    -0.000 C 
BRANCH  29  30
ATOM     30  C   UNL     1       5.937  -0.962  -6.522  1.00  0.00    -0.000 C 
BRANCH  30  31
ATOM     31  C   UNL     1       6.757  -0.029  -5.618  1.00  0.00    -0.003 C 
ATOM     32  C   UNL     1       8.235   0.029  -6.000  1.00  0.00     0.004 C 
ENDBRANCH  30  31
ENDBRANCH  29  30
ENDBRANCH  28  29
ENDBRANCH  27  28
ENDBRANCH  26  27
ENDBRANCH  25  26
ENDBRANCH  24  25
ENDBRANCH  23  24
ENDBRANCH  22  23
ENDBRANCH  21  22
ENDBRANCH  20  21
ENDBRANCH  19  20
ENDBRANCH  18  19
ENDBRANCH   1  18
TORSDOF 28
ENDMDL
MODEL 8
REMARK VINA RESULT:    -2.928      2.457      8.547
REMARK INTER + INTRA:         -12.403
REMARK INTER:                  -7.530
REMARK INTRA:                  -4.873
REMARK UNBOUND:                -4.681
REMARK SMILES CCCCCCCCCCCCCCCCCCCCCCCCCCCCCC(=O)[O-]
REMARK SMILES IDX 16 1 17 2 18 3 19 4 20 5 21 6 22 7 23 8 24 9 25 10 26 11
REMARK SMILES IDX 27 12 28 13 29 14 30 15 31 16 32 17 15 18 14 19 13 20 12 21
REMARK SMILES IDX 11 22 10 23 9 24 8 25 7 26 6 27 5 28 4 29 3 30 2 31 1 32
REMARK H PARENT
REMARK Flexibility Score: inf
ROOT
ATOM      1  C   UNL     1       5.031   3.071  -6.407  1.00  0.00     0.000 C 
ENDROOT
BRANCH   1   2
ATOM      2  C   UNL     1       5.256   4.551  -6.778  1.00  0.00     0.000 C 
BRANCH   2   3
ATOM      3  C   UNL     1       6.543   5.148  -6.185  1.00  0.00     0.000 C 
BRANCH   3   4
ATOM      4  C   UNL     1       7.783   4.891  -7.057  1.00  0.00     0.000 C 
BRANCH   4   5
ATOM      5  C   UNL     1       8.313   6.202  -7.651  1.00  0.00     0.000 C 
BRANCH   5   6
ATOM      6  C   UNL     1       8.248   6.186  -9.188  1.00  0.00     0.000 C 
BRANCH   6   7
ATOM      7  C   UNL     1       6.824   6.432  -9.729  1.00  0.00     0.000 C 
BRANCH   7   8
ATOM      8  C   UNL     1       6.022   7.497  -8.955  1.00  0.00     0.000 C 
BRANCH   8   9
ATOM      9  C   UNL     1       6.646   8.908  -8.913  1.00  0.00     0.000 C 
BRANCH   9  10
ATOM     10  C   UNL     1       6.162   9.793  -7.750  1.00  0.00     0.000 C 
BRANCH  10  11
ATOM     11  C   UNL     1       5.981   9.009  -6.436  1.00  0.00     0.000 C 
BRANCH  11  12
ATOM     12  C   UNL     1       7.289   8.911  -5.627  1.00  0.00     0.000 C 
BRANCH  12  13
ATOM     13  C   UNL     1       7.154   8.167  -4.279  1.00  0.00     0.006 C 
BRANCH  13  14
ATOM     14  C   UNL     1       5.789   8.344  -3.591  1.00  0.00     0.053 C 
BRANCH  14  15
ATOM     15  C   UNL     1       5.904   8.300  -2.098  1.00  0.00     0.041 C 
ATOM     16  O   UNL     1       5.286   9.141  -1.389  1.00  0.00    -0.550 OA
ATOM     17  O   UNL     1       6.679   7.320  -1.488  1.00  0.00    -0.550 OA
ENDBRANCH  14  15
ENDBRANCH  13  14
ENDBRANCH  12  13
ENDBRANCH  11  12
ENDBRANCH  10  11
ENDBRANCH   9  10
ENDBRANCH   8   9
ENDBRANCH   7   8
ENDBRANCH   6   7
ENDBRANCH   5   6
ENDBRANCH   4   5
ENDBRANCH   3   4
ENDBRANCH   2   3
ENDBRANCH   1   2
BRANCH   1  18
ATOM     18  C   UNL     1       5.402   2.125  -7.562  1.00  0.00     0.000 C 
BRANCH  18  19
ATOM     19  C   UNL     1       4.861   2.598  -8.924  1.00  0.00     0.000 C 
BRANCH  19  20
ATOM     20  C   UNL     1       5.930   2.830 -10.006  1.00  0.00     0.000 C 
BRANCH  20  21
ATOM     21  C   UNL     1       7.203   1.967  -9.885  1.00  0.00     0.000 C 
BRANCH  21  22
ATOM     22  C   UNL     1       8.522   2.769  -9.908  1.00  0.00     0.000 C 
BRANCH  22  23
ATOM     23  C   UNL     1       9.771   1.871  -9.836  1.00  0.00     0.000 C 
BRANCH  23  24
ATOM     24  C   UNL     1       9.702   0.810  -8.717  1.00  0.00    -0.000 C 
BRANCH  24  25
ATOM     25  C   UNL     1       9.631   1.384  -7.288  1.00  0.00    -0.000 C 
BRANCH  25  26
ATOM     26  C   UNL     1       8.632   0.702  -6.329  1.00  0.00    -0.000 C 
BRANCH  26  27
ATOM     27  C   UNL     1       8.154  -0.704  -6.750  1.00  0.00    -0.000 C 
BRANCH  27  28
ATOM     28  C   UNL     1       6.984  -1.266  -5.924  1.00  0.00    -0.000 C 
BRANCH  28  29
ATOM     29  C   UNL     1       5.754  -1.612  -6.785  1.00  0.00    -0.000 C 
BRANCH  29  30
ATOM     30  C   UNL     1       5.902  -1.117  -8.241  1.00  0.00    -0.000 C 
BRANCH  30  31
ATOM     31  C   UNL     1       5.551  -2.178  -9.295  1.00  0.00    -0.003 C 
ATOM     32  C   UNL     1       4.055  -2.478  -9.370  1.00  0.00     0.004 C 
ENDBRANCH  30  31
ENDBRANCH  29  30
ENDBRANCH  28  29
ENDBRANCH  27  28
ENDBRANCH  26  27
ENDBRANCH  25  26
ENDBRANCH  24  25
ENDBRANCH  23  24
ENDBRANCH  22  23
ENDBRANCH  21  22
ENDBRANCH  20  21
ENDBRANCH  19  20
ENDBRANCH  18  19
ENDBRANCH   1  18
TORSDOF 28
ENDMDL
MODEL 9
REMARK VINA RESULT:    -2.856      1.937      4.311
REMARK INTER + INTRA:         -12.213
REMARK INTER:                  -7.356
REMARK INTRA:                  -4.857
REMARK UNBOUND:                -4.681
REMARK SMILES CCCCCCCCCCCCCCCCCCCCCCCCCCCCCC(=O)[O-]
REMARK SMILES IDX 16 1 17 2 18 3 19 4 20 5 21 6 22 7 23 8 24 9 25 10 26 11
REMARK SMILES IDX 27 12 28 13 29 14 30 15 31 16 32 17 15 18 14 19 13 20 12 21
REMARK SMILES IDX 11 22 10 23 9 24 8 25 7 26 6 27 5 28 4 29 3 30 2 31 1 32
REMARK H PARENT
REMARK Flexibility Score: inf
ROOT
ATOM      1  C   UNL     1       5.033   3.888  -6.028  1.00  0.00     0.000 C 
ENDROOT
BRANCH   1   2
ATOM      2  C   UNL     1       4.358   3.615  -7.388  1.00  0.00     0.000 C 
BRANCH   2   3
ATOM      3  C   UNL     1       4.869   4.516  -8.523  1.00  0.00     0.000 C 
BRANCH   3   4
ATOM      4  C   UNL     1       5.720   3.760  -9.557  1.00  0.00     0.000 C 
BRANCH   4   5
ATOM      5  C   UNL     1       6.846   4.650 -10.094  1.00  0.00     0.000 C 
BRANCH   5   6
ATOM      6  C   UNL     1       6.739   6.082  -9.541  1.00  0.00     0.000 C 
BRANCH   6   7
ATOM      7  C   UNL     1       8.029   6.549  -8.835  1.00  0.00     0.000 C 
BRANCH   7   8
ATOM      8  C   UNL     1       9.092   5.447  -8.652  1.00  0.00     0.000 C 
BRANCH   8   9
ATOM      9  C   UNL     1       9.731   5.356  -7.251  1.00  0.00     0.000 C 
BRANCH   9  10
ATOM     10  C   UNL     1       9.585   3.986  -6.562  1.00  0.00     0.000 C 
BRANCH  10  11
ATOM     11  C   UNL     1       8.991   2.910  -7.490  1.00  0.00     0.000 C 
BRANCH  11  12
ATOM     12  C   UNL     1       8.132   1.885  -6.724  1.00  0.00     0.000 C 
BRANCH  12  13
ATOM     13  C   UNL     1       7.144   1.090  -7.607  1.00  0.00     0.006 C 
BRANCH  13  14
ATOM     14  C   UNL     1       5.992   0.427  -6.832  1.00  0.00     0.053 C 
BRANCH  14  15
ATOM     15  C   UNL     1       6.389  -0.901  -6.265  1.00  0.00     0.041 C 
ATOM     16  O   UNL     1       7.333  -0.978  -5.432  1.00  0.00    -0.550 OA
ATOM     17  O   UNL     1       5.705  -2.052  -6.642  1.00  0.00    -0.550 OA
ENDBRANCH  14  15
ENDBRANCH  13  14
ENDBRANCH  12  13
ENDBRANCH  11  12
ENDBRANCH  10  11
ENDBRANCH   9  10
ENDBRANCH   8   9
ENDBRANCH   7   8
ENDBRANCH   6   7
ENDBRANCH   5   6
ENDBRANCH   4   5
ENDBRANCH   3   4
ENDBRANCH   2   3
ENDBRANCH   1   2
BRANCH   1  18
ATOM     18  C   UNL     1       6.125   4.966  -6.133  1.00  0.00     0.000 C 
BRANCH  18  19
ATOM     19  C   UNL     1       6.012   6.044  -5.040  1.00  0.00     0.000 C 
BRANCH  19  20
ATOM     20  C   UNL     1       7.327   6.377  -4.314  1.00  0.00     0.000 C 
BRANCH  20  21
ATOM     21  C   UNL     1       8.100   7.597  -4.855  1.00  0.00     0.000 C 
BRANCH  21  22
ATOM     22  C   UNL     1       9.304   8.025  -3.989  1.00  0.00     0.000 C 
BRANCH  22  23
ATOM     23  C   UNL     1       8.885   8.746  -2.694  1.00  0.00     0.000 C 
BRANCH  23  24
ATOM     24  C   UNL     1       8.838   7.817  -1.461  1.00  0.00    -0.000 C 
BRANCH  24  25
ATOM     25  C   UNL     1       9.263   8.482  -0.137  1.00  0.00    -0.000 C 
BRANCH  25  26
ATOM     26  C   UNL     1       8.123   9.023   0.750  1.00  0.00    -0.000 C 
BRANCH  26  27
ATOM     27  C   UNL     1       6.693   8.655   0.301  1.00  0.00    -0.000 C 
BRANCH  27  28
ATOM     28  C   UNL     1       5.639   9.755   0.522  1.00  0.00    -0.000 C 
BRANCH  28  29
ATOM     29  C   UNL     1       4.799  10.041  -0.737  1.00  0.00    -0.000 C 
BRANCH  29  30
ATOM     30  C   UNL     1       5.666  10.125  -2.013  1.00  0.00    -0.000 C 
BRANCH  30  31
ATOM     31  C   UNL     1       5.231   9.157  -3.123  1.00  0.00    -0.003 C 
ATOM     32  C   UNL     1       4.189   9.755  -4.067  1.00  0.00     0.004 C 
ENDBRANCH  30  31
ENDBRANCH  29  30
ENDBRANCH  28  29
ENDBRANCH  27  28
ENDBRANCH  26  27
ENDBRANCH  25  26
ENDBRANCH  24  25
ENDBRANCH  23  24
ENDBRANCH  22  23
ENDBRANCH  21  22
ENDBRANCH  20  21
ENDBRANCH  19  20
ENDBRANCH  18  19
ENDBRANCH   1  18
TORSDOF 28
ENDMDL
