MODEL 1
REMARK VINA RESULT:    -3.069      0.000      0.000
REMARK INTER + INTRA:          -3.695
REMARK INTER:                  -3.607
REMARK INTRA:                  -0.088
REMARK UNBOUND:                -0.088
REMARK SMILES O=C([O-])CCC(=O)[O-]
REMARK SMILES IDX 4 1 2 2 1 3 3 4 5 5 6 6 7 7 8 8
REMARK H PARENT
REMARK Flexibility Score: inf
ROOT
ATOM      1  C   UNL     1     -53.892 449.239  -9.966  1.00  0.00     0.059 C 
ENDROOT
BRANCH   1   2
ATOM      2  C   UNL     1     -53.559 447.962  -9.263  1.00  0.00     0.042 C 
ATOM      3  O   UNL     1     -53.274 447.968  -8.036  1.00  0.00    -0.550 OA
ATOM      4  O   UNL     1     -53.515 446.768  -9.972  1.00  0.00    -0.550 OA
ENDBRANCH   1   2
BRANCH   1   5
ATOM      5  C   UNL     1     -54.230 450.335  -8.953  1.00  0.00     0.059 C 
BRANCH   5   6
ATOM      6  C   UNL     1     -53.210 451.428  -9.004  1.00  0.00     0.042 C 
ATOM      7  O   UNL     1     -52.531 451.708  -7.982  1.00  0.00    -0.550 OA
ATOM      8  O   UNL     1     -53.044 452.169 -10.166  1.00  0.00    -0.550 OA
ENDBRANCH   5   6
ENDBRANCH   1   5
TORSDOF 3
ENDMDL
MODEL 2
REMARK VINA RESULT:    -3.060      0.098      1.622
REMARK INTER + INTRA:          -3.684
REMARK INTER:                  -3.592
REMARK INTRA:                  -0.092
REMARK UNBOUND:                -0.088
REMARK SMILES O=C([O-])CCC(=O)[O-]
REMARK SMILES IDX 4 1 2 2 1 3 3 4 5 5 6 6 7 7 8 8
REMARK H PARENT
REMARK Flexibility Score: inf
ROOT
ATOM      1  C   UNL     1     -53.926 449.267 -10.013  1.00  0.00     0.059 C 
ENDROOT
BRANCH   1   2
ATOM      2  C   UNL     1     -53.578 448.000  -9.297  1.00  0.00     0.042 C 
ATOM      3  O   UNL     1     -53.550 446.907  -9.921  1.00  0.00    -0.550 OA
ATOM      4  O   UNL     1     -53.331 448.018  -7.930  1.00  0.00    -0.550 OA
ENDBRANCH   1   2
BRANCH   1   5
ATOM      5  C   UNL     1     -54.291 450.364  -9.011  1.00  0.00     0.059 C 
BRANCH   5   6
ATOM      6  C   UNL     1     -53.269 451.457  -9.036  1.00  0.00     0.042 C 
ATOM      7  O   UNL     1     -53.084 452.126 -10.086  1.00  0.00    -0.550 OA
ATOM      8  O   UNL     1     -52.489 451.704  -7.915  1.00  0.00    -0.550 OA
ENDBRANCH   5   6
ENDBRANCH   1   5
TORSDOF 3
ENDMDL
MODEL 3
REMARK VINA RESULT:    -3.058      0.133      4.034
REMARK INTER + INTRA:          -3.682
REMARK INTER:                  -3.590
REMARK INTRA:                  -0.092
REMARK UNBOUND:                -0.088
REMARK SMILES O=C([O-])CCC(=O)[O-]
REMARK SMILES IDX 4 1 2 2 1 3 3 4 5 5 6 6 7 7 8 8
REMARK H PARENT
REMARK Flexibility Score: inf
ROOT
ATOM      1  C   UNL     1     -54.266 450.414  -9.065  1.00  0.00     0.059 C 
ENDROOT
BRANCH   1   2
ATOM      2  C   UNL     1     -53.226 451.490  -9.053  1.00  0.00     0.042 C 
ATOM      3  O   UNL     1     -52.989 452.154 -10.096  1.00  0.00    -0.550 OA
ATOM      4  O   UNL     1     -52.484 451.727  -7.903  1.00  0.00    -0.550 OA
ENDBRANCH   1   2
BRANCH   1   5
ATOM      5  C   UNL     1     -53.904 449.331 -10.083  1.00  0.00     0.059 C 
BRANCH   5   6
ATOM      6  C   UNL     1     -53.571 448.049  -9.387  1.00  0.00     0.042 C 
ATOM      7  O   UNL     1     -53.566 446.965 -10.027  1.00  0.00    -0.550 OA
ATOM      8  O   UNL     1     -53.312 448.046  -8.023  1.00  0.00    -0.550 OA
ENDBRANCH   5   6
ENDBRANCH   1   5
TORSDOF 3
ENDMDL
MODEL 4
REMARK VINA RESULT:    -3.053      0.169      3.984
REMARK INTER + INTRA:          -3.676
REMARK INTER:                  -3.614
REMARK INTRA:                  -0.062
REMARK UNBOUND:                -0.088
REMARK SMILES O=C([O-])CCC(=O)[O-]
REMARK SMILES IDX 4 1 2 2 1 3 3 4 5 5 6 6 7 7 8 8
REMARK H PARENT
REMARK Flexibility Score: inf
ROOT
ATOM      1  C   UNL     1     -54.126 450.179  -8.908  1.00  0.00     0.059 C 
ENDROOT
BRANCH   1   2
ATOM      2  C   UNL     1     -53.213 451.355  -9.057  1.00  0.00     0.042 C 
ATOM      3  O   UNL     1     -52.557 451.777  -8.069  1.00  0.00    -0.550 OA
ATOM      4  O   UNL     1     -53.122 452.014 -10.276  1.00  0.00    -0.550 OA
ENDBRANCH   1   2
BRANCH   1   5
ATOM      5  C   UNL     1     -53.826 449.130  -9.980  1.00  0.00     0.059 C 
BRANCH   5   6
ATOM      6  C   UNL     1     -53.538 447.804  -9.349  1.00  0.00     0.042 C 
ATOM      7  O   UNL     1     -53.512 446.761 -10.053  1.00  0.00    -0.550 OA
ATOM      8  O   UNL     1     -53.346 447.715  -7.977  1.00  0.00    -0.550 OA
ENDBRANCH   5   6
ENDBRANCH   1   5
TORSDOF 3
ENDMDL
MODEL 5
REMARK VINA RESULT:    -3.041      0.120      3.941
REMARK INTER + INTRA:          -3.663
REMARK INTER:                  -3.573
REMARK INTRA:                  -0.090
REMARK UNBOUND:                -0.088
REMARK SMILES O=C([O-])CCC(=O)[O-]
REMARK SMILES IDX 4 1 2 2 1 3 3 4 5 5 6 6 7 7 8 8
REMARK H PARENT
REMARK Flexibility Score: inf
ROOT
ATOM      1  C   UNL     1     -54.284 450.410  -9.026  1.00  0.00     0.059 C 
ENDROOT
BRANCH   1   2
ATOM      2  C   UNL     1     -53.264 451.502  -9.110  1.00  0.00     0.042 C 
ATOM      3  O   UNL     1     -53.075 452.110 -10.196  1.00  0.00    -0.550 OA
ATOM      4  O   UNL     1     -52.489 451.817  -8.001  1.00  0.00    -0.550 OA
ENDBRANCH   1   2
BRANCH   1   5
ATOM      5  C   UNL     1     -53.922 449.266  -9.974  1.00  0.00     0.059 C 
BRANCH   5   6
ATOM      6  C   UNL     1     -53.600 448.026  -9.201  1.00  0.00     0.042 C 
ATOM      7  O   UNL     1     -53.273 448.104  -7.988  1.00  0.00    -0.550 OA
ATOM      8  O   UNL     1     -53.615 446.790  -9.832  1.00  0.00    -0.550 OA
ENDBRANCH   5   6
ENDBRANCH   1   5
TORSDOF 3
ENDMDL
MODEL 6
REMARK VINA RESULT:    -3.028      1.815      2.980
REMARK INTER + INTRA:          -3.647
REMARK INTER:                  -3.535
REMARK INTRA:                  -0.113
REMARK UNBOUND:                -0.088
REMARK SMILES O=C([O-])CCC(=O)[O-]
REMARK SMILES IDX 4 1 2 2 1 3 3 4 5 5 6 6 7 7 8 8
REMARK H PARENT
REMARK Flexibility Score: inf
ROOT
ATOM      1  C   UNL     1     -53.212 446.996 -10.634  1.00  0.00     0.059 C 
ENDROOT
BRANCH   1   2
ATOM      2  C   UNL     1     -54.144 445.826 -10.659  1.00  0.00     0.042 C 
ATOM      3  O   UNL     1     -54.644 445.391  -9.588  1.00  0.00    -0.550 OA
ATOM      4  O   UNL     1     -54.426 445.187 -11.860  1.00  0.00    -0.550 OA
ENDBRANCH   1   2
BRANCH   1   5
ATOM      5  C   UNL     1     -53.979 448.286 -10.340  1.00  0.00     0.059 C 
BRANCH   5   6
ATOM      6  C   UNL     1     -53.617 448.815  -8.989  1.00  0.00     0.042 C 
ATOM      7  O   UNL     1     -53.599 450.056  -8.779  1.00  0.00    -0.550 OA
ATOM      8  O   UNL     1     -53.253 447.939  -7.975  1.00  0.00    -0.550 OA
ENDBRANCH   5   6
ENDBRANCH   1   5
TORSDOF 3
ENDMDL
MODEL 7
REMARK VINA RESULT:    -2.922      1.977      4.814
REMARK INTER + INTRA:          -3.523
REMARK INTER:                  -3.460
REMARK INTRA:                  -0.063
REMARK UNBOUND:                -0.088
REMARK SMILES O=C([O-])CCC(=O)[O-]
REMARK SMILES IDX 4 1 2 2 1 3 3 4 5 5 6 6 7 7 8 8
REMARK H PARENT
REMARK Flexibility Score: inf
ROOT
ATOM      1  C   UNL     1     -53.552 447.936  -9.291  1.00  0.00     0.059 C 
ENDROOT
BRANCH   1   2
ATOM      2  C   UNL     1     -53.928 449.329  -9.685  1.00  0.00     0.042 C 
ATOM      3  O   UNL     1     -53.778 449.714 -10.874  1.00  0.00    -0.550 OA
ATOM      4  O   UNL     1     -54.400 450.219  -8.728  1.00  0.00    -0.550 OA
ENDBRANCH   1   2
BRANCH   1   5
ATOM      5  C   UNL     1     -53.198 447.107 -10.527  1.00  0.00     0.059 C 
BRANCH   5   6
ATOM      6  C   UNL     1     -53.994 445.841 -10.554  1.00  0.00     0.042 C 
ATOM      7  O   UNL     1     -54.135 445.206 -11.631  1.00  0.00    -0.550 OA
ATOM      8  O   UNL     1     -54.619 445.389  -9.400  1.00  0.00    -0.550 OA
ENDBRANCH   5   6
ENDBRANCH   1   5
TORSDOF 3
ENDMDL
MODEL 8
REMARK VINA RESULT:    -2.647      2.725      4.876
REMARK INTER + INTRA:          -3.199
REMARK INTER:                  -3.172
REMARK INTRA:                  -0.028
REMARK UNBOUND:                -0.088
REMARK SMILES O=C([O-])CCC(=O)[O-]
REMARK SMILES IDX 4 1 2 2 1 3 3 4 5 5 6 6 7 7 8 8
REMARK H PARENT
REMARK Flexibility Score: inf
ROOT
ATOM      1  C   UNL     1     -52.027 452.368 -11.346  1.00  0.00     0.059 C 
ENDROOT
BRANCH   1   2
ATOM      2  C   UNL     1     -50.849 453.239 -11.648  1.00  0.00     0.042 C 
ATOM      3  O   UNL     1     -50.927 454.124 -12.541  1.00  0.00    -0.550 OA
ATOM      4  O   UNL     1     -49.648 453.043 -10.977  1.00  0.00    -0.550 OA
ENDBRANCH   1   2
BRANCH   1   5
ATOM      5  C   UNL     1     -52.343 452.397  -9.850  1.00  0.00     0.059 C 
BRANCH   5   6
ATOM      6  C   UNL     1     -53.525 451.531  -9.548  1.00  0.00     0.042 C 
ATOM      7  O   UNL     1     -53.385 450.487  -8.859  1.00  0.00    -0.550 OA
ATOM      8  O   UNL     1     -54.772 451.853 -10.066  1.00  0.00    -0.550 OA
ENDBRANCH   5   6
ENDBRANCH   1   5
TORSDOF 3
ENDMDL
MODEL 9
REMARK VINA RESULT:    -2.633      2.354      4.207
REMARK INTER + INTRA:          -3.183
REMARK INTER:                  -3.150
REMARK INTRA:                  -0.033
REMARK UNBOUND:                -0.088
REMARK SMILES O=C([O-])CCC(=O)[O-]
REMARK SMILES IDX 4 1 2 2 1 3 3 4 5 5 6 6 7 7 8 8
REMARK H PARENT
REMARK Flexibility Score: inf
ROOT
ATOM      1  C   UNL     1     -52.509 452.310 -10.026  1.00  0.00     0.059 C 
ENDROOT
BRANCH   1   2
ATOM      2  C   UNL     1     -51.776 452.566 -11.304  1.00  0.00     0.042 C 
ATOM      3  O   UNL     1     -50.910 453.479 -11.367  1.00  0.00    -0.550 OA
ATOM      4  O   UNL     1     -52.082 451.829 -12.441  1.00  0.00    -0.550 OA
ENDBRANCH   1   2
BRANCH   1   5
ATOM      5  C   UNL     1     -53.840 451.611 -10.303  1.00  0.00     0.059 C 
BRANCH   5   6
ATOM      6  C   UNL     1     -54.411 451.051  -9.038  1.00  0.00     0.042 C 
ATOM      7  O   UNL     1     -54.985 451.809  -8.213  1.00  0.00    -0.550 OA
ATOM      8  O   UNL     1     -54.268 449.701  -8.749  1.00  0.00    -0.550 OA
ENDBRANCH   5   6
ENDBRANCH   1   5
TORSDOF 3
ENDMDL
