MODEL 1
REMARK VINA RESULT:    -5.856      0.000      0.000
REMARK INTER + INTRA:         -12.303
REMARK INTER:                 -10.991
REMARK INTRA:                  -1.312
REMARK UNBOUND:                -1.312
REMARK SMILES O=C([O-])CCCCCCCCCCCCCCC(=O)[O-]
REMARK SMILES IDX 10 1 9 2 8 3 7 4 6 5 5 6 4 7 2 8 1 9 3 10 11 11 12 12 13 13
REMARK SMILES IDX 14 14 15 15 16 16 17 17 18 18 19 19 20 20
REMARK H PARENT
REMARK Flexibility Score: inf
ROOT
ATOM      1  C   UNL     1      -9.282 -14.448  26.128  1.00  0.00     0.000 C 
ENDROOT
BRANCH   1   2
ATOM      2  C   UNL     1      -8.077 -15.261  26.627  1.00  0.00     0.000 C 
BRANCH   2   3
ATOM      3  C   UNL     1      -6.820 -14.403  26.822  1.00  0.00     0.000 C 
BRANCH   3   4
ATOM      4  C   UNL     1      -6.703 -13.928  28.279  1.00  0.00     0.000 C 
BRANCH   4   5
ATOM      5  C   UNL     1      -7.562 -14.758  29.245  1.00  0.00     0.000 C 
BRANCH   5   6
ATOM      6  C   UNL     1      -7.334 -14.380  30.717  1.00  0.00     0.006 C 
BRANCH   6   7
ATOM      7  C   UNL     1      -6.500 -13.100  30.831  1.00  0.00     0.053 C 
BRANCH   7   8
ATOM      8  C   UNL     1      -6.040 -12.897  32.241  1.00  0.00     0.041 C 
ATOM      9  O   UNL     1      -6.159 -13.821  33.087  1.00  0.00    -0.550 OA
ATOM     10  O   UNL     1      -5.438 -11.700  32.608  1.00  0.00    -0.550 OA
ENDBRANCH   7   8
ENDBRANCH   6   7
ENDBRANCH   5   6
ENDBRANCH   4   5
ENDBRANCH   3   4
ENDBRANCH   2   3
ENDBRANCH   1   2
BRANCH   1  11
ATOM     11  C   UNL     1     -10.606 -15.227  26.224  1.00  0.00     0.000 C 
BRANCH  11  12
ATOM     12  C   UNL     1     -10.733 -15.998  27.556  1.00  0.00     0.000 C 
BRANCH  12  13
ATOM     13  C   UNL     1     -12.017 -16.838  27.655  1.00  0.00     0.000 C 
BRANCH  13  14
ATOM     14  C   UNL     1     -13.078 -16.200  28.566  1.00  0.00     0.000 C 
BRANCH  14  15
ATOM     15  C   UNL     1     -13.568 -17.154  29.669  1.00  0.00     0.000 C 
BRANCH  15  16
ATOM     16  C   UNL     1     -12.718 -18.435  29.799  1.00  0.00     0.006 C 
BRANCH  16  17
ATOM     17  C   UNL     1     -11.979 -18.509  31.142  1.00  0.00     0.053 C 
BRANCH  17  18
ATOM     18  C   UNL     1     -10.544 -18.127  30.974  1.00  0.00     0.041 C 
ATOM     19  O   UNL     1     -10.222 -16.918  30.828  1.00  0.00    -0.550 OA
ATOM     20  O   UNL     1      -9.564 -19.111  30.931  1.00  0.00    -0.550 OA
ENDBRANCH  17  18
ENDBRANCH  16  17
ENDBRANCH  15  16
ENDBRANCH  14  15
ENDBRANCH  13  14
ENDBRANCH  12  13
ENDBRANCH  11  12
ENDBRANCH   1  11
TORSDOF 15
ENDMDL
MODEL 2
REMARK VINA RESULT:    -5.788      0.909      6.542
REMARK INTER + INTRA:         -12.176
REMARK INTER:                 -11.164
REMARK INTRA:                  -1.011
REMARK UNBOUND:                -1.312
REMARK SMILES O=C([O-])CCCCCCCCCCCCCCC(=O)[O-]
REMARK SMILES IDX 10 1 9 2 8 3 7 4 6 5 5 6 4 7 2 8 1 9 3 10 11 11 12 12 13 13
REMARK SMILES IDX 14 14 15 15 16 16 17 17 18 18 19 19 20 20
REMARK H PARENT
REMARK Flexibility Score: inf
ROOT
ATOM      1  C   UNL     1     -10.713 -15.213  26.102  1.00  0.00     0.000 C 
ENDROOT
BRANCH   1   2
ATOM      2  C   UNL     1     -10.899 -15.946  27.440  1.00  0.00     0.000 C 
BRANCH   2   3
ATOM      3  C   UNL     1     -12.326 -16.476  27.635  1.00  0.00     0.000 C 
BRANCH   3   4
ATOM      4  C   UNL     1     -12.827 -16.187  29.058  1.00  0.00     0.000 C 
BRANCH   4   5
ATOM      5  C   UNL     1     -13.264 -17.458  29.803  1.00  0.00     0.000 C 
BRANCH   5   6
ATOM      6  C   UNL     1     -12.714 -17.525  31.236  1.00  0.00     0.006 C 
BRANCH   6   7
ATOM      7  C   UNL     1     -11.665 -18.634  31.370  1.00  0.00     0.053 C 
BRANCH   7   8
ATOM      8  C   UNL     1     -10.461 -18.322  30.537  1.00  0.00     0.041 C 
ATOM      9  O   UNL     1      -9.714 -17.355  30.840  1.00  0.00    -0.550 OA
ATOM     10  O   UNL     1     -10.140 -19.128  29.452  1.00  0.00    -0.550 OA
ENDBRANCH   7   8
ENDBRANCH   6   7
ENDBRANCH   5   6
ENDBRANCH   4   5
ENDBRANCH   3   4
ENDBRANCH   2   3
ENDBRANCH   1   2
BRANCH   1  11
ATOM     11  C   UNL     1      -9.384 -14.441  26.026  1.00  0.00     0.000 C 
BRANCH  11  12
ATOM     12  C   UNL     1      -8.223 -15.213  26.688  1.00  0.00     0.000 C 
BRANCH  12  13
ATOM     13  C   UNL     1      -6.935 -14.382  26.822  1.00  0.00     0.000 C 
BRANCH  13  14
ATOM     14  C   UNL     1      -6.246 -14.567  28.183  1.00  0.00     0.000 C 
BRANCH  14  15
ATOM     15  C   UNL     1      -7.055 -13.973  29.348  1.00  0.00     0.000 C 
BRANCH  15  16
ATOM     16  C   UNL     1      -6.293 -13.972  30.690  1.00  0.00     0.006 C 
BRANCH  16  17
ATOM     17  C   UNL     1      -6.865 -12.951  31.684  1.00  0.00     0.053 C 
BRANCH  17  18
ATOM     18  C   UNL     1      -5.997 -11.736  31.745  1.00  0.00     0.041 C 
ATOM     19  O   UNL     1      -6.153 -10.803  30.913  1.00  0.00    -0.550 OA
ATOM     20  O   UNL     1      -4.984 -11.653  32.692  1.00  0.00    -0.550 OA
ENDBRANCH  17  18
ENDBRANCH  16  17
ENDBRANCH  15  16
ENDBRANCH  14  15
ENDBRANCH  13  14
ENDBRANCH  12  13
ENDBRANCH  11  12
ENDBRANCH   1  11
TORSDOF 15
ENDMDL
MODEL 3
REMARK VINA RESULT:    -5.647      2.391      6.980
REMARK INTER + INTRA:         -11.911
REMARK INTER:                 -11.018
REMARK INTRA:                  -0.893
REMARK UNBOUND:                -1.312
REMARK SMILES O=C([O-])CCCCCCCCCCCCCCC(=O)[O-]
REMARK SMILES IDX 10 1 9 2 8 3 7 4 6 5 5 6 4 7 2 8 1 9 3 10 11 11 12 12 13 13
REMARK SMILES IDX 14 14 15 15 16 16 17 17 18 18 19 19 20 20
REMARK H PARENT
REMARK Flexibility Score: inf
ROOT
ATOM      1  C   UNL     1     -12.132 -16.459  27.608  1.00  0.00     0.000 C 
ENDROOT
BRANCH   1   2
ATOM      2  C   UNL     1     -12.652 -16.406  29.054  1.00  0.00     0.000 C 
BRANCH   2   3
ATOM      3  C   UNL     1     -11.522 -16.410  30.093  1.00  0.00     0.000 C 
BRANCH   3   4
ATOM      4  C   UNL     1     -11.989 -17.059  31.405  1.00  0.00     0.000 C 
BRANCH   4   5
ATOM      5  C   UNL     1     -11.825 -18.587  31.403  1.00  0.00     0.000 C 
BRANCH   5   6
ATOM      6  C   UNL     1     -12.773 -19.288  32.388  1.00  0.00     0.006 C 
BRANCH   6   7
ATOM      7  C   UNL     1     -11.988 -20.119  33.408  1.00  0.00     0.053 C 
BRANCH   7   8
ATOM      8  C   UNL     1     -12.918 -20.767  34.386  1.00  0.00     0.041 C 
ATOM      9  O   UNL     1     -13.963 -20.172  34.757  1.00  0.00    -0.550 OA
ATOM     10  O   UNL     1     -12.651 -22.048  34.853  1.00  0.00    -0.550 OA
ENDBRANCH   7   8
ENDBRANCH   6   7
ENDBRANCH   5   6
ENDBRANCH   4   5
ENDBRANCH   3   4
ENDBRANCH   2   3
ENDBRANCH   1   2
BRANCH   1  11
ATOM     11  C   UNL     1     -10.682 -15.958  27.479  1.00  0.00     0.000 C 
BRANCH  11  12
ATOM     12  C   UNL     1     -10.481 -15.071  26.231  1.00  0.00     0.000 C 
BRANCH  12  13
ATOM     13  C   UNL     1      -9.143 -14.312  26.231  1.00  0.00     0.000 C 
BRANCH  13  14
ATOM     14  C   UNL     1      -7.981 -15.151  26.785  1.00  0.00     0.000 C 
BRANCH  14  15
ATOM     15  C   UNL     1      -6.699 -14.329  26.998  1.00  0.00     0.000 C 
BRANCH  15  16
ATOM     16  C   UNL     1      -6.088 -14.495  28.405  1.00  0.00     0.006 C 
BRANCH  16  17
ATOM     17  C   UNL     1      -6.853 -13.698  29.470  1.00  0.00     0.053 C 
BRANCH  17  18
ATOM     18  C   UNL     1      -7.229 -14.581  30.617  1.00  0.00     0.041 C 
ATOM     19  O   UNL     1      -6.644 -14.463  31.726  1.00  0.00    -0.550 OA
ATOM     20  O   UNL     1      -8.194 -15.566  30.448  1.00  0.00    -0.550 OA
ENDBRANCH  17  18
ENDBRANCH  16  17
ENDBRANCH  15  16
ENDBRANCH  14  15
ENDBRANCH  13  14
ENDBRANCH  12  13
ENDBRANCH  11  12
ENDBRANCH   1  11
TORSDOF 15
ENDMDL
MODEL 4
REMARK VINA RESULT:    -5.588      1.332      1.589
REMARK INTER + INTRA:         -11.799
REMARK INTER:                 -10.779
REMARK INTRA:                  -1.021
REMARK UNBOUND:                -1.312
REMARK SMILES O=C([O-])CCCCCCCCCCCCCCC(=O)[O-]
REMARK SMILES IDX 10 1 9 2 8 3 7 4 6 5 5 6 4 7 2 8 1 9 3 10 11 11 12 12 13 13
REMARK SMILES IDX 14 14 15 15 16 16 17 17 18 18 19 19 20 20
REMARK H PARENT
REMARK Flexibility Score: inf
ROOT
ATOM      1  C   UNL     1      -9.294 -14.456  26.136  1.00  0.00     0.000 C 
ENDROOT
BRANCH   1   2
ATOM      2  C   UNL     1      -8.074 -15.252  26.626  1.00  0.00     0.000 C 
BRANCH   2   3
ATOM      3  C   UNL     1      -6.828 -14.377  26.813  1.00  0.00     0.000 C 
BRANCH   3   4
ATOM      4  C   UNL     1      -6.702 -13.909  28.271  1.00  0.00     0.000 C 
BRANCH   4   5
ATOM      5  C   UNL     1      -7.535 -14.759  29.242  1.00  0.00     0.000 C 
BRANCH   5   6
ATOM      6  C   UNL     1      -7.269 -14.412  30.715  1.00  0.00     0.006 C 
BRANCH   6   7
ATOM      7  C   UNL     1      -6.423 -13.140  30.834  1.00  0.00     0.053 C 
BRANCH   7   8
ATOM      8  C   UNL     1      -5.955 -12.949  32.243  1.00  0.00     0.041 C 
ATOM      9  O   UNL     1      -6.069 -13.882  33.081  1.00  0.00    -0.550 OA
ATOM     10  O   UNL     1      -5.353 -11.755  32.618  1.00  0.00    -0.550 OA
ENDBRANCH   7   8
ENDBRANCH   6   7
ENDBRANCH   5   6
ENDBRANCH   4   5
ENDBRANCH   3   4
ENDBRANCH   2   3
ENDBRANCH   1   2
BRANCH   1  11
ATOM     11  C   UNL     1     -10.607 -15.251  26.246  1.00  0.00     0.000 C 
BRANCH  11  12
ATOM     12  C   UNL     1     -10.717 -16.012  27.585  1.00  0.00     0.000 C 
BRANCH  12  13
ATOM     13  C   UNL     1     -11.990 -16.868  27.698  1.00  0.00     0.000 C 
BRANCH  13  14
ATOM     14  C   UNL     1     -13.053 -16.237  28.610  1.00  0.00     0.000 C 
BRANCH  14  15
ATOM     15  C   UNL     1     -13.504 -17.177  29.741  1.00  0.00     0.000 C 
BRANCH  15  16
ATOM     16  C   UNL     1     -12.591 -18.409  29.918  1.00  0.00     0.006 C 
BRANCH  16  17
ATOM     17  C   UNL     1     -11.890 -18.421  31.284  1.00  0.00     0.053 C 
BRANCH  17  18
ATOM     18  C   UNL     1     -12.857 -18.777  32.367  1.00  0.00     0.041 C 
ATOM     19  O   UNL     1     -13.233 -19.970  32.515  1.00  0.00    -0.550 OA
ATOM     20  O   UNL     1     -13.379 -17.783  33.186  1.00  0.00    -0.550 OA
ENDBRANCH  17  18
ENDBRANCH  16  17
ENDBRANCH  15  16
ENDBRANCH  14  15
ENDBRANCH  13  14
ENDBRANCH  12  13
ENDBRANCH  11  12
ENDBRANCH   1  11
TORSDOF 15
ENDMDL
MODEL 5
REMARK VINA RESULT:    -5.568      1.684      6.990
REMARK INTER + INTRA:         -11.762
REMARK INTER:                 -10.341
REMARK INTRA:                  -1.421
REMARK UNBOUND:                -1.312
REMARK SMILES O=C([O-])CCCCCCCCCCCCCCC(=O)[O-]
REMARK SMILES IDX 10 1 9 2 8 3 7 4 6 5 5 6 4 7 2 8 1 9 3 10 11 11 12 12 13 13
REMARK SMILES IDX 14 14 15 15 16 16 17 17 18 18 19 19 20 20
REMARK H PARENT
REMARK Flexibility Score: inf
ROOT
ATOM      1  C   UNL     1      -6.826 -14.230  27.013  1.00  0.00     0.000 C 
ENDROOT
BRANCH   1   2
ATOM      2  C   UNL     1      -7.964 -15.176  26.596  1.00  0.00     0.000 C 
BRANCH   2   3
ATOM      3  C   UNL     1      -9.219 -14.427  26.127  1.00  0.00     0.000 C 
BRANCH   3   4
ATOM      4  C   UNL     1     -10.486 -15.242  26.425  1.00  0.00     0.000 C 
BRANCH   4   5
ATOM      5  C   UNL     1     -10.380 -16.050  27.728  1.00  0.00     0.000 C 
BRANCH   5   6
ATOM      6  C   UNL     1     -11.747 -16.519  28.249  1.00  0.00     0.006 C 
BRANCH   6   7
ATOM      7  C   UNL     1     -11.718 -18.011  28.599  1.00  0.00     0.053 C 
BRANCH   7   8
ATOM      8  C   UNL     1     -10.851 -18.254  29.795  1.00  0.00     0.041 C 
ATOM      9  O   UNL     1      -9.943 -19.125  29.755  1.00  0.00    -0.550 OA
ATOM     10  O   UNL     1     -11.019 -17.486  30.941  1.00  0.00    -0.550 OA
ENDBRANCH   7   8
ENDBRANCH   6   7
ENDBRANCH   5   6
ENDBRANCH   4   5
ENDBRANCH   3   4
ENDBRANCH   2   3
ENDBRANCH   1   2
BRANCH   1  11
ATOM     11  C   UNL     1      -6.301 -14.520  28.430  1.00  0.00     0.000 C 
BRANCH  11  12
ATOM     12  C   UNL     1      -7.400 -14.361  29.503  1.00  0.00     0.000 C 
BRANCH  12  13
ATOM     13  C   UNL     1      -7.041 -15.018  30.847  1.00  0.00     0.000 C 
BRANCH  13  14
ATOM     14  C   UNL     1      -6.136 -14.134  31.719  1.00  0.00     0.000 C 
BRANCH  14  15
ATOM     15  C   UNL     1      -6.723 -12.732  31.959  1.00  0.00     0.000 C 
BRANCH  15  16
ATOM     16  C   UNL     1      -5.679 -11.601  31.850  1.00  0.00     0.006 C 
BRANCH  16  17
ATOM     17  C   UNL     1      -4.372 -12.076  31.200  1.00  0.00     0.053 C 
BRANCH  17  18
ATOM     18  C   UNL     1      -4.216 -11.480  29.838  1.00  0.00     0.041 C 
ATOM     19  O   UNL     1      -5.231 -11.226  29.137  1.00  0.00    -0.550 OA
ATOM     20  O   UNL     1      -2.947 -11.248  29.322  1.00  0.00    -0.550 OA
ENDBRANCH  17  18
ENDBRANCH  16  17
ENDBRANCH  15  16
ENDBRANCH  14  15
ENDBRANCH  13  14
ENDBRANCH  12  13
ENDBRANCH  11  12
ENDBRANCH   1  11
TORSDOF 15
ENDMDL
MODEL 6
REMARK VINA RESULT:    -5.524      1.421      6.490
REMARK INTER + INTRA:         -11.680
REMARK INTER:                 -10.420
REMARK INTRA:                  -1.260
REMARK UNBOUND:                -1.312
REMARK SMILES O=C([O-])CCCCCCCCCCCCCCC(=O)[O-]
REMARK SMILES IDX 10 1 9 2 8 3 7 4 6 5 5 6 4 7 2 8 1 9 3 10 11 11 12 12 13 13
REMARK SMILES IDX 14 14 15 15 16 16 17 17 18 18 19 19 20 20
REMARK H PARENT
REMARK Flexibility Score: inf
ROOT
ATOM      1  C   UNL     1      -8.065 -14.901  27.154  1.00  0.00     0.000 C 
ENDROOT
BRANCH   1   2
ATOM      2  C   UNL     1      -9.070 -14.357  26.127  1.00  0.00     0.000 C 
BRANCH   2   3
ATOM      3  C   UNL     1     -10.415 -15.096  26.161  1.00  0.00     0.000 C 
BRANCH   3   4
ATOM      4  C   UNL     1     -10.604 -15.828  27.499  1.00  0.00     0.000 C 
BRANCH   4   5
ATOM      5  C   UNL     1     -11.942 -16.579  27.581  1.00  0.00     0.000 C 
BRANCH   5   6
ATOM      6  C   UNL     1     -12.009 -17.544  28.775  1.00  0.00     0.006 C 
BRANCH   6   7
ATOM      7  C   UNL     1     -11.337 -16.936  30.010  1.00  0.00     0.053 C 
BRANCH   7   8
ATOM      8  C   UNL     1     -10.116 -17.718  30.384  1.00  0.00     0.041 C 
ATOM      9  O   UNL     1      -9.197 -17.178  31.054  1.00  0.00    -0.550 OA
ATOM     10  O   UNL     1     -10.015 -19.057  30.028  1.00  0.00    -0.550 OA
ENDBRANCH   7   8
ENDBRANCH   6   7
ENDBRANCH   5   6
ENDBRANCH   4   5
ENDBRANCH   3   4
ENDBRANCH   2   3
ENDBRANCH   1   2
BRANCH   1  11
ATOM     11  C   UNL     1      -6.721 -14.151  27.126  1.00  0.00     0.000 C 
BRANCH  11  12
ATOM     12  C   UNL     1      -6.245 -13.756  28.541  1.00  0.00     0.000 C 
BRANCH  12  13
ATOM     13  C   UNL     1      -6.735 -14.715  29.640  1.00  0.00     0.000 C 
BRANCH  13  14
ATOM     14  C   UNL     1      -7.539 -14.002  30.738  1.00  0.00     0.000 C 
BRANCH  14  15
ATOM     15  C   UNL     1      -6.703 -12.973  31.517  1.00  0.00     0.000 C 
BRANCH  15  16
ATOM     16  C   UNL     1      -5.840 -13.599  32.633  1.00  0.00     0.006 C 
BRANCH  16  17
ATOM     17  C   UNL     1      -4.431 -12.993  32.687  1.00  0.00     0.053 C 
BRANCH  17  18
ATOM     18  C   UNL     1      -3.726 -13.184  31.383  1.00  0.00     0.041 C 
ATOM     19  O   UNL     1      -3.375 -12.187  30.699  1.00  0.00    -0.550 OA
ATOM     20  O   UNL     1      -3.498 -14.466  30.898  1.00  0.00    -0.550 OA
ENDBRANCH  17  18
ENDBRANCH  16  17
ENDBRANCH  15  16
ENDBRANCH  14  15
ENDBRANCH  13  14
ENDBRANCH  12  13
ENDBRANCH  11  12
ENDBRANCH   1  11
TORSDOF 15
ENDMDL
MODEL 7
REMARK VINA RESULT:    -5.494      1.572      3.320
REMARK INTER + INTRA:         -11.624
REMARK INTER:                 -10.362
REMARK INTRA:                  -1.262
REMARK UNBOUND:                -1.312
REMARK SMILES O=C([O-])CCCCCCCCCCCCCCC(=O)[O-]
REMARK SMILES IDX 10 1 9 2 8 3 7 4 6 5 5 6 4 7 2 8 1 9 3 10 11 11 12 12 13 13
REMARK SMILES IDX 14 14 15 15 16 16 17 17 18 18 19 19 20 20
REMARK H PARENT
REMARK Flexibility Score: inf
ROOT
ATOM      1  C   UNL     1      -6.343 -13.993  28.582  1.00  0.00     0.000 C 
ENDROOT
BRANCH   1   2
ATOM      2  C   UNL     1      -7.467 -14.534  29.479  1.00  0.00     0.000 C 
BRANCH   2   3
ATOM      3  C   UNL     1      -6.986 -14.878  30.895  1.00  0.00     0.000 C 
BRANCH   3   4
ATOM      4  C   UNL     1      -5.533 -14.423  31.104  1.00  0.00     0.000 C 
BRANCH   4   5
ATOM      5  C   UNL     1      -5.318 -13.726  32.457  1.00  0.00     0.000 C 
BRANCH   5   6
ATOM      6  C   UNL     1      -5.545 -12.209  32.386  1.00  0.00     0.006 C 
BRANCH   6   7
ATOM      7  C   UNL     1      -4.372 -11.510  31.690  1.00  0.00     0.053 C 
BRANCH   7   8
ATOM      8  C   UNL     1      -4.829 -10.843  30.431  1.00  0.00     0.041 C 
ATOM      9  O   UNL     1      -5.953 -10.278  30.383  1.00  0.00    -0.550 OA
ATOM     10  O   UNL     1      -3.993 -10.808  29.321  1.00  0.00    -0.550 OA
ENDBRANCH   7   8
ENDBRANCH   6   7
ENDBRANCH   5   6
ENDBRANCH   4   5
ENDBRANCH   3   4
ENDBRANCH   2   3
ENDBRANCH   1   2
BRANCH   1  11
ATOM     11  C   UNL     1      -6.631 -14.191  27.082  1.00  0.00     0.000 C 
BRANCH  11  12
ATOM     12  C   UNL     1      -7.855 -15.100  26.840  1.00  0.00     0.000 C 
BRANCH  12  13
ATOM     13  C   UNL     1      -9.015 -14.384  26.127  1.00  0.00     0.000 C 
BRANCH  13  14
ATOM     14  C   UNL     1     -10.375 -15.053  26.382  1.00  0.00     0.000 C 
BRANCH  14  15
ATOM     15  C   UNL     1     -10.338 -16.053  27.550  1.00  0.00     0.000 C 
BRANCH  15  16
ATOM     16  C   UNL     1     -11.734 -16.562  27.969  1.00  0.00     0.006 C 
BRANCH  16  17
ATOM     17  C   UNL     1     -11.687 -17.988  28.535  1.00  0.00     0.053 C 
BRANCH  17  18
ATOM     18  C   UNL     1     -10.962 -18.010  29.842  1.00  0.00     0.041 C 
ATOM     19  O   UNL     1     -11.238 -17.166  30.735  1.00  0.00    -0.550 OA
ATOM     20  O   UNL     1      -9.948 -18.934  30.058  1.00  0.00    -0.550 OA
ENDBRANCH  17  18
ENDBRANCH  16  17
ENDBRANCH  15  16
ENDBRANCH  14  15
ENDBRANCH  13  14
ENDBRANCH  12  13
ENDBRANCH  11  12
ENDBRANCH   1  11
TORSDOF 15
ENDMDL
MODEL 8
REMARK VINA RESULT:    -5.443      2.447      3.311
REMARK INTER + INTRA:         -11.528
REMARK INTER:                 -10.710
REMARK INTRA:                  -0.819
REMARK UNBOUND:                -1.312
REMARK SMILES O=C([O-])CCCCCCCCCCCCCCC(=O)[O-]
REMARK SMILES IDX 10 1 9 2 8 3 7 4 6 5 5 6 4 7 2 8 1 9 3 10 11 11 12 12 13 13
REMARK SMILES IDX 14 14 15 15 16 16 17 17 18 18 19 19 20 20
REMARK H PARENT
REMARK Flexibility Score: inf
ROOT
ATOM      1  C   UNL     1     -10.958 -15.621  26.713  1.00  0.00     0.000 C 
ENDROOT
BRANCH   1   2
ATOM      2  C   UNL     1      -9.833 -14.735  26.157  1.00  0.00     0.000 C 
BRANCH   2   3
ATOM      3  C   UNL     1      -8.436 -15.217  26.573  1.00  0.00     0.000 C 
BRANCH   3   4
ATOM      4  C   UNL     1      -7.518 -14.026  26.888  1.00  0.00     0.000 C 
BRANCH   4   5
ATOM      5  C   UNL     1      -6.075 -14.455  27.199  1.00  0.00     0.000 C 
BRANCH   5   6
ATOM      6  C   UNL     1      -5.732 -14.348  28.693  1.00  0.00     0.006 C 
BRANCH   6   7
ATOM      7  C   UNL     1      -6.855 -13.646  29.464  1.00  0.00     0.053 C 
BRANCH   7   8
ATOM      8  C   UNL     1      -7.296 -14.480  30.626  1.00  0.00     0.041 C 
ATOM      9  O   UNL     1      -8.049 -15.473  30.444  1.00  0.00    -0.550 OA
ATOM     10  O   UNL     1      -6.840 -14.185  31.905  1.00  0.00    -0.550 OA
ENDBRANCH   7   8
ENDBRANCH   6   7
ENDBRANCH   5   6
ENDBRANCH   4   5
ENDBRANCH   3   4
ENDBRANCH   2   3
ENDBRANCH   1   2
BRANCH   1  11
ATOM     11  C   UNL     1     -10.543 -16.382  27.985  1.00  0.00     0.000 C 
BRANCH  11  12
ATOM     12  C   UNL     1     -11.738 -16.635  28.930  1.00  0.00     0.000 C 
BRANCH  12  13
ATOM     13  C   UNL     1     -11.381 -16.488  30.419  1.00  0.00     0.000 C 
BRANCH  13  14
ATOM     14  C   UNL     1     -12.335 -17.264  31.340  1.00  0.00     0.000 C 
BRANCH  14  15
ATOM     15  C   UNL     1     -11.844 -18.690  31.642  1.00  0.00     0.000 C 
BRANCH  15  16
ATOM     16  C   UNL     1     -12.862 -19.537  32.435  1.00  0.00     0.006 C 
BRANCH  16  17
ATOM     17  C   UNL     1     -12.261 -20.112  33.725  1.00  0.00     0.053 C 
BRANCH  17  18
ATOM     18  C   UNL     1     -12.906 -21.415  34.069  1.00  0.00     0.041 C 
ATOM     19  O   UNL     1     -12.336 -22.219  34.853  1.00  0.00    -0.550 OA
ATOM     20  O   UNL     1     -14.119 -21.765  33.487  1.00  0.00    -0.550 OA
ENDBRANCH  17  18
ENDBRANCH  16  17
ENDBRANCH  15  16
ENDBRANCH  14  15
ENDBRANCH  13  14
ENDBRANCH  12  13
ENDBRANCH  11  12
ENDBRANCH   1  11
TORSDOF 15
ENDMDL
MODEL 9
REMARK VINA RESULT:    -5.413      1.270      2.426
REMARK INTER + INTRA:         -11.472
REMARK INTER:                 -10.419
REMARK INTRA:                  -1.053
REMARK UNBOUND:                -1.312
REMARK SMILES O=C([O-])CCCCCCCCCCCCCCC(=O)[O-]
REMARK SMILES IDX 10 1 9 2 8 3 7 4 6 5 5 6 4 7 2 8 1 9 3 10 11 11 12 12 13 13
REMARK SMILES IDX 14 14 15 15 16 16 17 17 18 18 19 19 20 20
REMARK H PARENT
REMARK Flexibility Score: inf
ROOT
ATOM      1  C   UNL     1      -6.971 -14.489  26.711  1.00  0.00     0.000 C 
ENDROOT
BRANCH   1   2
ATOM      2  C   UNL     1      -6.215 -14.525  28.048  1.00  0.00     0.000 C 
BRANCH   2   3
ATOM      3  C   UNL     1      -7.126 -14.263  29.255  1.00  0.00     0.000 C 
BRANCH   3   4
ATOM      4  C   UNL     1      -6.593 -13.096  30.099  1.00  0.00     0.000 C 
BRANCH   4   5
ATOM      5  C   UNL     1      -6.831 -13.294  31.605  1.00  0.00     0.000 C 
BRANCH   5   6
ATOM      6  C   UNL     1      -5.545 -13.645  32.368  1.00  0.00     0.006 C 
BRANCH   6   7
ATOM      7  C   UNL     1      -4.308 -13.410  31.496  1.00  0.00     0.053 C 
BRANCH   7   8
ATOM      8  C   UNL     1      -3.535 -12.225  31.986  1.00  0.00     0.041 C 
ATOM      9  O   UNL     1      -2.433 -11.924  31.457  1.00  0.00    -0.550 OA
ATOM     10  O   UNL     1      -4.054 -11.429  32.998  1.00  0.00    -0.550 OA
ENDBRANCH   7   8
ENDBRANCH   6   7
ENDBRANCH   5   6
ENDBRANCH   4   5
ENDBRANCH   3   4
ENDBRANCH   2   3
ENDBRANCH   1   2
BRANCH   1  11
ATOM     11  C   UNL     1      -8.316 -15.236  26.768  1.00  0.00     0.000 C 
BRANCH  11  12
ATOM     12  C   UNL     1      -9.440 -14.469  26.038  1.00  0.00     0.000 C 
BRANCH  12  13
ATOM     13  C   UNL     1     -10.837 -15.070  26.267  1.00  0.00     0.000 C 
BRANCH  13  14
ATOM     14  C   UNL     1     -10.842 -16.180  27.330  1.00  0.00     0.000 C 
BRANCH  14  15
ATOM     15  C   UNL     1     -12.221 -16.376  27.983  1.00  0.00     0.000 C 
BRANCH  15  16
ATOM     16  C   UNL     1     -12.151 -16.980  29.401  1.00  0.00     0.006 C 
BRANCH  16  17
ATOM     17  C   UNL     1     -11.275 -18.240  29.454  1.00  0.00     0.053 C 
BRANCH  17  18
ATOM     18  C   UNL     1     -10.167 -18.067  30.442  1.00  0.00     0.041 C 
ATOM     19  O   UNL     1      -9.738 -19.056  31.094  1.00  0.00    -0.550 OA
ATOM     20  O   UNL     1      -9.636 -16.805  30.677  1.00  0.00    -0.550 OA
ENDBRANCH  17  18
ENDBRANCH  16  17
ENDBRANCH  15  16
ENDBRANCH  14  15
ENDBRANCH  13  14
ENDBRANCH  12  13
ENDBRANCH  11  12
ENDBRANCH   1  11
TORSDOF 15
ENDMDL
