MODEL 1
REMARK VINA RESULT:    -3.055      0.000      0.000
REMARK INTER + INTRA:          -3.910
REMARK INTER:                  -3.858
REMARK INTRA:                  -0.052
REMARK UNBOUND:                -0.052
REMARK SMILES CSCC[C@@H]([NH3+])C(=O)[O-]
REMARK SMILES IDX 4 1 5 2 6 3 7 7 8 8 9 9 3 10 2 11 1 12
REMARK H PARENT 6 4 6 5 6 6
REMARK Flexibility Score: inf
ROOT
ATOM      1  C   UNL     1      21.038  20.513  18.844  1.00  0.00     0.082 C 
ENDROOT
BRANCH   1   2
ATOM      2  C   UNL     1      19.811  21.008  19.645  1.00  0.00     0.228 C 
BRANCH   2   3
ATOM      3  N   UNL     1      19.154  19.884  20.321  1.00  0.00    -0.350 N 
ATOM      4  H   UNL     1      18.808  20.190  21.260  1.00  0.00     0.345 HD
ATOM      5  H   UNL     1      19.838  19.105  20.463  1.00  0.00     0.345 HD
ATOM      6  H   UNL     1      18.345  19.534  19.756  1.00  0.00     0.345 HD
ENDBRANCH   2   3
BRANCH   2   7
ATOM      7  C   UNL     1      20.204  22.060  20.650  1.00  0.00     0.099 C 
ATOM      8  O   UNL     1      19.351  22.532  21.447  1.00  0.00    -0.544 OA
ATOM      9  O   UNL     1      21.517  22.508  20.709  1.00  0.00    -0.544 OA
ENDBRANCH   2   7
ENDBRANCH   1   2
BRANCH   1  10
ATOM     10  C   UNL     1      20.666  19.749  17.566  1.00  0.00     0.076 C 
BRANCH  10  11
ATOM     11  S   UNL     1      22.160  19.177  16.681  1.00  0.00    -0.165 SA
ATOM     12  C   UNL     1      23.037  20.765  16.830  1.00  0.00     0.085 C 
ENDBRANCH  10  11
ENDBRANCH   1  10
TORSDOF 5
ENDMDL
MODEL 2
REMARK VINA RESULT:    -2.862      3.418      4.403
REMARK INTER + INTRA:          -3.666
REMARK INTER:                  -3.604
REMARK INTRA:                  -0.062
REMARK UNBOUND:                -0.052
REMARK SMILES CSCC[C@@H]([NH3+])C(=O)[O-]
REMARK SMILES IDX 4 1 5 2 6 3 7 7 8 8 9 9 3 10 2 11 1 12
REMARK H PARENT 6 4 6 5 6 6
REMARK Flexibility Score: inf
ROOT
ATOM      1  C   UNL     1      21.026  20.591  18.889  1.00  0.00     0.082 C 
ENDROOT
BRANCH   1   2
ATOM      2  C   UNL     1      21.021  19.547  17.747  1.00  0.00     0.228 C 
BRANCH   2   3
ATOM      3  N   UNL     1      19.859  19.749  16.874  1.00  0.00    -0.350 N 
ATOM      4  H   UNL     1      20.082  20.471  16.150  1.00  0.00     0.345 HD
ATOM      5  H   UNL     1      19.046  20.092  17.437  1.00  0.00     0.345 HD
ATOM      6  H   UNL     1      19.595  18.856  16.397  1.00  0.00     0.345 HD
ENDBRANCH   2   3
BRANCH   2   7
ATOM      7  C   UNL     1      22.293  19.614  16.941  1.00  0.00     0.099 C 
ATOM      8  O   UNL     1      22.715  18.597  16.330  1.00  0.00    -0.544 OA
ATOM      9  O   UNL     1      23.001  20.806  16.860  1.00  0.00    -0.544 OA
ENDBRANCH   2   7
ENDBRANCH   1   2
BRANCH   1  10
ATOM     10  C   UNL     1      19.701  20.660  19.659  1.00  0.00     0.076 C 
BRANCH  10  11
ATOM     11  S   UNL     1      19.653  22.120  20.759  1.00  0.00    -0.165 SA
ATOM     12  C   UNL     1      21.448  22.418  20.687  1.00  0.00     0.085 C 
ENDBRANCH  10  11
ENDBRANCH   1  10
TORSDOF 5
ENDMDL
MODEL 3
REMARK VINA RESULT:    -2.622     10.657     11.405
REMARK INTER + INTRA:          -3.364
REMARK INTER:                  -3.316
REMARK INTRA:                  -0.048
REMARK UNBOUND:                -0.052
REMARK SMILES CSCC[C@@H]([NH3+])C(=O)[O-]
REMARK SMILES IDX 4 1 5 2 6 3 7 7 8 8 9 9 3 10 2 11 1 12
REMARK H PARENT 6 4 6 5 6 6
REMARK Flexibility Score: inf
ROOT
ATOM      1  C   UNL     1      30.868  15.655  21.201  1.00  0.00     0.082 C 
ENDROOT
BRANCH   1   2
ATOM      2  C   UNL     1      29.962  15.145  22.346  1.00  0.00     0.228 C 
BRANCH   2   3
ATOM      3  N   UNL     1      30.443  15.642  23.640  1.00  0.00    -0.350 N 
ATOM      4  H   UNL     1      31.393  16.065  23.525  1.00  0.00     0.345 HD
ATOM      5  H   UNL     1      30.519  14.850  24.320  1.00  0.00     0.345 HD
ATOM      6  H   UNL     1      29.791  16.365  24.025  1.00  0.00     0.345 HD
ENDBRANCH   2   3
BRANCH   2   7
ATOM      7  C   UNL     1      28.528  15.558  22.133  1.00  0.00     0.099 C 
ATOM      8  O   UNL     1      28.246  16.512  21.360  1.00  0.00    -0.544 OA
ATOM      9  O   UNL     1      27.506  14.878  22.782  1.00  0.00    -0.544 OA
ENDBRANCH   2   7
ENDBRANCH   1   2
BRANCH   1  10
ATOM     10  C   UNL     1      32.190  14.886  21.079  1.00  0.00     0.076 C 
BRANCH  10  11
ATOM     11  S   UNL     1      32.790  14.875  19.352  1.00  0.00    -0.165 SA
ATOM     12  C   UNL     1      32.343  16.610  19.031  1.00  0.00     0.085 C 
ENDBRANCH  10  11
ENDBRANCH   1  10
TORSDOF 5
ENDMDL
MODEL 4
REMARK VINA RESULT:    -2.479     12.180     13.063
REMARK INTER + INTRA:          -3.183
REMARK INTER:                  -3.095
REMARK INTRA:                  -0.087
REMARK UNBOUND:                -0.052
REMARK SMILES CSCC[C@@H]([NH3+])C(=O)[O-]
REMARK SMILES IDX 4 1 5 2 6 3 7 7 8 8 9 9 3 10 2 11 1 12
REMARK H PARENT 6 4 6 5 6 6
REMARK Flexibility Score: inf
ROOT
ATOM      1  C   UNL     1      32.062  16.755  18.159  1.00  0.00     0.082 C 
ENDROOT
BRANCH   1   2
ATOM      2  C   UNL     1      32.685  16.270  16.829  1.00  0.00     0.228 C 
BRANCH   2   3
ATOM      3  N   UNL     1      33.125  14.875  16.948  1.00  0.00    -0.350 N 
ATOM      4  H   UNL     1      32.808  14.332  16.112  1.00  0.00     0.345 HD
ATOM      5  H   UNL     1      32.701  14.440  17.800  1.00  0.00     0.345 HD
ATOM      6  H   UNL     1      34.168  14.820  17.016  1.00  0.00     0.345 HD
ENDBRANCH   2   3
BRANCH   2   7
ATOM      7  C   UNL     1      31.713  16.412  15.686  1.00  0.00     0.099 C 
ATOM      8  O   UNL     1      30.523  16.766  15.900  1.00  0.00    -0.544 OA
ATOM      9  O   UNL     1      32.130  16.163  14.386  1.00  0.00    -0.544 OA
ENDBRANCH   2   7
ENDBRANCH   1   2
BRANCH   1  10
ATOM     10  C   UNL     1      33.061  16.796  19.323  1.00  0.00     0.076 C 
BRANCH  10  11
ATOM     11  S   UNL     1      32.617  15.582  20.617  1.00  0.00    -0.165 SA
ATOM     12  C   UNL     1      30.856  16.041  20.651  1.00  0.00     0.085 C 
ENDBRANCH  10  11
ENDBRANCH   1  10
TORSDOF 5
ENDMDL
MODEL 5
REMARK VINA RESULT:    -2.453     11.720     12.388
REMARK INTER + INTRA:          -3.150
REMARK INTER:                  -3.087
REMARK INTRA:                  -0.063
REMARK UNBOUND:                -0.052
REMARK SMILES CSCC[C@@H]([NH3+])C(=O)[O-]
REMARK SMILES IDX 4 1 5 2 6 3 7 7 8 8 9 9 3 10 2 11 1 12
REMARK H PARENT 6 4 6 5 6 6
REMARK Flexibility Score: inf
ROOT
ATOM      1  C   UNL     1      32.030  16.360  17.884  1.00  0.00     0.082 C 
ENDROOT
BRANCH   1   2
ATOM      2  C   UNL     1      32.564  16.681  19.299  1.00  0.00     0.228 C 
BRANCH   2   3
ATOM      3  N   UNL     1      32.593  18.132  19.519  1.00  0.00    -0.350 N 
ATOM      4  H   UNL     1      31.820  18.587  18.981  1.00  0.00     0.345 HD
ATOM      5  H   UNL     1      33.502  18.525  19.179  1.00  0.00     0.345 HD
ATOM      6  H   UNL     1      32.480  18.355  20.536  1.00  0.00     0.345 HD
ENDBRANCH   2   3
BRANCH   2   7
ATOM      7  C   UNL     1      31.729  16.013  20.362  1.00  0.00     0.099 C 
ATOM      8  O   UNL     1      30.500  16.265  20.461  1.00  0.00    -0.544 OA
ATOM      9  O   UNL     1      32.314  15.103  21.233  1.00  0.00    -0.544 OA
ENDBRANCH   2   7
ENDBRANCH   1   2
BRANCH   1  10
ATOM     10  C   UNL     1      33.125  15.916  16.904  1.00  0.00     0.076 C 
BRANCH  10  11
ATOM     11  S   UNL     1      32.529  15.979  15.177  1.00  0.00    -0.165 SA
ATOM     12  C   UNL     1      30.881  16.620  15.613  1.00  0.00     0.085 C 
ENDBRANCH  10  11
ENDBRANCH   1  10
TORSDOF 5
ENDMDL
MODEL 6
REMARK VINA RESULT:    -2.316      1.536      1.758
REMARK INTER + INTRA:          -2.977
REMARK INTER:                  -2.954
REMARK INTRA:                  -0.022
REMARK UNBOUND:                -0.052
REMARK SMILES CSCC[C@@H]([NH3+])C(=O)[O-]
REMARK SMILES IDX 4 1 5 2 6 3 7 7 8 8 9 9 3 10 2 11 1 12
REMARK H PARENT 6 4 6 5 6 6
REMARK Flexibility Score: inf
ROOT
ATOM      1  C   UNL     1      20.787  20.837  18.483  1.00  0.00     0.082 C 
ENDROOT
BRANCH   1   2
ATOM      2  C   UNL     1      21.184  21.167  19.941  1.00  0.00     0.228 C 
BRANCH   2   3
ATOM      3  N   UNL     1      22.451  21.906  19.973  1.00  0.00    -0.350 N 
ATOM      4  H   UNL     1      22.714  22.115  20.964  1.00  0.00     0.345 HD
ATOM      5  H   UNL     1      22.345  22.815  19.465  1.00  0.00     0.345 HD
ATOM      6  H   UNL     1      23.216  21.349  19.525  1.00  0.00     0.345 HD
ENDBRANCH   2   3
BRANCH   2   7
ATOM      7  C   UNL     1      20.104  21.957  20.636  1.00  0.00     0.099 C 
ATOM      8  O   UNL     1      20.400  22.951  21.350  1.00  0.00    -0.544 OA
ATOM      9  O   UNL     1      18.772  21.597  20.480  1.00  0.00    -0.544 OA
ENDBRANCH   2   7
ENDBRANCH   1   2
BRANCH   1  10
ATOM     10  C   UNL     1      20.876  19.342  18.148  1.00  0.00     0.076 C 
BRANCH  10  11
ATOM     11  S   UNL     1      21.862  19.064  16.634  1.00  0.00    -0.165 SA
ATOM     12  C   UNL     1      22.865  20.570  16.832  1.00  0.00     0.085 C 
ENDBRANCH  10  11
ENDBRANCH   1  10
TORSDOF 5
ENDMDL
MODEL 7
REMARK VINA RESULT:    -1.974     12.433     12.872
REMARK INTER + INTRA:          -2.545
REMARK INTER:                  -2.581
REMARK INTRA:                   0.036
REMARK UNBOUND:                -0.052
REMARK SMILES CSCC[C@@H]([NH3+])C(=O)[O-]
REMARK SMILES IDX 4 1 5 2 6 3 7 7 8 8 9 9 3 10 2 11 1 12
REMARK H PARENT 6 4 6 5 6 6
REMARK Flexibility Score: inf
ROOT
ATOM      1  C   UNL     1      31.894  16.561  16.893  1.00  0.00     0.082 C 
ENDROOT
BRANCH   1   2
ATOM      2  C   UNL     1      32.000  15.818  18.245  1.00  0.00     0.228 C 
BRANCH   2   3
ATOM      3  N   UNL     1      33.125  14.875  18.224  1.00  0.00    -0.350 N 
ATOM      4  H   UNL     1      34.021  15.397  18.080  1.00  0.00     0.345 HD
ATOM      5  H   UNL     1      33.009  14.201  17.432  1.00  0.00     0.345 HD
ATOM      6  H   UNL     1      33.179  14.344  19.124  1.00  0.00     0.345 HD
ENDBRANCH   2   3
BRANCH   2   7
ATOM      7  C   UNL     1      32.156  16.786  19.390  1.00  0.00     0.099 C 
ATOM      8  O   UNL     1      32.887  17.804  19.270  1.00  0.00    -0.544 OA
ATOM      9  O   UNL     1      31.481  16.563  20.583  1.00  0.00    -0.544 OA
ENDBRANCH   2   7
ENDBRANCH   1   2
BRANCH   1  10
ATOM     10  C   UNL     1      33.122  16.370  15.992  1.00  0.00     0.076 C 
BRANCH  10  11
ATOM     11  S   UNL     1      32.870  14.989  14.820  1.00  0.00    -0.165 SA
ATOM     12  C   UNL     1      32.813  16.056  13.346  1.00  0.00     0.085 C 
ENDBRANCH  10  11
ENDBRANCH   1  10
TORSDOF 5
ENDMDL
MODEL 8
REMARK VINA RESULT:    -1.861     12.524     13.385
REMARK INTER + INTRA:          -2.402
REMARK INTER:                  -2.316
REMARK INTRA:                  -0.086
REMARK UNBOUND:                -0.052
REMARK SMILES CSCC[C@@H]([NH3+])C(=O)[O-]
REMARK SMILES IDX 4 1 5 2 6 3 7 7 8 8 9 9 3 10 2 11 1 12
REMARK H PARENT 6 4 6 5 6 6
REMARK Flexibility Score: inf
ROOT
ATOM      1  C   UNL     1      32.507  16.020  13.529  1.00  0.00     0.082 C 
ENDROOT
BRANCH   1   2
ATOM      2  C   UNL     1      32.007  15.450  14.877  1.00  0.00     0.228 C 
BRANCH   2   3
ATOM      3  N   UNL     1      33.125  14.881  15.639  1.00  0.00    -0.350 N 
ATOM      4  H   UNL     1      33.885  15.593  15.737  1.00  0.00     0.345 HD
ATOM      5  H   UNL     1      33.516  14.053  15.131  1.00  0.00     0.345 HD
ATOM      6  H   UNL     1      32.810  14.583  16.592  1.00  0.00     0.345 HD
ENDBRANCH   2   3
BRANCH   2   7
ATOM      7  C   UNL     1      31.310  16.509  15.693  1.00  0.00     0.099 C 
ATOM      8  O   UNL     1      30.373  17.186  15.193  1.00  0.00    -0.544 OA
ATOM      9  O   UNL     1      31.692  16.734  17.009  1.00  0.00    -0.544 OA
ENDBRANCH   2   7
ENDBRANCH   1   2
BRANCH   1  10
ATOM     10  C   UNL     1      33.072  14.951  12.585  1.00  0.00     0.076 C 
BRANCH  10  11
ATOM     11  S   UNL     1      32.121  14.880  11.025  1.00  0.00    -0.165 SA
ATOM     12  C   UNL     1      31.332  16.504  11.260  1.00  0.00     0.085 C 
ENDBRANCH  10  11
ENDBRANCH   1  10
TORSDOF 5
ENDMDL
MODEL 9
REMARK VINA RESULT:    -1.829      3.797      4.526
REMARK INTER + INTRA:          -2.361
REMARK INTER:                  -2.297
REMARK INTRA:                  -0.064
REMARK UNBOUND:                -0.052
REMARK SMILES CSCC[C@@H]([NH3+])C(=O)[O-]
REMARK SMILES IDX 4 1 5 2 6 3 7 7 8 8 9 9 3 10 2 11 1 12
REMARK H PARENT 6 4 6 5 6 6
REMARK Flexibility Score: inf
ROOT
ATOM      1  C   UNL     1      21.516  20.604  19.097  1.00  0.00     0.082 C 
ENDROOT
BRANCH   1   2
ATOM      2  C   UNL     1      21.714  20.684  17.566  1.00  0.00     0.228 C 
BRANCH   2   3
ATOM      3  N   UNL     1      23.069  21.149  17.247  1.00  0.00    -0.350 N 
ATOM      4  H   UNL     1      23.460  20.584  16.458  1.00  0.00     0.345 HD
ATOM      5  H   UNL     1      23.693  21.024  18.078  1.00  0.00     0.345 HD
ATOM      6  H   UNL     1      23.059  22.159  16.973  1.00  0.00     0.345 HD
ENDBRANCH   2   3
BRANCH   2   7
ATOM      7  C   UNL     1      21.456  19.350  16.912  1.00  0.00     0.099 C 
ATOM      8  O   UNL     1      20.283  18.996  16.624  1.00  0.00    -0.544 OA
ATOM      9  O   UNL     1      22.519  18.508  16.612  1.00  0.00    -0.544 OA
ENDBRANCH   2   7
ENDBRANCH   1   2
BRANCH   1  10
ATOM     10  C   UNL     1      20.047  20.700  19.530  1.00  0.00     0.076 C 
BRANCH  10  11
ATOM     11  S   UNL     1      19.787  22.102  20.675  1.00  0.00    -0.165 SA
ATOM     12  C   UNL     1      21.555  22.517  20.804  1.00  0.00     0.085 C 
ENDBRANCH  10  11
ENDBRANCH   1  10
TORSDOF 5
ENDMDL
