MODEL 1
REMARK VINA RESULT:    -3.350      0.000      0.000
REMARK INTER + INTRA:          -4.321
REMARK INTER:                  -4.134
REMARK INTRA:                  -0.188
REMARK UNBOUND:                -0.188
REMARK SMILES CCCCCC=O
REMARK SMILES IDX 4 1 3 2 2 3 1 4 5 5 6 6 7 7
REMARK H PARENT
REMARK Flexibility Score: inf
ROOT
ATOM      1  C   UNL     1       3.315  18.133  23.125  1.00  0.00     0.008 C 
ENDROOT
BRANCH   1   2
ATOM      2  C   UNL     1       4.168  17.958  24.390  1.00  0.00     0.000 C 
BRANCH   2   3
ATOM      3  C   UNL     1       5.640  18.340  24.168  1.00  0.00    -0.003 C 
ATOM      4  C   UNL     1       6.601  17.189  24.463  1.00  0.00     0.004 C 
ENDBRANCH   2   3
ENDBRANCH   1   2
BRANCH   1   5
ATOM      5  C   UNL     1       4.202  18.288  21.884  1.00  0.00     0.072 C 
BRANCH   5   6
ATOM      6  C   UNL     1       4.062  17.105  20.974  1.00  0.00     0.224 C 
ATOM      7  O   UNL     1       4.797  16.137  21.098  1.00  0.00    -0.303 OA
ENDBRANCH   5   6
ENDBRANCH   1   5
TORSDOF 4
ENDMDL
MODEL 2
REMARK VINA RESULT:    -3.326      0.788      1.541
REMARK INTER + INTRA:          -4.291
REMARK INTER:                  -4.059
REMARK INTRA:                  -0.233
REMARK UNBOUND:                -0.188
REMARK SMILES CCCCCC=O
REMARK SMILES IDX 4 1 3 2 2 3 1 4 5 5 6 6 7 7
REMARK H PARENT
REMARK Flexibility Score: inf
ROOT
ATOM      1  C   UNL     1       4.316  18.334  21.913  1.00  0.00     0.008 C 
ENDROOT
BRANCH   1   2
ATOM      2  C   UNL     1       3.286  18.360  23.051  1.00  0.00     0.000 C 
BRANCH   2   3
ATOM      3  C   UNL     1       3.913  18.068  24.423  1.00  0.00    -0.003 C 
ATOM      4  C   UNL     1       5.432  18.230  24.425  1.00  0.00     0.004 C 
ENDBRANCH   2   3
ENDBRANCH   1   2
BRANCH   1   5
ATOM      5  C   UNL     1       4.037  17.176  20.948  1.00  0.00     0.072 C 
BRANCH   5   6
ATOM      6  C   UNL     1       5.110  16.132  21.040  1.00  0.00     0.224 C 
ATOM      7  O   UNL     1       5.324  15.555  22.095  1.00  0.00    -0.303 OA
ENDBRANCH   5   6
ENDBRANCH   1   5
TORSDOF 4
ENDMDL
MODEL 3
REMARK VINA RESULT:    -3.212      1.474      2.481
REMARK INTER + INTRA:          -4.150
REMARK INTER:                  -3.909
REMARK INTRA:                  -0.241
REMARK UNBOUND:                -0.188
REMARK SMILES CCCCCC=O
REMARK SMILES IDX 4 1 3 2 2 3 1 4 5 5 6 6 7 7
REMARK H PARENT
REMARK Flexibility Score: inf
ROOT
ATOM      1  C   UNL     1       5.344  18.333  24.534  1.00  0.00     0.008 C 
ENDROOT
BRANCH   1   2
ATOM      2  C   UNL     1       6.619  17.566  24.155  1.00  0.00     0.000 C 
BRANCH   2   3
ATOM      3  C   UNL     1       7.218  18.038  22.821  1.00  0.00    -0.003 C 
ATOM      4  C   UNL     1       6.821  19.470  22.467  1.00  0.00     0.004 C 
ENDBRANCH   2   3
ENDBRANCH   1   2
BRANCH   1   5
ATOM      5  C   UNL     1       4.093  17.516  24.193  1.00  0.00     0.072 C 
BRANCH   5   6
ATOM      6  C   UNL     1       3.327  18.152  23.072  1.00  0.00     0.224 C 
ATOM      7  O   UNL     1       3.583  17.875  21.910  1.00  0.00    -0.303 OA
ENDBRANCH   5   6
ENDBRANCH   1   5
TORSDOF 4
ENDMDL
MODEL 4
REMARK VINA RESULT:    -3.199     20.584     21.486
REMARK INTER + INTRA:          -4.135
REMARK INTER:                  -4.105
REMARK INTRA:                  -0.030
REMARK UNBOUND:                -0.188
REMARK SMILES CCCCCC=O
REMARK SMILES IDX 4 1 3 2 2 3 1 4 5 5 6 6 7 7
REMARK H PARENT
REMARK Flexibility Score: inf
ROOT
ATOM      1  C   UNL     1      21.238  30.394  26.838  1.00  0.00     0.008 C 
ENDROOT
BRANCH   1   2
ATOM      2  C   UNL     1      22.125  30.031  25.639  1.00  0.00     0.000 C 
BRANCH   2   3
ATOM      3  C   UNL     1      22.013  31.047  24.491  1.00  0.00    -0.003 C 
ATOM      4  C   UNL     1      21.892  30.381  23.122  1.00  0.00     0.004 C 
ENDBRANCH   2   3
ENDBRANCH   1   2
BRANCH   1   5
ATOM      5  C   UNL     1      21.762  29.743  28.123  1.00  0.00     0.072 C 
BRANCH   5   6
ATOM      6  C   UNL     1      20.710  28.881  28.754  1.00  0.00     0.224 C 
ATOM      7  O   UNL     1      20.961  28.232  29.758  1.00  0.00    -0.303 OA
ENDBRANCH   5   6
ENDBRANCH   1   5
TORSDOF 4
ENDMDL
MODEL 5
REMARK VINA RESULT:    -3.141      1.662      2.111
REMARK INTER + INTRA:          -4.063
REMARK INTER:                  -3.981
REMARK INTRA:                  -0.082
REMARK UNBOUND:                -0.188
REMARK SMILES CCCCCC=O
REMARK SMILES IDX 4 1 3 2 2 3 1 4 5 5 6 6 7 7
REMARK H PARENT
REMARK Flexibility Score: inf
ROOT
ATOM      1  C   UNL     1       4.632  18.587  21.947  1.00  0.00     0.008 C 
ENDROOT
BRANCH   1   2
ATOM      2  C   UNL     1       3.480  18.179  22.876  1.00  0.00     0.000 C 
BRANCH   2   3
ATOM      3  C   UNL     1       3.902  18.127  24.353  1.00  0.00    -0.003 C 
ATOM      4  C   UNL     1       5.419  18.116  24.535  1.00  0.00     0.004 C 
ENDBRANCH   2   3
ENDBRANCH   1   2
BRANCH   1   5
ATOM      5  C   UNL     1       4.569  17.813  20.625  1.00  0.00     0.072 C 
BRANCH   5   6
ATOM      6  C   UNL     1       4.834  18.720  19.461  1.00  0.00     0.224 C 
ATOM      7  O   UNL     1       5.768  18.502  18.705  1.00  0.00    -0.303 OA
ENDBRANCH   5   6
ENDBRANCH   1   5
TORSDOF 4
ENDMDL
MODEL 6
REMARK VINA RESULT:    -3.094      1.130      2.998
REMARK INTER + INTRA:          -4.005
REMARK INTER:                  -3.805
REMARK INTRA:                  -0.201
REMARK UNBOUND:                -0.188
REMARK SMILES CCCCCC=O
REMARK SMILES IDX 4 1 3 2 2 3 1 4 5 5 6 6 7 7
REMARK H PARENT
REMARK Flexibility Score: inf
ROOT
ATOM      1  C   UNL     1       5.581  18.316  24.340  1.00  0.00     0.008 C 
ENDROOT
BRANCH   1   2
ATOM      2  C   UNL     1       4.143  17.778  24.385  1.00  0.00     0.000 C 
BRANCH   2   3
ATOM      3  C   UNL     1       3.277  18.308  23.231  1.00  0.00    -0.003 C 
ATOM      4  C   UNL     1       3.783  17.864  21.860  1.00  0.00     0.004 C 
ENDBRANCH   2   3
ENDBRANCH   1   2
BRANCH   1   5
ATOM      5  C   UNL     1       6.595  17.175  24.484  1.00  0.00     0.072 C 
BRANCH   5   6
ATOM      6  C   UNL     1       6.003  15.872  24.039  1.00  0.00     0.224 C 
ATOM      7  O   UNL     1       6.291  15.401  22.949  1.00  0.00    -0.303 OA
ENDBRANCH   5   6
ENDBRANCH   1   5
TORSDOF 4
ENDMDL
MODEL 7
REMARK VINA RESULT:    -3.089      2.433      3.379
REMARK INTER + INTRA:          -3.999
REMARK INTER:                  -3.851
REMARK INTRA:                  -0.148
REMARK UNBOUND:                -0.188
REMARK SMILES CCCCCC=O
REMARK SMILES IDX 4 1 3 2 2 3 1 4 5 5 6 6 7 7
REMARK H PARENT
REMARK Flexibility Score: inf
ROOT
ATOM      1  C   UNL     1       5.970  17.646  23.236  1.00  0.00     0.008 C 
ENDROOT
BRANCH   1   2
ATOM      2  C   UNL     1       5.276  17.984  24.564  1.00  0.00     0.000 C 
BRANCH   2   3
ATOM      3  C   UNL     1       3.784  18.305  24.387  1.00  0.00    -0.003 C 
ATOM      4  C   UNL     1       3.315  18.158  22.940  1.00  0.00     0.004 C 
ENDBRANCH   2   3
ENDBRANCH   1   2
BRANCH   1   5
ATOM      5  C   UNL     1       7.156  18.583  22.985  1.00  0.00     0.072 C 
BRANCH   5   6
ATOM      6  C   UNL     1       6.744  19.759  22.152  1.00  0.00     0.224 C 
ATOM      7  O   UNL     1       7.559  20.612  21.836  1.00  0.00    -0.303 OA
ENDBRANCH   5   6
ENDBRANCH   1   5
TORSDOF 4
ENDMDL
MODEL 8
REMARK VINA RESULT:    -3.064     19.626     20.859
REMARK INTER + INTRA:          -3.968
REMARK INTER:                  -3.881
REMARK INTRA:                  -0.087
REMARK UNBOUND:                -0.188
REMARK SMILES CCCCCC=O
REMARK SMILES IDX 4 1 3 2 2 3 1 4 5 5 6 6 7 7
REMARK H PARENT
REMARK Flexibility Score: inf
ROOT
ATOM      1  C   UNL     1      21.051  29.283  28.601  1.00  0.00     0.008 C 
ENDROOT
BRANCH   1   2
ATOM      2  C   UNL     1      21.933  30.301  27.863  1.00  0.00     0.000 C 
BRANCH   2   3
ATOM      3  C   UNL     1      22.125  29.950  26.379  1.00  0.00    -0.003 C 
ATOM      4  C   UNL     1      21.513  30.989  25.442  1.00  0.00     0.004 C 
ENDBRANCH   2   3
ENDBRANCH   1   2
BRANCH   1   5
ATOM      5  C   UNL     1      19.930  29.989  29.372  1.00  0.00     0.072 C 
BRANCH   5   6
ATOM      6  C   UNL     1      18.634  29.916  28.621  1.00  0.00     0.224 C 
ATOM      7  O   UNL     1      17.828  29.030  28.861  1.00  0.00    -0.303 OA
ENDBRANCH   5   6
ENDBRANCH   1   5
TORSDOF 4
ENDMDL
