MODEL 1
REMARK VINA RESULT:    -3.486      0.000      0.000
REMARK INTER + INTRA:          -4.138
REMARK INTER:                  -4.097
REMARK INTRA:                  -0.041
REMARK UNBOUND:                -0.041
REMARK SMILES CCCCC(=O)[O-]
REMARK SMILES IDX 4 1 5 2 6 3 7 4 3 5 2 6 1 7
REMARK H PARENT
REMARK Flexibility Score: inf
ROOT
ATOM      1  C   UNL     1     -20.309  -6.012 -12.752  1.00  0.00     0.053 C 
ENDROOT
BRANCH   1   2
ATOM      2  C   UNL     1     -20.066  -4.623 -13.253  1.00  0.00     0.041 C 
ATOM      3  O   UNL     1     -20.564  -3.637 -12.650  1.00  0.00    -0.550 OA
ATOM      4  O   UNL     1     -19.330  -4.422 -14.413  1.00  0.00    -0.550 OA
ENDBRANCH   1   2
BRANCH   1   5
ATOM      5  C   UNL     1     -20.554  -6.969 -13.926  1.00  0.00     0.006 C 
BRANCH   5   6
ATOM      6  C   UNL     1     -19.659  -8.216 -13.866  1.00  0.00    -0.003 C 
ATOM      7  C   UNL     1     -20.437  -9.483 -13.506  1.00  0.00     0.004 C 
ENDBRANCH   5   6
ENDBRANCH   1   5
TORSDOF 3
ENDMDL
MODEL 2
REMARK VINA RESULT:    -3.463      0.116      1.228
REMARK INTER + INTRA:          -4.112
REMARK INTER:                  -4.065
REMARK INTRA:                  -0.047
REMARK UNBOUND:                -0.041
REMARK SMILES CCCCC(=O)[O-]
REMARK SMILES IDX 4 1 5 2 6 3 7 4 3 5 2 6 1 7
REMARK H PARENT
REMARK Flexibility Score: inf
ROOT
ATOM      1  C   UNL     1     -20.433  -6.063 -12.788  1.00  0.00     0.053 C 
ENDROOT
BRANCH   1   2
ATOM      2  C   UNL     1     -20.116  -4.686 -13.281  1.00  0.00     0.041 C 
ATOM      3  O   UNL     1     -19.381  -4.528 -14.291  1.00  0.00    -0.550 OA
ATOM      4  O   UNL     1     -20.591  -3.576 -12.594  1.00  0.00    -0.550 OA
ENDBRANCH   1   2
BRANCH   1   5
ATOM      5  C   UNL     1     -20.579  -7.032 -13.968  1.00  0.00     0.006 C 
BRANCH   5   6
ATOM      6  C   UNL     1     -19.627  -8.233 -13.865  1.00  0.00    -0.003 C 
ATOM      7  C   UNL     1     -20.331  -9.507 -13.396  1.00  0.00     0.004 C 
ENDBRANCH   5   6
ENDBRANCH   1   5
TORSDOF 3
ENDMDL
MODEL 3
REMARK VINA RESULT:    -3.378     17.705     18.020
REMARK INTER + INTRA:          -4.012
REMARK INTER:                  -3.973
REMARK INTRA:                  -0.039
REMARK UNBOUND:                -0.041
REMARK SMILES CCCCC(=O)[O-]
REMARK SMILES IDX 4 1 5 2 6 3 7 4 3 5 2 6 1 7
REMARK H PARENT
REMARK Flexibility Score: inf
ROOT
ATOM      1  C   UNL     1      -9.276  -8.624   0.063  1.00  0.00     0.053 C 
ENDROOT
BRANCH   1   2
ATOM      2  C   UNL     1      -9.931  -7.314   0.370  1.00  0.00     0.041 C 
ATOM      3  O   UNL     1      -9.353  -6.476   1.110  1.00  0.00    -0.550 OA
ATOM      4  O   UNL     1     -11.201  -7.041  -0.121  1.00  0.00    -0.550 OA
ENDBRANCH   1   2
BRANCH   1   5
ATOM      5  C   UNL     1      -7.808  -8.409  -0.330  1.00  0.00     0.006 C 
BRANCH   5   6
ATOM      6  C   UNL     1      -6.856  -9.370   0.399  1.00  0.00    -0.003 C 
ATOM      7  C   UNL     1      -6.492 -10.592  -0.444  1.00  0.00     0.004 C 
ENDBRANCH   5   6
ENDBRANCH   1   5
TORSDOF 3
ENDMDL
MODEL 4
REMARK VINA RESULT:    -3.320     17.206     17.640
REMARK INTER + INTRA:          -3.943
REMARK INTER:                  -3.913
REMARK INTRA:                  -0.030
REMARK UNBOUND:                -0.041
REMARK SMILES CCCCC(=O)[O-]
REMARK SMILES IDX 4 1 5 2 6 3 7 4 3 5 2 6 1 7
REMARK H PARENT
REMARK Flexibility Score: inf
ROOT
ATOM      1  C   UNL     1      -9.453  -6.870   0.647  1.00  0.00     0.053 C 
ENDROOT
BRANCH   1   2
ATOM      2  C   UNL     1     -10.851  -6.408   0.916  1.00  0.00     0.041 C 
ATOM      3  O   UNL     1     -11.533  -5.883  -0.003  1.00  0.00    -0.550 OA
ATOM      4  O   UNL     1     -11.384  -6.515   2.194  1.00  0.00    -0.550 OA
ENDBRANCH   1   2
BRANCH   1   5
ATOM      5  C   UNL     1      -9.457  -8.314   0.129  1.00  0.00     0.006 C 
BRANCH   5   6
ATOM      6  C   UNL     1      -8.056  -8.799  -0.274  1.00  0.00    -0.003 C 
ATOM      7  C   UNL     1      -7.015  -7.679  -0.252  1.00  0.00     0.004 C 
ENDBRANCH   5   6
ENDBRANCH   1   5
TORSDOF 3
ENDMDL
MODEL 5
REMARK VINA RESULT:    -3.311     18.091     18.488
REMARK INTER + INTRA:          -3.934
REMARK INTER:                  -3.899
REMARK INTRA:                  -0.035
REMARK UNBOUND:                -0.041
REMARK SMILES CCCCC(=O)[O-]
REMARK SMILES IDX 4 1 5 2 6 3 7 4 3 5 2 6 1 7
REMARK H PARENT
REMARK Flexibility Score: inf
ROOT
ATOM      1  C   UNL     1      -7.888  -8.444  -0.290  1.00  0.00     0.053 C 
ENDROOT
BRANCH   1   2
ATOM      2  C   UNL     1      -7.255  -9.701   0.219  1.00  0.00     0.041 C 
ATOM      3  O   UNL     1      -7.344 -10.007   1.437  1.00  0.00    -0.550 OA
ATOM      4  O   UNL     1      -6.527 -10.511  -0.643  1.00  0.00    -0.550 OA
ENDBRANCH   1   2
BRANCH   1   5
ATOM      5  C   UNL     1      -9.390  -8.438   0.020  1.00  0.00     0.006 C 
BRANCH   5   6
ATOM      6  C   UNL     1      -9.876  -7.081   0.552  1.00  0.00    -0.003 C 
ATOM      7  C   UNL     1     -11.270  -6.713   0.043  1.00  0.00     0.004 C 
ENDBRANCH   5   6
ENDBRANCH   1   5
TORSDOF 3
ENDMDL
MODEL 6
REMARK VINA RESULT:    -3.143      1.061      1.574
REMARK INTER + INTRA:          -3.736
REMARK INTER:                  -3.663
REMARK INTRA:                  -0.073
REMARK UNBOUND:                -0.041
REMARK SMILES CCCCC(=O)[O-]
REMARK SMILES IDX 4 1 5 2 6 3 7 4 3 5 2 6 1 7
REMARK H PARENT
REMARK Flexibility Score: inf
ROOT
ATOM      1  C   UNL     1     -21.299  -6.026 -13.953  1.00  0.00     0.053 C 
ENDROOT
BRANCH   1   2
ATOM      2  C   UNL     1     -20.339  -5.049 -14.557  1.00  0.00     0.041 C 
ATOM      3  O   UNL     1     -20.302  -4.887 -15.804  1.00  0.00    -0.550 OA
ATOM      4  O   UNL     1     -19.452  -4.355 -13.744  1.00  0.00    -0.550 OA
ENDBRANCH   1   2
BRANCH   1   5
ATOM      5  C   UNL     1     -20.563  -6.984 -13.007  1.00  0.00     0.006 C 
BRANCH   5   6
ATOM      6  C   UNL     1     -19.808  -8.090 -13.759  1.00  0.00    -0.003 C 
ATOM      7  C   UNL     1     -20.320  -9.490 -13.420  1.00  0.00     0.004 C 
ENDBRANCH   5   6
ENDBRANCH   1   5
TORSDOF 3
ENDMDL
MODEL 7
REMARK VINA RESULT:    -3.053     17.700     18.137
REMARK INTER + INTRA:          -3.630
REMARK INTER:                  -3.590
REMARK INTRA:                  -0.040
REMARK UNBOUND:                -0.041
REMARK SMILES CCCCC(=O)[O-]
REMARK SMILES IDX 4 1 5 2 6 3 7 4 3 5 2 6 1 7
REMARK H PARENT
REMARK Flexibility Score: inf
ROOT
ATOM      1  C   UNL     1      -8.416  -7.508   0.754  1.00  0.00     0.053 C 
ENDROOT
BRANCH   1   2
ATOM      2  C   UNL     1      -7.284  -7.880  -0.150  1.00  0.00     0.041 C 
ATOM      3  O   UNL     1      -6.434  -7.016  -0.489  1.00  0.00    -0.550 OA
ATOM      4  O   UNL     1      -7.196  -9.170  -0.658  1.00  0.00    -0.550 OA
ENDBRANCH   1   2
BRANCH   1   5
ATOM      5  C   UNL     1      -9.742  -8.046   0.201  1.00  0.00     0.006 C 
BRANCH   5   6
ATOM      6  C   UNL     1     -10.805  -6.947   0.045  1.00  0.00    -0.003 C 
ATOM      7  C   UNL     1     -10.653  -5.829   1.076  1.00  0.00     0.004 C 
ENDBRANCH   5   6
ENDBRANCH   1   5
TORSDOF 3
ENDMDL
MODEL 8
REMARK VINA RESULT:    -3.048      2.440      3.789
REMARK INTER + INTRA:          -3.624
REMARK INTER:                  -3.515
REMARK INTRA:                  -0.109
REMARK UNBOUND:                -0.041
REMARK SMILES CCCCC(=O)[O-]
REMARK SMILES IDX 4 1 5 2 6 3 7 4 3 5 2 6 1 7
REMARK H PARENT
REMARK Flexibility Score: inf
ROOT
ATOM      1  C   UNL     1     -20.669  -7.055 -12.549  1.00  0.00     0.053 C 
ENDROOT
BRANCH   1   2
ATOM      2  C   UNL     1     -20.414  -7.900 -13.758  1.00  0.00     0.041 C 
ATOM      3  O   UNL     1     -19.481  -8.745 -13.754  1.00  0.00    -0.550 OA
ATOM      4  O   UNL     1     -21.176  -7.719 -14.905  1.00  0.00    -0.550 OA
ENDBRANCH   1   2
BRANCH   1   5
ATOM      5  C   UNL     1     -21.080  -5.636 -12.965  1.00  0.00     0.006 C 
BRANCH   5   6
ATOM      6  C   UNL     1     -19.888  -4.668 -13.014  1.00  0.00    -0.003 C 
ATOM      7  C   UNL     1     -19.496  -4.286 -14.442  1.00  0.00     0.004 C 
ENDBRANCH   5   6
ENDBRANCH   1   5
TORSDOF 3
ENDMDL
MODEL 9
REMARK VINA RESULT:    -2.959     19.027     19.383
REMARK INTER + INTRA:          -3.520
REMARK INTER:                  -3.485
REMARK INTRA:                  -0.035
REMARK UNBOUND:                -0.041
REMARK SMILES CCCCC(=O)[O-]
REMARK SMILES IDX 4 1 5 2 6 3 7 4 3 5 2 6 1 7
REMARK H PARENT
REMARK Flexibility Score: inf
ROOT
ATOM      1  C   UNL     1      -6.846  -9.793  -0.438  1.00  0.00     0.053 C 
ENDROOT
BRANCH   1   2
ATOM      2  C   UNL     1      -6.292 -11.120  -0.024  1.00  0.00     0.041 C 
ATOM      3  O   UNL     1      -6.689 -11.670   1.036  1.00  0.00    -0.550 OA
ATOM      4  O   UNL     1      -5.302 -11.727  -0.786  1.00  0.00    -0.550 OA
ENDBRANCH   1   2
BRANCH   1   5
ATOM      5  C   UNL     1      -7.872  -9.298   0.590  1.00  0.00     0.006 C 
BRANCH   5   6
ATOM      6  C   UNL     1      -9.158  -8.773  -0.066  1.00  0.00    -0.003 C 
ATOM      7  C   UNL     1      -9.570  -7.398   0.460  1.00  0.00     0.004 C 
ENDBRANCH   5   6
ENDBRANCH   1   5
TORSDOF 3
ENDMDL
