MODEL 1
REMARK VINA RESULT:    -4.542      0.000      0.000
REMARK INTER + INTRA:          -5.965
REMARK INTER:                  -6.932
REMARK INTRA:                   0.967
REMARK UNBOUND:                 0.967
REMARK SMILES CC1=CCC[C@@H](C)C(=O)C[C@@H](C(C)C)C(=O)C1
REMARK SMILES IDX 8 1 9 2 6 3 7 4 5 5 4 6 3 7 2 8 1 9 10 11 11 12 15 13 16 14
REMARK SMILES IDX 17 15 12 17 13 18 14 19
REMARK H PARENT
REMARK Flexibility Score: 70.00
ROOT
ATOM      1  C   UNL     1     -13.994  12.854   4.335  1.00  0.00     0.136 C 
ATOM      2  O   UNL     1     -15.167  12.516   4.396  1.00  0.00    -0.299 OA
ENDROOT
BRANCH   1   3
ATOM      3  C   UNL     1     -13.106  12.703   5.558  1.00  0.00     0.053 C 
ATOM      4  C   UNL     1     -11.807  13.501   5.383  1.00  0.00     0.016 C 
BRANCH   3   5
ATOM      5  C   UNL     1     -12.806  11.211   5.818  1.00  0.00     0.015 C 
BRANCH   5   6
ATOM      6  C   UNL     1     -13.460  10.294   4.765  1.00  0.00     0.028 C 
BRANCH   6   7
ATOM      7  C   UNL     1     -12.497   9.994   3.644  1.00  0.00    -0.028 C 
ATOM      8  C   UNL     1     -12.773  10.153   2.328  1.00  0.00    -0.070 CG0
ATOM      9  C   UNL     1     -11.669   9.888   1.335  1.00  0.00     0.039 C 
ATOM     10  G   UNL     1     -14.146  10.559   1.816  1.00  0.00     0.000 G0
ENDBRANCH   6   7
ENDBRANCH   5   6
ENDBRANCH   3   5
ENDBRANCH   1   3
BRANCH   1  11
ATOM     11  C   UNL     1     -13.451  13.421   3.041  1.00  0.00     0.087 C 
BRANCH  11  12
ATOM     12  C   UNL     1     -14.359  13.210   1.790  1.00  0.00     0.066 C 
BRANCH  12  13
ATOM     13  C   UNL     1     -14.123  11.887   1.066  1.00  0.00     0.140 C 
ATOM     14  O   UNL     1     -13.978  11.867  -0.148  1.00  0.00    -0.299 OA
BRANCH  13  15
ATOM     15  C   UNL     1     -14.151  10.581   1.824  1.00  0.00     0.106 CG0
ATOM     16  G   UNL     1     -12.769  10.156   2.296  1.00  0.00     0.000 G0
ENDBRANCH  13  15
ENDBRANCH  12  13
BRANCH  12  17
ATOM     17  C   UNL     1     -14.400  14.447   0.837  1.00  0.00    -0.006 C 
ATOM     18  C   UNL     1     -15.536  15.441   1.125  1.00  0.00     0.008 C 
ATOM     19  C   UNL     1     -13.049  15.182   0.807  1.00  0.00     0.008 C 
ENDBRANCH  12  17
ENDBRANCH  11  12
ENDBRANCH   1  11
TORSDOF 1
ENDMDL
MODEL 2
REMARK VINA RESULT:    -4.354      1.637      3.922
REMARK INTER + INTRA:          -5.678
REMARK INTER:                  -5.518
REMARK INTRA:                  -0.160
REMARK UNBOUND:                 0.967
REMARK SMILES CC1=CCC[C@@H](C)C(=O)C[C@@H](C(C)C)C(=O)C1
REMARK SMILES IDX 8 1 9 2 6 3 7 4 5 5 4 6 3 7 2 8 1 9 10 11 11 12 15 13 16 14
REMARK SMILES IDX 17 15 12 17 13 18 14 19
REMARK H PARENT
REMARK Flexibility Score: 70.00
ROOT
ATOM      1  C   UNL     1     -14.401  12.848  -0.138  1.00  0.00     0.136 C 
ATOM      2  O   UNL     1     -13.992  13.454  -1.117  1.00  0.00    -0.299 OA
ENDROOT
BRANCH   1   3
ATOM      3  C   UNL     1     -14.122  11.361  -0.008  1.00  0.00     0.053 C 
ATOM      4  C   UNL     1     -15.404  10.602   0.362  1.00  0.00     0.016 C 
BRANCH   3   5
ATOM      5  C   UNL     1     -13.014  11.116   1.039  1.00  0.00     0.015 C 
BRANCH   5   6
ATOM      6  C   UNL     1     -13.563  10.471   2.328  1.00  0.00     0.028 C 
BRANCH   6   7
ATOM      7  C   UNL     1     -12.938  11.098   3.549  1.00  0.00    -0.028 C 
ATOM      8  C   UNL     1     -13.488  12.107   4.264  1.00  0.00    -0.070 CG0
ATOM      9  C   UNL     1     -12.773  12.564   5.511  1.00  0.00     0.039 C 
ATOM     10  G   UNL     1     -14.773  12.807   3.851  1.00  0.00     0.000 G0
ENDBRANCH   6   7
ENDBRANCH   5   6
ENDBRANCH   3   5
ENDBRANCH   1   3
BRANCH   1  11
ATOM     11  C   UNL     1     -15.181  13.591   0.924  1.00  0.00     0.087 C 
BRANCH  11  12
ATOM     12  C   UNL     1     -14.327  14.497   1.865  1.00  0.00     0.066 C 
BRANCH  12  13
ATOM     13  C   UNL     1     -14.527  14.212   3.352  1.00  0.00     0.140 C 
ATOM     14  O   UNL     1     -14.428  15.115   4.169  1.00  0.00    -0.299 OA
BRANCH  13  15
ATOM     15  C   UNL     1     -14.766  12.803   3.839  1.00  0.00     0.106 CG0
ATOM     16  G   UNL     1     -13.480  12.111   4.263  1.00  0.00     0.000 G0
ENDBRANCH  13  15
ENDBRANCH  12  13
BRANCH  12  17
ATOM     17  C   UNL     1     -14.400  16.014   1.502  1.00  0.00    -0.006 C 
ATOM     18  C   UNL     1     -13.415  16.460   0.410  1.00  0.00     0.008 C 
ATOM     19  C   UNL     1     -15.831  16.437   1.129  1.00  0.00     0.008 C 
ENDBRANCH  12  17
ENDBRANCH  11  12
ENDBRANCH   1  11
TORSDOF 1
ENDMDL
MODEL 3
REMARK VINA RESULT:    -4.051      2.018      4.658
REMARK INTER + INTRA:          -5.215
REMARK INTER:                  -5.389
REMARK INTRA:                   0.174
REMARK UNBOUND:                 0.967
REMARK SMILES CC1=CCC[C@@H](C)C(=O)C[C@@H](C(C)C)C(=O)C1
REMARK SMILES IDX 8 1 9 2 6 3 7 4 5 5 4 6 3 7 2 8 1 9 10 11 11 12 15 13 16 14
REMARK SMILES IDX 17 15 12 17 13 18 14 19
REMARK H PARENT
REMARK Flexibility Score: 70.00
ROOT
ATOM      1  C   UNL     1     -13.288  10.571   3.254  1.00  0.00     0.136 C 
ATOM      2  O   UNL     1     -13.622   9.875   4.201  1.00  0.00    -0.299 OA
ENDROOT
BRANCH   1   3
ATOM      3  C   UNL     1     -13.394  10.017   1.843  1.00  0.00     0.053 C 
ATOM      4  C   UNL     1     -12.014   9.978   1.173  1.00  0.00     0.016 C 
BRANCH   3   5
ATOM      5  C   UNL     1     -14.387  10.860   1.013  1.00  0.00     0.015 C 
BRANCH   5   6
ATOM      6  C   UNL     1     -13.694  12.036   0.296  1.00  0.00     0.028 C 
BRANCH   6   7
ATOM      7  C   UNL     1     -14.620  13.222   0.194  1.00  0.00    -0.028 C 
ATOM      8  C   UNL     1     -14.564  14.315   0.991  1.00  0.00    -0.070 CG0
ATOM      9  C   UNL     1     -15.512  15.452   0.701  1.00  0.00     0.039 C 
ATOM     10  G   UNL     1     -13.611  14.428   2.170  1.00  0.00     0.000 G0
ENDBRANCH   6   7
ENDBRANCH   5   6
ENDBRANCH   3   5
ENDBRANCH   1   3
BRANCH   1  11
ATOM     11  C   UNL     1     -12.770  11.970   3.504  1.00  0.00     0.087 C 
BRANCH  11  12
ATOM     12  C   UNL     1     -13.740  12.907   4.290  1.00  0.00     0.066 C 
BRANCH  12  13
ATOM     13  C   UNL     1     -14.239  14.104   3.484  1.00  0.00     0.140 C 
ATOM     14  O   UNL     1     -15.195  14.755   3.877  1.00  0.00    -0.299 OA
BRANCH  13  15
ATOM     15  C   UNL     1     -13.613  14.448   2.152  1.00  0.00     0.106 CG0
ATOM     16  G   UNL     1     -14.597  14.320   1.000  1.00  0.00     0.000 G0
ENDBRANCH  13  15
ENDBRANCH  12  13
BRANCH  12  17
ATOM     17  C   UNL     1     -13.223  13.283   5.715  1.00  0.00    -0.006 C 
ATOM     18  C   UNL     1     -13.534  12.244   6.804  1.00  0.00     0.008 C 
ATOM     19  C   UNL     1     -11.720  13.604   5.703  1.00  0.00     0.008 C 
ENDBRANCH  12  17
ENDBRANCH  11  12
ENDBRANCH   1  11
TORSDOF 1
ENDMDL
MODEL 4
REMARK VINA RESULT:    -3.976      1.478      3.956
REMARK INTER + INTRA:          -5.101
REMARK INTER:                  -5.634
REMARK INTRA:                   0.533
REMARK UNBOUND:                 0.967
REMARK SMILES CC1=CCC[C@@H](C)C(=O)C[C@@H](C(C)C)C(=O)C1
REMARK SMILES IDX 8 1 9 2 6 3 7 4 5 5 4 6 3 7 2 8 1 9 10 11 11 12 15 13 16 14
REMARK SMILES IDX 17 15 12 17 13 18 14 19
REMARK H PARENT
REMARK Flexibility Score: 70.00
ROOT
ATOM      1  C   UNL     1     -14.048  14.269   2.451  1.00  0.00     0.136 C 
ATOM      2  O   UNL     1     -15.158  14.733   2.665  1.00  0.00    -0.299 OA
ENDROOT
BRANCH   1   3
ATOM      3  C   UNL     1     -13.611  14.002   1.020  1.00  0.00     0.053 C 
ATOM      4  C   UNL     1     -13.067  15.284   0.375  1.00  0.00     0.016 C 
BRANCH   3   5
ATOM      5  C   UNL     1     -14.789  13.429   0.201  1.00  0.00     0.015 C 
BRANCH   5   6
ATOM      6  C   UNL     1     -14.922  11.902   0.364  1.00  0.00     0.028 C 
BRANCH   6   7
ATOM      7  C   UNL     1     -13.567  11.260   0.523  1.00  0.00    -0.028 C 
ATOM      8  C   UNL     1     -13.184  10.523   1.592  1.00  0.00    -0.070 CG0
ATOM      9  C   UNL     1     -11.821   9.879   1.557  1.00  0.00     0.039 C 
ATOM     10  G   UNL     1     -14.056  10.343   2.825  1.00  0.00     0.000 G0
ENDBRANCH   6   7
ENDBRANCH   5   6
ENDBRANCH   3   5
ENDBRANCH   1   3
BRANCH   1  11
ATOM     11  C   UNL     1     -13.131  13.965   3.615  1.00  0.00     0.087 C 
BRANCH  11  12
ATOM     12  C   UNL     1     -12.948  12.450   3.940  1.00  0.00     0.066 C 
BRANCH  12  13
ATOM     13  C   UNL     1     -14.182  11.598   3.653  1.00  0.00     0.140 C 
ATOM     14  O   UNL     1     -15.259  11.888   4.152  1.00  0.00    -0.299 OA
BRANCH  13  15
ATOM     15  C   UNL     1     -14.073  10.344   2.818  1.00  0.00     0.106 CG0
ATOM     16  G   UNL     1     -13.172  10.530   1.608  1.00  0.00     0.000 G0
ENDBRANCH  13  15
ENDBRANCH  12  13
BRANCH  12  17
ATOM     17  C   UNL     1     -12.318  12.187   5.345  1.00  0.00    -0.006 C 
ATOM     18  C   UNL     1     -12.804  13.136   6.452  1.00  0.00     0.008 C 
ATOM     19  C   UNL     1     -12.505  10.725   5.783  1.00  0.00     0.008 C 
ENDBRANCH  12  17
ENDBRANCH  11  12
ENDBRANCH   1  11
TORSDOF 1
ENDMDL
MODEL 5
REMARK VINA RESULT:    -3.783      1.876      3.866
REMARK INTER + INTRA:          -4.806
REMARK INTER:                  -5.043
REMARK INTRA:                   0.237
REMARK UNBOUND:                 0.967
REMARK SMILES CC1=CCC[C@@H](C)C(=O)C[C@@H](C(C)C)C(=O)C1
REMARK SMILES IDX 8 1 9 2 6 3 7 4 5 5 4 6 3 7 2 8 1 9 10 11 11 12 15 13 16 14
REMARK SMILES IDX 17 15 12 17 13 18 14 19
REMARK H PARENT
REMARK Flexibility Score: 70.00
ROOT
ATOM      1  C   UNL     1     -13.622  14.929   0.796  1.00  0.00     0.136 C 
ATOM      2  O   UNL     1     -13.116  15.829   0.143  1.00  0.00    -0.299 OA
ENDROOT
BRANCH   1   3
ATOM      3  C   UNL     1     -14.917  15.186   1.548  1.00  0.00     0.053 C 
ATOM      4  C   UNL     1     -15.566  16.492   1.072  1.00  0.00     0.016 C 
BRANCH   3   5
ATOM      5  C   UNL     1     -14.651  15.224   3.069  1.00  0.00     0.015 C 
BRANCH   5   6
ATOM      6  C   UNL     1     -15.119  13.935   3.774  1.00  0.00     0.028 C 
BRANCH   6   7
ATOM      7  C   UNL     1     -14.005  13.342   4.599  1.00  0.00    -0.028 C 
ATOM      8  C   UNL     1     -13.472  12.112   4.406  1.00  0.00    -0.070 CG0
ATOM      9  C   UNL     1     -12.304  11.703   5.267  1.00  0.00     0.039 C 
ATOM     10  G   UNL     1     -14.017  11.129   3.381  1.00  0.00     0.000 G0
ENDBRANCH   6   7
ENDBRANCH   5   6
ENDBRANCH   3   5
ENDBRANCH   1   3
BRANCH   1  11
ATOM     11  C   UNL     1     -12.948  13.576   0.845  1.00  0.00     0.087 C 
BRANCH  11  12
ATOM     12  C   UNL     1     -13.906  12.362   1.056  1.00  0.00     0.066 C 
BRANCH  12  13
ATOM     13  C   UNL     1     -13.370  11.307   2.021  1.00  0.00     0.140 C 
ATOM     14  O   UNL     1     -12.472  10.555   1.673  1.00  0.00    -0.299 OA
BRANCH  13  15
ATOM     15  C   UNL     1     -13.996  11.123   3.384  1.00  0.00     0.106 CG0
ATOM     16  G   UNL     1     -13.468  12.120   4.403  1.00  0.00     0.000 G0
ENDBRANCH  13  15
ENDBRANCH  12  13
BRANCH  12  17
ATOM     17  C   UNL     1     -14.460  11.768  -0.278  1.00  0.00    -0.006 C 
ATOM     18  C   UNL     1     -15.137  10.395  -0.135  1.00  0.00     0.008 C 
ATOM     19  C   UNL     1     -15.404  12.753  -0.986  1.00  0.00     0.008 C 
ENDBRANCH  12  17
ENDBRANCH  11  12
ENDBRANCH   1  11
TORSDOF 1
ENDMDL
MODEL 6
REMARK VINA RESULT:    -3.759      2.193      3.393
REMARK INTER + INTRA:          -4.770
REMARK INTER:                  -6.314
REMARK INTRA:                   1.544
REMARK UNBOUND:                 0.967
REMARK SMILES CC1=CCC[C@@H](C)C(=O)C[C@@H](C(C)C)C(=O)C1
REMARK SMILES IDX 8 1 9 2 6 3 7 4 5 5 4 6 3 7 2 8 1 9 10 11 11 12 15 13 16 14
REMARK SMILES IDX 17 15 12 17 13 18 14 19
REMARK H PARENT
REMARK Flexibility Score: 70.00
ROOT
ATOM      1  C   UNL     1     -13.966  13.633   3.538  1.00  0.00     0.136 C 
ATOM      2  O   UNL     1     -12.763  13.806   3.658  1.00  0.00    -0.299 OA
ENDROOT
BRANCH   1   3
ATOM      3  C   UNL     1     -14.549  12.248   3.758  1.00  0.00     0.053 C 
ATOM      4  C   UNL     1     -14.728  11.970   5.256  1.00  0.00     0.016 C 
BRANCH   3   5
ATOM      5  C   UNL     1     -13.647  11.179   3.103  1.00  0.00     0.015 C 
BRANCH   5   6
ATOM      6  C   UNL     1     -13.139  11.618   1.714  1.00  0.00     0.028 C 
BRANCH   6   7
ATOM      7  C   UNL     1     -14.288  11.780   0.751  1.00  0.00    -0.028 C 
ATOM      8  C   UNL     1     -14.421  12.804  -0.125  1.00  0.00    -0.070 CG0
ATOM      9  C   UNL     1     -15.588  12.772  -1.080  1.00  0.00     0.039 C 
ATOM     10  G   UNL     1     -13.463  13.984  -0.166  1.00  0.00     0.000 G0
ENDBRANCH   6   7
ENDBRANCH   5   6
ENDBRANCH   3   5
ENDBRANCH   1   3
BRANCH   1  11
ATOM     11  C   UNL     1     -14.852  14.802   3.169  1.00  0.00     0.087 C 
BRANCH  11  12
ATOM     12  C   UNL     1     -15.131  14.970   1.643  1.00  0.00     0.066 C 
BRANCH  12  13
ATOM     13  C   UNL     1     -13.871  15.098   0.790  1.00  0.00     0.140 C 
ATOM     14  O   UNL     1     -13.205  16.122   0.828  1.00  0.00    -0.299 OA
BRANCH  13  15
ATOM     15  C   UNL     1     -13.478  14.001  -0.170  1.00  0.00     0.106 CG0
ATOM     16  G   UNL     1     -14.427  12.814  -0.113  1.00  0.00     0.000 G0
ENDBRANCH  13  15
ENDBRANCH  12  13
BRANCH  12  17
ATOM     17  C   UNL     1     -16.216  16.047   1.324  1.00  0.00    -0.006 C 
ATOM     18  C   UNL     1     -15.661  17.375   0.783  1.00  0.00     0.008 C 
ATOM     19  C   UNL     1     -17.294  15.499   0.374  1.00  0.00     0.008 C 
ENDBRANCH  12  17
ENDBRANCH  11  12
ENDBRANCH   1  11
TORSDOF 1
ENDMDL
MODEL 7
REMARK VINA RESULT:    -2.995      1.552      3.571
REMARK INTER + INTRA:          -3.604
REMARK INTER:                  -4.789
REMARK INTRA:                   1.185
REMARK UNBOUND:                 0.967
REMARK SMILES CC1=CCC[C@@H](C)C(=O)C[C@@H](C(C)C)C(=O)C1
REMARK SMILES IDX 8 1 9 2 6 3 7 4 5 5 4 6 3 7 2 8 1 9 10 11 11 12 15 13 16 14
REMARK SMILES IDX 17 15 12 17 13 18 14 19
REMARK H PARENT
REMARK Flexibility Score: 70.00
ROOT
ATOM      1  C   UNL     1     -13.880  11.285   0.978  1.00  0.00     0.136 C 
ATOM      2  O   UNL     1     -14.117  10.586   0.004  1.00  0.00    -0.299 OA
ENDROOT
BRANCH   1   3
ATOM      3  C   UNL     1     -12.788  10.871   1.950  1.00  0.00     0.053 C 
ATOM      4  C   UNL     1     -11.810   9.899   1.278  1.00  0.00     0.016 C 
BRANCH   3   5
ATOM      5  C   UNL     1     -13.412  10.241   3.214  1.00  0.00     0.015 C 
BRANCH   5   6
ATOM      6  C   UNL     1     -12.461  10.306   4.427  1.00  0.00     0.028 C 
BRANCH   6   7
ATOM      7  C   UNL     1     -13.017  11.214   5.495  1.00  0.00    -0.028 C 
ATOM      8  C   UNL     1     -13.182  12.551   5.361  1.00  0.00    -0.070 CG0
ATOM      9  C   UNL     1     -13.832  13.302   6.496  1.00  0.00     0.039 C 
ATOM     10  G   UNL     1     -12.720  13.321   4.133  1.00  0.00     0.000 G0
ENDBRANCH   6   7
ENDBRANCH   5   6
ENDBRANCH   3   5
ENDBRANCH   1   3
BRANCH   1  11
ATOM     11  C   UNL     1     -14.682  12.549   1.198  1.00  0.00     0.087 C 
BRANCH  11  12
ATOM     12  C   UNL     1     -13.876  13.757   1.770  1.00  0.00     0.066 C 
BRANCH  12  13
ATOM     13  C   UNL     1     -13.910  13.862   3.292  1.00  0.00     0.140 C 
ATOM     14  O   UNL     1     -14.847  14.412   3.851  1.00  0.00    -0.299 OA
BRANCH  13  15
ATOM     15  C   UNL     1     -12.749  13.365   4.123  1.00  0.00     0.106 CG0
ATOM     16  G   UNL     1     -13.204  12.580   5.343  1.00  0.00     0.000 G0
ENDBRANCH  13  15
ENDBRANCH  12  13
BRANCH  12  17
ATOM     17  C   UNL     1     -14.178  15.105   1.042  1.00  0.00    -0.006 C 
ATOM     18  C   UNL     1     -15.598  15.650   1.263  1.00  0.00     0.008 C 
ATOM     19  C   UNL     1     -13.138  16.181   1.393  1.00  0.00     0.008 C 
ENDBRANCH  12  17
ENDBRANCH  11  12
ENDBRANCH   1  11
TORSDOF 1
ENDMDL
MODEL 8
REMARK VINA RESULT:    -2.781      1.761      4.253
REMARK INTER + INTRA:          -3.277
REMARK INTER:                  -5.210
REMARK INTRA:                   1.934
REMARK UNBOUND:                 0.967
REMARK SMILES CC1=CCC[C@@H](C)C(=O)C[C@@H](C(C)C)C(=O)C1
REMARK SMILES IDX 8 1 9 2 6 3 7 4 5 5 4 6 3 7 2 8 1 9 10 11 11 12 15 13 16 14
REMARK SMILES IDX 17 15 12 17 13 18 14 19
REMARK H PARENT
REMARK Flexibility Score: 70.00
ROOT
ATOM      1  C   UNL     1     -14.753  14.797   2.597  1.00  0.00     0.136 C 
ATOM      2  O   UNL     1     -15.900  15.077   2.281  1.00  0.00    -0.299 OA
ENDROOT
BRANCH   1   3
ATOM      3  C   UNL     1     -13.595  15.393   1.814  1.00  0.00     0.053 C 
ATOM      4  C   UNL     1     -14.035  16.672   1.090  1.00  0.00     0.016 C 
BRANCH   3   5
ATOM      5  C   UNL     1     -13.039  14.356   0.814  1.00  0.00     0.015 C 
BRANCH   5   6
ATOM      6  C   UNL     1     -13.897  14.262  -0.464  1.00  0.00     0.028 C 
BRANCH   6   7
ATOM      7  C   UNL     1     -14.703  12.987  -0.476  1.00  0.00    -0.028 C 
ATOM      8  C   UNL     1     -14.432  11.897   0.281  1.00  0.00    -0.070 CG0
ATOM      9  C   UNL     1     -15.388  10.733   0.213  1.00  0.00     0.039 C 
ATOM     10  G   UNL     1     -13.201  11.794   1.168  1.00  0.00     0.000 G0
ENDBRANCH   6   7
ENDBRANCH   5   6
ENDBRANCH   3   5
ENDBRANCH   1   3
BRANCH   1  11
ATOM     11  C   UNL     1     -14.509  13.861   3.760  1.00  0.00     0.087 C 
BRANCH  11  12
ATOM     12  C   UNL     1     -13.311  12.877   3.581  1.00  0.00     0.066 C 
BRANCH  12  13
ATOM     13  C   UNL     1     -13.603  11.703   2.650  1.00  0.00     0.140 C 
ATOM     14  O   UNL     1     -14.085  10.671   3.094  1.00  0.00    -0.299 OA
BRANCH  13  15
ATOM     15  C   UNL     1     -13.225  11.768   1.189  1.00  0.00     0.106 CG0
ATOM     16  G   UNL     1     -14.439  11.883   0.281  1.00  0.00     0.000 G0
ENDBRANCH  13  15
ENDBRANCH  12  13
BRANCH  12  17
ATOM     17  C   UNL     1     -12.645  12.457   4.930  1.00  0.00    -0.006 C 
ATOM     18  C   UNL     1     -11.833  13.566   5.617  1.00  0.00     0.008 C 
ATOM     19  C   UNL     1     -13.676  11.871   5.910  1.00  0.00     0.008 C 
ENDBRANCH  12  17
ENDBRANCH  11  12
ENDBRANCH   1  11
TORSDOF 1
ENDMDL
MODEL 9
REMARK VINA RESULT:    -2.727      1.553      4.012
REMARK INTER + INTRA:          -3.195
REMARK INTER:                  -2.901
REMARK INTRA:                  -0.294
REMARK UNBOUND:                 0.967
REMARK SMILES CC1=CCC[C@@H](C)C(=O)C[C@@H](C(C)C)C(=O)C1
REMARK SMILES IDX 8 1 9 2 6 3 7 4 5 5 4 6 3 7 2 8 1 9 10 11 11 12 15 13 16 14
REMARK SMILES IDX 17 15 12 17 13 18 14 19
REMARK H PARENT
REMARK Flexibility Score: 70.00
ROOT
ATOM      1  C   UNL     1     -14.675  12.200   4.409  1.00  0.00     0.136 C 
ATOM      2  O   UNL     1     -15.456  12.089   5.343  1.00  0.00    -0.299 OA
ENDROOT
BRANCH   1   3
ATOM      3  C   UNL     1     -13.647  13.318   4.421  1.00  0.00     0.053 C 
ATOM      4  C   UNL     1     -13.119  13.550   5.843  1.00  0.00     0.016 C 
BRANCH   3   5
ATOM      5  C   UNL     1     -14.261  14.612   3.844  1.00  0.00     0.015 C 
BRANCH   5   6
ATOM      6  C   UNL     1     -13.626  15.006   2.495  1.00  0.00     0.028 C 
BRANCH   6   7
ATOM      7  C   UNL     1     -14.637  14.911   1.379  1.00  0.00    -0.028 C 
ATOM      8  C   UNL     1     -14.631  13.962   0.413  1.00  0.00    -0.070 CG0
ATOM      9  C   UNL     1     -15.765  13.958  -0.582  1.00  0.00     0.039 C 
ATOM     10  G   UNL     1     -13.524  12.929   0.278  1.00  0.00     0.000 G0
ENDBRANCH   6   7
ENDBRANCH   5   6
ENDBRANCH   3   5
ENDBRANCH   1   3
BRANCH   1  11
ATOM     11  C   UNL     1     -14.750  11.222   3.257  1.00  0.00     0.087 C 
BRANCH  11  12
ATOM     12  C   UNL     1     -13.529  11.245   2.285  1.00  0.00     0.066 C 
BRANCH  12  13
ATOM     13  C   UNL     1     -13.888  11.597   0.844  1.00  0.00     0.140 C 
ATOM     14  O   UNL     1     -14.425  10.768   0.124  1.00  0.00    -0.299 OA
BRANCH  13  15
ATOM     15  C   UNL     1     -13.511  12.940   0.264  1.00  0.00     0.106 CG0
ATOM     16  G   UNL     1     -14.623  13.967   0.411  1.00  0.00     0.000 G0
ENDBRANCH  13  15
ENDBRANCH  12  13
BRANCH  12  17
ATOM     17  C   UNL     1     -12.609   9.989   2.413  1.00  0.00    -0.006 C 
ATOM     18  C   UNL     1     -11.503   9.894   1.351  1.00  0.00     0.008 C 
ATOM     19  C   UNL     1     -12.001   9.876   3.821  1.00  0.00     0.008 C 
ENDBRANCH  12  17
ENDBRANCH  11  12
ENDBRANCH   1  11
TORSDOF 1
ENDMDL
