MODEL 1
REMARK VINA RESULT:    42.419      0.000      0.000
REMARK INTER + INTRA:          51.279
REMARK INTER:                  51.098
REMARK INTRA:                   0.181
REMARK UNBOUND:                 0.181
REMARK SMILES O=c1c(O)c(-c2ccc(O)c(O)c2)oc2cc(O)cc(O)c12
REMARK SMILES IDX 5 1 3 2 2 3 1 4 22 5 20 6 19 7 17 8 16 9 15 10 14 11 6 12
REMARK SMILES IDX 7 13 8 14 9 15 13 16 11 17 10 18 12 20 4 22 21 24 18 26
REMARK H PARENT 10 19 12 21 4 23 21 25 18 27
REMARK Flexibility Score: inf
ROOT
ATOM      1  C   UNL     1      10.625   9.100  16.215  1.00  0.00     0.180 A 
ATOM      2  C   UNL     1      10.516   7.700  16.165  1.00  0.00     0.208 A 
ATOM      3  C   UNL     1       9.329   7.127  15.682  1.00  0.00     0.238 A 
ATOM      4  O   UNL     1       9.265   5.875  15.571  1.00  0.00    -0.285 OA
ATOM      5  C   UNL     1       8.246   7.959  15.307  1.00  0.00     0.111 A 
ATOM      6  C   UNL     1       6.980   7.485  14.845  1.00  0.00     0.134 A 
ATOM      7  C   UNL     1       6.020   8.404  14.402  1.00  0.00     0.093 A 
ATOM      8  C   UNL     1       6.254   9.779  14.462  1.00  0.00     0.123 A 
ATOM      9  C   UNL     1       7.465  10.252  14.963  1.00  0.00     0.094 A 
ATOM     10  C   UNL     1       8.458   9.361  15.377  1.00  0.00     0.146 A 
ATOM     11  O   UNL     1       9.605   9.855  15.826  1.00  0.00    -0.452 OA
ENDROOT
BRANCH   1  12
ATOM     12  C   UNL     1      11.849   9.778  16.700  1.00  0.00     0.025 A 
ATOM     13  C   UNL     1      11.780  10.898  17.547  1.00  0.00     0.016 A 
ATOM     14  C   UNL     1      12.950  11.505  18.012  1.00  0.00     0.051 A 
ATOM     15  C   UNL     1      14.204  10.995  17.649  1.00  0.00     0.157 A 
ATOM     16  C   UNL     1      13.108   9.258  16.357  1.00  0.00     0.062 A 
ATOM     17  C   UNL     1      14.282   9.864  16.820  1.00  0.00     0.158 A 
BRANCH  15  18
ATOM     18  O   UNL     1      15.368  11.605  18.113  1.00  0.00    -0.504 OA
ATOM     19  H   UNL     1      16.234  11.089  18.217  1.00  0.00     0.293 HD
ENDBRANCH  15  18
BRANCH  17  20
ATOM     20  O   UNL     1      15.514   9.327  16.447  1.00  0.00    -0.504 OA
ATOM     21  H   UNL     1      16.391   9.740  16.741  1.00  0.00     0.293 HD
ENDBRANCH  17  20
ENDBRANCH   1  12
BRANCH   2  22
ATOM     22  O   UNL     1      11.567   6.895  16.612  1.00  0.00    -0.502 OA
ATOM     23  H   UNL     1      12.339   7.261  17.156  1.00  0.00     0.293 HD
ENDBRANCH   2  22
BRANCH   6  24
ATOM     24  O   UNL     1       6.606   6.138  14.826  1.00  0.00    -0.507 OA
ATOM     25  H   UNL     1       6.994   5.439  14.211  1.00  0.00     0.293 HD
ENDBRANCH   6  24
BRANCH   8  26
ATOM     26  O   UNL     1       5.286  10.685  14.035  1.00  0.00    -0.508 OA
ATOM     27  H   UNL     1       5.279  11.644  14.359  1.00  0.00     0.293 HD
ENDBRANCH   8  26
TORSDOF 6
ENDMDL
MODEL 2
REMARK VINA RESULT:    42.611      0.693      1.441
REMARK INTER + INTRA:          51.511
REMARK INTER:                  51.086
REMARK INTRA:                   0.425
REMARK UNBOUND:                 0.181
REMARK SMILES O=c1c(O)c(-c2ccc(O)c(O)c2)oc2cc(O)cc(O)c12
REMARK SMILES IDX 5 1 3 2 2 3 1 4 22 5 20 6 19 7 17 8 16 9 15 10 14 11 6 12
REMARK SMILES IDX 7 13 8 14 9 15 13 16 11 17 10 18 12 20 4 22 21 24 18 26
REMARK H PARENT 10 19 12 21 4 23 21 25 18 27
REMARK Flexibility Score: inf
ROOT
ATOM      1  C   UNL     1      10.492   9.037  16.273  1.00  0.00     0.180 A 
ATOM      2  C   UNL     1      10.359   7.644  16.147  1.00  0.00     0.208 A 
ATOM      3  C   UNL     1       9.168   7.117  15.622  1.00  0.00     0.238 A 
ATOM      4  O   UNL     1       9.085   5.875  15.443  1.00  0.00    -0.285 OA
ATOM      5  C   UNL     1       8.104   7.987  15.281  1.00  0.00     0.111 A 
ATOM      6  C   UNL     1       6.835   7.561  14.781  1.00  0.00     0.134 A 
ATOM      7  C   UNL     1       5.896   8.518  14.378  1.00  0.00     0.093 A 
ATOM      8  C   UNL     1       6.152   9.884  14.515  1.00  0.00     0.123 A 
ATOM      9  C   UNL     1       7.365  10.308  15.052  1.00  0.00     0.094 A 
ATOM     10  C   UNL     1       8.338   9.379  15.428  1.00  0.00     0.146 A 
ATOM     11  O   UNL     1       9.488   9.829  15.914  1.00  0.00    -0.452 OA
ENDROOT
BRANCH   1  12
ATOM     12  C   UNL     1      11.721   9.667  16.806  1.00  0.00     0.025 A 
ATOM     13  C   UNL     1      12.907   8.931  16.974  1.00  0.00     0.016 A 
ATOM     14  C   UNL     1      14.063   9.553  17.455  1.00  0.00     0.051 A 
ATOM     15  C   UNL     1      14.055  10.921  17.760  1.00  0.00     0.157 A 
ATOM     16  C   UNL     1      11.725  11.042  17.092  1.00  0.00     0.062 A 
ATOM     17  C   UNL     1      12.880  11.668  17.574  1.00  0.00     0.158 A 
BRANCH  15  18
ATOM     18  O   UNL     1      15.209  11.537  18.241  1.00  0.00    -0.504 OA
ATOM     19  H   UNL     1      16.042  11.006  18.463  1.00  0.00     0.293 HD
ENDBRANCH  15  18
BRANCH  17  20
ATOM     20  O   UNL     1      12.841  13.032  17.861  1.00  0.00    -0.504 OA
ATOM     21  H   UNL     1      12.617  13.724  17.155  1.00  0.00     0.293 HD
ENDBRANCH  17  20
ENDBRANCH   1  12
BRANCH   2  22
ATOM     22  O   UNL     1      11.392   6.798  16.561  1.00  0.00    -0.502 OA
ATOM     23  H   UNL     1      12.367   6.995  16.369  1.00  0.00     0.293 HD
ENDBRANCH   2  22
BRANCH   6  24
ATOM     24  O   UNL     1       6.440   6.223  14.687  1.00  0.00    -0.507 OA
ATOM     25  H   UNL     1       5.518   5.910  14.424  1.00  0.00     0.293 HD
ENDBRANCH   6  24
BRANCH   8  26
ATOM     26  O   UNL     1       5.205  10.828  14.126  1.00  0.00    -0.508 OA
ATOM     27  H   UNL     1       5.425  11.554  13.455  1.00  0.00     0.293 HD
ENDBRANCH   8  26
TORSDOF 6
ENDMDL
