MODEL 1
REMARK VINA RESULT:    12.394      0.000      0.000
REMARK INTER + INTRA:          17.795
REMARK INTER:                  17.827
REMARK INTRA:                  -0.032
REMARK UNBOUND:                -0.032
REMARK SMILES CC(C)=CCCC(C)=CCCC(C)=CCO
REMARK SMILES IDX 10 1 9 2 7 3 8 4 6 5 5 6 4 7 1 8 2 9 3 10 11 11 12 12 14 13
REMARK SMILES IDX 13 14 15 15 16 16
REMARK H PARENT 16 17
REMARK Flexibility Score: inf
ROOT
ATOM      1  C   UNL     1      20.021  18.139  50.511  1.00  0.00     0.032 C 
ENDROOT
BRANCH   1   2
ATOM      2  C   UNL     1      18.519  18.046  50.596  1.00  0.00    -0.028 C 
ATOM      3  C   UNL     1      17.665  18.947  50.056  1.00  0.00    -0.077 C 
ATOM      4  C   UNL     1      18.156  20.131  49.255  1.00  0.00     0.039 C 
BRANCH   3   5
ATOM      5  C   UNL     1      16.177  18.756  50.252  1.00  0.00     0.034 C 
BRANCH   5   6
ATOM      6  C   UNL     1      15.876  17.372  50.836  1.00  0.00     0.032 C 
BRANCH   6   7
ATOM      7  C   UNL     1      16.112  17.344  52.327  1.00  0.00    -0.028 C 
ATOM      8  C   UNL     1      16.613  16.296  54.495  1.00  0.00     0.039 C 
ATOM      9  C   UNL     1      16.394  16.212  53.007  1.00  0.00    -0.080 C 
ATOM     10  C   UNL     1      16.495  14.876  52.310  1.00  0.00     0.039 C 
ENDBRANCH   6   7
ENDBRANCH   5   6
ENDBRANCH   3   5
ENDBRANCH   1   2
BRANCH   1  11
ATOM     11  C   UNL     1      20.631  16.773  50.181  1.00  0.00     0.034 C 
BRANCH  11  12
ATOM     12  C   UNL     1      21.415  16.237  51.363  1.00  0.00    -0.075 C 
ATOM     13  C   UNL     1      22.424  16.924  51.947  1.00  0.00    -0.000 C 
ATOM     14  C   UNL     1      21.008  14.916  51.959  1.00  0.00     0.039 C 
BRANCH  13  15
ATOM     15  C   UNL     1      22.929  18.263  51.474  1.00  0.00     0.183 C 
BRANCH  15  16
ATOM     16  O   UNL     1      23.701  18.114  50.313  1.00  0.00    -0.392 OA
ATOM     17  H   UNL     1      24.205  17.263  50.413  1.00  0.00     0.210 HD
ENDBRANCH  15  16
ENDBRANCH  13  15
ENDBRANCH  11  12
ENDBRANCH   1  11
TORSDOF 8
ENDMDL
MODEL 2
REMARK VINA RESULT:    13.347      1.267      1.880
REMARK INTER + INTRA:          19.167
REMARK INTER:                  19.075
REMARK INTRA:                   0.091
REMARK UNBOUND:                -0.032
REMARK SMILES CC(C)=CCCC(C)=CCCC(C)=CCO
REMARK SMILES IDX 10 1 9 2 7 3 8 4 6 5 5 6 4 7 1 8 2 9 3 10 11 11 12 12 14 13
REMARK SMILES IDX 13 14 15 15 16 16
REMARK H PARENT 16 17
REMARK Flexibility Score: inf
ROOT
ATOM      1  C   UNL     1      20.239  18.634  49.784  1.00  0.00     0.032 C 
ENDROOT
BRANCH   1   2
ATOM      2  C   UNL     1      18.827  18.374  50.245  1.00  0.00    -0.028 C 
ATOM      3  C   UNL     1      17.795  19.232  50.073  1.00  0.00    -0.077 C 
ATOM      4  C   UNL     1      17.961  20.542  49.337  1.00  0.00     0.039 C 
BRANCH   3   5
ATOM      5  C   UNL     1      16.435  18.864  50.624  1.00  0.00     0.034 C 
BRANCH   5   6
ATOM      6  C   UNL     1      16.292  17.344  50.757  1.00  0.00     0.032 C 
BRANCH   6   7
ATOM      7  C   UNL     1      15.875  16.953  52.154  1.00  0.00    -0.028 C 
ATOM      8  C   UNL     1      15.892  15.578  54.194  1.00  0.00     0.039 C 
ATOM      9  C   UNL     1      16.378  15.879  52.800  1.00  0.00    -0.080 C 
ATOM     10  C   UNL     1      17.410  14.982  52.157  1.00  0.00     0.039 C 
ENDBRANCH   6   7
ENDBRANCH   5   6
ENDBRANCH   3   5
ENDBRANCH   1   2
BRANCH   1  11
ATOM     11  C   UNL     1      21.105  17.382  49.953  1.00  0.00     0.034 C 
BRANCH  11  12
ATOM     12  C   UNL     1      22.014  17.519  51.159  1.00  0.00    -0.075 C 
ATOM     13  C   UNL     1      22.129  16.558  52.104  1.00  0.00    -0.000 C 
ATOM     14  C   UNL     1      22.879  18.746  51.273  1.00  0.00     0.039 C 
BRANCH  13  15
ATOM     15  C   UNL     1      21.343  15.272  52.112  1.00  0.00     0.183 C 
BRANCH  15  16
ATOM     16  O   UNL     1      20.598  15.144  50.932  1.00  0.00    -0.392 OA
ATOM     17  H   UNL     1      21.138  14.584  50.314  1.00  0.00     0.210 HD
ENDBRANCH  15  16
ENDBRANCH  13  15
ENDBRANCH  11  12
ENDBRANCH   1  11
TORSDOF 8
ENDMDL
MODEL 3
REMARK VINA RESULT:    14.976     14.216     15.706
REMARK INTER + INTRA:          21.511
REMARK INTER:                  22.087
REMARK INTRA:                  -0.576
REMARK UNBOUND:                -0.032
REMARK SMILES CC(C)=CCCC(C)=CCCC(C)=CCO
REMARK SMILES IDX 10 1 9 2 7 3 8 4 6 5 5 6 4 7 1 8 2 9 3 10 11 11 12 12 14 13
REMARK SMILES IDX 13 14 15 15 16 16
REMARK H PARENT 16 17
REMARK Flexibility Score: inf
ROOT
ATOM      1  C   UNL     1      30.174  23.608  42.411  1.00  0.00     0.032 C 
ENDROOT
BRANCH   1   2
ATOM      2  C   UNL     1      28.790  23.969  41.936  1.00  0.00    -0.028 C 
ATOM      3  C   UNL     1      28.521  24.934  41.026  1.00  0.00    -0.077 C 
ATOM      4  C   UNL     1      29.619  25.721  40.349  1.00  0.00     0.039 C 
BRANCH   3   5
ATOM      5  C   UNL     1      27.079  25.224  40.669  1.00  0.00     0.034 C 
BRANCH   5   6
ATOM      6  C   UNL     1      26.126  24.601  41.696  1.00  0.00     0.032 C 
BRANCH   6   7
ATOM      7  C   UNL     1      24.683  24.846  41.323  1.00  0.00    -0.028 C 
ATOM      8  C   UNL     1      22.600  26.143  41.169  1.00  0.00     0.039 C 
ATOM      9  C   UNL     1      24.041  26.004  41.584  1.00  0.00    -0.080 C 
ATOM     10  C   UNL     1      24.736  27.153  42.277  1.00  0.00     0.039 C 
ENDBRANCH   6   7
ENDBRANCH   5   6
ENDBRANCH   3   5
ENDBRANCH   1   2
BRANCH   1  11
ATOM     11  C   UNL     1      30.567  24.449  43.630  1.00  0.00     0.034 C 
BRANCH  11  12
ATOM     12  C   UNL     1      32.066  24.399  43.854  1.00  0.00    -0.075 C 
ATOM     13  C   UNL     1      32.820  25.508  44.028  1.00  0.00    -0.000 C 
ATOM     14  C   UNL     1      32.734  23.053  43.959  1.00  0.00     0.039 C 
BRANCH  13  15
ATOM     15  C   UNL     1      32.289  26.917  43.967  1.00  0.00     0.183 C 
BRANCH  15  16
ATOM     16  O   UNL     1      32.812  27.592  42.855  1.00  0.00    -0.392 OA
ATOM     17  H   UNL     1      33.147  28.466  43.185  1.00  0.00     0.210 HD
ENDBRANCH  15  16
ENDBRANCH  13  15
ENDBRANCH  11  12
ENDBRANCH   1  11
TORSDOF 8
ENDMDL
MODEL 4
REMARK VINA RESULT:    15.140     13.832     15.600
REMARK INTER + INTRA:          21.747
REMARK INTER:                  22.381
REMARK INTRA:                  -0.635
REMARK UNBOUND:                -0.032
REMARK SMILES CC(C)=CCCC(C)=CCCC(C)=CCO
REMARK SMILES IDX 10 1 9 2 7 3 8 4 6 5 5 6 4 7 1 8 2 9 3 10 11 11 12 12 14 13
REMARK SMILES IDX 13 14 15 15 16 16
REMARK H PARENT 16 17
REMARK Flexibility Score: inf
ROOT
ATOM      1  C   UNL     1      30.750  24.229  42.610  1.00  0.00     0.032 C 
ENDROOT
BRANCH   1   2
ATOM      2  C   UNL     1      29.307  23.869  42.852  1.00  0.00    -0.028 C 
ATOM      3  C   UNL     1      28.279  24.251  42.059  1.00  0.00    -0.077 C 
ATOM      4  C   UNL     1      28.500  25.052  40.798  1.00  0.00     0.039 C 
BRANCH   3   5
ATOM      5  C   UNL     1      26.869  23.854  42.442  1.00  0.00     0.034 C 
BRANCH   5   6
ATOM      6  C   UNL     1      25.942  23.883  41.222  1.00  0.00     0.032 C 
BRANCH   6   7
ATOM      7  C   UNL     1      24.651  24.601  41.532  1.00  0.00    -0.028 C 
ATOM      8  C   UNL     1      23.103  26.511  41.563  1.00  0.00     0.039 C 
ATOM      9  C   UNL     1      24.429  25.891  41.206  1.00  0.00    -0.080 C 
ATOM     10  C   UNL     1      25.475  26.719  40.496  1.00  0.00     0.039 C 
ENDBRANCH   6   7
ENDBRANCH   5   6
ENDBRANCH   3   5
ENDBRANCH   1   2
BRANCH   1  11
ATOM     11  C   UNL     1      31.620  23.814  43.801  1.00  0.00     0.034 C 
BRANCH  11  12
ATOM     12  C   UNL     1      32.663  24.875  44.097  1.00  0.00    -0.075 C 
ATOM     13  C   UNL     1      33.842  24.597  44.698  1.00  0.00    -0.000 C 
ATOM     14  C   UNL     1      32.406  26.286  43.637  1.00  0.00     0.039 C 
BRANCH  13  15
ATOM     15  C   UNL     1      34.245  23.233  45.195  1.00  0.00     0.183 C 
BRANCH  15  16
ATOM     16  O   UNL     1      35.408  23.317  45.973  1.00  0.00    -0.392 OA
ATOM     17  H   UNL     1      35.817  22.412  45.972  1.00  0.00     0.210 HD
ENDBRANCH  15  16
ENDBRANCH  13  15
ENDBRANCH  11  12
ENDBRANCH   1  11
TORSDOF 8
ENDMDL
