MODEL 1
REMARK VINA RESULT:    -4.456      0.000      0.000
REMARK INTER + INTRA:          -8.216
REMARK INTER:                  -7.061
REMARK INTRA:                  -1.154
REMARK UNBOUND:                -1.154
REMARK SMILES CCCCCCCCCCCC(=O)[O-]
REMARK SMILES IDX 7 1 8 2 9 3 10 4 11 5 12 6 13 7 14 8 6 9 5 10 4 11 3 12 2 13
REMARK SMILES IDX 1 14
REMARK H PARENT
REMARK Flexibility Score: inf
ROOT
ATOM      1  C   UNL     1      -7.487  -7.736 -11.003  1.00  0.00     0.000 C 
ENDROOT
BRANCH   1   2
ATOM      2  C   UNL     1      -6.946  -7.941 -12.426  1.00  0.00     0.000 C 
BRANCH   2   3
ATOM      3  C   UNL     1      -7.721  -7.130 -13.478  1.00  0.00     0.000 C 
BRANCH   3   4
ATOM      4  C   UNL     1      -6.876  -6.000 -14.094  1.00  0.00     0.006 C 
BRANCH   4   5
ATOM      5  C   UNL     1      -7.557  -4.631 -13.962  1.00  0.00     0.053 C 
BRANCH   5   6
ATOM      6  C   UNL     1      -6.698  -3.650 -13.226  1.00  0.00     0.041 C 
ATOM      7  O   UNL     1      -7.165  -2.536 -12.873  1.00  0.00    -0.550 OA
ATOM      8  O   UNL     1      -5.370  -3.955 -12.957  1.00  0.00    -0.550 OA
ENDBRANCH   5   6
ENDBRANCH   4   5
ENDBRANCH   3   4
ENDBRANCH   2   3
ENDBRANCH   1   2
BRANCH   1   9
ATOM      9  C   UNL     1      -8.682  -6.773 -11.004  1.00  0.00     0.000 C 
BRANCH   9  10
ATOM     10  C   UNL     1      -8.327  -5.457 -10.294  1.00  0.00    -0.000 C 
BRANCH  10  11
ATOM     11  C   UNL     1      -6.829  -5.340  -9.971  1.00  0.00    -0.000 C 
BRANCH  11  12
ATOM     12  C   UNL     1      -6.432  -3.928  -9.508  1.00  0.00    -0.000 C 
BRANCH  12  13
ATOM     13  C   UNL     1      -5.426  -3.952  -8.346  1.00  0.00    -0.003 C 
ATOM     14  C   UNL     1      -4.997  -5.367  -7.961  1.00  0.00     0.004 C 
ENDBRANCH  12  13
ENDBRANCH  11  12
ENDBRANCH  10  11
ENDBRANCH   9  10
ENDBRANCH   1   9
TORSDOF 10
ENDMDL
MODEL 2
REMARK VINA RESULT:    -4.436      1.158      2.183
REMARK INTER + INTRA:          -8.183
REMARK INTER:                  -6.887
REMARK INTRA:                  -1.296
REMARK UNBOUND:                -1.154
REMARK SMILES CCCCCCCCCCCC(=O)[O-]
REMARK SMILES IDX 7 1 8 2 9 3 10 4 11 5 12 6 13 7 14 8 6 9 5 10 4 11 3 12 2 13
REMARK SMILES IDX 1 14
REMARK H PARENT
REMARK Flexibility Score: inf
ROOT
ATOM      1  C   UNL     1      -9.605  -8.004 -12.742  1.00  0.00     0.000 C 
ENDROOT
BRANCH   1   2
ATOM      2  C   UNL     1      -9.118  -6.992 -13.791  1.00  0.00     0.000 C 
BRANCH   2   3
ATOM      3  C   UNL     1      -7.640  -7.191 -14.166  1.00  0.00     0.000 C 
BRANCH   3   4
ATOM      4  C   UNL     1      -6.921  -5.864 -14.463  1.00  0.00     0.006 C 
BRANCH   4   5
ATOM      5  C   UNL     1      -7.661  -4.659 -13.867  1.00  0.00     0.053 C 
BRANCH   5   6
ATOM      6  C   UNL     1      -6.716  -3.673 -13.251  1.00  0.00     0.041 C 
ATOM      7  O   UNL     1      -5.518  -3.994 -13.033  1.00  0.00    -0.550 OA
ATOM      8  O   UNL     1      -7.166  -2.410 -12.892  1.00  0.00    -0.550 OA
ENDBRANCH   5   6
ENDBRANCH   4   5
ENDBRANCH   3   4
ENDBRANCH   2   3
ENDBRANCH   1   2
BRANCH   1   9
ATOM      9  C   UNL     1     -10.517  -7.328 -11.711  1.00  0.00     0.000 C 
BRANCH   9  10
ATOM     10  C   UNL     1      -9.718  -6.889 -10.473  1.00  0.00    -0.000 C 
BRANCH  10  11
ATOM     11  C   UNL     1      -8.322  -7.531 -10.409  1.00  0.00    -0.000 C 
BRANCH  11  12
ATOM     12  C   UNL     1      -7.190  -6.492 -10.477  1.00  0.00    -0.000 C 
BRANCH  12  13
ATOM     13  C   UNL     1      -7.693  -5.059 -10.241  1.00  0.00    -0.003 C 
ATOM     14  C   UNL     1      -6.612  -4.136  -9.676  1.00  0.00     0.004 C 
ENDBRANCH  12  13
ENDBRANCH  11  12
ENDBRANCH  10  11
ENDBRANCH   9  10
ENDBRANCH   1   9
TORSDOF 10
ENDMDL
MODEL 3
REMARK VINA RESULT:    -4.317      1.765      4.071
REMARK INTER + INTRA:          -7.995
REMARK INTER:                  -6.951
REMARK INTRA:                  -1.044
REMARK UNBOUND:                -1.154
REMARK SMILES CCCCCCCCCCCC(=O)[O-]
REMARK SMILES IDX 7 1 8 2 9 3 10 4 11 5 12 6 13 7 14 8 6 9 5 10 4 11 3 12 2 13
REMARK SMILES IDX 1 14
REMARK H PARENT
REMARK Flexibility Score: inf
ROOT
ATOM      1  C   UNL     1      -7.233  -7.964 -12.537  1.00  0.00     0.000 C 
ENDROOT
BRANCH   1   2
ATOM      2  C   UNL     1      -8.508  -7.963 -11.679  1.00  0.00     0.000 C 
BRANCH   2   3
ATOM      3  C   UNL     1      -8.279  -7.374 -10.277  1.00  0.00     0.000 C 
BRANCH   3   4
ATOM      4  C   UNL     1      -8.259  -5.836 -10.278  1.00  0.00     0.006 C 
BRANCH   4   5
ATOM      5  C   UNL     1      -6.839  -5.276 -10.439  1.00  0.00     0.053 C 
BRANCH   5   6
ATOM      6  C   UNL     1      -6.601  -4.097  -9.546  1.00  0.00     0.041 C 
ATOM      7  O   UNL     1      -5.610  -4.079  -8.770  1.00  0.00    -0.550 OA
ATOM      8  O   UNL     1      -7.491  -3.032  -9.550  1.00  0.00    -0.550 OA
ENDBRANCH   5   6
ENDBRANCH   4   5
ENDBRANCH   3   4
ENDBRANCH   2   3
ENDBRANCH   1   2
BRANCH   1   9
ATOM      9  C   UNL     1      -7.562  -7.677 -14.007  1.00  0.00     0.000 C 
BRANCH   9  10
ATOM     10  C   UNL     1      -8.677  -6.625 -14.126  1.00  0.00    -0.000 C 
BRANCH  10  11
ATOM     11  C   UNL     1      -8.151  -5.186 -14.006  1.00  0.00    -0.000 C 
BRANCH  11  12
ATOM     12  C   UNL     1      -6.643  -5.081 -14.290  1.00  0.00    -0.000 C 
BRANCH  12  13
ATOM     13  C   UNL     1      -6.005  -3.850 -13.629  1.00  0.00    -0.003 C 
ATOM     14  C   UNL     1      -7.037  -2.896 -13.028  1.00  0.00     0.004 C 
ENDBRANCH  12  13
ENDBRANCH  11  12
ENDBRANCH  10  11
ENDBRANCH   9  10
ENDBRANCH   1   9
TORSDOF 10
ENDMDL
MODEL 4
REMARK VINA RESULT:    -4.294      2.059      3.185
REMARK INTER + INTRA:          -7.958
REMARK INTER:                  -6.561
REMARK INTRA:                  -1.397
REMARK UNBOUND:                -1.154
REMARK SMILES CCCCCCCCCCCC(=O)[O-]
REMARK SMILES IDX 7 1 8 2 9 3 10 4 11 5 12 6 13 7 14 8 6 9 5 10 4 11 3 12 2 13
REMARK SMILES IDX 1 14
REMARK H PARENT
REMARK Flexibility Score: inf
ROOT
ATOM      1  C   UNL     1      -9.623  -6.622 -14.390  1.00  0.00     0.000 C 
ENDROOT
BRANCH   1   2
ATOM      2  C   UNL     1      -8.334  -7.457 -14.332  1.00  0.00     0.000 C 
BRANCH   2   3
ATOM      3  C   UNL     1      -7.064  -6.591 -14.365  1.00  0.00     0.000 C 
BRANCH   3   4
ATOM      4  C   UNL     1      -7.353  -5.106 -14.080  1.00  0.00     0.006 C 
BRANCH   4   5
ATOM      5  C   UNL     1      -6.200  -4.427 -13.328  1.00  0.00     0.053 C 
BRANCH   5   6
ATOM      6  C   UNL     1      -6.693  -3.351 -12.409  1.00  0.00     0.041 C 
ATOM      7  O   UNL     1      -7.212  -2.305 -12.878  1.00  0.00    -0.550 OA
ATOM      8  O   UNL     1      -6.550  -3.493 -11.035  1.00  0.00    -0.550 OA
ENDBRANCH   5   6
ENDBRANCH   4   5
ENDBRANCH   3   4
ENDBRANCH   2   3
ENDBRANCH   1   2
BRANCH   1   9
ATOM      9  C   UNL     1     -10.807  -7.402 -13.806  1.00  0.00     0.000 C 
BRANCH   9  10
ATOM     10  C   UNL     1     -10.462  -7.969 -12.420  1.00  0.00    -0.000 C 
BRANCH  10  11
ATOM     11  C   UNL     1     -11.020  -7.113 -11.271  1.00  0.00    -0.000 C 
BRANCH  11  12
ATOM     12  C   UNL     1      -9.956  -6.782 -10.210  1.00  0.00    -0.000 C 
BRANCH  12  13
ATOM     13  C   UNL     1      -8.708  -6.121 -10.816  1.00  0.00    -0.003 C 
ATOM     14  C   UNL     1      -7.424  -6.896 -10.522  1.00  0.00     0.004 C 
ENDBRANCH  12  13
ENDBRANCH  11  12
ENDBRANCH  10  11
ENDBRANCH   9  10
ENDBRANCH   1   9
TORSDOF 10
ENDMDL
MODEL 5
REMARK VINA RESULT:    -4.276      2.400      4.087
REMARK INTER + INTRA:          -7.930
REMARK INTER:                  -6.815
REMARK INTRA:                  -1.115
REMARK UNBOUND:                -1.154
REMARK SMILES CCCCCCCCCCCC(=O)[O-]
REMARK SMILES IDX 7 1 8 2 9 3 10 4 11 5 12 6 13 7 14 8 6 9 5 10 4 11 3 12 2 13
REMARK SMILES IDX 1 14
REMARK H PARENT
REMARK Flexibility Score: inf
ROOT
ATOM      1  C   UNL     1      -6.602  -4.132 -10.709  1.00  0.00     0.000 C 
ENDROOT
BRANCH   1   2
ATOM      2  C   UNL     1      -6.863  -3.476 -12.075  1.00  0.00     0.000 C 
BRANCH   2   3
ATOM      3  C   UNL     1      -5.939  -4.018 -13.178  1.00  0.00     0.000 C 
BRANCH   3   4
ATOM      4  C   UNL     1      -6.608  -5.115 -14.024  1.00  0.00     0.006 C 
BRANCH   4   5
ATOM      5  C   UNL     1      -8.135  -4.965 -14.062  1.00  0.00     0.053 C 
BRANCH   5   6
ATOM      6  C   UNL     1      -8.818  -6.280 -14.283  1.00  0.00     0.041 C 
ATOM      7  O   UNL     1      -8.216  -7.358 -14.036  1.00  0.00    -0.550 OA
ATOM      8  O   UNL     1     -10.110  -6.315 -14.791  1.00  0.00    -0.550 OA
ENDBRANCH   5   6
ENDBRANCH   4   5
ENDBRANCH   3   4
ENDBRANCH   2   3
ENDBRANCH   1   2
BRANCH   1   9
ATOM      9  C   UNL     1      -7.747  -5.080 -10.330  1.00  0.00     0.000 C 
BRANCH   9  10
ATOM     10  C   UNL     1      -7.386  -6.537 -10.661  1.00  0.00    -0.000 C 
BRANCH  10  11
ATOM     11  C   UNL     1      -8.531  -7.517 -10.359  1.00  0.00    -0.000 C 
BRANCH  11  12
ATOM     12  C   UNL     1      -9.917  -6.912 -10.645  1.00  0.00    -0.000 C 
BRANCH  12  13
ATOM     13  C   UNL     1     -10.784  -6.806  -9.381  1.00  0.00    -0.003 C 
ATOM     14  C   UNL     1     -10.810  -8.100  -8.568  1.00  0.00     0.004 C 
ENDBRANCH  12  13
ENDBRANCH  11  12
ENDBRANCH  10  11
ENDBRANCH   9  10
ENDBRANCH   1   9
TORSDOF 10
ENDMDL
MODEL 6
REMARK VINA RESULT:    -4.160      2.027      4.147
REMARK INTER + INTRA:          -7.746
REMARK INTER:                  -6.703
REMARK INTRA:                  -1.043
REMARK UNBOUND:                -1.154
REMARK SMILES CCCCCCCCCCCC(=O)[O-]
REMARK SMILES IDX 7 1 8 2 9 3 10 4 11 5 12 6 13 7 14 8 6 9 5 10 4 11 3 12 2 13
REMARK SMILES IDX 1 14
REMARK H PARENT
REMARK Flexibility Score: inf
ROOT
ATOM      1  C   UNL     1      -7.130  -6.090 -14.529  1.00  0.00     0.000 C 
ENDROOT
BRANCH   1   2
ATOM      2  C   UNL     1      -6.245  -5.453 -13.446  1.00  0.00     0.000 C 
BRANCH   2   3
ATOM      3  C   UNL     1      -6.285  -3.917 -13.476  1.00  0.00     0.000 C 
BRANCH   3   4
ATOM      4  C   UNL     1      -6.735  -3.311 -12.134  1.00  0.00     0.006 C 
BRANCH   4   5
ATOM      5  C   UNL     1      -6.932  -4.381 -11.053  1.00  0.00     0.053 C 
BRANCH   5   6
ATOM      6  C   UNL     1      -6.643  -3.849  -9.683  1.00  0.00     0.041 C 
ATOM      7  O   UNL     1      -5.691  -4.320  -9.007  1.00  0.00    -0.550 OA
ATOM      8  O   UNL     1      -7.444  -2.852  -9.142  1.00  0.00    -0.550 OA
ENDBRANCH   5   6
ENDBRANCH   4   5
ENDBRANCH   3   4
ENDBRANCH   2   3
ENDBRANCH   1   2
BRANCH   1   9
ATOM      9  C   UNL     1      -8.593  -6.154 -14.074  1.00  0.00     0.000 C 
BRANCH   9  10
ATOM     10  C   UNL     1      -9.091  -7.607 -14.024  1.00  0.00    -0.000 C 
BRANCH  10  11
ATOM     11  C   UNL     1      -9.533  -8.037 -12.616  1.00  0.00    -0.000 C 
BRANCH  11  12
ATOM     12  C   UNL     1      -8.472  -7.733 -11.545  1.00  0.00    -0.000 C 
BRANCH  12  13
ATOM     13  C   UNL     1      -9.072  -7.640 -10.133  1.00  0.00    -0.003 C 
ATOM     14  C   UNL     1      -9.911  -6.380  -9.925  1.00  0.00     0.004 C 
ENDBRANCH  12  13
ENDBRANCH  11  12
ENDBRANCH  10  11
ENDBRANCH   9  10
ENDBRANCH   1   9
TORSDOF 10
ENDMDL
MODEL 7
REMARK VINA RESULT:    -4.159      2.805      5.511
REMARK INTER + INTRA:          -7.744
REMARK INTER:                  -6.430
REMARK INTRA:                  -1.314
REMARK UNBOUND:                -1.154
REMARK SMILES CCCCCCCCCCCC(=O)[O-]
REMARK SMILES IDX 7 1 8 2 9 3 10 4 11 5 12 6 13 7 14 8 6 9 5 10 4 11 3 12 2 13
REMARK SMILES IDX 1 14
REMARK H PARENT
REMARK Flexibility Score: inf
ROOT
ATOM      1  C   UNL     1      -6.772  -3.309 -11.915  1.00  0.00     0.000 C 
ENDROOT
BRANCH   1   2
ATOM      2  C   UNL     1      -6.691  -4.225 -10.684  1.00  0.00     0.000 C 
BRANCH   2   3
ATOM      3  C   UNL     1      -7.894  -5.176 -10.572  1.00  0.00     0.000 C 
BRANCH   3   4
ATOM      4  C   UNL     1      -7.474  -6.633 -10.310  1.00  0.00     0.006 C 
BRANCH   4   5
ATOM      5  C   UNL     1      -8.472  -7.638 -10.901  1.00  0.00     0.053 C 
BRANCH   5   6
ATOM      6  C   UNL     1      -9.838  -7.481 -10.306  1.00  0.00     0.041 C 
ATOM      7  O   UNL     1     -10.763  -6.944 -10.971  1.00  0.00    -0.550 OA
ATOM      8  O   UNL     1     -10.081  -7.902  -9.006  1.00  0.00    -0.550 OA
ENDBRANCH   5   6
ENDBRANCH   4   5
ENDBRANCH   3   4
ENDBRANCH   2   3
ENDBRANCH   1   2
BRANCH   1   9
ATOM      9  C   UNL     1      -5.937  -3.871 -13.072  1.00  0.00     0.000 C 
BRANCH   9  10
ATOM     10  C   UNL     1      -6.811  -4.693 -14.032  1.00  0.00    -0.000 C 
BRANCH  10  11
ATOM     11  C   UNL     1      -6.603  -6.209 -13.877  1.00  0.00    -0.000 C 
BRANCH  11  12
ATOM     12  C   UNL     1      -7.758  -7.029 -14.474  1.00  0.00    -0.000 C 
BRANCH  12  13
ATOM     13  C   UNL     1      -9.111  -6.309 -14.358  1.00  0.00    -0.003 C 
ATOM     14  C   UNL     1     -10.301  -7.265 -14.447  1.00  0.00     0.004 C 
ENDBRANCH  12  13
ENDBRANCH  11  12
ENDBRANCH  10  11
ENDBRANCH   9  10
ENDBRANCH   1   9
TORSDOF 10
ENDMDL
MODEL 8
REMARK VINA RESULT:    -4.108      1.992      4.409
REMARK INTER + INTRA:          -7.665
REMARK INTER:                  -6.294
REMARK INTRA:                  -1.371
REMARK UNBOUND:                -1.154
REMARK SMILES CCCCCCCCCCCC(=O)[O-]
REMARK SMILES IDX 7 1 8 2 9 3 10 4 11 5 12 6 13 7 14 8 6 9 5 10 4 11 3 12 2 13
REMARK SMILES IDX 1 14
REMARK H PARENT
REMARK Flexibility Score: inf
ROOT
ATOM      1  C   UNL     1     -10.931  -7.398 -10.868  1.00  0.00     0.000 C 
ENDROOT
BRANCH   1   2
ATOM      2  C   UNL     1      -9.805  -7.060  -9.879  1.00  0.00     0.000 C 
BRANCH   2   3
ATOM      3  C   UNL     1      -8.466  -7.715 -10.258  1.00  0.00     0.000 C 
BRANCH   3   4
ATOM      4  C   UNL     1      -7.339  -6.686 -10.453  1.00  0.00     0.006 C 
BRANCH   4   5
ATOM      5  C   UNL     1      -7.860  -5.243 -10.418  1.00  0.00     0.053 C 
BRANCH   5   6
ATOM      6  C   UNL     1      -6.747  -4.253 -10.264  1.00  0.00     0.041 C 
ATOM      7  O   UNL     1      -6.562  -3.364 -11.136  1.00  0.00    -0.550 OA
ATOM      8  O   UNL     1      -5.895  -4.331  -9.170  1.00  0.00    -0.550 OA
ENDBRANCH   5   6
ENDBRANCH   4   5
ENDBRANCH   3   4
ENDBRANCH   2   3
ENDBRANCH   1   2
BRANCH   1   9
ATOM      9  C   UNL     1     -10.370  -8.069 -12.129  1.00  0.00     0.000 C 
BRANCH   9  10
ATOM     10  C   UNL     1     -10.920  -7.399 -13.398  1.00  0.00    -0.000 C 
BRANCH  10  11
ATOM     11  C   UNL     1      -9.879  -7.320 -14.527  1.00  0.00    -0.000 C 
BRANCH  11  12
ATOM     12  C   UNL     1      -8.477  -6.953 -14.012  1.00  0.00    -0.000 C 
BRANCH  12  13
ATOM     13  C   UNL     1      -8.201  -5.443 -14.084  1.00  0.00    -0.003 C 
ATOM     14  C   UNL     1      -6.713  -5.116 -14.215  1.00  0.00     0.004 C 
ENDBRANCH  12  13
ENDBRANCH  11  12
ENDBRANCH  10  11
ENDBRANCH   9  10
ENDBRANCH   1   9
TORSDOF 10
ENDMDL
MODEL 9
REMARK VINA RESULT:    -4.100     12.383     14.181
REMARK INTER + INTRA:          -7.651
REMARK INTER:                  -6.988
REMARK INTRA:                  -0.663
REMARK UNBOUND:                -1.154
REMARK SMILES CCCCCCCCCCCC(=O)[O-]
REMARK SMILES IDX 7 1 8 2 9 3 10 4 11 5 12 6 13 7 14 8 6 9 5 10 4 11 3 12 2 13
REMARK SMILES IDX 1 14
REMARK H PARENT
REMARK Flexibility Score: inf
ROOT
ATOM      1  C   UNL     1       5.121  -3.306 -12.885  1.00  0.00     0.000 C 
ENDROOT
BRANCH   1   2
ATOM      2  C   UNL     1       6.434  -3.978 -12.456  1.00  0.00     0.000 C 
BRANCH   2   3
ATOM      3  C   UNL     1       7.506  -2.964 -12.025  1.00  0.00     0.000 C 
BRANCH   3   4
ATOM      4  C   UNL     1       8.476  -3.537 -10.976  1.00  0.00     0.006 C 
BRANCH   4   5
ATOM      5  C   UNL     1       8.307  -5.052 -10.800  1.00  0.00     0.053 C 
BRANCH   5   6
ATOM      6  C   UNL     1       8.150  -5.431  -9.359  1.00  0.00     0.041 C 
ATOM      7  O   UNL     1       7.849  -6.612  -9.042  1.00  0.00    -0.550 OA
ATOM      8  O   UNL     1       8.307  -4.472  -8.368  1.00  0.00    -0.550 OA
ENDBRANCH   5   6
ENDBRANCH   4   5
ENDBRANCH   3   4
ENDBRANCH   2   3
ENDBRANCH   1   2
BRANCH   1   9
ATOM      9  C   UNL     1       4.944  -3.371 -14.408  1.00  0.00     0.000 C 
BRANCH   9  10
ATOM     10  C   UNL     1       4.539  -2.000 -14.973  1.00  0.00    -0.000 C 
BRANCH  10  11
ATOM     11  C   UNL     1       4.857  -0.843 -14.012  1.00  0.00    -0.000 C 
BRANCH  11  12
ATOM     12  C   UNL     1       3.694   0.156 -13.884  1.00  0.00    -0.000 C 
BRANCH  12  13
ATOM     13  C   UNL     1       2.511  -0.199 -14.799  1.00  0.00    -0.003 C 
ATOM     14  C   UNL     1       1.528   0.959 -14.974  1.00  0.00     0.004 C 
ENDBRANCH  12  13
ENDBRANCH  11  12
ENDBRANCH  10  11
ENDBRANCH   9  10
ENDBRANCH   1   9
TORSDOF 10
ENDMDL
