MODEL 1
REMARK VINA RESULT:    -6.215      0.000      0.000
REMARK INTER + INTRA:         -11.629
REMARK INTER:                  -9.484
REMARK INTRA:                  -2.145
REMARK UNBOUND:                -2.145
REMARK SMILES CC(=O)CCC=C(C)CCC=C(C)CCC=C(C)C
REMARK SMILES IDX 10 1 11 2 12 3 13 4 14 5 15 6 16 7 18 8 17 9 19 10 9 11 7 12
REMARK SMILES IDX 6 13 8 14 5 15 4 16 2 17 3 18 1 19
REMARK H PARENT
REMARK Flexibility Score: inf
ROOT
ATOM      1  C   UNL     1     -20.930 -36.742  -4.652  1.00  0.00     0.032 C 
ENDROOT
BRANCH   1   2
ATOM      2  C   UNL     1     -19.484 -36.308  -4.565  1.00  0.00    -0.028 C 
ATOM      3  C   UNL     1     -18.524 -37.056  -3.981  1.00  0.00    -0.077 C 
ATOM      4  C   UNL     1     -18.837 -38.395  -3.355  1.00  0.00     0.039 C 
BRANCH   3   5
ATOM      5  C   UNL     1     -17.107 -36.534  -3.929  1.00  0.00     0.034 C 
BRANCH   5   6
ATOM      6  C   UNL     1     -16.108 -37.694  -3.863  1.00  0.00     0.032 C 
BRANCH   6   7
ATOM      7  C   UNL     1     -15.586 -38.032  -5.237  1.00  0.00    -0.028 C 
ATOM      8  C   UNL     1     -15.175 -39.419  -7.222  1.00  0.00     0.039 C 
ATOM      9  C   UNL     1     -15.709 -39.243  -5.824  1.00  0.00    -0.080 C 
ATOM     10  C   UNL     1     -16.343 -40.416  -5.116  1.00  0.00     0.039 C 
ENDBRANCH   6   7
ENDBRANCH   5   6
ENDBRANCH   3   5
ENDBRANCH   1   2
BRANCH   1  11
ATOM     11  C   UNL     1     -21.337 -37.123  -6.082  1.00  0.00     0.034 C 
BRANCH  11  12
ATOM     12  C   UNL     1     -21.028 -38.575  -6.384  1.00  0.00    -0.077 C 
ATOM     13  C   UNL     1     -19.813 -38.910  -6.876  1.00  0.00    -0.028 C 
ATOM     14  C   UNL     1     -22.076 -39.616  -6.067  1.00  0.00     0.039 C 
BRANCH  13  15
ATOM     15  C   UNL     1     -19.392 -40.316  -7.234  1.00  0.00     0.035 C 
BRANCH  15  16
ATOM     16  C   UNL     1     -19.401 -40.547  -8.751  1.00  0.00     0.079 C 
BRANCH  16  17
ATOM     17  C   UNL     1     -18.017 -40.802  -9.286  1.00  0.00     0.130 C 
ATOM     18  O   UNL     1     -17.509 -40.007 -10.061  1.00  0.00    -0.300 OA
ATOM     19  C   UNL     1     -17.250 -42.016  -8.855  1.00  0.00     0.087 C 
ENDBRANCH  16  17
ENDBRANCH  15  16
ENDBRANCH  13  15
ENDBRANCH  11  12
ENDBRANCH   1  11
TORSDOF 9
ENDMDL
MODEL 2
REMARK VINA RESULT:    -6.178      1.158      4.540
REMARK INTER + INTRA:         -11.573
REMARK INTER:                 -10.079
REMARK INTRA:                  -1.494
REMARK UNBOUND:                -2.145
REMARK SMILES CC(=O)CCC=C(C)CCC=C(C)CCC=C(C)C
REMARK SMILES IDX 10 1 11 2 12 3 13 4 14 5 15 6 16 7 18 8 17 9 19 10 9 11 7 12
REMARK SMILES IDX 6 13 8 14 5 15 4 16 2 17 3 18 1 19
REMARK H PARENT
REMARK Flexibility Score: inf
ROOT
ATOM      1  C   UNL     1     -16.089 -38.072  -4.607  1.00  0.00     0.032 C 
ENDROOT
BRANCH   1   2
ATOM      2  C   UNL     1     -17.559 -38.021  -4.258  1.00  0.00    -0.028 C 
ATOM      3  C   UNL     1     -18.199 -36.879  -3.926  1.00  0.00    -0.077 C 
ATOM      4  C   UNL     1     -17.473 -35.555  -3.870  1.00  0.00     0.039 C 
BRANCH   3   5
ATOM      5  C   UNL     1     -19.668 -36.928  -3.579  1.00  0.00     0.034 C 
BRANCH   5   6
ATOM      6  C   UNL     1     -20.513 -36.380  -4.735  1.00  0.00     0.032 C 
BRANCH   6   7
ATOM      7  C   UNL     1     -21.605 -37.352  -5.108  1.00  0.00    -0.028 C 
ATOM      8  C   UNL     1     -22.623 -39.296  -6.211  1.00  0.00     0.039 C 
ATOM      9  C   UNL     1     -21.450 -38.381  -5.970  1.00  0.00    -0.080 C 
ATOM     10  C   UNL     1     -20.152 -38.624  -6.703  1.00  0.00     0.039 C 
ENDBRANCH   6   7
ENDBRANCH   5   6
ENDBRANCH   3   5
ENDBRANCH   1   2
BRANCH   1  11
ATOM     11  C   UNL     1     -15.656 -39.463  -5.092  1.00  0.00     0.034 C 
BRANCH  11  12
ATOM     12  C   UNL     1     -15.521 -39.512  -6.601  1.00  0.00    -0.077 C 
ATOM     13  C   UNL     1     -16.547 -39.982  -7.347  1.00  0.00    -0.028 C 
ATOM     14  C   UNL     1     -14.256 -38.976  -7.229  1.00  0.00     0.039 C 
BRANCH  13  15
ATOM     15  C   UNL     1     -16.527 -40.099  -8.853  1.00  0.00     0.035 C 
BRANCH  15  16
ATOM     16  C   UNL     1     -17.943 -40.077  -9.447  1.00  0.00     0.079 C 
BRANCH  16  17
ATOM     17  C   UNL     1     -18.607 -41.426  -9.358  1.00  0.00     0.130 C 
ATOM     18  O   UNL     1     -18.000 -42.427  -9.705  1.00  0.00    -0.300 OA
ATOM     19  C   UNL     1     -20.002 -41.549  -8.823  1.00  0.00     0.087 C 
ENDBRANCH  16  17
ENDBRANCH  15  16
ENDBRANCH  13  15
ENDBRANCH  11  12
ENDBRANCH   1  11
TORSDOF 9
ENDMDL
MODEL 3
REMARK VINA RESULT:    -6.040      1.828      3.402
REMARK INTER + INTRA:         -11.362
REMARK INTER:                  -9.712
REMARK INTRA:                  -1.650
REMARK UNBOUND:                -2.145
REMARK SMILES CC(=O)CCC=C(C)CCC=C(C)CCC=C(C)C
REMARK SMILES IDX 10 1 11 2 12 3 13 4 14 5 15 6 16 7 18 8 17 9 19 10 9 11 7 12
REMARK SMILES IDX 6 13 8 14 5 15 4 16 2 17 3 18 1 19
REMARK H PARENT
REMARK Flexibility Score: inf
ROOT
ATOM      1  C   UNL     1     -19.406 -36.937  -3.557  1.00  0.00     0.032 C 
ENDROOT
BRANCH   1   2
ATOM      2  C   UNL     1     -18.303 -37.802  -4.124  1.00  0.00    -0.028 C 
ATOM      3  C   UNL     1     -17.028 -37.377  -4.259  1.00  0.00    -0.077 C 
ATOM      4  C   UNL     1     -16.614 -35.981  -3.856  1.00  0.00     0.039 C 
BRANCH   3   5
ATOM      5  C   UNL     1     -15.996 -38.308  -4.850  1.00  0.00     0.034 C 
BRANCH   5   6
ATOM      6  C   UNL     1     -16.650 -39.619  -5.299  1.00  0.00     0.032 C 
BRANCH   6   7
ATOM      7  C   UNL     1     -16.357 -39.893  -6.754  1.00  0.00    -0.028 C 
ATOM      8  C   UNL     1     -16.796 -40.000  -9.168  1.00  0.00     0.039 C 
ATOM      9  C   UNL     1     -17.247 -39.728  -7.757  1.00  0.00    -0.080 C 
ATOM     10  C   UNL     1     -18.673 -39.300  -7.500  1.00  0.00     0.039 C 
ENDBRANCH   6   7
ENDBRANCH   5   6
ENDBRANCH   3   5
ENDBRANCH   1   2
BRANCH   1  11
ATOM     11  C   UNL     1     -20.212 -36.230  -4.656  1.00  0.00     0.034 C 
BRANCH  11  12
ATOM     12  C   UNL     1     -21.560 -36.887  -4.872  1.00  0.00    -0.077 C 
ATOM     13  C   UNL     1     -21.702 -37.813  -5.847  1.00  0.00    -0.028 C 
ATOM     14  C   UNL     1     -22.695 -36.524  -3.943  1.00  0.00     0.039 C 
BRANCH  13  15
ATOM     15  C   UNL     1     -22.995 -38.523  -6.172  1.00  0.00     0.035 C 
BRANCH  15  16
ATOM     16  C   UNL     1     -23.030 -39.943  -5.590  1.00  0.00     0.079 C 
BRANCH  16  17
ATOM     17  C   UNL     1     -21.991 -40.831  -6.222  1.00  0.00     0.130 C 
ATOM     18  O   UNL     1     -21.059 -41.249  -5.552  1.00  0.00    -0.300 OA
ATOM     19  C   UNL     1     -22.106 -41.225  -7.663  1.00  0.00     0.087 C 
ENDBRANCH  16  17
ENDBRANCH  15  16
ENDBRANCH  13  15
ENDBRANCH  11  12
ENDBRANCH   1  11
TORSDOF 9
ENDMDL
MODEL 4
REMARK VINA RESULT:    -6.033      3.770      6.260
REMARK INTER + INTRA:         -11.353
REMARK INTER:                 -10.487
REMARK INTRA:                  -0.865
REMARK UNBOUND:                -2.145
REMARK SMILES CC(=O)CCC=C(C)CCC=C(C)CCC=C(C)C
REMARK SMILES IDX 10 1 11 2 12 3 13 4 14 5 15 6 16 7 18 8 17 9 19 10 9 11 7 12
REMARK SMILES IDX 6 13 8 14 5 15 4 16 2 17 3 18 1 19
REMARK H PARENT
REMARK Flexibility Score: inf
ROOT
ATOM      1  C   UNL     1     -15.312 -39.634  -6.640  1.00  0.00     0.032 C 
ENDROOT
BRANCH   1   2
ATOM      2  C   UNL     1     -14.204 -38.797  -7.236  1.00  0.00    -0.028 C 
ATOM      3  C   UNL     1     -12.893 -39.056  -7.035  1.00  0.00    -0.077 C 
ATOM      4  C   UNL     1     -12.440 -40.214  -6.176  1.00  0.00     0.039 C 
BRANCH   3   5
ATOM      5  C   UNL     1     -11.856 -38.154  -7.661  1.00  0.00     0.034 C 
BRANCH   5   6
ATOM      6  C   UNL     1     -12.503 -37.222  -8.691  1.00  0.00     0.032 C 
BRANCH   6   7
ATOM      7  C   UNL     1     -11.455 -36.569  -9.557  1.00  0.00    -0.028 C 
ATOM      8  C   UNL     1     -10.491 -34.876 -11.054  1.00  0.00     0.039 C 
ATOM      9  C   UNL     1     -11.649 -35.436 -10.267  1.00  0.00    -0.080 C 
ATOM     10  C   UNL     1     -12.985 -34.734 -10.308  1.00  0.00     0.039 C 
ENDBRANCH   6   7
ENDBRANCH   5   6
ENDBRANCH   3   5
ENDBRANCH   1   2
BRANCH   1  11
ATOM     11  C   UNL     1     -16.531 -39.730  -7.568  1.00  0.00     0.034 C 
BRANCH  11  12
ATOM     12  C   UNL     1     -17.815 -39.383  -6.844  1.00  0.00    -0.077 C 
ATOM     13  C   UNL     1     -17.783 -39.127  -5.515  1.00  0.00    -0.028 C 
ATOM     14  C   UNL     1     -19.089 -39.276  -7.648  1.00  0.00     0.039 C 
BRANCH  13  15
ATOM     15  C   UNL     1     -18.995 -38.789  -4.679  1.00  0.00     0.035 C 
BRANCH  15  16
ATOM     16  C   UNL     1     -18.628 -37.930  -3.461  1.00  0.00     0.079 C 
BRANCH  16  17
ATOM     17  C   UNL     1     -18.096 -36.582  -3.868  1.00  0.00     0.130 C 
ATOM     18  O   UNL     1     -18.869 -35.698  -4.203  1.00  0.00    -0.300 OA
ATOM     19  C   UNL     1     -16.622 -36.310  -3.843  1.00  0.00     0.087 C 
ENDBRANCH  16  17
ENDBRANCH  15  16
ENDBRANCH  13  15
ENDBRANCH  11  12
ENDBRANCH   1  11
TORSDOF 9
ENDMDL
MODEL 5
REMARK VINA RESULT:    -5.988      1.390      4.801
REMARK INTER + INTRA:         -11.284
REMARK INTER:                  -9.620
REMARK INTRA:                  -1.664
REMARK UNBOUND:                -2.145
REMARK SMILES CC(=O)CCC=C(C)CCC=C(C)CCC=C(C)C
REMARK SMILES IDX 10 1 11 2 12 3 13 4 14 5 15 6 16 7 18 8 17 9 19 10 9 11 7 12
REMARK SMILES IDX 6 13 8 14 5 15 4 16 2 17 3 18 1 19
REMARK H PARENT
REMARK Flexibility Score: inf
ROOT
ATOM      1  C   UNL     1     -15.547 -38.254  -5.354  1.00  0.00     0.032 C 
ENDROOT
BRANCH   1   2
ATOM      2  C   UNL     1     -16.899 -38.507  -4.728  1.00  0.00    -0.028 C 
ATOM      3  C   UNL     1     -17.594 -37.558  -4.064  1.00  0.00    -0.077 C 
ATOM      4  C   UNL     1     -17.052 -36.158  -3.891  1.00  0.00     0.039 C 
BRANCH   3   5
ATOM      5  C   UNL     1     -18.933 -37.908  -3.459  1.00  0.00     0.034 C 
BRANCH   5   6
ATOM      6  C   UNL     1     -19.899 -36.723  -3.567  1.00  0.00     0.032 C 
BRANCH   6   7
ATOM      7  C   UNL     1     -20.550 -36.684  -4.927  1.00  0.00    -0.028 C 
ATOM      8  C   UNL     1     -22.373 -36.452  -6.557  1.00  0.00     0.039 C 
ATOM      9  C   UNL     1     -21.874 -36.514  -5.136  1.00  0.00    -0.080 C 
ATOM     10  C   UNL     1     -22.857 -36.406  -3.996  1.00  0.00     0.039 C 
ENDBRANCH   6   7
ENDBRANCH   5   6
ENDBRANCH   3   5
ENDBRANCH   1   2
BRANCH   1  11
ATOM     11  C   UNL     1     -14.891 -39.546  -5.861  1.00  0.00     0.034 C 
BRANCH  11  12
ATOM     12  C   UNL     1     -15.808 -40.312  -6.792  1.00  0.00    -0.077 C 
ATOM     13  C   UNL     1     -16.030 -39.846  -8.043  1.00  0.00    -0.028 C 
ATOM     14  C   UNL     1     -16.405 -41.612  -6.306  1.00  0.00     0.039 C 
BRANCH  13  15
ATOM     15  C   UNL     1     -16.937 -40.507  -9.054  1.00  0.00     0.035 C 
BRANCH  15  16
ATOM     16  C   UNL     1     -18.271 -39.763  -9.198  1.00  0.00     0.079 C 
BRANCH  16  17
ATOM     17  C   UNL     1     -19.299 -40.264  -8.219  1.00  0.00     0.130 C 
ATOM     18  O   UNL     1     -19.838 -41.344  -8.403  1.00  0.00    -0.300 OA
ATOM     19  C   UNL     1     -19.649 -39.455  -7.007  1.00  0.00     0.087 C 
ENDBRANCH  16  17
ENDBRANCH  15  16
ENDBRANCH  13  15
ENDBRANCH  11  12
ENDBRANCH   1  11
TORSDOF 9
ENDMDL
MODEL 6
REMARK VINA RESULT:    -5.985      2.329      4.908
REMARK INTER + INTRA:         -11.279
REMARK INTER:                  -9.901
REMARK INTRA:                  -1.378
REMARK UNBOUND:                -2.145
REMARK SMILES CC(=O)CCC=C(C)CCC=C(C)CCC=C(C)C
REMARK SMILES IDX 10 1 11 2 12 3 13 4 14 5 15 6 16 7 18 8 17 9 19 10 9 11 7 12
REMARK SMILES IDX 6 13 8 14 5 15 4 16 2 17 3 18 1 19
REMARK H PARENT
REMARK Flexibility Score: inf
ROOT
ATOM      1  C   UNL     1     -19.407 -39.656  -7.770  1.00  0.00     0.032 C 
ENDROOT
BRANCH   1   2
ATOM      2  C   UNL     1     -18.074 -39.517  -7.070  1.00  0.00    -0.028 C 
ATOM      3  C   UNL     1     -16.891 -39.700  -7.694  1.00  0.00    -0.077 C 
ATOM      4  C   UNL     1     -16.818 -40.073  -9.156  1.00  0.00     0.039 C 
BRANCH   3   5
ATOM      5  C   UNL     1     -15.609 -39.554  -6.907  1.00  0.00     0.034 C 
BRANCH   5   6
ATOM      6  C   UNL     1     -15.904 -39.488  -5.405  1.00  0.00     0.032 C 
BRANCH   6   7
ATOM      7  C   UNL     1     -15.790 -38.071  -4.898  1.00  0.00    -0.028 C 
ATOM      8  C   UNL     1     -16.481 -36.025  -3.728  1.00  0.00     0.039 C 
ATOM      9  C   UNL     1     -16.757 -37.427  -4.208  1.00  0.00    -0.080 C 
ATOM     10  C   UNL     1     -18.098 -38.060  -3.925  1.00  0.00     0.039 C 
ENDBRANCH   6   7
ENDBRANCH   5   6
ENDBRANCH   3   5
ENDBRANCH   1   2
BRANCH   1  11
ATOM     11  C   UNL     1     -20.316 -40.690  -7.090  1.00  0.00     0.034 C 
BRANCH  11  12
ATOM     12  C   UNL     1     -21.650 -40.089  -6.698  1.00  0.00    -0.077 C 
ATOM     13  C   UNL     1     -21.691 -38.848  -6.160  1.00  0.00    -0.028 C 
ATOM     14  C   UNL     1     -22.906 -40.882  -6.975  1.00  0.00     0.039 C 
BRANCH  13  15
ATOM     15  C   UNL     1     -22.954 -38.150  -5.712  1.00  0.00     0.035 C 
BRANCH  15  16
ATOM     16  C   UNL     1     -22.763 -36.630  -5.616  1.00  0.00     0.079 C 
BRANCH  16  17
ATOM     17  C   UNL     1     -21.821 -36.254  -4.504  1.00  0.00     0.130 C 
ATOM     18  O   UNL     1     -22.092 -36.551  -3.351  1.00  0.00    -0.300 OA
ATOM     19  C   UNL     1     -20.540 -35.538  -4.806  1.00  0.00     0.087 C 
ENDBRANCH  16  17
ENDBRANCH  15  16
ENDBRANCH  13  15
ENDBRANCH  11  12
ENDBRANCH   1  11
TORSDOF 9
ENDMDL
MODEL 7
REMARK VINA RESULT:    -5.956      1.416      4.772
REMARK INTER + INTRA:         -11.234
REMARK INTER:                  -9.808
REMARK INTRA:                  -1.427
REMARK UNBOUND:                -2.145
REMARK SMILES CC(=O)CCC=C(C)CCC=C(C)CCC=C(C)C
REMARK SMILES IDX 10 1 11 2 12 3 13 4 14 5 15 6 16 7 18 8 17 9 19 10 9 11 7 12
REMARK SMILES IDX 6 13 8 14 5 15 4 16 2 17 3 18 1 19
REMARK H PARENT
REMARK Flexibility Score: inf
ROOT
ATOM      1  C   UNL     1     -20.095 -36.524  -4.702  1.00  0.00     0.032 C 
ENDROOT
BRANCH   1   2
ATOM      2  C   UNL     1     -20.920 -37.743  -5.050  1.00  0.00    -0.028 C 
ATOM      3  C   UNL     1     -21.970 -37.705  -5.899  1.00  0.00    -0.077 C 
ATOM      4  C   UNL     1     -22.404 -36.419  -6.561  1.00  0.00     0.039 C 
BRANCH   3   5
ATOM      5  C   UNL     1     -22.744 -38.973  -6.175  1.00  0.00     0.034 C 
BRANCH   5   6
ATOM      6  C   UNL     1     -21.881 -40.205  -5.882  1.00  0.00     0.032 C 
BRANCH   6   7
ATOM      7  C   UNL     1     -21.581 -40.964  -7.151  1.00  0.00    -0.028 C 
ATOM      8  C   UNL     1     -20.265 -41.696  -9.092  1.00  0.00     0.039 C 
ATOM      9  C   UNL     1     -20.442 -40.837  -7.866  1.00  0.00    -0.080 C 
ATOM     10  C   UNL     1     -19.361 -39.854  -7.484  1.00  0.00     0.039 C 
ENDBRANCH   6   7
ENDBRANCH   5   6
ENDBRANCH   3   5
ENDBRANCH   1   2
BRANCH   1  11
ATOM     11  C   UNL     1     -19.153 -36.779  -3.517  1.00  0.00     0.034 C 
BRANCH  11  12
ATOM     12  C   UNL     1     -17.740 -37.068  -3.978  1.00  0.00    -0.077 C 
ATOM     13  C   UNL     1     -17.431 -38.294  -4.458  1.00  0.00    -0.028 C 
ATOM     14  C   UNL     1     -16.727 -35.947  -3.940  1.00  0.00     0.039 C 
BRANCH  13  15
ATOM     15  C   UNL     1     -16.057 -38.709  -4.930  1.00  0.00     0.035 C 
BRANCH  15  16
ATOM     16  C   UNL     1     -16.127 -39.819  -5.988  1.00  0.00     0.079 C 
BRANCH  16  17
ATOM     17  C   UNL     1     -15.285 -39.496  -7.193  1.00  0.00     0.130 C 
ATOM     18  O   UNL     1     -15.674 -39.807  -8.308  1.00  0.00    -0.300 OA
ATOM     19  C   UNL     1     -13.980 -38.775  -7.034  1.00  0.00     0.087 C 
ENDBRANCH  16  17
ENDBRANCH  15  16
ENDBRANCH  13  15
ENDBRANCH  11  12
ENDBRANCH   1  11
TORSDOF 9
ENDMDL
MODEL 8
REMARK VINA RESULT:    -5.933      1.887      4.695
REMARK INTER + INTRA:         -11.199
REMARK INTER:                  -9.370
REMARK INTRA:                  -1.829
REMARK UNBOUND:                -2.145
REMARK SMILES CC(=O)CCC=C(C)CCC=C(C)CCC=C(C)C
REMARK SMILES IDX 10 1 11 2 12 3 13 4 14 5 15 6 16 7 18 8 17 9 19 10 9 11 7 12
REMARK SMILES IDX 6 13 8 14 5 15 4 16 2 17 3 18 1 19
REMARK H PARENT
REMARK Flexibility Score: inf
ROOT
ATOM      1  C   UNL     1     -17.159 -40.542  -9.047  1.00  0.00     0.032 C 
ENDROOT
BRANCH   1   2
ATOM      2  C   UNL     1     -16.249 -39.745  -8.140  1.00  0.00    -0.028 C 
ATOM      3  C   UNL     1     -15.949 -40.124  -6.879  1.00  0.00    -0.077 C 
ATOM      4  C   UNL     1     -16.521 -41.386  -6.276  1.00  0.00     0.039 C 
BRANCH   3   5
ATOM      5  C   UNL     1     -15.039 -39.256  -6.042  1.00  0.00     0.034 C 
BRANCH   5   6
ATOM      6  C   UNL     1     -15.663 -38.992  -4.667  1.00  0.00     0.032 C 
BRANCH   6   7
ATOM      7  C   UNL     1     -15.980 -37.527  -4.494  1.00  0.00    -0.028 C 
ATOM      8  C   UNL     1     -17.285 -35.559  -3.816  1.00  0.00     0.039 C 
ATOM      9  C   UNL     1     -17.129 -37.051  -3.966  1.00  0.00    -0.080 C 
ATOM     10  C   UNL     1     -18.256 -37.963  -3.546  1.00  0.00     0.039 C 
ENDBRANCH   6   7
ENDBRANCH   5   6
ENDBRANCH   3   5
ENDBRANCH   1   2
BRANCH   1  11
ATOM     11  C   UNL     1     -18.529 -39.873  -9.227  1.00  0.00     0.034 C 
BRANCH  11  12
ATOM     12  C   UNL     1     -19.401 -40.042  -8.000  1.00  0.00    -0.077 C 
ATOM     13  C   UNL     1     -19.662 -38.973  -7.213  1.00  0.00    -0.028 C 
ATOM     14  C   UNL     1     -20.001 -41.401  -7.725  1.00  0.00     0.039 C 
BRANCH  13  15
ATOM     15  C   UNL     1     -20.498 -39.018  -5.956  1.00  0.00     0.035 C 
BRANCH  15  16
ATOM     16  C   UNL     1     -21.896 -38.425  -6.179  1.00  0.00     0.079 C 
BRANCH  16  17
ATOM     17  C   UNL     1     -21.875 -36.920  -6.164  1.00  0.00     0.130 C 
ATOM     18  O   UNL     1     -22.618 -36.294  -6.903  1.00  0.00    -0.300 OA
ATOM     19  C   UNL     1     -20.961 -36.184  -5.231  1.00  0.00     0.087 C 
ENDBRANCH  16  17
ENDBRANCH  15  16
ENDBRANCH  13  15
ENDBRANCH  11  12
ENDBRANCH   1  11
TORSDOF 9
ENDMDL
MODEL 9
REMARK VINA RESULT:    -5.858      2.237      6.053
REMARK INTER + INTRA:         -11.085
REMARK INTER:                  -9.494
REMARK INTRA:                  -1.591
REMARK UNBOUND:                -2.145
REMARK SMILES CC(=O)CCC=C(C)CCC=C(C)CCC=C(C)C
REMARK SMILES IDX 10 1 11 2 12 3 13 4 14 5 15 6 16 7 18 8 17 9 19 10 9 11 7 12
REMARK SMILES IDX 6 13 8 14 5 15 4 16 2 17 3 18 1 19
REMARK H PARENT
REMARK Flexibility Score: inf
ROOT
ATOM      1  C   UNL     1     -16.027 -39.664  -5.470  1.00  0.00     0.032 C 
ENDROOT
BRANCH   1   2
ATOM      2  C   UNL     1     -16.343 -39.682  -6.948  1.00  0.00    -0.028 C 
ATOM      3  C   UNL     1     -16.699 -40.803  -7.612  1.00  0.00    -0.077 C 
ATOM      4  C   UNL     1     -16.796 -42.139  -6.913  1.00  0.00     0.039 C 
BRANCH   3   5
ATOM      5  C   UNL     1     -16.982 -40.727  -9.094  1.00  0.00     0.034 C 
BRANCH   5   6
ATOM      6  C   UNL     1     -18.275 -39.947  -9.355  1.00  0.00     0.032 C 
BRANCH   6   7
ATOM      7  C   UNL     1     -19.484 -40.804  -9.075  1.00  0.00    -0.028 C 
ATOM      8  C   UNL     1     -21.500 -41.554  -7.887  1.00  0.00     0.039 C 
ATOM      9  C   UNL     1     -20.303 -40.647  -8.011  1.00  0.00    -0.080 C 
ATOM     10  C   UNL     1     -20.040 -39.610  -6.945  1.00  0.00     0.039 C 
ENDBRANCH   6   7
ENDBRANCH   5   6
ENDBRANCH   3   5
ENDBRANCH   1   2
BRANCH   1  11
ATOM     11  C   UNL     1     -15.552 -38.284  -4.994  1.00  0.00     0.034 C 
BRANCH  11  12
ATOM     12  C   UNL     1     -16.652 -37.532  -4.273  1.00  0.00    -0.077 C 
ATOM     13  C   UNL     1     -17.904 -38.045  -4.244  1.00  0.00    -0.028 C 
ATOM     14  C   UNL     1     -16.297 -36.251  -3.554  1.00  0.00     0.039 C 
BRANCH  13  15
ATOM     15  C   UNL     1     -19.086 -37.382  -3.576  1.00  0.00     0.035 C 
BRANCH  15  16
ATOM     16  C   UNL     1     -19.680 -36.265  -4.444  1.00  0.00     0.079 C 
BRANCH  16  17
ATOM     17  C   UNL     1     -21.157 -36.455  -4.665  1.00  0.00     0.130 C 
ATOM     18  O   UNL     1     -21.904 -36.584  -3.708  1.00  0.00    -0.300 OA
ATOM     19  C   UNL     1     -21.720 -36.463  -6.054  1.00  0.00     0.087 C 
ENDBRANCH  16  17
ENDBRANCH  15  16
ENDBRANCH  13  15
ENDBRANCH  11  12
ENDBRANCH   1  11
TORSDOF 9
ENDMDL
