MODEL 1
REMARK VINA RESULT:    -2.468      0.000      0.000
REMARK INTER + INTRA:          -2.468
REMARK INTER:                  -2.468
REMARK INTRA:                   0.000
REMARK UNBOUND:                 0.000
REMARK SMILES CC(=O)[O-]
REMARK SMILES IDX 1 1 2 2 3 3 4 4
REMARK H PARENT
REMARK Flexibility Score: inf
ROOT
ATOM      1  C   UNL     1       8.853  -9.693  16.042  1.00  0.00     0.063 C 
ATOM      2  C   UNL     1       7.604  -9.402  15.281  1.00  0.00     0.038 C 
ATOM      3  O   UNL     1       6.642 -10.212  15.313  1.00  0.00    -0.550 OA
ATOM      4  O   UNL     1       7.521  -8.263  14.491  1.00  0.00    -0.550 OA
ENDROOT
TORSDOF 0
ENDMDL
MODEL 2
REMARK VINA RESULT:    -2.390      1.422      1.770
REMARK INTER + INTRA:          -2.390
REMARK INTER:                  -2.390
REMARK INTRA:                   0.000
REMARK UNBOUND:                 0.000
REMARK SMILES CC(=O)[O-]
REMARK SMILES IDX 1 1 2 2 3 3 4 4
REMARK H PARENT
REMARK Flexibility Score: inf
ROOT
ATOM      1  C   UNL     1       7.590  -8.314  14.440  1.00  0.00     0.063 C 
ATOM      2  C   UNL     1       7.732  -9.461  15.381  1.00  0.00     0.038 C 
ATOM      3  O   UNL     1       6.805 -10.306  15.491  1.00  0.00    -0.550 OA
ATOM      4  O   UNL     1       8.864  -9.572  16.179  1.00  0.00    -0.550 OA
ENDROOT
TORSDOF 0
ENDMDL
MODEL 3
REMARK VINA RESULT:    -2.253     16.184     16.713
REMARK INTER + INTRA:          -2.253
REMARK INTER:                  -2.253
REMARK INTRA:                   0.000
REMARK UNBOUND:                 0.000
REMARK SMILES CC(=O)[O-]
REMARK SMILES IDX 1 1 2 2 3 3 4 4
REMARK H PARENT
REMARK Flexibility Score: inf
ROOT
ATOM      1  C   UNL     1     -10.062  -8.435  16.091  1.00  0.00     0.063 C 
ATOM      2  C   UNL     1      -8.786  -8.279  16.846  1.00  0.00     0.038 C 
ATOM      3  O   UNL     1      -7.904  -9.174  16.786  1.00  0.00    -0.550 OA
ATOM      4  O   UNL     1      -8.590  -7.169  17.659  1.00  0.00    -0.550 OA
ENDROOT
TORSDOF 0
ENDMDL
MODEL 4
REMARK VINA RESULT:    -2.195     16.153     16.672
REMARK INTER + INTRA:          -2.195
REMARK INTER:                  -2.195
REMARK INTRA:                   0.000
REMARK UNBOUND:                 0.000
REMARK SMILES CC(=O)[O-]
REMARK SMILES IDX 1 1 2 2 3 3 4 4
REMARK H PARENT
REMARK Flexibility Score: inf
ROOT
ATOM      1  C   UNL     1      -8.454  -7.107  17.551  1.00  0.00     0.063 C 
ATOM      2  C   UNL     1      -8.836  -8.330  16.788  1.00  0.00     0.038 C 
ATOM      3  O   UNL     1      -8.044  -9.306  16.722  1.00  0.00    -0.550 OA
ATOM      4  O   UNL     1     -10.043  -8.374  16.102  1.00  0.00    -0.550 OA
ENDROOT
TORSDOF 0
ENDMDL
MODEL 5
REMARK VINA RESULT:    -1.933     11.180     11.551
REMARK INTER + INTRA:          -1.933
REMARK INTER:                  -1.933
REMARK INTRA:                   0.000
REMARK UNBOUND:                 0.000
REMARK SMILES CC(=O)[O-]
REMARK SMILES IDX 1 1 2 2 3 3 4 4
REMARK H PARENT
REMARK Flexibility Score: inf
ROOT
ATOM      1  C   UNL     1       7.288 -20.804   9.480  1.00  0.00     0.063 C 
ATOM      2  C   UNL     1       6.901 -19.426   9.895  1.00  0.00     0.038 C 
ATOM      3  O   UNL     1       7.185 -19.010  11.048  1.00  0.00    -0.550 OA
ATOM      4  O   UNL     1       6.177 -18.616   9.029  1.00  0.00    -0.550 OA
ENDROOT
TORSDOF 0
ENDMDL
MODEL 6
REMARK VINA RESULT:    -1.875     10.980     11.404
REMARK INTER + INTRA:          -1.875
REMARK INTER:                  -1.875
REMARK INTRA:                   0.000
REMARK UNBOUND:                 0.000
REMARK SMILES CC(=O)[O-]
REMARK SMILES IDX 1 1 2 2 3 3 4 4
REMARK H PARENT
REMARK Flexibility Score: inf
ROOT
ATOM      1  C   UNL     1       6.844 -19.460   9.675  1.00  0.00     0.063 C 
ATOM      2  C   UNL     1       7.291 -19.862  11.040  1.00  0.00     0.038 C 
ATOM      3  O   UNL     1       6.922 -20.962  11.527  1.00  0.00    -0.550 OA
ATOM      4  O   UNL     1       8.073 -18.999  11.798  1.00  0.00    -0.550 OA
ENDROOT
TORSDOF 0
ENDMDL
MODEL 7
REMARK VINA RESULT:    -1.827     12.078     12.579
REMARK INTER + INTRA:          -1.827
REMARK INTER:                  -1.827
REMARK INTRA:                   0.000
REMARK UNBOUND:                 0.000
REMARK SMILES CC(=O)[O-]
REMARK SMILES IDX 1 1 2 2 3 3 4 4
REMARK H PARENT
REMARK Flexibility Score: inf
ROOT
ATOM      1  C   UNL     1       6.600 -21.625  17.501  1.00  0.00     0.063 C 
ATOM      2  C   UNL     1       7.776 -21.841  16.611  1.00  0.00     0.038 C 
ATOM      3  O   UNL     1       8.544 -22.820  16.805  1.00  0.00    -0.550 OA
ATOM      4  O   UNL     1       8.058 -20.934  15.597  1.00  0.00    -0.550 OA
ENDROOT
TORSDOF 0
ENDMDL
MODEL 8
REMARK VINA RESULT:    -1.806     20.758     20.945
REMARK INTER + INTRA:          -1.806
REMARK INTER:                  -1.806
REMARK INTRA:                   0.000
REMARK UNBOUND:                 0.000
REMARK SMILES CC(=O)[O-]
REMARK SMILES IDX 1 1 2 2 3 3 4 4
REMARK H PARENT
REMARK Flexibility Score: inf
ROOT
ATOM      1  C   UNL     1      -9.715 -20.372  14.472  1.00  0.00     0.063 C 
ATOM      2  C   UNL     1     -10.070 -20.408  15.919  1.00  0.00     0.038 C 
ATOM      3  O   UNL     1     -10.953 -19.634  16.372  1.00  0.00    -0.550 OA
ATOM      4  O   UNL     1      -9.390 -21.258  16.782  1.00  0.00    -0.550 OA
ENDROOT
TORSDOF 0
ENDMDL
MODEL 9
REMARK VINA RESULT:    -1.660     11.563     11.921
REMARK INTER + INTRA:          -1.660
REMARK INTER:                  -1.660
REMARK INTRA:                   0.000
REMARK UNBOUND:                 0.000
REMARK SMILES CC(=O)[O-]
REMARK SMILES IDX 1 1 2 2 3 3 4 4
REMARK H PARENT
REMARK Flexibility Score: inf
ROOT
ATOM      1  C   UNL     1       7.084 -19.398  10.744  1.00  0.00     0.063 C 
ATOM      2  C   UNL     1       8.348 -20.121  10.425  1.00  0.00     0.038 C 
ATOM      3  O   UNL     1       9.125 -20.474  11.350  1.00  0.00    -0.550 OA
ATOM      4  O   UNL     1       8.697 -20.362   9.102  1.00  0.00    -0.550 OA
ENDROOT
TORSDOF 0
ENDMDL
