MODEL 1
REMARK VINA RESULT:    -5.407      0.000      0.000
REMARK INTER + INTRA:          -8.177
REMARK INTER:                  -7.304
REMARK INTRA:                  -0.873
REMARK UNBOUND:                -0.873
REMARK SMILES CC(=O)CCC=C(C)CCC=C(C)C
REMARK SMILES IDX 7 1 6 2 8 3 9 4 10 5 11 6 13 7 12 8 14 9 5 10 4 11 2 12 3 13
REMARK SMILES IDX 1 14
REMARK H PARENT
REMARK Flexibility Score: inf
ROOT
ATOM      1  C   UNL     1      16.275 -11.578  65.453  1.00  0.00    -0.077 C 
ATOM      2  C   UNL     1      16.734 -10.643  66.314  1.00  0.00    -0.028 C 
ATOM      3  C   UNL     1      17.178 -12.662  64.914  1.00  0.00     0.039 C 
ENDROOT
BRANCH   1   4
ATOM      4  C   UNL     1      14.825 -11.539  65.022  1.00  0.00     0.034 C 
BRANCH   4   5
ATOM      5  C   UNL     1      14.710 -11.233  63.525  1.00  0.00     0.032 C 
BRANCH   5   6
ATOM      6  C   UNL     1      14.430  -9.768  63.298  1.00  0.00    -0.028 C 
ATOM      7  C   UNL     1      14.929  -7.432  62.725  1.00  0.00     0.039 C 
ATOM      8  C   UNL     1      15.365  -8.856  62.957  1.00  0.00    -0.080 C 
ATOM      9  C   UNL     1      16.826  -9.219  62.819  1.00  0.00     0.039 C 
ENDBRANCH   5   6
ENDBRANCH   4   5
ENDBRANCH   1   4
BRANCH   2  10
ATOM     10  C   UNL     1      18.164 -10.600  66.798  1.00  0.00     0.035 C 
BRANCH  10  11
ATOM     11  C   UNL     1      18.334  -9.588  67.936  1.00  0.00     0.079 C 
BRANCH  11  12
ATOM     12  C   UNL     1      19.170 -10.169  69.046  1.00  0.00     0.130 C 
ATOM     13  O   UNL     1      19.448  -9.478  70.014  1.00  0.00    -0.300 OA
ATOM     14  C   UNL     1      19.682 -11.578  68.984  1.00  0.00     0.087 C 
ENDBRANCH  11  12
ENDBRANCH  10  11
ENDBRANCH   2  10
TORSDOF 6
ENDMDL
MODEL 2
REMARK VINA RESULT:    -5.354      1.243      1.829
REMARK INTER + INTRA:          -8.105
REMARK INTER:                  -7.097
REMARK INTRA:                  -1.008
REMARK UNBOUND:                -0.873
REMARK SMILES CC(=O)CCC=C(C)CCC=C(C)C
REMARK SMILES IDX 7 1 6 2 8 3 9 4 10 5 11 6 13 7 12 8 14 9 5 10 4 11 2 12 3 13
REMARK SMILES IDX 1 14
REMARK H PARENT
REMARK Flexibility Score: inf
ROOT
ATOM      1  C   UNL     1      17.608 -11.219  64.943  1.00  0.00    -0.077 C 
ATOM      2  C   UNL     1      17.560 -10.056  65.629  1.00  0.00    -0.028 C 
ATOM      3  C   UNL     1      17.616 -12.552  65.653  1.00  0.00     0.039 C 
ENDROOT
BRANCH   1   4
ATOM      4  C   UNL     1      17.652 -11.185  63.430  1.00  0.00     0.034 C 
BRANCH   4   5
ATOM      5  C   UNL     1      16.356 -11.745  62.835  1.00  0.00     0.032 C 
BRANCH   5   6
ATOM      6  C   UNL     1      15.384 -10.633  62.529  1.00  0.00    -0.028 C 
ATOM      7  C   UNL     1      13.405  -9.211  62.838  1.00  0.00     0.039 C 
ATOM      8  C   UNL     1      14.262 -10.384  63.237  1.00  0.00    -0.080 C 
ATOM      9  C   UNL     1      13.837 -11.253  64.399  1.00  0.00     0.039 C 
ENDBRANCH   5   6
ENDBRANCH   4   5
ENDBRANCH   1   4
BRANCH   2  10
ATOM     10  C   UNL     1      17.515  -9.990  67.137  1.00  0.00     0.035 C 
BRANCH  10  11
ATOM     11  C   UNL     1      18.844  -9.486  67.709  1.00  0.00     0.079 C 
BRANCH  11  12
ATOM     12  C   UNL     1      19.190 -10.219  68.979  1.00  0.00     0.130 C 
ATOM     13  O   UNL     1      19.315  -9.593  70.020  1.00  0.00    -0.300 OA
ATOM     14  C   UNL     1      19.395 -11.705  68.992  1.00  0.00     0.087 C 
ENDBRANCH  11  12
ENDBRANCH  10  11
ENDBRANCH   2  10
TORSDOF 6
ENDMDL
MODEL 3
REMARK VINA RESULT:    -5.201      2.135      3.204
REMARK INTER + INTRA:          -7.898
REMARK INTER:                  -6.605
REMARK INTRA:                  -1.293
REMARK UNBOUND:                -0.873
REMARK SMILES CC(=O)CCC=C(C)CCC=C(C)C
REMARK SMILES IDX 7 1 6 2 8 3 9 4 10 5 11 6 13 7 12 8 14 9 5 10 4 11 2 12 3 13
REMARK SMILES IDX 1 14
REMARK H PARENT
REMARK Flexibility Score: inf
ROOT
ATOM      1  C   UNL     1      17.156 -11.881  65.488  1.00  0.00    -0.077 C 
ATOM      2  C   UNL     1      17.208 -11.545  66.795  1.00  0.00    -0.028 C 
ATOM      3  C   UNL     1      17.746 -13.177  64.984  1.00  0.00     0.039 C 
ENDROOT
BRANCH   1   4
ATOM      4  C   UNL     1      16.492 -10.939  64.507  1.00  0.00     0.034 C 
BRANCH   4   5
ATOM      5  C   UNL     1      17.215  -9.589  64.473  1.00  0.00     0.032 C 
BRANCH   5   6
ATOM      6  C   UNL     1      18.535  -9.708  63.753  1.00  0.00    -0.028 C 
ATOM      7  C   UNL     1      20.979  -9.789  63.507  1.00  0.00     0.039 C 
ATOM      8  C   UNL     1      19.743  -9.609  64.350  1.00  0.00    -0.080 C 
ATOM      9  C   UNL     1      19.885  -9.306  65.824  1.00  0.00     0.039 C 
ENDBRANCH   5   6
ENDBRANCH   4   5
ENDBRANCH   1   4
BRANCH   2  10
ATOM     10  C   UNL     1      17.851 -12.419  67.846  1.00  0.00     0.035 C 
BRANCH  10  11
ATOM     11  C   UNL     1      18.727 -11.593  68.793  1.00  0.00     0.079 C 
BRANCH  11  12
ATOM     12  C   UNL     1      20.140 -12.117  68.806  1.00  0.00     0.130 C 
ATOM     13  O   UNL     1      20.725 -12.242  69.870  1.00  0.00    -0.300 OA
ATOM     14  C   UNL     1      20.850 -12.479  67.535  1.00  0.00     0.087 C 
ENDBRANCH  11  12
ENDBRANCH  10  11
ENDBRANCH   2  10
TORSDOF 6
ENDMDL
MODEL 4
REMARK VINA RESULT:    -5.110      1.429      2.285
REMARK INTER + INTRA:          -7.775
REMARK INTER:                  -7.013
REMARK INTRA:                  -0.762
REMARK UNBOUND:                -0.873
REMARK SMILES CC(=O)CCC=C(C)CCC=C(C)C
REMARK SMILES IDX 7 1 6 2 8 3 9 4 10 5 11 6 13 7 12 8 14 9 5 10 4 11 2 12 3 13
REMARK SMILES IDX 1 14
REMARK H PARENT
REMARK Flexibility Score: inf
ROOT
ATOM      1  C   UNL     1      16.549 -11.513  65.651  1.00  0.00    -0.077 C 
ATOM      2  C   UNL     1      17.040 -10.410  66.257  1.00  0.00    -0.028 C 
ATOM      3  C   UNL     1      17.419 -12.718  65.384  1.00  0.00     0.039 C 
ENDROOT
BRANCH   1   4
ATOM      4  C   UNL     1      15.094 -11.543  65.235  1.00  0.00     0.034 C 
BRANCH   4   5
ATOM      5  C   UNL     1      14.900 -10.846  63.884  1.00  0.00     0.032 C 
BRANCH   5   6
ATOM      6  C   UNL     1      14.145 -11.736  62.927  1.00  0.00    -0.028 C 
ATOM      7  C   UNL     1      13.844 -13.431  61.174  1.00  0.00     0.039 C 
ATOM      8  C   UNL     1      14.728 -12.572  62.041  1.00  0.00    -0.080 C 
ATOM      9  C   UNL     1      16.230 -12.655  61.886  1.00  0.00     0.039 C 
ENDBRANCH   5   6
ENDBRANCH   4   5
ENDBRANCH   1   4
BRANCH   2  10
ATOM     10  C   UNL     1      18.476 -10.287  66.706  1.00  0.00     0.035 C 
BRANCH  10  11
ATOM     11  C   UNL     1      18.597  -9.381  67.935  1.00  0.00     0.079 C 
BRANCH  11  12
ATOM     12  C   UNL     1      19.205 -10.130  69.093  1.00  0.00     0.130 C 
ATOM     13  O   UNL     1      19.450  -9.535  70.131  1.00  0.00    -0.300 OA
ATOM     14  C   UNL     1      19.527 -11.592  68.995  1.00  0.00     0.087 C 
ENDBRANCH  11  12
ENDBRANCH  10  11
ENDBRANCH   2  10
TORSDOF 6
ENDMDL
MODEL 5
REMARK VINA RESULT:    -5.080      3.201      5.467
REMARK INTER + INTRA:          -7.734
REMARK INTER:                  -6.607
REMARK INTRA:                  -1.127
REMARK UNBOUND:                -0.873
REMARK SMILES CC(=O)CCC=C(C)CCC=C(C)C
REMARK SMILES IDX 7 1 6 2 8 3 9 4 10 5 11 6 13 7 12 8 14 9 5 10 4 11 2 12 3 13
REMARK SMILES IDX 1 14
REMARK H PARENT
REMARK Flexibility Score: inf
ROOT
ATOM      1  C   UNL     1      17.174 -10.774  66.696  1.00  0.00    -0.077 C 
ATOM      2  C   UNL     1      16.509 -10.424  65.574  1.00  0.00    -0.028 C 
ATOM      3  C   UNL     1      17.289 -12.217  67.126  1.00  0.00     0.039 C 
ENDROOT
BRANCH   1   4
ATOM      4  C   UNL     1      17.821  -9.696  67.540  1.00  0.00     0.034 C 
BRANCH   4   5
ATOM      5  C   UNL     1      19.348  -9.762  67.431  1.00  0.00     0.032 C 
BRANCH   5   6
ATOM      6  C   UNL     1      19.803  -9.361  66.049  1.00  0.00    -0.028 C 
ATOM      7  C   UNL     1      20.729  -9.670  63.794  1.00  0.00     0.039 C 
ATOM      8  C   UNL     1      20.359 -10.206  65.153  1.00  0.00    -0.080 C 
ATOM      9  C   UNL     1      20.632 -11.656  65.482  1.00  0.00     0.039 C 
ENDBRANCH   5   6
ENDBRANCH   4   5
ENDBRANCH   1   4
BRANCH   2  10
ATOM     10  C   UNL     1      15.831 -11.428  64.671  1.00  0.00     0.035 C 
BRANCH  10  11
ATOM     11  C   UNL     1      16.441 -11.409  63.266  1.00  0.00     0.079 C 
BRANCH  11  12
ATOM     12  C   UNL     1      16.866 -12.793  62.851  1.00  0.00     0.130 C 
ATOM     13  O   UNL     1      17.082 -13.028  61.672  1.00  0.00    -0.300 OA
ATOM     14  C   UNL     1      17.022 -13.897  63.855  1.00  0.00     0.087 C 
ENDBRANCH  11  12
ENDBRANCH  10  11
ENDBRANCH   2  10
TORSDOF 6
ENDMDL
MODEL 6
REMARK VINA RESULT:    -4.988      1.825      3.299
REMARK INTER + INTRA:          -7.611
REMARK INTER:                  -6.492
REMARK INTRA:                  -1.119
REMARK UNBOUND:                -0.873
REMARK SMILES CC(=O)CCC=C(C)CCC=C(C)C
REMARK SMILES IDX 7 1 6 2 8 3 9 4 10 5 11 6 13 7 12 8 14 9 5 10 4 11 2 12 3 13
REMARK SMILES IDX 1 14
REMARK H PARENT
REMARK Flexibility Score: inf
ROOT
ATOM      1  C   UNL     1      19.357 -10.507  65.049  1.00  0.00    -0.077 C 
ATOM      2  C   UNL     1      19.339 -11.800  65.441  1.00  0.00    -0.028 C 
ATOM      3  C   UNL     1      20.191  -9.477  65.772  1.00  0.00     0.039 C 
ENDROOT
BRANCH   1   4
ATOM      4  C   UNL     1      18.522 -10.082  63.860  1.00  0.00     0.034 C 
BRANCH   4   5
ATOM      5  C   UNL     1      17.186  -9.488  64.316  1.00  0.00     0.032 C 
BRANCH   5   6
ATOM      6  C   UNL     1      16.055 -10.451  64.053  1.00  0.00    -0.028 C 
ATOM      7  C   UNL     1      14.332 -12.118  64.591  1.00  0.00     0.039 C 
ATOM      8  C   UNL     1      15.482 -11.231  64.994  1.00  0.00    -0.080 C 
ATOM      9  C   UNL     1      15.970 -11.251  66.425  1.00  0.00     0.039 C 
ENDBRANCH   5   6
ENDBRANCH   4   5
ENDBRANCH   1   4
BRANCH   2  10
ATOM     10  C   UNL     1      20.136 -12.316  66.615  1.00  0.00     0.035 C 
BRANCH  10  11
ATOM     11  C   UNL     1      19.246 -12.510  67.846  1.00  0.00     0.079 C 
BRANCH  11  12
ATOM     12  C   UNL     1      19.703 -11.629  68.979  1.00  0.00     0.130 C 
ATOM     13  O   UNL     1      20.544 -12.043  69.762  1.00  0.00    -0.300 OA
ATOM     14  C   UNL     1      19.139 -10.252  69.175  1.00  0.00     0.087 C 
ENDBRANCH  11  12
ENDBRANCH  10  11
ENDBRANCH   2  10
TORSDOF 6
ENDMDL
MODEL 7
REMARK VINA RESULT:    -4.842      3.052      5.679
REMARK INTER + INTRA:          -7.414
REMARK INTER:                  -6.456
REMARK INTRA:                  -0.957
REMARK UNBOUND:                -0.873
REMARK SMILES CC(=O)CCC=C(C)CCC=C(C)C
REMARK SMILES IDX 7 1 6 2 8 3 9 4 10 5 11 6 13 7 12 8 14 9 5 10 4 11 2 12 3 13
REMARK SMILES IDX 1 14
REMARK H PARENT
REMARK Flexibility Score: inf
ROOT
ATOM      1  C   UNL     1      17.194 -10.856  66.764  1.00  0.00    -0.077 C 
ATOM      2  C   UNL     1      16.455 -10.654  65.651  1.00  0.00    -0.028 C 
ATOM      3  C   UNL     1      17.408 -12.242  67.326  1.00  0.00     0.039 C 
ENDROOT
BRANCH   1   4
ATOM      4  C   UNL     1      17.822  -9.669  67.461  1.00  0.00     0.034 C 
BRANCH   4   5
ATOM      5  C   UNL     1      19.350  -9.721  67.357  1.00  0.00     0.032 C 
BRANCH   5   6
ATOM      6  C   UNL     1      19.803  -9.345  65.968  1.00  0.00    -0.028 C 
ATOM      7  C   UNL     1      20.775  -9.684  63.737  1.00  0.00     0.039 C 
ATOM      8  C   UNL     1      20.414 -10.190  65.109  1.00  0.00    -0.080 C 
ATOM      9  C   UNL     1      20.757 -11.612  65.492  1.00  0.00     0.039 C 
ENDBRANCH   5   6
ENDBRANCH   4   5
ENDBRANCH   1   4
BRANCH   2  10
ATOM     10  C   UNL     1      15.789 -11.776  64.890  1.00  0.00     0.035 C 
BRANCH  10  11
ATOM     11  C   UNL     1      14.289 -11.514  64.716  1.00  0.00     0.079 C 
BRANCH  11  12
ATOM     12  C   UNL     1      14.038 -10.620  63.530  1.00  0.00     0.130 C 
ATOM     13  O   UNL     1      13.141  -9.792  63.580  1.00  0.00    -0.300 OA
ATOM     14  C   UNL     1      14.860 -10.731  62.279  1.00  0.00     0.087 C 
ENDBRANCH  11  12
ENDBRANCH  10  11
ENDBRANCH   2  10
TORSDOF 6
ENDMDL
MODEL 8
REMARK VINA RESULT:    -4.820      1.930      2.289
REMARK INTER + INTRA:          -7.383
REMARK INTER:                  -6.133
REMARK INTRA:                  -1.250
REMARK UNBOUND:                -0.873
REMARK SMILES CC(=O)CCC=C(C)CCC=C(C)C
REMARK SMILES IDX 7 1 6 2 8 3 9 4 10 5 11 6 13 7 12 8 14 9 5 10 4 11 2 12 3 13
REMARK SMILES IDX 1 14
REMARK H PARENT
REMARK Flexibility Score: inf
ROOT
ATOM      1  C   UNL     1      16.937 -11.297  66.524  1.00  0.00    -0.077 C 
ATOM      2  C   UNL     1      17.318 -10.077  66.963  1.00  0.00    -0.028 C 
ATOM      3  C   UNL     1      17.920 -12.438  66.417  1.00  0.00     0.039 C 
ENDROOT
BRANCH   1   4
ATOM      4  C   UNL     1      15.492 -11.524  66.132  1.00  0.00     0.034 C 
BRANCH   4   5
ATOM      5  C   UNL     1      15.349 -11.620  64.610  1.00  0.00     0.032 C 
BRANCH   5   6
ATOM      6  C   UNL     1      15.047 -10.266  64.015  1.00  0.00    -0.028 C 
ATOM      7  C   UNL     1      15.486  -8.191  62.775  1.00  0.00     0.039 C 
ATOM      8  C   UNL     1      15.943  -9.508  63.349  1.00  0.00    -0.080 C 
ATOM      9  C   UNL     1      17.384  -9.933  63.179  1.00  0.00     0.039 C 
ENDBRANCH   5   6
ENDBRANCH   4   5
ENDBRANCH   1   4
BRANCH   2  10
ATOM     10  C   UNL     1      18.735  -9.756  67.374  1.00  0.00     0.035 C 
BRANCH  10  11
ATOM     11  C   UNL     1      19.521  -9.135  66.215  1.00  0.00     0.079 C 
BRANCH  11  12
ATOM     12  C   UNL     1      20.627 -10.054  65.767  1.00  0.00     0.130 C 
ATOM     13  O   UNL     1      21.282 -10.658  66.603  1.00  0.00    -0.300 OA
ATOM     14  C   UNL     1      20.950 -10.239  64.313  1.00  0.00     0.087 C 
ENDBRANCH  11  12
ENDBRANCH  10  11
ENDBRANCH   2  10
TORSDOF 6
ENDMDL
MODEL 9
REMARK VINA RESULT:    -4.805      2.704      5.551
REMARK INTER + INTRA:          -7.363
REMARK INTER:                  -6.103
REMARK INTRA:                  -1.259
REMARK UNBOUND:                -0.873
REMARK SMILES CC(=O)CCC=C(C)CCC=C(C)C
REMARK SMILES IDX 7 1 6 2 8 3 9 4 10 5 11 6 13 7 12 8 14 9 5 10 4 11 2 12 3 13
REMARK SMILES IDX 1 14
REMARK H PARENT
REMARK Flexibility Score: inf
ROOT
ATOM      1  C   UNL     1      17.740 -12.163  67.220  1.00  0.00    -0.077 C 
ATOM      2  C   UNL     1      16.829 -11.218  66.897  1.00  0.00    -0.028 C 
ATOM      3  C   UNL     1      18.025 -13.328  66.303  1.00  0.00     0.039 C 
ENDROOT
BRANCH   1   4
ATOM      4  C   UNL     1      18.491 -12.049  68.529  1.00  0.00     0.034 C 
BRANCH   4   5
ATOM      5  C   UNL     1      19.479 -10.878  68.491  1.00  0.00     0.032 C 
BRANCH   5   6
ATOM      6  C   UNL     1      20.617 -11.171  67.545  1.00  0.00    -0.028 C 
ATOM      7  C   UNL     1      22.067 -10.861  65.586  1.00  0.00     0.039 C 
ATOM      8  C   UNL     1      20.867 -10.478  66.413  1.00  0.00    -0.080 C 
ATOM      9  C   UNL     1      19.973  -9.350  65.950  1.00  0.00     0.039 C 
ENDBRANCH   5   6
ENDBRANCH   4   5
ENDBRANCH   1   4
BRANCH   2  10
ATOM     10  C   UNL     1      16.031 -11.248  65.615  1.00  0.00     0.035 C 
BRANCH  10  11
ATOM     11  C   UNL     1      16.608 -10.278  64.580  1.00  0.00     0.079 C 
BRANCH  11  12
ATOM     12  C   UNL     1      17.308 -11.028  63.477  1.00  0.00     0.130 C 
ATOM     13  O   UNL     1      18.482 -10.789  63.238  1.00  0.00    -0.300 OA
ATOM     14  C   UNL     1      16.591 -12.059  62.656  1.00  0.00     0.087 C 
ENDBRANCH  11  12
ENDBRANCH  10  11
ENDBRANCH   2  10
TORSDOF 6
ENDMDL
