MODEL 1
REMARK VINA RESULT:    -7.734      0.000      0.000
REMARK INTER + INTRA:          -8.412
REMARK INTER:                  -8.412
REMARK INTRA:                   0.000
REMARK UNBOUND:                 0.000
REMARK SMILES Cc1cc(O)c2c(c1)C(=O)c1cc(O)cc(O)c1C2=O
REMARK SMILES IDX 1 1 2 2 8 3 7 4 6 5 4 6 3 7 19 8 20 9 18 10 11 11 9 12 10 13
REMARK SMILES IDX 12 14 13 15 15 16 16 17 5 18 17 20 14 22
REMARK H PARENT 5 19 17 21 14 23
REMARK Flexibility Score: inf
ROOT
ATOM      1  C   UNL     1     -16.369  28.833 -21.390  1.00  0.00     0.044 C 
ATOM      2  C   UNL     1     -17.027  30.086 -21.889  1.00  0.00    -0.047 A 
ATOM      3  C   UNL     1     -18.349  30.378 -21.534  1.00  0.00     0.016 A 
ATOM      4  C   UNL     1     -18.985  31.533 -22.024  1.00  0.00     0.038 A 
ATOM      5  C   UNL     1     -18.295  32.395 -22.901  1.00  0.00     0.076 A 
ATOM      6  C   UNL     1     -16.964  32.090 -23.268  1.00  0.00     0.127 A 
ATOM      7  C   UNL     1     -16.345  30.937 -22.766  1.00  0.00     0.050 A 
ATOM      8  C   UNL     1     -18.995  33.590 -23.441  1.00  0.00     0.201 C 
ATOM      9  O   UNL     1     -18.549  34.157 -24.473  1.00  0.00    -0.288 OA
ATOM     10  C   UNL     1     -20.280  34.042 -22.836  1.00  0.00     0.076 A 
ATOM     11  C   UNL     1     -20.989  33.138 -22.010  1.00  0.00     0.041 A 
ATOM     12  C   UNL     1     -20.379  31.842 -21.630  1.00  0.00     0.194 C 
ATOM     13  O   UNL     1     -21.040  31.008 -20.952  1.00  0.00    -0.289 OA
ATOM     14  C   UNL     1     -22.271  33.474 -21.543  1.00  0.00     0.059 A 
ATOM     15  C   UNL     1     -22.847  34.703 -21.873  1.00  0.00     0.120 A 
ATOM     16  C   UNL     1     -22.135  35.616 -22.645  1.00  0.00     0.093 A 
ATOM     17  C   UNL     1     -20.847  35.319 -23.102  1.00  0.00     0.131 A 
ENDROOT
BRANCH   6  18
ATOM     18  O   UNL     1     -16.251  32.931 -24.123  1.00  0.00    -0.507 OA
ATOM     19  H   UNL     1     -15.381  32.639 -24.554  1.00  0.00     0.293 HD
ENDBRANCH   6  18
BRANCH  17  20
ATOM     20  O   UNL     1     -20.160  36.330 -23.779  1.00  0.00    -0.507 OA
ATOM     21  H   UNL     1     -20.614  37.113 -24.229  1.00  0.00     0.293 HD
ENDBRANCH  17  20
BRANCH  15  22
ATOM     22  O   UNL     1     -24.125  35.031 -21.424  1.00  0.00    -0.508 OA
ATOM     23  H   UNL     1     -24.276  35.461 -20.519  1.00  0.00     0.293 HD
ENDBRANCH  15  22
TORSDOF 3
ENDMDL
MODEL 2
REMARK VINA RESULT:    -7.648      2.252      3.991
REMARK INTER + INTRA:          -8.318
REMARK INTER:                  -8.318
REMARK INTRA:                   0.000
REMARK UNBOUND:                 0.000
REMARK SMILES Cc1cc(O)c2c(c1)C(=O)c1cc(O)cc(O)c1C2=O
REMARK SMILES IDX 1 1 2 2 8 3 7 4 6 5 4 6 3 7 19 8 20 9 18 10 11 11 9 12 10 13
REMARK SMILES IDX 12 14 13 15 15 16 16 17 5 18 17 20 14 22
REMARK H PARENT 5 19 17 21 14 23
REMARK Flexibility Score: inf
ROOT
ATOM      1  C   UNL     1     -15.495  35.268 -22.221  1.00  0.00     0.044 C 
ATOM      2  C   UNL     1     -16.978  35.040 -22.270  1.00  0.00    -0.047 A 
ATOM      3  C   UNL     1     -17.508  33.785 -21.951  1.00  0.00     0.016 A 
ATOM      4  C   UNL     1     -18.894  33.551 -22.026  1.00  0.00     0.038 A 
ATOM      5  C   UNL     1     -19.757  34.583 -22.449  1.00  0.00     0.076 A 
ATOM      6  C   UNL     1     -19.215  35.846 -22.783  1.00  0.00     0.127 A 
ATOM      7  C   UNL     1     -17.833  36.061 -22.698  1.00  0.00     0.050 A 
ATOM      8  C   UNL     1     -21.213  34.308 -22.561  1.00  0.00     0.201 C 
ATOM      9  O   UNL     1     -21.936  35.067 -23.260  1.00  0.00    -0.288 OA
ATOM     10  C   UNL     1     -21.793  33.080 -21.949  1.00  0.00     0.076 A 
ATOM     11  C   UNL     1     -20.915  32.029 -21.590  1.00  0.00     0.041 A 
ATOM     12  C   UNL     1     -19.448  32.225 -21.672  1.00  0.00     0.194 C 
ATOM     13  O   UNL     1     -18.669  31.265 -21.419  1.00  0.00    -0.289 OA
ATOM     14  C   UNL     1     -21.436  30.801 -21.148  1.00  0.00     0.059 A 
ATOM     15  C   UNL     1     -22.815  30.612 -21.042  1.00  0.00     0.120 A 
ATOM     16  C   UNL     1     -23.683  31.658 -21.348  1.00  0.00     0.093 A 
ATOM     17  C   UNL     1     -23.191  32.899 -21.766  1.00  0.00     0.131 A 
ENDROOT
BRANCH   6  18
ATOM     18  O   UNL     1     -20.045  36.891 -23.192  1.00  0.00    -0.507 OA
ATOM     19  H   UNL     1     -19.898  37.376 -24.069  1.00  0.00     0.293 HD
ENDBRANCH   6  18
BRANCH  17  20
ATOM     20  O   UNL     1     -24.122  33.925 -21.948  1.00  0.00    -0.507 OA
ATOM     21  H   UNL     1     -24.785  34.212 -21.243  1.00  0.00     0.293 HD
ENDBRANCH  17  20
BRANCH  15  22
ATOM     22  O   UNL     1     -23.335  29.390 -20.620  1.00  0.00    -0.508 OA
ATOM     23  H   UNL     1     -23.532  29.206 -19.644  1.00  0.00     0.293 HD
ENDBRANCH  15  22
TORSDOF 3
ENDMDL
MODEL 3
REMARK VINA RESULT:    -7.619      1.237      5.491
REMARK INTER + INTRA:          -8.287
REMARK INTER:                  -8.287
REMARK INTRA:                   0.000
REMARK UNBOUND:                 0.000
REMARK SMILES Cc1cc(O)c2c(c1)C(=O)c1cc(O)cc(O)c1C2=O
REMARK SMILES IDX 1 1 2 2 8 3 7 4 6 5 4 6 3 7 19 8 20 9 18 10 11 11 9 12 10 13
REMARK SMILES IDX 12 14 13 15 15 16 16 17 5 18 17 20 14 22
REMARK H PARENT 5 19 17 21 14 23
REMARK Flexibility Score: inf
ROOT
ATOM      1  C   UNL     1     -24.125  34.953 -21.514  1.00  0.00     0.044 C 
ATOM      2  C   UNL     1     -22.719  34.647 -21.942  1.00  0.00    -0.047 A 
ATOM      3  C   UNL     1     -22.119  33.437 -21.576  1.00  0.00     0.016 A 
ATOM      4  C   UNL     1     -20.791  33.155 -21.943  1.00  0.00     0.038 A 
ATOM      5  C   UNL     1     -20.046  34.109 -22.667  1.00  0.00     0.076 A 
ATOM      6  C   UNL     1     -20.652  35.335 -23.025  1.00  0.00     0.127 A 
ATOM      7  C   UNL     1     -21.977  35.596 -22.653  1.00  0.00     0.050 A 
ATOM      8  C   UNL     1     -18.631  33.811 -23.013  1.00  0.00     0.201 C 
ATOM      9  O   UNL     1     -17.857  34.755 -23.326  1.00  0.00    -0.288 OA
ATOM     10  C   UNL     1     -18.102  32.425 -22.877  1.00  0.00     0.076 A 
ATOM     11  C   UNL     1     -18.832  31.501 -22.092  1.00  0.00     0.041 A 
ATOM     12  C   UNL     1     -20.169  31.866 -21.564  1.00  0.00     0.194 C 
ATOM     13  O   UNL     1     -20.786  31.068 -20.807  1.00  0.00    -0.289 OA
ATOM     14  C   UNL     1     -18.293  30.233 -21.820  1.00  0.00     0.059 A 
ATOM     15  C   UNL     1     -17.046  29.867 -22.332  1.00  0.00     0.120 A 
ATOM     16  C   UNL     1     -16.344  30.754 -23.145  1.00  0.00     0.093 A 
ATOM     17  C   UNL     1     -16.869  32.013 -23.453  1.00  0.00     0.131 A 
ENDROOT
BRANCH   6  18
ATOM     18  O   UNL     1     -19.945  36.292 -23.753  1.00  0.00    -0.507 OA
ATOM     19  H   UNL     1     -18.979  36.150 -24.022  1.00  0.00     0.293 HD
ENDBRANCH   6  18
BRANCH  17  20
ATOM     20  O   UNL     1     -16.153  32.798 -24.360  1.00  0.00    -0.507 OA
ATOM     21  H   UNL     1     -15.831  32.466 -25.258  1.00  0.00     0.293 HD
ENDBRANCH  17  20
BRANCH  15  22
ATOM     22  O   UNL     1     -16.501  28.616 -22.050  1.00  0.00    -0.508 OA
ATOM     23  H   UNL     1     -17.083  27.831 -21.785  1.00  0.00     0.293 HD
ENDBRANCH  15  22
TORSDOF 3
ENDMDL
MODEL 4
REMARK VINA RESULT:    -7.209      2.021      2.220
REMARK INTER + INTRA:          -7.841
REMARK INTER:                  -7.841
REMARK INTRA:                   0.000
REMARK UNBOUND:                 0.000
REMARK SMILES Cc1cc(O)c2c(c1)C(=O)c1cc(O)cc(O)c1C2=O
REMARK SMILES IDX 1 1 2 2 8 3 7 4 6 5 4 6 3 7 19 8 20 9 18 10 11 11 9 12 10 13
REMARK SMILES IDX 12 14 13 15 15 16 16 17 5 18 17 20 14 22
REMARK H PARENT 5 19 17 21 14 23
REMARK Flexibility Score: inf
ROOT
ATOM      1  C   UNL     1     -18.200  27.394 -24.320  1.00  0.00     0.044 C 
ATOM      2  C   UNL     1     -18.103  28.882 -24.153  1.00  0.00    -0.047 A 
ATOM      3  C   UNL     1     -19.263  29.664 -24.108  1.00  0.00     0.016 A 
ATOM      4  C   UNL     1     -19.182  31.063 -23.985  1.00  0.00     0.038 A 
ATOM      5  C   UNL     1     -17.920  31.690 -23.929  1.00  0.00     0.076 A 
ATOM      6  C   UNL     1     -16.750  30.898 -23.987  1.00  0.00     0.127 A 
ATOM      7  C   UNL     1     -16.851  29.506 -24.106  1.00  0.00     0.050 A 
ATOM      8  C   UNL     1     -17.852  33.172 -23.839  1.00  0.00     0.201 C 
ATOM      9  O   UNL     1     -16.783  33.764 -24.147  1.00  0.00    -0.288 OA
ATOM     10  C   UNL     1     -19.071  33.959 -23.502  1.00  0.00     0.076 A 
ATOM     11  C   UNL     1     -20.333  33.330 -23.626  1.00  0.00     0.041 A 
ATOM     12  C   UNL     1     -20.416  31.880 -23.923  1.00  0.00     0.194 C 
ATOM     13  O   UNL     1     -21.540  31.336 -24.103  1.00  0.00    -0.289 OA
ATOM     14  C   UNL     1     -21.509  34.080 -23.459  1.00  0.00     0.059 A 
ATOM     15  C   UNL     1     -21.445  35.442 -23.155  1.00  0.00     0.120 A 
ATOM     16  C   UNL     1     -20.207  36.056 -22.984  1.00  0.00     0.093 A 
ATOM     17  C   UNL     1     -19.021  35.327 -23.118  1.00  0.00     0.131 A 
ENDROOT
BRANCH   6  18
ATOM     18  O   UNL     1     -15.488  31.488 -23.921  1.00  0.00    -0.507 OA
ATOM     19  H   UNL     1     -14.647  30.979 -24.169  1.00  0.00     0.293 HD
ENDBRANCH   6  18
BRANCH  17  20
ATOM     20  O   UNL     1     -17.827  35.992 -22.825  1.00  0.00    -0.507 OA
ATOM     21  H   UNL     1     -17.515  36.197 -21.887  1.00  0.00     0.293 HD
ENDBRANCH  17  20
BRANCH  15  22
ATOM     22  O   UNL     1     -22.610  36.192 -23.006  1.00  0.00    -0.508 OA
ATOM     23  H   UNL     1     -23.527  35.769 -23.082  1.00  0.00     0.293 HD
ENDBRANCH  15  22
TORSDOF 3
ENDMDL
MODEL 5
REMARK VINA RESULT:    -7.168      1.938      3.459
REMARK INTER + INTRA:          -7.797
REMARK INTER:                  -7.797
REMARK INTRA:                   0.000
REMARK UNBOUND:                 0.000
REMARK SMILES Cc1cc(O)c2c(c1)C(=O)c1cc(O)cc(O)c1C2=O
REMARK SMILES IDX 1 1 2 2 8 3 7 4 6 5 4 6 3 7 19 8 20 9 18 10 11 11 9 12 10 13
REMARK SMILES IDX 12 14 13 15 15 16 16 17 5 18 17 20 14 22
REMARK H PARENT 5 19 17 21 14 23
REMARK Flexibility Score: inf
ROOT
ATOM      1  C   UNL     1     -14.434  29.332 -24.567  1.00  0.00     0.044 C 
ATOM      2  C   UNL     1     -15.811  29.856 -24.285  1.00  0.00    -0.047 A 
ATOM      3  C   UNL     1     -16.017  31.226 -24.089  1.00  0.00     0.016 A 
ATOM      4  C   UNL     1     -17.299  31.724 -23.790  1.00  0.00     0.038 A 
ATOM      5  C   UNL     1     -18.385  30.833 -23.664  1.00  0.00     0.076 A 
ATOM      6  C   UNL     1     -18.170  29.448 -23.851  1.00  0.00     0.127 A 
ATOM      7  C   UNL     1     -16.887  28.972 -24.151  1.00  0.00     0.050 A 
ATOM      8  C   UNL     1     -19.724  31.371 -23.309  1.00  0.00     0.201 C 
ATOM      9  O   UNL     1     -20.602  30.595 -22.846  1.00  0.00    -0.288 OA
ATOM     10  C   UNL     1     -19.989  32.835 -23.390  1.00  0.00     0.076 A 
ATOM     11  C   UNL     1     -18.883  33.716 -23.452  1.00  0.00     0.041 A 
ATOM     12  C   UNL     1     -17.510  33.177 -23.600  1.00  0.00     0.194 C 
ATOM     13  O   UNL     1     -16.520  33.960 -23.583  1.00  0.00    -0.289 OA
ATOM     14  C   UNL     1     -19.088  35.104 -23.381  1.00  0.00     0.059 A 
ATOM     15  C   UNL     1     -20.379  35.626 -23.267  1.00  0.00     0.120 A 
ATOM     16  C   UNL     1     -21.474  34.767 -23.254  1.00  0.00     0.093 A 
ATOM     17  C   UNL     1     -21.301  33.382 -23.349  1.00  0.00     0.131 A 
ENDROOT
BRANCH   6  18
ATOM     18  O   UNL     1     -19.227  28.544 -23.745  1.00  0.00    -0.507 OA
ATOM     19  H   UNL     1     -19.193  27.755 -23.110  1.00  0.00     0.293 HD
ENDBRANCH   6  18
BRANCH  17  20
ATOM     20  O   UNL     1     -22.455  32.600 -23.438  1.00  0.00    -0.507 OA
ATOM     21  H   UNL     1     -22.501  31.722 -23.936  1.00  0.00     0.293 HD
ENDBRANCH  17  20
BRANCH  15  22
ATOM     22  O   UNL     1     -20.583  37.002 -23.179  1.00  0.00    -0.508 OA
ATOM     23  H   UNL     1     -20.180  37.552 -22.430  1.00  0.00     0.293 HD
ENDBRANCH  15  22
TORSDOF 3
ENDMDL
MODEL 6
REMARK VINA RESULT:    -7.084      2.610      6.027
REMARK INTER + INTRA:          -7.705
REMARK INTER:                  -7.705
REMARK INTRA:                   0.000
REMARK UNBOUND:                 0.000
REMARK SMILES Cc1cc(O)c2c(c1)C(=O)c1cc(O)cc(O)c1C2=O
REMARK SMILES IDX 1 1 2 2 8 3 7 4 6 5 4 6 3 7 19 8 20 9 18 10 11 11 9 12 10 13
REMARK SMILES IDX 12 14 13 15 15 16 16 17 5 18 17 20 14 22
REMARK H PARENT 5 19 17 21 14 23
REMARK Flexibility Score: inf
ROOT
ATOM      1  C   UNL     1     -23.168  33.371 -21.040  1.00  0.00     0.044 C 
ATOM      2  C   UNL     1     -22.220  32.820 -22.064  1.00  0.00    -0.047 A 
ATOM      3  C   UNL     1     -20.875  32.612 -21.738  1.00  0.00     0.016 A 
ATOM      4  C   UNL     1     -19.970  32.128 -22.700  1.00  0.00     0.038 A 
ATOM      5  C   UNL     1     -20.414  31.871 -24.014  1.00  0.00     0.076 A 
ATOM      6  C   UNL     1     -21.772  32.095 -24.342  1.00  0.00     0.127 A 
ATOM      7  C   UNL     1     -22.658  32.574 -23.370  1.00  0.00     0.050 A 
ATOM      8  C   UNL     1     -19.437  31.397 -25.029  1.00  0.00     0.201 C 
ATOM      9  O   UNL     1     -19.712  31.507 -26.254  1.00  0.00    -0.288 OA
ATOM     10  C   UNL     1     -18.096  30.907 -24.606  1.00  0.00     0.076 A 
ATOM     11  C   UNL     1     -17.642  31.231 -23.305  1.00  0.00     0.041 A 
ATOM     12  C   UNL     1     -18.552  31.895 -22.342  1.00  0.00     0.194 C 
ATOM     13  O   UNL     1     -18.124  32.246 -21.209  1.00  0.00    -0.289 OA
ATOM     14  C   UNL     1     -16.327  30.913 -22.923  1.00  0.00     0.059 A 
ATOM     15  C   UNL     1     -15.467  30.264 -23.811  1.00  0.00     0.120 A 
ATOM     16  C   UNL     1     -15.923  29.900 -25.075  1.00  0.00     0.093 A 
ATOM     17  C   UNL     1     -17.234  30.180 -25.473  1.00  0.00     0.131 A 
ENDROOT
BRANCH   6  18
ATOM     18  O   UNL     1     -22.244  31.837 -25.630  1.00  0.00    -0.507 OA
ATOM     19  H   UNL     1     -22.593  32.578 -26.228  1.00  0.00     0.293 HD
ENDBRANCH   6  18
BRANCH  17  20
ATOM     20  O   UNL     1     -17.644  29.687 -26.714  1.00  0.00    -0.507 OA
ATOM     21  H   UNL     1     -18.490  29.979 -27.182  1.00  0.00     0.293 HD
ENDBRANCH  17  20
BRANCH  15  22
ATOM     22  O   UNL     1     -14.158  29.963 -23.440  1.00  0.00    -0.508 OA
ATOM     23  H   UNL     1     -13.939  29.147 -22.880  1.00  0.00     0.293 HD
ENDBRANCH  15  22
TORSDOF 3
ENDMDL
MODEL 7
REMARK VINA RESULT:    -7.083      2.489      6.429
REMARK INTER + INTRA:          -7.704
REMARK INTER:                  -7.704
REMARK INTRA:                   0.000
REMARK UNBOUND:                 0.000
REMARK SMILES Cc1cc(O)c2c(c1)C(=O)c1cc(O)cc(O)c1C2=O
REMARK SMILES IDX 1 1 2 2 8 3 7 4 6 5 4 6 3 7 19 8 20 9 18 10 11 11 9 12 10 13
REMARK SMILES IDX 12 14 13 15 15 16 16 17 5 18 17 20 14 22
REMARK H PARENT 5 19 17 21 14 23
REMARK Flexibility Score: inf
ROOT
ATOM      1  C   UNL     1     -23.795  36.430 -21.317  1.00  0.00     0.044 C 
ATOM      2  C   UNL     1     -23.267  35.111 -21.798  1.00  0.00    -0.047 A 
ATOM      3  C   UNL     1     -22.170  35.065 -22.667  1.00  0.00     0.016 A 
ATOM      4  C   UNL     1     -21.689  33.835 -23.151  1.00  0.00     0.038 A 
ATOM      5  C   UNL     1     -22.330  32.635 -22.778  1.00  0.00     0.076 A 
ATOM      6  C   UNL     1     -23.445  32.687 -21.909  1.00  0.00     0.127 A 
ATOM      7  C   UNL     1     -23.908  33.921 -21.435  1.00  0.00     0.050 A 
ATOM      8  C   UNL     1     -21.833  31.347 -23.329  1.00  0.00     0.201 C 
ATOM      9  O   UNL     1     -22.581  30.334 -23.308  1.00  0.00    -0.288 OA
ATOM     10  C   UNL     1     -20.508  31.284 -24.007  1.00  0.00     0.076 A 
ATOM     11  C   UNL     1     -19.912  32.496 -24.431  1.00  0.00     0.041 A 
ATOM     12  C   UNL     1     -20.519  33.795 -24.057  1.00  0.00     0.194 C 
ATOM     13  O   UNL     1     -20.026  34.871 -24.496  1.00  0.00    -0.289 OA
ATOM     14  C   UNL     1     -18.737  32.466 -25.202  1.00  0.00     0.059 A 
ATOM     15  C   UNL     1     -18.141  31.249 -25.540  1.00  0.00     0.120 A 
ATOM     16  C   UNL     1     -18.696  30.056 -25.085  1.00  0.00     0.093 A 
ATOM     17  C   UNL     1     -19.850  30.057 -24.295  1.00  0.00     0.131 A 
ENDROOT
BRANCH   6  18
ATOM     18  O   UNL     1     -24.091  31.516 -21.512  1.00  0.00    -0.507 OA
ATOM     19  H   UNL     1     -23.590  30.643 -21.398  1.00  0.00     0.293 HD
ENDBRANCH   6  18
BRANCH  17  20
ATOM     20  O   UNL     1     -20.280  28.827 -23.791  1.00  0.00    -0.507 OA
ATOM     21  H   UNL     1     -19.683  28.015 -23.708  1.00  0.00     0.293 HD
ENDBRANCH  17  20
BRANCH  15  22
ATOM     22  O   UNL     1     -16.985  31.216 -26.318  1.00  0.00    -0.508 OA
ATOM     23  H   UNL     1     -16.664  32.031 -26.827  1.00  0.00     0.293 HD
ENDBRANCH  15  22
TORSDOF 3
ENDMDL
MODEL 8
REMARK VINA RESULT:    -6.715     14.851     16.345
REMARK INTER + INTRA:          -7.304
REMARK INTER:                  -7.304
REMARK INTRA:                   0.000
REMARK UNBOUND:                 0.000
REMARK SMILES Cc1cc(O)c2c(c1)C(=O)c1cc(O)cc(O)c1C2=O
REMARK SMILES IDX 1 1 2 2 8 3 7 4 6 5 4 6 3 7 19 8 20 9 18 10 11 11 9 12 10 13
REMARK SMILES IDX 12 14 13 15 15 16 16 17 5 18 17 20 14 22
REMARK H PARENT 5 19 17 21 14 23
REMARK Flexibility Score: inf
ROOT
ATOM      1  C   UNL     1      -3.896  36.721 -14.851  1.00  0.00     0.044 C 
ATOM      2  C   UNL     1      -4.748  35.602 -14.327  1.00  0.00    -0.047 A 
ATOM      3  C   UNL     1      -5.006  34.480 -15.123  1.00  0.00     0.016 A 
ATOM      4  C   UNL     1      -5.831  33.442 -14.654  1.00  0.00     0.038 A 
ATOM      5  C   UNL     1      -6.423  33.539 -13.378  1.00  0.00     0.076 A 
ATOM      6  C   UNL     1      -6.170  34.680 -12.581  1.00  0.00     0.127 A 
ATOM      7  C   UNL     1      -5.343  35.702 -13.064  1.00  0.00     0.050 A 
ATOM      8  C   UNL     1      -7.324  32.451 -12.913  1.00  0.00     0.201 C 
ATOM      9  O   UNL     1      -8.128  32.672 -11.969  1.00  0.00    -0.288 OA
ATOM     10  C   UNL     1      -7.358  31.148 -13.634  1.00  0.00     0.076 A 
ATOM     11  C   UNL     1      -6.815  31.088 -14.940  1.00  0.00     0.041 A 
ATOM     12  C   UNL     1      -6.087  32.252 -15.498  1.00  0.00     0.194 C 
ATOM     13  O   UNL     1      -5.666  32.222 -16.687  1.00  0.00    -0.289 OA
ATOM     14  C   UNL     1      -6.961  29.919 -15.706  1.00  0.00     0.059 A 
ATOM     15  C   UNL     1      -7.623  28.806 -15.183  1.00  0.00     0.120 A 
ATOM     16  C   UNL     1      -8.117  28.842 -13.882  1.00  0.00     0.093 A 
ATOM     17  C   UNL     1      -7.964  29.983 -13.088  1.00  0.00     0.131 A 
ENDROOT
BRANCH   6  18
ATOM     18  O   UNL     1      -6.730  34.798 -11.309  1.00  0.00    -0.507 OA
ATOM     19  H   UNL     1      -6.237  35.251 -10.549  1.00  0.00     0.293 HD
ENDBRANCH   6  18
BRANCH  17  20
ATOM     20  O   UNL     1      -8.392  29.899 -11.761  1.00  0.00    -0.507 OA
ATOM     21  H   UNL     1      -7.775  29.991 -10.966  1.00  0.00     0.293 HD
ENDBRANCH  17  20
BRANCH  15  22
ATOM     22  O   UNL     1      -7.784  27.651 -15.947  1.00  0.00    -0.508 OA
ATOM     23  H   UNL     1      -6.990  27.163 -16.344  1.00  0.00     0.293 HD
ENDBRANCH  15  22
TORSDOF 3
ENDMDL
MODEL 9
REMARK VINA RESULT:    -6.556      2.278      2.738
REMARK INTER + INTRA:          -7.131
REMARK INTER:                  -7.131
REMARK INTRA:                   0.000
REMARK UNBOUND:                 0.000
REMARK SMILES Cc1cc(O)c2c(c1)C(=O)c1cc(O)cc(O)c1C2=O
REMARK SMILES IDX 1 1 2 2 8 3 7 4 6 5 4 6 3 7 19 8 20 9 18 10 11 11 9 12 10 13
REMARK SMILES IDX 12 14 13 15 15 16 16 17 5 18 17 20 14 22
REMARK H PARENT 5 19 17 21 14 23
REMARK Flexibility Score: inf
ROOT
ATOM      1  C   UNL     1     -13.955  28.954 -23.411  1.00  0.00     0.044 C 
ATOM      2  C   UNL     1     -15.224  29.627 -23.847  1.00  0.00    -0.047 A 
ATOM      3  C   UNL     1     -16.203  29.962 -22.904  1.00  0.00     0.016 A 
ATOM      4  C   UNL     1     -17.410  30.562 -23.307  1.00  0.00     0.038 A 
ATOM      5  C   UNL     1     -17.650  30.809 -24.674  1.00  0.00     0.076 A 
ATOM      6  C   UNL     1     -16.663  30.457 -25.625  1.00  0.00     0.127 A 
ATOM      7  C   UNL     1     -15.465  29.863 -25.205  1.00  0.00     0.050 A 
ATOM      8  C   UNL     1     -18.946  31.407 -25.086  1.00  0.00     0.201 C 
ATOM      9  O   UNL     1     -19.325  31.304 -26.283  1.00  0.00    -0.288 OA
ATOM     10  C   UNL     1     -19.845  32.020 -24.068  1.00  0.00     0.076 A 
ATOM     11  C   UNL     1     -19.628  31.709 -22.705  1.00  0.00     0.041 A 
ATOM     12  C   UNL     1     -18.434  30.928 -22.301  1.00  0.00     0.194 C 
ATOM     13  O   UNL     1     -18.279  30.592 -21.095  1.00  0.00    -0.289 OA
ATOM     14  C   UNL     1     -20.541  32.148 -21.732  1.00  0.00     0.059 A 
ATOM     15  C   UNL     1     -21.656  32.906 -22.096  1.00  0.00     0.120 A 
ATOM     16  C   UNL     1     -21.850  33.256 -23.429  1.00  0.00     0.093 A 
ATOM     17  C   UNL     1     -20.943  32.854 -24.415  1.00  0.00     0.131 A 
ENDROOT
BRANCH   6  18
ATOM     18  O   UNL     1     -16.865  30.700 -26.983  1.00  0.00    -0.507 OA
ATOM     19  H   UNL     1     -17.783  30.916 -27.355  1.00  0.00     0.293 HD
ENDBRANCH   6  18
BRANCH  17  20
ATOM     20  O   UNL     1     -21.153  33.337 -25.710  1.00  0.00    -0.507 OA
ATOM     21  H   UNL     1     -20.409  33.511 -26.371  1.00  0.00     0.293 HD
ENDBRANCH  17  20
BRANCH  15  22
ATOM     22  O   UNL     1     -22.573  33.328 -21.134  1.00  0.00    -0.508 OA
ATOM     23  H   UNL     1     -22.461  34.209 -20.645  1.00  0.00     0.293 HD
ENDBRANCH  15  22
TORSDOF 3
ENDMDL
