MODEL 1
REMARK VINA RESULT:    -3.678      0.000      0.000
REMARK INTER + INTRA:          -4.435
REMARK INTER:                  -4.323
REMARK INTRA:                  -0.112
REMARK UNBOUND:                -0.112
REMARK SMILES CCCCC(=O)[O-]
REMARK SMILES IDX 4 1 5 2 6 3 7 4 3 5 2 6 1 7
REMARK H PARENT
REMARK Flexibility Score: inf
ROOT
ATOM      1  C   UNL     1     -23.737   0.730  23.911  1.00  0.00     0.053 C 
ENDROOT
BRANCH   1   2
ATOM      2  C   UNL     1     -22.804  -0.095  24.742  1.00  0.00     0.041 C 
ATOM      3  O   UNL     1     -21.623   0.293  24.942  1.00  0.00    -0.550 OA
ATOM      4  O   UNL     1     -23.224  -1.315  25.256  1.00  0.00    -0.550 OA
ENDBRANCH   1   2
BRANCH   1   5
ATOM      5  C   UNL     1     -23.113   2.097  23.605  1.00  0.00     0.006 C 
BRANCH   5   6
ATOM      6  C   UNL     1     -22.821   2.289  22.108  1.00  0.00    -0.003 C 
ATOM      7  C   UNL     1     -21.382   1.929  21.736  1.00  0.00     0.004 C 
ENDBRANCH   5   6
ENDBRANCH   1   5
TORSDOF 3
ENDMDL
MODEL 2
REMARK VINA RESULT:    -3.567      1.231      1.744
REMARK INTER + INTRA:          -4.305
REMARK INTER:                  -4.220
REMARK INTRA:                  -0.084
REMARK UNBOUND:                -0.112
REMARK SMILES CCCCC(=O)[O-]
REMARK SMILES IDX 4 1 5 2 6 3 7 4 3 5 2 6 1 7
REMARK H PARENT
REMARK Flexibility Score: inf
ROOT
ATOM      1  C   UNL     1     -22.748   1.047  24.241  1.00  0.00     0.053 C 
ENDROOT
BRANCH   1   2
ATOM      2  C   UNL     1     -23.566  -0.185  24.477  1.00  0.00     0.041 C 
ATOM      3  O   UNL     1     -24.709  -0.293  23.963  1.00  0.00    -0.550 OA
ATOM      4  O   UNL     1     -23.084  -1.192  25.304  1.00  0.00    -0.550 OA
ENDBRANCH   1   2
BRANCH   1   5
ATOM      5  C   UNL     1     -21.745   0.813  23.105  1.00  0.00     0.006 C 
BRANCH   5   6
ATOM      6  C   UNL     1     -21.803   1.912  22.032  1.00  0.00    -0.003 C 
ATOM      7  C   UNL     1     -23.222   2.429  21.793  1.00  0.00     0.004 C 
ENDBRANCH   5   6
ENDBRANCH   1   5
TORSDOF 3
ENDMDL
MODEL 3
REMARK VINA RESULT:    -3.499      2.357      3.916
REMARK INTER + INTRA:          -4.224
REMARK INTER:                  -4.191
REMARK INTRA:                  -0.033
REMARK UNBOUND:                -0.112
REMARK SMILES CCCCC(=O)[O-]
REMARK SMILES IDX 4 1 5 2 6 3 7 4 3 5 2 6 1 7
REMARK H PARENT
REMARK Flexibility Score: inf
ROOT
ATOM      1  C   UNL     1     -23.109   1.856  23.737  1.00  0.00     0.053 C 
ENDROOT
BRANCH   1   2
ATOM      2  C   UNL     1     -22.694   2.209  22.343  1.00  0.00     0.041 C 
ATOM      3  O   UNL     1     -23.487   2.825  21.584  1.00  0.00    -0.550 OA
ATOM      4  O   UNL     1     -21.450   1.815  21.866  1.00  0.00    -0.550 OA
ENDBRANCH   1   2
BRANCH   1   5
ATOM      5  C   UNL     1     -23.486   0.371  23.823  1.00  0.00     0.006 C 
BRANCH   5   6
ATOM      6  C   UNL     1     -22.741  -0.361  24.951  1.00  0.00    -0.003 C 
ATOM      7  C   UNL     1     -23.497  -1.591  25.455  1.00  0.00     0.004 C 
ENDBRANCH   5   6
ENDBRANCH   1   5
TORSDOF 3
ENDMDL
MODEL 4
REMARK VINA RESULT:    -3.472     13.918     14.804
REMARK INTER + INTRA:          -4.193
REMARK INTER:                  -4.121
REMARK INTRA:                  -0.072
REMARK UNBOUND:                -0.112
REMARK SMILES CCCCC(=O)[O-]
REMARK SMILES IDX 4 1 5 2 6 3 7 4 3 5 2 6 1 7
REMARK H PARENT
REMARK Flexibility Score: inf
ROOT
ATOM      1  C   UNL     1     -17.836   1.877  36.579  1.00  0.00     0.053 C 
ENDROOT
BRANCH   1   2
ATOM      2  C   UNL     1     -18.016   2.192  38.031  1.00  0.00     0.041 C 
ATOM      3  O   UNL     1     -19.161   2.143  38.552  1.00  0.00    -0.550 OA
ATOM      4  O   UNL     1     -16.927   2.588  38.798  1.00  0.00    -0.550 OA
ENDBRANCH   1   2
BRANCH   1   5
ATOM      5  C   UNL     1     -18.494   0.534  36.238  1.00  0.00     0.006 C 
BRANCH   5   6
ATOM      6  C   UNL     1     -17.502  -0.638  36.290  1.00  0.00    -0.003 C 
ATOM      7  C   UNL     1     -17.524  -1.371  37.632  1.00  0.00     0.004 C 
ENDBRANCH   5   6
ENDBRANCH   1   5
TORSDOF 3
ENDMDL
MODEL 5
REMARK VINA RESULT:    -3.340     12.222     13.030
REMARK INTER + INTRA:          -4.038
REMARK INTER:                  -4.013
REMARK INTRA:                  -0.025
REMARK UNBOUND:                -0.112
REMARK SMILES CCCCC(=O)[O-]
REMARK SMILES IDX 4 1 5 2 6 3 7 4 3 5 2 6 1 7
REMARK H PARENT
REMARK Flexibility Score: inf
ROOT
ATOM      1  C   UNL     1     -15.284   9.639  30.165  1.00  0.00     0.053 C 
ENDROOT
BRANCH   1   2
ATOM      2  C   UNL     1     -15.621   9.336  28.738  1.00  0.00     0.041 C 
ATOM      3  O   UNL     1     -14.849   8.624  28.043  1.00  0.00    -0.550 OA
ATOM      4  O   UNL     1     -16.762   9.879  28.162  1.00  0.00    -0.550 OA
ENDBRANCH   1   2
BRANCH   1   5
ATOM      5  C   UNL     1     -16.561   9.917  30.968  1.00  0.00     0.006 C 
BRANCH   5   6
ATOM      6  C   UNL     1     -16.403   9.582  32.459  1.00  0.00    -0.003 C 
ATOM      7  C   UNL     1     -16.749   8.127  32.777  1.00  0.00     0.004 C 
ENDBRANCH   5   6
ENDBRANCH   1   5
TORSDOF 3
ENDMDL
MODEL 6
REMARK VINA RESULT:    -3.320     10.572     11.425
REMARK INTER + INTRA:          -4.014
REMARK INTER:                  -3.969
REMARK INTRA:                  -0.046
REMARK UNBOUND:                -0.112
REMARK SMILES CCCCC(=O)[O-]
REMARK SMILES IDX 4 1 5 2 6 3 7 4 3 5 2 6 1 7
REMARK H PARENT
REMARK Flexibility Score: inf
ROOT
ATOM      1  C   UNL     1     -18.231   8.589  29.201  1.00  0.00     0.053 C 
ENDROOT
BRANCH   1   2
ATOM      2  C   UNL     1     -17.253   8.246  28.121  1.00  0.00     0.041 C 
ATOM      3  O   UNL     1     -17.612   7.541  27.142  1.00  0.00    -0.550 OA
ATOM      4  O   UNL     1     -15.932   8.663  28.221  1.00  0.00    -0.550 OA
ENDBRANCH   1   2
BRANCH   1   5
ATOM      5  C   UNL     1     -17.911   7.808  30.481  1.00  0.00     0.006 C 
BRANCH   5   6
ATOM      6  C   UNL     1     -17.485   8.724  31.639  1.00  0.00    -0.003 C 
ATOM      7  C   UNL     1     -16.704   7.980  32.723  1.00  0.00     0.004 C 
ENDBRANCH   5   6
ENDBRANCH   1   5
TORSDOF 3
ENDMDL
MODEL 7
REMARK VINA RESULT:    -3.311     11.264     11.763
REMARK INTER + INTRA:          -4.003
REMARK INTER:                  -3.909
REMARK INTRA:                  -0.094
REMARK UNBOUND:                -0.112
REMARK SMILES CCCCC(=O)[O-]
REMARK SMILES IDX 4 1 5 2 6 3 7 4 3 5 2 6 1 7
REMARK H PARENT
REMARK Flexibility Score: inf
ROOT
ATOM      1  C   UNL     1     -17.589   7.800  30.463  1.00  0.00     0.053 C 
ENDROOT
BRANCH   1   2
ATOM      2  C   UNL     1     -17.277   8.702  31.617  1.00  0.00     0.041 C 
ATOM      3  O   UNL     1     -17.401   9.949  31.497  1.00  0.00    -0.550 OA
ATOM      4  O   UNL     1     -16.802   8.168  32.808  1.00  0.00    -0.550 OA
ENDBRANCH   1   2
BRANCH   1   5
ATOM      5  C   UNL     1     -17.747   8.616  29.174  1.00  0.00     0.006 C 
BRANCH   5   6
ATOM      6  C   UNL     1     -16.700   8.248  28.112  1.00  0.00    -0.003 C 
ATOM      7  C   UNL     1     -15.322   8.840  28.411  1.00  0.00     0.004 C 
ENDBRANCH   5   6
ENDBRANCH   1   5
TORSDOF 3
ENDMDL
MODEL 8
REMARK VINA RESULT:    -3.300      9.492     10.778
REMARK INTER + INTRA:          -3.991
REMARK INTER:                  -3.943
REMARK INTRA:                  -0.048
REMARK UNBOUND:                -0.112
REMARK SMILES CCCCC(=O)[O-]
REMARK SMILES IDX 4 1 5 2 6 3 7 4 3 5 2 6 1 7
REMARK H PARENT
REMARK Flexibility Score: inf
ROOT
ATOM      1  C   UNL     1     -16.477  -1.517  32.468  1.00  0.00     0.053 C 
ENDROOT
BRANCH   1   2
ATOM      2  C   UNL     1     -15.338  -2.459  32.234  1.00  0.00     0.041 C 
ATOM      3  O   UNL     1     -14.249  -2.299  32.844  1.00  0.00    -0.550 OA
ATOM      4  O   UNL     1     -15.462  -3.484  31.305  1.00  0.00    -0.550 OA
ENDBRANCH   1   2
BRANCH   1   5
ATOM      5  C   UNL     1     -17.529  -1.666  31.361  1.00  0.00     0.006 C 
BRANCH   5   6
ATOM      6  C   UNL     1     -18.843  -2.276  31.875  1.00  0.00    -0.003 C 
ATOM      7  C   UNL     1     -20.026  -1.995  30.949  1.00  0.00     0.004 C 
ENDBRANCH   5   6
ENDBRANCH   1   5
TORSDOF 3
ENDMDL
MODEL 9
REMARK VINA RESULT:    -3.242     13.411     14.136
REMARK INTER + INTRA:          -3.923
REMARK INTER:                  -3.818
REMARK INTRA:                  -0.105
REMARK UNBOUND:                -0.112
REMARK SMILES CCCCC(=O)[O-]
REMARK SMILES IDX 4 1 5 2 6 3 7 4 3 5 2 6 1 7
REMARK H PARENT
REMARK Flexibility Score: inf
ROOT
ATOM      1  C   UNL     1     -17.713  -0.381  35.611  1.00  0.00     0.053 C 
ENDROOT
BRANCH   1   2
ATOM      2  C   UNL     1     -17.172  -1.358  36.609  1.00  0.00     0.041 C 
ATOM      3  O   UNL     1     -16.257  -2.157  36.280  1.00  0.00    -0.550 OA
ATOM      4  O   UNL     1     -17.713  -1.417  37.887  1.00  0.00    -0.550 OA
ENDBRANCH   1   2
BRANCH   1   5
ATOM      5  C   UNL     1     -18.659   0.613  36.295  1.00  0.00     0.006 C 
BRANCH   5   6
ATOM      6  C   UNL     1     -17.973   1.948  36.624  1.00  0.00    -0.003 C 
ATOM      7  C   UNL     1     -18.034   2.292  38.113  1.00  0.00     0.004 C 
ENDBRANCH   5   6
ENDBRANCH   1   5
TORSDOF 3
ENDMDL
