MODEL 1
REMARK VINA RESULT:    -4.486      0.000      0.000
REMARK INTER + INTRA:          -7.842
REMARK INTER:                  -6.846
REMARK INTRA:                  -0.996
REMARK UNBOUND:                -0.996
REMARK SMILES O=C([O-])CCCCCCCCC(=O)[O-]
REMARK SMILES IDX 7 1 6 2 5 3 4 4 2 5 1 6 3 7 8 8 9 9 10 10 11 11 12 12 13 13
REMARK SMILES IDX 14 14
REMARK H PARENT
REMARK Flexibility Score: inf
ROOT
ATOM      1  C   UNL     1      19.136  54.186  13.564  1.00  0.00     0.000 C 
ENDROOT
BRANCH   1   2
ATOM      2  C   UNL     1      19.087  53.316  14.830  1.00  0.00     0.000 C 
BRANCH   2   3
ATOM      3  C   UNL     1      20.383  53.392  15.650  1.00  0.00     0.006 C 
BRANCH   3   4
ATOM      4  C   UNL     1      21.125  54.705  15.380  1.00  0.00     0.053 C 
BRANCH   4   5
ATOM      5  C   UNL     1      22.287  54.851  16.310  1.00  0.00     0.041 C 
ATOM      6  O   UNL     1      23.058  53.878  16.520  1.00  0.00    -0.550 OA
ATOM      7  O   UNL     1      22.550  56.078  16.907  1.00  0.00    -0.550 OA
ENDBRANCH   4   5
ENDBRANCH   3   4
ENDBRANCH   2   3
ENDBRANCH   1   2
BRANCH   1   8
ATOM      8  C   UNL     1      18.034  55.259  13.541  1.00  0.00     0.000 C 
BRANCH   8   9
ATOM      9  C   UNL     1      17.266  55.346  14.870  1.00  0.00     0.000 C 
BRANCH   9  10
ATOM     10  C   UNL     1      17.642  56.594  15.688  1.00  0.00     0.006 C 
BRANCH  10  11
ATOM     11  C   UNL     1      17.552  56.344  17.199  1.00  0.00     0.053 C 
BRANCH  11  12
ATOM     12  C   UNL     1      18.906  56.303  17.838  1.00  0.00     0.041 C 
ATOM     13  O   UNL     1      19.342  55.229  18.333  1.00  0.00    -0.550 OA
ATOM     14  O   UNL     1      19.675  57.456  17.912  1.00  0.00    -0.550 OA
ENDBRANCH  11  12
ENDBRANCH  10  11
ENDBRANCH   9  10
ENDBRANCH   8   9
ENDBRANCH   1   8
TORSDOF 9
ENDMDL
MODEL 2
REMARK VINA RESULT:    -4.483      1.720      3.137
REMARK INTER + INTRA:          -7.837
REMARK INTER:                  -6.710
REMARK INTRA:                  -1.127
REMARK UNBOUND:                -0.996
REMARK SMILES O=C([O-])CCCCCCCCC(=O)[O-]
REMARK SMILES IDX 7 1 6 2 5 3 4 4 2 5 1 6 3 7 8 8 9 9 10 10 11 11 12 12 13 13
REMARK SMILES IDX 14 14
REMARK H PARENT
REMARK Flexibility Score: inf
ROOT
ATOM      1  C   UNL     1      19.531  52.634  15.386  1.00  0.00     0.000 C 
ENDROOT
BRANCH   1   2
ATOM      2  C   UNL     1      19.438  52.946  16.888  1.00  0.00     0.000 C 
BRANCH   2   3
ATOM      3  C   UNL     1      20.378  54.083  17.315  1.00  0.00     0.006 C 
BRANCH   3   4
ATOM      4  C   UNL     1      19.616  55.162  18.091  1.00  0.00     0.053 C 
BRANCH   4   5
ATOM      5  C   UNL     1      20.096  56.525  17.703  1.00  0.00     0.041 C 
ATOM      6  O   UNL     1      19.543  57.551  18.179  1.00  0.00    -0.550 OA
ATOM      7  O   UNL     1      21.187  56.662  16.855  1.00  0.00    -0.550 OA
ENDBRANCH   4   5
ENDBRANCH   3   4
ENDBRANCH   2   3
ENDBRANCH   1   2
BRANCH   1   8
ATOM      8  C   UNL     1      19.990  53.847  14.558  1.00  0.00     0.000 C 
BRANCH   8   9
ATOM      9  C   UNL     1      19.167  54.030  13.271  1.00  0.00     0.000 C 
BRANCH   9  10
ATOM     10  C   UNL     1      17.956  54.957  13.473  1.00  0.00     0.006 C 
BRANCH  10  11
ATOM     11  C   UNL     1      18.205  56.005  14.565  1.00  0.00     0.053 C 
BRANCH  11  12
ATOM     12  C   UNL     1      17.115  56.008  15.592  1.00  0.00     0.041 C 
ATOM     13  O   UNL     1      16.716  57.094  16.090  1.00  0.00    -0.550 OA
ATOM     14  O   UNL     1      16.560  54.810  16.021  1.00  0.00    -0.550 OA
ENDBRANCH  11  12
ENDBRANCH  10  11
ENDBRANCH   9  10
ENDBRANCH   8   9
ENDBRANCH   1   8
TORSDOF 9
ENDMDL
MODEL 3
REMARK VINA RESULT:    -4.468      1.282      1.717
REMARK INTER + INTRA:          -7.814
REMARK INTER:                  -6.932
REMARK INTRA:                  -0.882
REMARK UNBOUND:                -0.996
REMARK SMILES O=C([O-])CCCCCCCCC(=O)[O-]
REMARK SMILES IDX 7 1 6 2 5 3 4 4 2 5 1 6 3 7 8 8 9 9 10 10 11 11 12 12 13 13
REMARK SMILES IDX 14 14
REMARK H PARENT
REMARK Flexibility Score: inf
ROOT
ATOM      1  C   UNL     1      18.052  55.293  13.589  1.00  0.00     0.000 C 
ENDROOT
BRANCH   1   2
ATOM      2  C   UNL     1      18.966  54.071  13.405  1.00  0.00     0.000 C 
BRANCH   2   3
ATOM      3  C   UNL     1      20.192  54.106  14.329  1.00  0.00     0.006 C 
BRANCH   3   4
ATOM      4  C   UNL     1      20.045  53.098  15.473  1.00  0.00     0.053 C 
BRANCH   4   5
ATOM      5  C   UNL     1      20.961  53.449  16.603  1.00  0.00     0.041 C 
ATOM      6  O   UNL     1      20.601  53.255  17.794  1.00  0.00    -0.550 OA
ATOM      7  O   UNL     1      22.231  53.945  16.340  1.00  0.00    -0.550 OA
ENDBRANCH   4   5
ENDBRANCH   3   4
ENDBRANCH   2   3
ENDBRANCH   1   2
BRANCH   1   8
ATOM      8  C   UNL     1      16.700  54.929  14.225  1.00  0.00     0.000 C 
BRANCH   8   9
ATOM      9  C   UNL     1      16.794  54.745  15.749  1.00  0.00     0.000 C 
BRANCH   9  10
ATOM     10  C   UNL     1      16.850  56.085  16.503  1.00  0.00     0.006 C 
BRANCH  10  11
ATOM     11  C   UNL     1      17.838  56.046  17.676  1.00  0.00     0.053 C 
BRANCH  11  12
ATOM     12  C   UNL     1      19.054  56.877  17.407  1.00  0.00     0.041 C 
ATOM     13  O   UNL     1      19.618  56.831  16.281  1.00  0.00    -0.550 OA
ATOM     14  O   UNL     1      19.583  57.682  18.408  1.00  0.00    -0.550 OA
ENDBRANCH  11  12
ENDBRANCH  10  11
ENDBRANCH   9  10
ENDBRANCH   8   9
ENDBRANCH   1   8
TORSDOF 9
ENDMDL
MODEL 4
REMARK VINA RESULT:    -4.446      0.916      3.545
REMARK INTER + INTRA:          -7.782
REMARK INTER:                  -6.913
REMARK INTRA:                  -0.869
REMARK UNBOUND:                -0.996
REMARK SMILES O=C([O-])CCCCCCCCC(=O)[O-]
REMARK SMILES IDX 7 1 6 2 5 3 4 4 2 5 1 6 3 7 8 8 9 9 10 10 11 11 12 12 13 13
REMARK SMILES IDX 14 14
REMARK H PARENT
REMARK Flexibility Score: inf
ROOT
ATOM      1  C   UNL     1      16.673  54.876  14.289  1.00  0.00     0.000 C 
ENDROOT
BRANCH   1   2
ATOM      2  C   UNL     1      16.866  55.219  15.775  1.00  0.00     0.000 C 
BRANCH   2   3
ATOM      3  C   UNL     1      17.689  56.499  15.983  1.00  0.00     0.006 C 
BRANCH   3   4
ATOM      4  C   UNL     1      17.936  56.754  17.473  1.00  0.00     0.053 C 
BRANCH   4   5
ATOM      5  C   UNL     1      19.322  56.337  17.854  1.00  0.00     0.041 C 
ATOM      6  O   UNL     1      19.524  55.204  18.367  1.00  0.00    -0.550 OA
ATOM      7  O   UNL     1      20.397  57.177  17.596  1.00  0.00    -0.550 OA
ENDBRANCH   4   5
ENDBRANCH   3   4
ENDBRANCH   2   3
ENDBRANCH   1   2
BRANCH   1   8
ATOM      8  C   UNL     1      17.875  55.293  13.425  1.00  0.00     0.000 C 
BRANCH   8   9
ATOM      9  C   UNL     1      18.767  54.101  13.039  1.00  0.00     0.000 C 
BRANCH   9  10
ATOM     10  C   UNL     1      19.577  53.559  14.230  1.00  0.00     0.006 C 
BRANCH  10  11
ATOM     11  C   UNL     1      20.626  54.565  14.721  1.00  0.00     0.053 C 
BRANCH  11  12
ATOM     12  C   UNL     1      21.421  54.024  15.869  1.00  0.00     0.041 C 
ATOM     13  O   UNL     1      21.084  52.942  16.420  1.00  0.00    -0.550 OA
ATOM     14  O   UNL     1      22.517  54.729  16.350  1.00  0.00    -0.550 OA
ENDBRANCH  11  12
ENDBRANCH  10  11
ENDBRANCH   9  10
ENDBRANCH   8   9
ENDBRANCH   1   8
TORSDOF 9
ENDMDL
MODEL 5
REMARK VINA RESULT:    -4.394      1.420      4.071
REMARK INTER + INTRA:          -7.701
REMARK INTER:                  -6.730
REMARK INTRA:                  -0.971
REMARK UNBOUND:                -0.996
REMARK SMILES O=C([O-])CCCCCCCCC(=O)[O-]
REMARK SMILES IDX 7 1 6 2 5 3 4 4 2 5 1 6 3 7 8 8 9 9 10 10 11 11 12 12 13 13
REMARK SMILES IDX 14 14
REMARK H PARENT
REMARK Flexibility Score: inf
ROOT
ATOM      1  C   UNL     1      18.365  54.617  13.550  1.00  0.00     0.000 C 
ENDROOT
BRANCH   1   2
ATOM      2  C   UNL     1      18.271  55.879  14.424  1.00  0.00     0.000 C 
BRANCH   2   3
ATOM      3  C   UNL     1      17.064  55.851  15.373  1.00  0.00     0.006 C 
BRANCH   3   4
ATOM      4  C   UNL     1      17.366  56.615  16.666  1.00  0.00     0.053 C 
BRANCH   4   5
ATOM      5  C   UNL     1      17.047  55.772  17.860  1.00  0.00     0.041 C 
ATOM      6  O   UNL     1      16.464  56.278  18.856  1.00  0.00    -0.550 OA
ATOM      7  O   UNL     1      17.346  54.416  17.854  1.00  0.00    -0.550 OA
ENDBRANCH   4   5
ENDBRANCH   3   4
ENDBRANCH   2   3
ENDBRANCH   1   2
BRANCH   1   8
ATOM      8  C   UNL     1      19.675  53.842  13.771  1.00  0.00     0.000 C 
BRANCH   8   9
ATOM      9  C   UNL     1      19.773  53.234  15.180  1.00  0.00     0.000 C 
BRANCH   9  10
ATOM     10  C   UNL     1      21.044  53.677  15.926  1.00  0.00     0.006 C 
BRANCH  10  11
ATOM     11  C   UNL     1      20.732  54.647  17.072  1.00  0.00     0.053 C 
BRANCH  11  12
ATOM     12  C   UNL     1      21.215  56.034  16.774  1.00  0.00     0.041 C 
ATOM     13  O   UNL     1      22.109  56.221  15.907  1.00  0.00    -0.550 OA
ATOM     14  O   UNL     1      20.698  57.116  17.474  1.00  0.00    -0.550 OA
ENDBRANCH  11  12
ENDBRANCH  10  11
ENDBRANCH   9  10
ENDBRANCH   8   9
ENDBRANCH   1   8
TORSDOF 9
ENDMDL
MODEL 6
REMARK VINA RESULT:    -4.378      1.481      1.919
REMARK INTER + INTRA:          -7.677
REMARK INTER:                  -6.826
REMARK INTRA:                  -0.851
REMARK UNBOUND:                -0.996
REMARK SMILES O=C([O-])CCCCCCCCC(=O)[O-]
REMARK SMILES IDX 7 1 6 2 5 3 4 4 2 5 1 6 3 7 8 8 9 9 10 10 11 11 12 12 13 13
REMARK SMILES IDX 14 14
REMARK H PARENT
REMARK Flexibility Score: inf
ROOT
ATOM      1  C   UNL     1      18.787  55.019  13.955  1.00  0.00     0.000 C 
ENDROOT
BRANCH   1   2
ATOM      2  C   UNL     1      19.713  53.797  13.845  1.00  0.00     0.000 C 
BRANCH   2   3
ATOM      3  C   UNL     1      19.727  52.949  15.125  1.00  0.00     0.006 C 
BRANCH   3   4
ATOM      4  C   UNL     1      19.894  53.832  16.365  1.00  0.00     0.053 C 
BRANCH   4   5
ATOM      5  C   UNL     1      21.331  54.209  16.550  1.00  0.00     0.041 C 
ATOM      6  O   UNL     1      22.239  53.356  16.365  1.00  0.00    -0.550 OA
ATOM      7  O   UNL     1      21.670  55.515  16.878  1.00  0.00    -0.550 OA
ENDBRANCH   4   5
ENDBRANCH   3   4
ENDBRANCH   2   3
ENDBRANCH   1   2
BRANCH   1   8
ATOM      8  C   UNL     1      17.624  54.972  12.948  1.00  0.00     0.000 C 
BRANCH   8   9
ATOM      9  C   UNL     1      16.249  54.928  13.635  1.00  0.00     0.000 C 
BRANCH   9  10
ATOM     10  C   UNL     1      16.351  54.636  15.142  1.00  0.00     0.006 C 
BRANCH  10  11
ATOM     11  C   UNL     1      15.760  55.769  15.991  1.00  0.00     0.053 C 
BRANCH  11  12
ATOM     12  C   UNL     1      16.827  56.555  16.689  1.00  0.00     0.041 C 
ATOM     13  O   UNL     1      17.404  57.507  16.097  1.00  0.00    -0.550 OA
ATOM     14  O   UNL     1      17.205  56.220  17.983  1.00  0.00    -0.550 OA
ENDBRANCH  11  12
ENDBRANCH  10  11
ENDBRANCH   9  10
ENDBRANCH   8   9
ENDBRANCH   1   8
TORSDOF 9
ENDMDL
MODEL 7
REMARK VINA RESULT:    -4.331      1.649      3.607
REMARK INTER + INTRA:          -7.605
REMARK INTER:                  -6.617
REMARK INTRA:                  -0.988
REMARK UNBOUND:                -0.996
REMARK SMILES O=C([O-])CCCCCCCCC(=O)[O-]
REMARK SMILES IDX 7 1 6 2 5 3 4 4 2 5 1 6 3 7 8 8 9 9 10 10 11 11 12 12 13 13
REMARK SMILES IDX 14 14
REMARK H PARENT
REMARK Flexibility Score: inf
ROOT
ATOM      1  C   UNL     1      18.380  54.896  13.657  1.00  0.00     0.000 C 
ENDROOT
BRANCH   1   2
ATOM      2  C   UNL     1      17.560  55.100  14.941  1.00  0.00     0.000 C 
BRANCH   2   3
ATOM      3  C   UNL     1      17.697  56.520  15.510  1.00  0.00     0.006 C 
BRANCH   3   4
ATOM      4  C   UNL     1      17.960  56.482  17.019  1.00  0.00     0.053 C 
BRANCH   4   5
ATOM      5  C   UNL     1      19.301  57.069  17.332  1.00  0.00     0.041 C 
ATOM      6  O   UNL     1      19.551  57.496  18.490  1.00  0.00    -0.550 OA
ATOM      7  O   UNL     1      20.291  57.099  16.359  1.00  0.00    -0.550 OA
ENDBRANCH   4   5
ENDBRANCH   3   4
ENDBRANCH   2   3
ENDBRANCH   1   2
BRANCH   1   8
ATOM      8  C   UNL     1      19.429  53.780  13.796  1.00  0.00     0.000 C 
BRANCH   8   9
ATOM      9  C   UNL     1      20.570  54.156  14.756  1.00  0.00     0.000 C 
BRANCH   9  10
ATOM     10  C   UNL     1      20.794  53.097  15.850  1.00  0.00     0.006 C 
BRANCH  10  11
ATOM     11  C   UNL     1      20.927  53.725  17.243  1.00  0.00     0.053 C 
BRANCH  11  12
ATOM     12  C   UNL     1      19.755  53.394  18.116  1.00  0.00     0.041 C 
ATOM     13  O   UNL     1      19.864  53.445  19.370  1.00  0.00    -0.550 OA
ATOM     14  O   UNL     1      18.551  53.001  17.545  1.00  0.00    -0.550 OA
ENDBRANCH  11  12
ENDBRANCH  10  11
ENDBRANCH   9  10
ENDBRANCH   8   9
ENDBRANCH   1   8
TORSDOF 9
ENDMDL
MODEL 8
REMARK VINA RESULT:    -4.327      1.138      1.565
REMARK INTER + INTRA:          -7.599
REMARK INTER:                  -6.583
REMARK INTRA:                  -1.017
REMARK UNBOUND:                -0.996
REMARK SMILES O=C([O-])CCCCCCCCC(=O)[O-]
REMARK SMILES IDX 7 1 6 2 5 3 4 4 2 5 1 6 3 7 8 8 9 9 10 10 11 11 12 12 13 13
REMARK SMILES IDX 14 14
REMARK H PARENT
REMARK Flexibility Score: inf
ROOT
ATOM      1  C   UNL     1      18.179  55.228  13.540  1.00  0.00     0.000 C 
ENDROOT
BRANCH   1   2
ATOM      2  C   UNL     1      19.148  54.046  13.372  1.00  0.00     0.000 C 
BRANCH   2   3
ATOM      3  C   UNL     1      20.009  53.806  14.620  1.00  0.00     0.006 C 
BRANCH   3   4
ATOM      4  C   UNL     1      20.623  55.117  15.122  1.00  0.00     0.053 C 
BRANCH   4   5
ATOM      5  C   UNL     1      21.599  54.851  16.224  1.00  0.00     0.041 C 
ATOM      6  O   UNL     1      21.998  53.677  16.448  1.00  0.00    -0.550 OA
ATOM      7  O   UNL     1      22.109  55.905  16.971  1.00  0.00    -0.550 OA
ENDBRANCH   4   5
ENDBRANCH   3   4
ENDBRANCH   2   3
ENDBRANCH   1   2
BRANCH   1   8
ATOM      8  C   UNL     1      16.709  54.819  13.350  1.00  0.00     0.000 C 
BRANCH   8   9
ATOM      9  C   UNL     1      15.927  54.792  14.674  1.00  0.00     0.000 C 
BRANCH   9  10
ATOM     10  C   UNL     1      16.673  55.506  15.814  1.00  0.00     0.006 C 
BRANCH  10  11
ATOM     11  C   UNL     1      17.010  54.554  16.969  1.00  0.00     0.053 C 
BRANCH  11  12
ATOM     12  C   UNL     1      18.178  55.042  17.769  1.00  0.00     0.041 C 
ATOM     13  O   UNL     1      18.477  56.266  17.775  1.00  0.00    -0.550 OA
ATOM     14  O   UNL     1      18.955  54.142  18.488  1.00  0.00    -0.550 OA
ENDBRANCH  11  12
ENDBRANCH  10  11
ENDBRANCH   9  10
ENDBRANCH   8   9
ENDBRANCH   1   8
TORSDOF 9
ENDMDL
MODEL 9
REMARK VINA RESULT:    -4.246      2.147      4.372
REMARK INTER + INTRA:          -7.476
REMARK INTER:                  -6.438
REMARK INTRA:                  -1.038
REMARK UNBOUND:                -0.996
REMARK SMILES O=C([O-])CCCCCCCCC(=O)[O-]
REMARK SMILES IDX 7 1 6 2 5 3 4 4 2 5 1 6 3 7 8 8 9 9 10 10 11 11 12 12 13 13
REMARK SMILES IDX 14 14
REMARK H PARENT
REMARK Flexibility Score: inf
ROOT
ATOM      1  C   UNL     1      18.306  54.836  13.657  1.00  0.00     0.000 C 
ENDROOT
BRANCH   1   2
ATOM      2  C   UNL     1      17.529  55.061  14.964  1.00  0.00     0.000 C 
BRANCH   2   3
ATOM      3  C   UNL     1      17.707  56.481  15.520  1.00  0.00     0.006 C 
BRANCH   3   4
ATOM      4  C   UNL     1      17.909  56.454  17.038  1.00  0.00     0.053 C 
BRANCH   4   5
ATOM      5  C   UNL     1      16.647  56.043  17.729  1.00  0.00     0.041 C 
ATOM      6  O   UNL     1      15.578  56.678  17.526  1.00  0.00    -0.550 OA
ATOM      7  O   UNL     1      16.638  54.928  18.557  1.00  0.00    -0.550 OA
ENDBRANCH   4   5
ENDBRANCH   3   4
ENDBRANCH   2   3
ENDBRANCH   1   2
BRANCH   1   8
ATOM      8  C   UNL     1      19.481  53.858  13.829  1.00  0.00     0.000 C 
BRANCH   8   9
ATOM      9  C   UNL     1      20.615  54.441  14.689  1.00  0.00     0.000 C 
BRANCH   9  10
ATOM     10  C   UNL     1      21.057  53.484  15.810  1.00  0.00     0.006 C 
BRANCH  10  11
ATOM     11  C   UNL     1      20.936  54.126  17.198  1.00  0.00     0.053 C 
BRANCH  11  12
ATOM     12  C   UNL     1      19.818  53.525  17.994  1.00  0.00     0.041 C 
ATOM     13  O   UNL     1      19.740  53.731  19.234  1.00  0.00    -0.550 OA
ATOM     14  O   UNL     1      18.879  52.713  17.371  1.00  0.00    -0.550 OA
ENDBRANCH  11  12
ENDBRANCH  10  11
ENDBRANCH   9  10
ENDBRANCH   8   9
ENDBRANCH   1   8
TORSDOF 9
ENDMDL
