MODEL 1
REMARK VINA RESULT:    -2.759      0.000      0.000
REMARK INTER + INTRA:          -3.219
REMARK INTER:                  -3.001
REMARK INTRA:                  -0.218
REMARK UNBOUND:                -0.218
REMARK SMILES CC(C)(C)[C@@H]1C=C[C@@H](O)CC1
REMARK SMILES IDX 5 1 11 2 10 3 8 4 7 5 6 6 2 7 1 8 3 9 4 10 9 11
REMARK H PARENT 9 12
REMARK Flexibility Score: inf
ROOT
ATOM      1  C   UNL     1      36.708 -35.564 -10.272  1.00  0.00     0.017 C 
ATOM      2  C   UNL     1      36.442 -34.250 -11.058  1.00  0.00     0.011 C 
ATOM      3  C   UNL     1      34.944 -33.962 -11.157  1.00  0.00     0.037 C 
ATOM      4  C   UNL     1      34.244 -35.092 -11.926  1.00  0.00     0.137 C 
ATOM      5  C   UNL     1      34.618 -36.452 -11.384  1.00  0.00     0.000 C 
ATOM      6  C   UNL     1      35.759 -36.677 -10.710  1.00  0.00    -0.025 C 
ENDROOT
BRANCH   1   7
ATOM      7  C   UNL     1      38.222 -36.014 -10.297  1.00  0.00    -0.032 C 
ATOM      8  C   UNL     1      38.686 -36.542  -8.920  1.00  0.00     0.011 C 
ATOM      9  C   UNL     1      39.125 -34.819 -10.694  1.00  0.00     0.011 C 
ATOM     10  C   UNL     1      38.446 -37.125 -11.351  1.00  0.00     0.011 C 
ENDBRANCH   1   7
BRANCH   4  11
ATOM     11  O   UNL     1      32.851 -34.917 -11.902  1.00  0.00    -0.389 OA
ATOM     12  H   UNL     1      32.503 -35.395 -11.103  1.00  0.00     0.211 HD
ENDBRANCH   4  11
TORSDOF 2
ENDMDL
MODEL 2
REMARK VINA RESULT:    -1.707      2.440      4.187
REMARK INTER + INTRA:          -2.075
REMARK INTER:                  -1.853
REMARK INTRA:                  -0.222
REMARK UNBOUND:                -0.218
REMARK SMILES CC(C)(C)[C@@H]1C=C[C@@H](O)CC1
REMARK SMILES IDX 5 1 11 2 10 3 8 4 7 5 6 6 2 7 1 8 3 9 4 10 9 11
REMARK H PARENT 9 12
REMARK Flexibility Score: inf
ROOT
ATOM      1  C   UNL     1      35.890 -35.118 -10.476  1.00  0.00     0.017 C 
ATOM      2  C   UNL     1      37.248 -35.653  -9.944  1.00  0.00     0.011 C 
ATOM      3  C   UNL     1      38.124 -34.513  -9.423  1.00  0.00     0.037 C 
ATOM      4  C   UNL     1      38.443 -33.536 -10.564  1.00  0.00     0.137 C 
ATOM      5  C   UNL     1      37.198 -33.121 -11.310  1.00  0.00     0.000 C 
ATOM      6  C   UNL     1      36.081 -33.868 -11.333  1.00  0.00    -0.025 C 
ENDROOT
BRANCH   1   7
ATOM      7  C   UNL     1      35.020 -36.220 -11.198  1.00  0.00    -0.032 C 
ATOM      8  C   UNL     1      35.878 -37.112 -12.125  1.00  0.00     0.011 C 
ATOM      9  C   UNL     1      33.912 -35.549 -12.049  1.00  0.00     0.011 C 
ATOM     10  C   UNL     1      34.312 -37.125 -10.161  1.00  0.00     0.011 C 
ENDBRANCH   1   7
BRANCH   4  11
ATOM     11  O   UNL     1      39.124 -32.409 -10.074  1.00  0.00    -0.389 OA
ATOM     12  H   UNL     1      38.441 -31.753  -9.776  1.00  0.00     0.211 HD
ENDBRANCH   4  11
TORSDOF 2
ENDMDL
MODEL 3
REMARK VINA RESULT:    -0.023     20.192     21.193
REMARK INTER + INTRA:          -0.243
REMARK INTER:                  -0.024
REMARK INTRA:                  -0.219
REMARK UNBOUND:                -0.218
REMARK SMILES CC(C)(C)[C@@H]1C=C[C@@H](O)CC1
REMARK SMILES IDX 5 1 11 2 10 3 8 4 7 5 6 6 2 7 1 8 3 9 4 10 9 11
REMARK H PARENT 9 12
REMARK Flexibility Score: inf
ROOT
ATOM      1  C   UNL     1      38.812 -23.019   6.382  1.00  0.00     0.017 C 
ATOM      2  C   UNL     1      38.297 -24.452   6.692  1.00  0.00     0.011 C 
ATOM      3  C   UNL     1      38.895 -25.473   5.725  1.00  0.00     0.037 C 
ATOM      4  C   UNL     1      38.468 -25.144   4.287  1.00  0.00     0.137 C 
ATOM      5  C   UNL     1      38.715 -23.694   3.948  1.00  0.00     0.000 C 
ATOM      6  C   UNL     1      38.792 -22.731   4.883  1.00  0.00    -0.025 C 
ENDROOT
BRANCH   1   7
ATOM      7  C   UNL     1      38.088 -21.896   7.224  1.00  0.00    -0.032 C 
ATOM      8  C   UNL     1      39.080 -21.123   8.124  1.00  0.00     0.011 C 
ATOM      9  C   UNL     1      36.997 -22.528   8.125  1.00  0.00     0.011 C 
ATOM     10  C   UNL     1      37.378 -20.884   6.291  1.00  0.00     0.011 C 
ENDBRANCH   1   7
BRANCH   4  11
ATOM     11  O   UNL     1      39.124 -25.985   3.372  1.00  0.00    -0.389 OA
ATOM     12  H   UNL     1      39.994 -26.245   3.775  1.00  0.00     0.211 HD
ENDBRANCH   4  11
TORSDOF 2
ENDMDL
