MODEL 1
REMARK VINA RESULT:    -5.209      0.000      0.000
REMARK INTER + INTRA:         -12.110
REMARK INTER:                  -9.473
REMARK INTRA:                  -2.636
REMARK UNBOUND:                -2.636
REMARK SMILES CCCCCCCCCCCCCCCC(=O)[O-]
REMARK SMILES IDX 9 1 10 2 11 3 12 4 13 5 14 6 15 7 16 8 17 9 18 10 8 11 7 12
REMARK SMILES IDX 6 13 5 14 4 15 3 16 2 17 1 18
REMARK H PARENT
REMARK Flexibility Score: inf
ROOT
ATOM      1  C   UNL     1      21.710  -3.090 -36.283  1.00  0.00     0.000 C 
ENDROOT
BRANCH   1   2
ATOM      2  C   UNL     1      21.925  -4.614 -36.248  1.00  0.00     0.000 C 
BRANCH   2   3
ATOM      3  C   UNL     1      23.405  -4.999 -36.098  1.00  0.00     0.000 C 
BRANCH   3   4
ATOM      4  C   UNL     1      23.699  -6.431 -36.572  1.00  0.00     0.000 C 
BRANCH   4   5
ATOM      5  C   UNL     1      22.421  -7.110 -37.086  1.00  0.00     0.000 C 
BRANCH   5   6
ATOM      6  C   UNL     1      22.696  -8.112 -38.217  1.00  0.00     0.006 C 
BRANCH   6   7
ATOM      7  C   UNL     1      24.054  -8.811 -38.072  1.00  0.00     0.053 C 
BRANCH   7   8
ATOM      8  C   UNL     1      24.791  -8.793 -39.375  1.00  0.00     0.041 C 
ATOM      9  O   UNL     1      24.725  -9.781 -40.152  1.00  0.00    -0.550 OA
ATOM     10  O   UNL     1      25.591  -7.708 -39.706  1.00  0.00    -0.550 OA
ENDBRANCH   7   8
ENDBRANCH   6   7
ENDBRANCH   5   6
ENDBRANCH   4   5
ENDBRANCH   3   4
ENDBRANCH   2   3
ENDBRANCH   1   2
BRANCH   1  11
ATOM     11  C   UNL     1      21.186  -2.601 -37.644  1.00  0.00     0.000 C 
BRANCH  11  12
ATOM     12  C   UNL     1      20.746  -3.756 -38.560  1.00  0.00    -0.000 C 
BRANCH  12  13
ATOM     13  C   UNL     1      21.505  -3.774 -39.896  1.00  0.00    -0.000 C 
BRANCH  13  14
ATOM     14  C   UNL     1      22.322  -5.063 -40.093  1.00  0.00    -0.000 C 
BRANCH  14  15
ATOM     15  C   UNL     1      23.823  -4.858 -39.824  1.00  0.00    -0.000 C 
BRANCH  15  16
ATOM     16  C   UNL     1      24.222  -3.372 -39.807  1.00  0.00    -0.000 C 
BRANCH  16  17
ATOM     17  C   UNL     1      25.042  -2.999 -38.561  1.00  0.00    -0.003 C 
ATOM     18  C   UNL     1      26.172  -3.990 -38.277  1.00  0.00     0.004 C 
ENDBRANCH  16  17
ENDBRANCH  15  16
ENDBRANCH  14  15
ENDBRANCH  13  14
ENDBRANCH  12  13
ENDBRANCH  11  12
ENDBRANCH   1  11
TORSDOF 14
ENDMDL
MODEL 2
REMARK VINA RESULT:    -5.105      1.747      4.522
REMARK INTER + INTRA:         -11.920
REMARK INTER:                  -9.505
REMARK INTRA:                  -2.415
REMARK UNBOUND:                -2.636
REMARK SMILES CCCCCCCCCCCCCCCC(=O)[O-]
REMARK SMILES IDX 9 1 10 2 11 3 12 4 13 5 14 6 15 7 16 8 17 9 18 10 8 11 7 12
REMARK SMILES IDX 6 13 5 14 4 15 3 16 2 17 1 18
REMARK H PARENT
REMARK Flexibility Score: inf
ROOT
ATOM      1  C   UNL     1      20.648  -3.866 -38.668  1.00  0.00     0.000 C 
ENDROOT
BRANCH   1   2
ATOM      2  C   UNL     1      21.639  -3.706 -39.834  1.00  0.00     0.000 C 
BRANCH   2   3
ATOM      3  C   UNL     1      22.445  -4.986 -40.105  1.00  0.00     0.000 C 
BRANCH   3   4
ATOM      4  C   UNL     1      23.954  -4.796 -39.885  1.00  0.00     0.000 C 
BRANCH   4   5
ATOM      5  C   UNL     1      24.275  -3.339 -39.520  1.00  0.00     0.000 C 
BRANCH   5   6
ATOM      6  C   UNL     1      25.583  -3.201 -38.725  1.00  0.00     0.006 C 
BRANCH   6   7
ATOM      7  C   UNL     1      26.033  -4.523 -38.092  1.00  0.00     0.053 C 
BRANCH   7   8
ATOM      8  C   UNL     1      27.522  -4.553 -37.951  1.00  0.00     0.041 C 
ATOM      9  O   UNL     1      28.205  -3.532 -38.227  1.00  0.00    -0.550 OA
ATOM     10  O   UNL     1      28.161  -5.724 -37.566  1.00  0.00    -0.550 OA
ENDBRANCH   7   8
ENDBRANCH   6   7
ENDBRANCH   5   6
ENDBRANCH   4   5
ENDBRANCH   3   4
ENDBRANCH   2   3
ENDBRANCH   1   2
BRANCH   1  11
ATOM     11  C   UNL     1      21.269  -3.494 -37.312  1.00  0.00     0.000 C 
BRANCH  11  12
ATOM     12  C   UNL     1      21.568  -4.725 -36.439  1.00  0.00    -0.000 C 
BRANCH  12  13
ATOM     13  C   UNL     1      23.074  -4.949 -36.226  1.00  0.00    -0.000 C 
BRANCH  13  14
ATOM     14  C   UNL     1      23.494  -6.407 -36.481  1.00  0.00    -0.000 C 
BRANCH  14  15
ATOM     15  C   UNL     1      22.449  -7.190 -37.292  1.00  0.00    -0.000 C 
BRANCH  15  16
ATOM     16  C   UNL     1      23.059  -8.386 -38.044  1.00  0.00    -0.000 C 
BRANCH  16  17
ATOM     17  C   UNL     1      24.528  -8.150 -38.429  1.00  0.00    -0.003 C 
ATOM     18  C   UNL     1      25.045  -9.168 -39.447  1.00  0.00     0.004 C 
ENDBRANCH  16  17
ENDBRANCH  15  16
ENDBRANCH  14  15
ENDBRANCH  13  14
ENDBRANCH  12  13
ENDBRANCH  11  12
ENDBRANCH   1  11
TORSDOF 14
ENDMDL
MODEL 3
REMARK VINA RESULT:    -4.971      1.501      3.466
REMARK INTER + INTRA:         -11.675
REMARK INTER:                  -9.615
REMARK INTRA:                  -2.060
REMARK UNBOUND:                -2.636
REMARK SMILES CCCCCCCCCCCCCCCC(=O)[O-]
REMARK SMILES IDX 9 1 10 2 11 3 12 4 13 5 14 6 15 7 16 8 17 9 18 10 8 11 7 12
REMARK SMILES IDX 6 13 5 14 4 15 3 16 2 17 1 18
REMARK H PARENT
REMARK Flexibility Score: inf
ROOT
ATOM      1  C   UNL     1      25.493  -3.182 -38.810  1.00  0.00     0.000 C 
ENDROOT
BRANCH   1   2
ATOM      2  C   UNL     1      25.795  -4.297 -37.794  1.00  0.00     0.000 C 
BRANCH   2   3
ATOM      3  C   UNL     1      27.239  -4.813 -37.894  1.00  0.00     0.000 C 
BRANCH   3   4
ATOM      4  C   UNL     1      27.350  -6.325 -37.640  1.00  0.00     0.000 C 
BRANCH   4   5
ATOM      5  C   UNL     1      25.961  -6.979 -37.618  1.00  0.00     0.000 C 
BRANCH   5   6
ATOM      6  C   UNL     1      25.687  -7.833 -38.865  1.00  0.00     0.006 C 
BRANCH   6   7
ATOM      7  C   UNL     1      24.757  -9.019 -38.580  1.00  0.00     0.053 C 
BRANCH   7   8
ATOM      8  C   UNL     1      23.326  -8.603 -38.711  1.00  0.00     0.041 C 
ATOM      9  O   UNL     1      22.656  -8.309 -37.688  1.00  0.00    -0.550 OA
ATOM     10  O   UNL     1      22.718  -8.590 -39.960  1.00  0.00    -0.550 OA
ENDBRANCH   7   8
ENDBRANCH   6   7
ENDBRANCH   5   6
ENDBRANCH   4   5
ENDBRANCH   3   4
ENDBRANCH   2   3
ENDBRANCH   1   2
BRANCH   1  11
ATOM     11  C   UNL     1      24.137  -3.374 -39.509  1.00  0.00     0.000 C 
BRANCH  11  12
ATOM     12  C   UNL     1      23.870  -4.840 -39.892  1.00  0.00    -0.000 C 
BRANCH  12  13
ATOM     13  C   UNL     1      22.373  -5.189 -39.890  1.00  0.00    -0.000 C 
BRANCH  13  14
ATOM     14  C   UNL     1      21.478  -3.949 -39.720  1.00  0.00    -0.000 C 
BRANCH  14  15
ATOM     15  C   UNL     1      20.769  -3.914 -38.356  1.00  0.00    -0.000 C 
BRANCH  15  16
ATOM     16  C   UNL     1      21.243  -5.035 -37.415  1.00  0.00    -0.000 C 
BRANCH  16  17
ATOM     17  C   UNL     1      22.157  -4.514 -36.294  1.00  0.00    -0.003 C 
ATOM     18  C   UNL     1      22.074  -2.997 -36.118  1.00  0.00     0.004 C 
ENDBRANCH  16  17
ENDBRANCH  15  16
ENDBRANCH  14  15
ENDBRANCH  13  14
ENDBRANCH  12  13
ENDBRANCH  11  12
ENDBRANCH   1  11
TORSDOF 14
ENDMDL
MODEL 4
REMARK VINA RESULT:    -4.923      2.920      5.307
REMARK INTER + INTRA:         -11.589
REMARK INTER:                  -9.381
REMARK INTRA:                  -2.209
REMARK UNBOUND:                -2.636
REMARK SMILES CCCCCCCCCCCCCCCC(=O)[O-]
REMARK SMILES IDX 9 1 10 2 11 3 12 4 13 5 14 6 15 7 16 8 17 9 18 10 8 11 7 12
REMARK SMILES IDX 6 13 5 14 4 15 3 16 2 17 1 18
REMARK H PARENT
REMARK Flexibility Score: inf
ROOT
ATOM      1  C   UNL     1      21.939  -6.688 -38.966  1.00  0.00     0.000 C 
ENDROOT
BRANCH   1   2
ATOM      2  C   UNL     1      22.003  -6.552 -37.435  1.00  0.00     0.000 C 
BRANCH   2   3
ATOM      3  C   UNL     1      21.298  -5.286 -36.924  1.00  0.00     0.000 C 
BRANCH   3   4
ATOM      4  C   UNL     1      22.231  -4.368 -36.119  1.00  0.00     0.000 C 
BRANCH   4   5
ATOM      5  C   UNL     1      21.728  -2.917 -36.145  1.00  0.00     0.000 C 
BRANCH   5   6
ATOM      6  C   UNL     1      21.477  -2.402 -37.570  1.00  0.00     0.006 C 
BRANCH   6   7
ATOM      7  C   UNL     1      20.007  -2.034 -37.817  1.00  0.00     0.053 C 
BRANCH   7   8
ATOM      8  C   UNL     1      19.582  -2.476 -39.182  1.00  0.00     0.041 C 
ATOM      9  O   UNL     1      18.484  -2.089 -39.659  1.00  0.00    -0.550 OA
ATOM     10  O   UNL     1      20.374  -3.358 -39.906  1.00  0.00    -0.550 OA
ENDBRANCH   7   8
ENDBRANCH   6   7
ENDBRANCH   5   6
ENDBRANCH   4   5
ENDBRANCH   3   4
ENDBRANCH   2   3
ENDBRANCH   1   2
BRANCH   1  11
ATOM     11  C   UNL     1      22.683  -7.933 -39.478  1.00  0.00     0.000 C 
BRANCH  11  12
ATOM     12  C   UNL     1      23.701  -8.476 -38.460  1.00  0.00    -0.000 C 
BRANCH  12  13
ATOM     13  C   UNL     1      25.139  -8.473 -39.002  1.00  0.00    -0.000 C 
BRANCH  13  14
ATOM     14  C   UNL     1      25.726  -7.055 -39.110  1.00  0.00    -0.000 C 
BRANCH  14  15
ATOM     15  C   UNL     1      25.695  -6.300 -37.770  1.00  0.00    -0.000 C 
BRANCH  15  16
ATOM     16  C   UNL     1      25.442  -4.792 -37.947  1.00  0.00    -0.000 C 
BRANCH  16  17
ATOM     17  C   UNL     1      24.629  -4.478 -39.214  1.00  0.00    -0.003 C 
ATOM     18  C   UNL     1      24.619  -2.987 -39.556  1.00  0.00     0.004 C 
ENDBRANCH  16  17
ENDBRANCH  15  16
ENDBRANCH  14  15
ENDBRANCH  13  14
ENDBRANCH  12  13
ENDBRANCH  11  12
ENDBRANCH   1  11
TORSDOF 14
ENDMDL
MODEL 5
REMARK VINA RESULT:    -4.916      0.918      2.002
REMARK INTER + INTRA:         -11.575
REMARK INTER:                  -9.396
REMARK INTRA:                  -2.179
REMARK UNBOUND:                -2.636
REMARK SMILES CCCCCCCCCCCCCCCC(=O)[O-]
REMARK SMILES IDX 9 1 10 2 11 3 12 4 13 5 14 6 15 7 16 8 17 9 18 10 8 11 7 12
REMARK SMILES IDX 6 13 5 14 4 15 3 16 2 17 1 18
REMARK H PARENT
REMARK Flexibility Score: inf
ROOT
ATOM      1  C   UNL     1      20.519  -3.928 -38.507  1.00  0.00     0.000 C 
ENDROOT
BRANCH   1   2
ATOM      2  C   UNL     1      21.002  -4.934 -37.448  1.00  0.00     0.000 C 
BRANCH   2   3
ATOM      3  C   UNL     1      22.079  -4.346 -36.521  1.00  0.00     0.000 C 
BRANCH   3   4
ATOM      4  C   UNL     1      23.284  -5.282 -36.340  1.00  0.00     0.000 C 
BRANCH   4   5
ATOM      5  C   UNL     1      22.944  -6.708 -36.800  1.00  0.00     0.000 C 
BRANCH   5   6
ATOM      6  C   UNL     1      24.161  -7.455 -37.364  1.00  0.00     0.006 C 
BRANCH   6   7
ATOM      7  C   UNL     1      23.775  -8.525 -38.394  1.00  0.00     0.053 C 
BRANCH   7   8
ATOM      8  C   UNL     1      24.920  -8.799 -39.316  1.00  0.00     0.041 C 
ATOM      9  O   UNL     1      25.335  -9.977 -39.478  1.00  0.00    -0.550 OA
ATOM     10  O   UNL     1      25.564  -7.749 -39.957  1.00  0.00    -0.550 OA
ENDBRANCH   7   8
ENDBRANCH   6   7
ENDBRANCH   5   6
ENDBRANCH   4   5
ENDBRANCH   3   4
ENDBRANCH   2   3
ENDBRANCH   1   2
BRANCH   1  11
ATOM     11  C   UNL     1      21.598  -3.614 -39.556  1.00  0.00     0.000 C 
BRANCH  11  12
ATOM     12  C   UNL     1      22.372  -4.866 -40.004  1.00  0.00    -0.000 C 
BRANCH  12  13
ATOM     13  C   UNL     1      23.896  -4.680 -39.928  1.00  0.00    -0.000 C 
BRANCH  13  14
ATOM     14  C   UNL     1      24.296  -3.239 -39.566  1.00  0.00    -0.000 C 
BRANCH  14  15
ATOM     15  C   UNL     1      25.678  -3.160 -38.897  1.00  0.00    -0.000 C 
BRANCH  15  16
ATOM     16  C   UNL     1      26.075  -4.475 -38.202  1.00  0.00    -0.000 C 
BRANCH  16  17
ATOM     17  C   UNL     1      27.582  -4.556 -37.915  1.00  0.00    -0.003 C 
ATOM     18  C   UNL     1      28.339  -3.305 -38.363  1.00  0.00     0.004 C 
ENDBRANCH  16  17
ENDBRANCH  15  16
ENDBRANCH  14  15
ENDBRANCH  13  14
ENDBRANCH  12  13
ENDBRANCH  11  12
ENDBRANCH   1  11
TORSDOF 14
ENDMDL
MODEL 6
REMARK VINA RESULT:    -4.907      2.635      5.431
REMARK INTER + INTRA:         -11.560
REMARK INTER:                  -9.098
REMARK INTRA:                  -2.461
REMARK UNBOUND:                -2.636
REMARK SMILES CCCCCCCCCCCCCCCC(=O)[O-]
REMARK SMILES IDX 9 1 10 2 11 3 12 4 13 5 14 6 15 7 16 8 17 9 18 10 8 11 7 12
REMARK SMILES IDX 6 13 5 14 4 15 3 16 2 17 1 18
REMARK H PARENT
REMARK Flexibility Score: inf
ROOT
ATOM      1  C   UNL     1      25.596  -4.529 -37.804  1.00  0.00     0.000 C 
ENDROOT
BRANCH   1   2
ATOM      2  C   UNL     1      25.558  -3.341 -38.782  1.00  0.00     0.000 C 
BRANCH   2   3
ATOM      3  C   UNL     1      24.341  -3.386 -39.720  1.00  0.00     0.000 C 
BRANCH   3   4
ATOM      4  C   UNL     1      23.616  -4.740 -39.690  1.00  0.00     0.000 C 
BRANCH   4   5
ATOM      5  C   UNL     1      22.098  -4.552 -39.830  1.00  0.00     0.000 C 
BRANCH   5   6
ATOM      6  C   UNL     1      21.553  -3.434 -38.929  1.00  0.00     0.006 C 
BRANCH   6   7
ATOM      7  C   UNL     1      21.085  -3.951 -37.562  1.00  0.00     0.053 C 
BRANCH   7   8
ATOM      8  C   UNL     1      21.926  -3.371 -36.469  1.00  0.00     0.041 C 
ATOM      9  O   UNL     1      21.813  -3.796 -35.290  1.00  0.00    -0.550 OA
ATOM     10  O   UNL     1      22.798  -2.326 -36.743  1.00  0.00    -0.550 OA
ENDBRANCH   7   8
ENDBRANCH   6   7
ENDBRANCH   5   6
ENDBRANCH   4   5
ENDBRANCH   3   4
ENDBRANCH   2   3
ENDBRANCH   1   2
BRANCH   1  11
ATOM     11  C   UNL     1      26.924  -5.300 -37.867  1.00  0.00     0.000 C 
BRANCH  11  12
ATOM     12  C   UNL     1      26.725  -6.808 -38.097  1.00  0.00    -0.000 C 
BRANCH  12  13
ATOM     13  C   UNL     1      26.040  -7.117 -39.437  1.00  0.00    -0.000 C 
BRANCH  13  14
ATOM     14  C   UNL     1      25.325  -8.480 -39.434  1.00  0.00    -0.000 C 
BRANCH  14  15
ATOM     15  C   UNL     1      24.423  -8.672 -38.203  1.00  0.00    -0.000 C 
BRANCH  15  16
ATOM     16  C   UNL     1      22.960  -8.283 -38.477  1.00  0.00    -0.000 C 
BRANCH  16  17
ATOM     17  C   UNL     1      22.341  -7.477 -37.323  1.00  0.00    -0.003 C 
ATOM     18  C   UNL     1      23.388  -6.733 -36.492  1.00  0.00     0.004 C 
ENDBRANCH  16  17
ENDBRANCH  15  16
ENDBRANCH  14  15
ENDBRANCH  13  14
ENDBRANCH  12  13
ENDBRANCH  11  12
ENDBRANCH   1  11
TORSDOF 14
ENDMDL
MODEL 7
REMARK VINA RESULT:    -4.887      0.853      2.537
REMARK INTER + INTRA:         -11.523
REMARK INTER:                  -8.905
REMARK INTRA:                  -2.617
REMARK UNBOUND:                -2.636
REMARK SMILES CCCCCCCCCCCCCCCC(=O)[O-]
REMARK SMILES IDX 9 1 10 2 11 3 12 4 13 5 14 6 15 7 16 8 17 9 18 10 8 11 7 12
REMARK SMILES IDX 6 13 5 14 4 15 3 16 2 17 1 18
REMARK H PARENT
REMARK Flexibility Score: inf
ROOT
ATOM      1  C   UNL     1      20.511  -3.817 -38.618  1.00  0.00     0.000 C 
ENDROOT
BRANCH   1   2
ATOM      2  C   UNL     1      21.365  -3.769 -39.897  1.00  0.00     0.000 C 
BRANCH   2   3
ATOM      3  C   UNL     1      22.123  -5.081 -40.152  1.00  0.00     0.000 C 
BRANCH   3   4
ATOM      4  C   UNL     1      21.675  -6.218 -39.219  1.00  0.00     0.000 C 
BRANCH   4   5
ATOM      5  C   UNL     1      22.485  -7.496 -39.486  1.00  0.00     0.000 C 
BRANCH   5   6
ATOM      6  C   UNL     1      22.912  -8.208 -38.194  1.00  0.00     0.006 C 
BRANCH   6   7
ATOM      7  C   UNL     1      24.436  -8.265 -38.026  1.00  0.00     0.053 C 
BRANCH   7   8
ATOM      8  C   UNL     1      25.097  -8.527 -39.342  1.00  0.00     0.041 C 
ATOM      9  O   UNL     1      25.080  -9.682 -39.840  1.00  0.00    -0.550 OA
ATOM     10  O   UNL     1      25.776  -7.506 -39.994  1.00  0.00    -0.550 OA
ENDBRANCH   7   8
ENDBRANCH   6   7
ENDBRANCH   5   6
ENDBRANCH   4   5
ENDBRANCH   3   4
ENDBRANCH   2   3
ENDBRANCH   1   2
BRANCH   1  11
ATOM     11  C   UNL     1      20.707  -2.576 -37.732  1.00  0.00     0.000 C 
BRANCH  11  12
ATOM     12  C   UNL     1      21.639  -2.841 -36.536  1.00  0.00    -0.000 C 
BRANCH  12  13
ATOM     13  C   UNL     1      21.662  -4.321 -36.121  1.00  0.00    -0.000 C 
BRANCH  13  14
ATOM     14  C   UNL     1      23.070  -4.935 -36.204  1.00  0.00    -0.000 C 
BRANCH  14  15
ATOM     15  C   UNL     1      24.083  -3.999 -36.886  1.00  0.00    -0.000 C 
BRANCH  15  16
ATOM     16  C   UNL     1      24.988  -4.737 -37.887  1.00  0.00    -0.000 C 
BRANCH  16  17
ATOM     17  C   UNL     1      25.600  -3.791 -38.933  1.00  0.00    -0.003 C 
ATOM     18  C   UNL     1      24.727  -2.566 -39.208  1.00  0.00     0.004 C 
ENDBRANCH  16  17
ENDBRANCH  15  16
ENDBRANCH  14  15
ENDBRANCH  13  14
ENDBRANCH  12  13
ENDBRANCH  11  12
ENDBRANCH   1  11
TORSDOF 14
ENDMDL
MODEL 8
REMARK VINA RESULT:    -4.878      1.151      3.610
REMARK INTER + INTRA:         -11.507
REMARK INTER:                  -9.095
REMARK INTRA:                  -2.412
REMARK UNBOUND:                -2.636
REMARK SMILES CCCCCCCCCCCCCCCC(=O)[O-]
REMARK SMILES IDX 9 1 10 2 11 3 12 4 13 5 14 6 15 7 16 8 17 9 18 10 8 11 7 12
REMARK SMILES IDX 6 13 5 14 4 15 3 16 2 17 1 18
REMARK H PARENT
REMARK Flexibility Score: inf
ROOT
ATOM      1  C   UNL     1      23.739  -4.877 -39.895  1.00  0.00     0.000 C 
ENDROOT
BRANCH   1   2
ATOM      2  C   UNL     1      24.101  -3.409 -39.610  1.00  0.00     0.000 C 
BRANCH   2   3
ATOM      3  C   UNL     1      25.426  -3.265 -38.845  1.00  0.00     0.000 C 
BRANCH   3   4
ATOM      4  C   UNL     1      25.707  -4.453 -37.912  1.00  0.00     0.000 C 
BRANCH   4   5
ATOM      5  C   UNL     1      27.151  -4.950 -38.079  1.00  0.00     0.000 C 
BRANCH   5   6
ATOM      6  C   UNL     1      27.267  -6.479 -37.984  1.00  0.00     0.006 C 
BRANCH   6   7
ATOM      7  C   UNL     1      25.966  -7.143 -37.514  1.00  0.00     0.053 C 
BRANCH   7   8
ATOM      8  C   UNL     1      25.414  -8.026 -38.588  1.00  0.00     0.041 C 
ATOM      9  O   UNL     1      24.702  -9.020 -38.287  1.00  0.00    -0.550 OA
ATOM     10  O   UNL     1      25.728  -7.782 -39.919  1.00  0.00    -0.550 OA
ENDBRANCH   7   8
ENDBRANCH   6   7
ENDBRANCH   5   6
ENDBRANCH   4   5
ENDBRANCH   3   4
ENDBRANCH   2   3
ENDBRANCH   1   2
BRANCH   1  11
ATOM     11  C   UNL     1      22.233  -5.077 -40.127  1.00  0.00     0.000 C 
BRANCH  11  12
ATOM     12  C   UNL     1      21.429  -3.776 -39.962  1.00  0.00    -0.000 C 
BRANCH  12  13
ATOM     13  C   UNL     1      20.588  -3.760 -38.675  1.00  0.00    -0.000 C 
BRANCH  13  14
ATOM     14  C   UNL     1      20.944  -2.580 -37.753  1.00  0.00    -0.000 C 
BRANCH  14  15
ATOM     15  C   UNL     1      21.987  -2.957 -36.688  1.00  0.00    -0.000 C 
BRANCH  15  16
ATOM     16  C   UNL     1      21.731  -4.345 -36.075  1.00  0.00    -0.000 C 
BRANCH  16  17
ATOM     17  C   UNL     1      22.859  -5.341 -36.387  1.00  0.00    -0.003 C 
ATOM     18  C   UNL     1      22.340  -6.670 -36.941  1.00  0.00     0.004 C 
ENDBRANCH  16  17
ENDBRANCH  15  16
ENDBRANCH  14  15
ENDBRANCH  13  14
ENDBRANCH  12  13
ENDBRANCH  11  12
ENDBRANCH   1  11
TORSDOF 14
ENDMDL
MODEL 9
REMARK VINA RESULT:    -4.813      0.980      1.918
REMARK INTER + INTRA:         -11.388
REMARK INTER:                  -9.406
REMARK INTRA:                  -1.982
REMARK UNBOUND:                -2.636
REMARK SMILES CCCCCCCCCCCCCCCC(=O)[O-]
REMARK SMILES IDX 9 1 10 2 11 3 12 4 13 5 14 6 15 7 16 8 17 9 18 10 8 11 7 12
REMARK SMILES IDX 6 13 5 14 4 15 3 16 2 17 1 18
REMARK H PARENT
REMARK Flexibility Score: inf
ROOT
ATOM      1  C   UNL     1      21.651  -3.337 -35.107  1.00  0.00     0.000 C 
ENDROOT
BRANCH   1   2
ATOM      2  C   UNL     1      22.000  -4.441 -36.120  1.00  0.00     0.000 C 
BRANCH   2   3
ATOM      3  C   UNL     1      23.472  -4.874 -36.040  1.00  0.00     0.000 C 
BRANCH   3   4
ATOM      4  C   UNL     1      23.691  -6.327 -36.490  1.00  0.00     0.000 C 
BRANCH   4   5
ATOM      5  C   UNL     1      22.456  -6.863 -37.230  1.00  0.00     0.000 C 
BRANCH   5   6
ATOM      6  C   UNL     1      22.662  -8.284 -37.774  1.00  0.00     0.006 C 
BRANCH   6   7
ATOM      7  C   UNL     1      23.094  -8.299 -39.246  1.00  0.00     0.053 C 
BRANCH   7   8
ATOM      8  C   UNL     1      24.571  -8.506 -39.354  1.00  0.00     0.041 C 
ATOM      9  O   UNL     1      25.052  -9.668 -39.312  1.00  0.00    -0.550 OA
ATOM     10  O   UNL     1      25.422  -7.412 -39.448  1.00  0.00    -0.550 OA
ENDBRANCH   7   8
ENDBRANCH   6   7
ENDBRANCH   5   6
ENDBRANCH   4   5
ENDBRANCH   3   4
ENDBRANCH   2   3
ENDBRANCH   1   2
BRANCH   1  11
ATOM     11  C   UNL     1      20.904  -2.159 -35.753  1.00  0.00     0.000 C 
BRANCH  11  12
ATOM     12  C   UNL     1      21.184  -2.035 -37.261  1.00  0.00    -0.000 C 
BRANCH  12  13
ATOM     13  C   UNL     1      19.897  -1.996 -38.101  1.00  0.00    -0.000 C 
BRANCH  13  14
ATOM     14  C   UNL     1      19.918  -3.012 -39.257  1.00  0.00    -0.000 C 
BRANCH  14  15
ATOM     15  C   UNL     1      20.914  -4.158 -39.019  1.00  0.00    -0.000 C 
BRANCH  15  16
ATOM     16  C   UNL     1      21.736  -4.498 -40.275  1.00  0.00    -0.000 C 
BRANCH  16  17
ATOM     17  C   UNL     1      23.235  -4.651 -39.972  1.00  0.00    -0.003 C 
ATOM     18  C   UNL     1      23.864  -3.368 -39.426  1.00  0.00     0.004 C 
ENDBRANCH  16  17
ENDBRANCH  15  16
ENDBRANCH  14  15
ENDBRANCH  13  14
ENDBRANCH  12  13
ENDBRANCH  11  12
ENDBRANCH   1  11
TORSDOF 14
ENDMDL
