MODEL 1
REMARK VINA RESULT:    -2.860      0.000      0.000
REMARK INTER + INTRA:          -5.765
REMARK INTER:                  -5.201
REMARK INTRA:                  -0.564
REMARK UNBOUND:                -0.564
REMARK SMILES CCCCCCCCCCCCCC[C@@H](C)C(=O)[O-]
REMARK SMILES IDX 9 1 10 2 11 3 12 4 13 5 14 6 15 7 16 8 17 9 18 10 19 11 8 12
REMARK SMILES IDX 7 13 6 14 5 15 4 16 3 17 2 18 1 19
REMARK H PARENT
REMARK Flexibility Score: inf
ROOT
ATOM      1  C   UNL     1      -4.127  34.920  21.701  1.00  0.00     0.000 C 
ENDROOT
BRANCH   1   2
ATOM      2  C   UNL     1      -5.204  35.637  20.872  1.00  0.00     0.000 C 
BRANCH   2   3
ATOM      3  C   UNL     1      -4.844  35.726  19.382  1.00  0.00     0.000 C 
BRANCH   3   4
ATOM      4  C   UNL     1      -4.227  37.093  19.047  1.00  0.00     0.000 C 
BRANCH   4   5
ATOM      5  C   UNL     1      -3.074  36.993  18.036  1.00  0.00     0.001 C 
BRANCH   5   6
ATOM      6  C   UNL     1      -3.494  36.304  16.726  1.00  0.00     0.009 C 
BRANCH   6   7
ATOM      7  C   UNL     1      -2.902  36.991  15.475  1.00  0.00     0.032 C 
ATOM      8  C   UNL     1      -1.977  36.059  14.680  1.00  0.00     0.014 C 
BRANCH   7   9
ATOM      9  C   UNL     1      -4.015  37.470  14.585  1.00  0.00     0.044 C 
ATOM     10  O   UNL     1      -4.661  36.649  13.882  1.00  0.00    -0.550 OA
ATOM     11  O   UNL     1      -4.337  38.821  14.527  1.00  0.00    -0.550 OA
ENDBRANCH   7   9
ENDBRANCH   6   7
ENDBRANCH   5   6
ENDBRANCH   4   5
ENDBRANCH   3   4
ENDBRANCH   2   3
ENDBRANCH   1   2
BRANCH   1  12
ATOM     12  C   UNL     1      -4.609  34.558  23.118  1.00  0.00     0.000 C 
BRANCH  12  13
ATOM     13  C   UNL     1      -6.041  35.067  23.390  1.00  0.00    -0.000 C 
BRANCH  13  14
ATOM     14  C   UNL     1      -6.109  36.148  24.481  1.00  0.00    -0.000 C 
BRANCH  14  15
ATOM     15  C   UNL     1      -5.627  37.524  23.989  1.00  0.00    -0.000 C 
BRANCH  15  16
ATOM     16  C   UNL     1      -6.090  37.821  22.547  1.00  0.00    -0.000 C 
BRANCH  16  17
ATOM     17  C   UNL     1      -5.764  39.248  22.077  1.00  0.00    -0.000 C 
BRANCH  17  18
ATOM     18  C   UNL     1      -5.436  40.199  23.235  1.00  0.00    -0.003 C 
ATOM     19  C   UNL     1      -6.097  41.559  23.034  1.00  0.00     0.004 C 
ENDBRANCH  17  18
ENDBRANCH  16  17
ENDBRANCH  15  16
ENDBRANCH  14  15
ENDBRANCH  13  14
ENDBRANCH  12  13
ENDBRANCH   1  12
TORSDOF 14
ENDMDL
MODEL 2
REMARK VINA RESULT:    -2.785      3.819      7.785
REMARK INTER + INTRA:          -5.628
REMARK INTER:                  -4.598
REMARK INTRA:                  -1.030
REMARK UNBOUND:                -0.564
REMARK SMILES CCCCCCCCCCCCCC[C@@H](C)C(=O)[O-]
REMARK SMILES IDX 9 1 10 2 11 3 12 4 13 5 14 6 15 7 16 8 17 9 18 10 19 11 8 12
REMARK SMILES IDX 7 13 6 14 5 15 4 16 3 17 2 18 1 19
REMARK H PARENT
REMARK Flexibility Score: inf
ROOT
ATOM      1  C   UNL     1      -1.605  37.513  19.627  1.00  0.00     0.000 C 
ENDROOT
BRANCH   1   2
ATOM      2  C   UNL     1      -3.101  37.478  19.982  1.00  0.00     0.000 C 
BRANCH   2   3
ATOM      3  C   UNL     1      -3.585  36.073  20.370  1.00  0.00     0.000 C 
BRANCH   3   4
ATOM      4  C   UNL     1      -4.882  35.715  19.628  1.00  0.00     0.000 C 
BRANCH   4   5
ATOM      5  C   UNL     1      -6.034  35.361  20.582  1.00  0.00     0.001 C 
BRANCH   5   6
ATOM      6  C   UNL     1      -6.036  36.227  21.855  1.00  0.00     0.009 C 
BRANCH   6   7
ATOM      7  C   UNL     1      -6.124  35.385  23.147  1.00  0.00     0.032 C 
ATOM      8  C   UNL     1      -5.039  34.302  23.214  1.00  0.00     0.014 C 
BRANCH   7   9
ATOM      9  C   UNL     1      -6.008  36.284  24.347  1.00  0.00     0.044 C 
ATOM     10  O   UNL     1      -5.952  35.791  25.505  1.00  0.00    -0.550 OA
ATOM     11  O   UNL     1      -5.964  37.665  24.188  1.00  0.00    -0.550 OA
ENDBRANCH   7   9
ENDBRANCH   6   7
ENDBRANCH   5   6
ENDBRANCH   4   5
ENDBRANCH   3   4
ENDBRANCH   2   3
ENDBRANCH   1   2
BRANCH   1  12
ATOM     12  C   UNL     1      -1.327  37.070  18.179  1.00  0.00     0.000 C 
BRANCH  12  13
ATOM     13  C   UNL     1      -2.558  37.262  17.268  1.00  0.00    -0.000 C 
BRANCH  13  14
ATOM     14  C   UNL     1      -2.902  36.016  16.436  1.00  0.00    -0.000 C 
BRANCH  14  15
ATOM     15  C   UNL     1      -2.296  36.056  15.022  1.00  0.00    -0.000 C 
BRANCH  15  16
ATOM     16  C   UNL     1      -3.342  36.428  13.950  1.00  0.00    -0.000 C 
BRANCH  16  17
ATOM     17  C   UNL     1      -4.422  37.400  14.455  1.00  0.00    -0.000 C 
BRANCH  17  18
ATOM     18  C   UNL     1      -4.273  38.813  13.875  1.00  0.00    -0.003 C 
ATOM     19  C   UNL     1      -5.161  39.808  14.616  1.00  0.00     0.004 C 
ENDBRANCH  17  18
ENDBRANCH  16  17
ENDBRANCH  15  16
ENDBRANCH  14  15
ENDBRANCH  13  14
ENDBRANCH  12  13
ENDBRANCH   1  12
TORSDOF 14
ENDMDL
MODEL 3
REMARK VINA RESULT:    -2.605      1.434      2.265
REMARK INTER + INTRA:          -5.301
REMARK INTER:                  -3.892
REMARK INTRA:                  -1.410
REMARK UNBOUND:                -0.564
REMARK SMILES CCCCCCCCCCCCCC[C@@H](C)C(=O)[O-]
REMARK SMILES IDX 9 1 10 2 11 3 12 4 13 5 14 6 15 7 16 8 17 9 18 10 19 11 8 12
REMARK SMILES IDX 7 13 6 14 5 15 4 16 3 17 2 18 1 19
REMARK H PARENT
REMARK Flexibility Score: inf
ROOT
ATOM      1  C   UNL     1      -5.207  35.219  22.780  1.00  0.00     0.000 C 
ENDROOT
BRANCH   1   2
ATOM      2  C   UNL     1      -5.949  34.662  21.555  1.00  0.00     0.000 C 
BRANCH   2   3
ATOM      3  C   UNL     1      -5.701  35.489  20.285  1.00  0.00     0.000 C 
BRANCH   3   4
ATOM      4  C   UNL     1      -5.546  36.980  20.623  1.00  0.00     0.000 C 
BRANCH   4   5
ATOM      5  C   UNL     1      -4.250  37.585  20.062  1.00  0.00     0.001 C 
BRANCH   5   6
ATOM      6  C   UNL     1      -3.537  36.644  19.073  1.00  0.00     0.009 C 
BRANCH   6   7
ATOM      7  C   UNL     1      -2.571  37.393  18.129  1.00  0.00     0.032 C 
ATOM      8  C   UNL     1      -1.114  37.324  18.609  1.00  0.00     0.014 C 
BRANCH   7   9
ATOM      9  C   UNL     1      -2.669  36.818  16.743  1.00  0.00     0.044 C 
ATOM     10  O   UNL     1      -3.540  37.245  15.940  1.00  0.00    -0.550 OA
ATOM     11  O   UNL     1      -1.801  35.810  16.338  1.00  0.00    -0.550 OA
ENDBRANCH   7   9
ENDBRANCH   6   7
ENDBRANCH   5   6
ENDBRANCH   4   5
ENDBRANCH   3   4
ENDBRANCH   2   3
ENDBRANCH   1   2
BRANCH   1  12
ATOM     12  C   UNL     1      -5.874  34.822  24.110  1.00  0.00     0.000 C 
BRANCH  12  13
ATOM     13  C   UNL     1      -6.045  36.030  25.056  1.00  0.00    -0.000 C 
BRANCH  13  14
ATOM     14  C   UNL     1      -5.200  37.249  24.651  1.00  0.00    -0.000 C 
BRANCH  14  15
ATOM     15  C   UNL     1      -6.044  38.388  24.053  1.00  0.00    -0.000 C 
BRANCH  15  16
ATOM     16  C   UNL     1      -5.172  39.451  23.352  1.00  0.00    -0.000 C 
BRANCH  16  17
ATOM     17  C   UNL     1      -5.931  40.271  22.295  1.00  0.00    -0.000 C 
BRANCH  17  18
ATOM     18  C   UNL     1      -6.013  41.764  22.642  1.00  0.00    -0.003 C 
ATOM     19  C   UNL     1      -6.123  41.972  24.150  1.00  0.00     0.004 C 
ENDBRANCH  17  18
ENDBRANCH  16  17
ENDBRANCH  15  16
ENDBRANCH  14  15
ENDBRANCH  13  14
ENDBRANCH  12  13
ENDBRANCH   1  12
TORSDOF 14
ENDMDL
MODEL 4
REMARK VINA RESULT:    -2.260      1.133      3.185
REMARK INTER + INTRA:          -4.673
REMARK INTER:                  -3.634
REMARK INTRA:                  -1.039
REMARK UNBOUND:                -0.564
REMARK SMILES CCCCCCCCCCCCCC[C@@H](C)C(=O)[O-]
REMARK SMILES IDX 9 1 10 2 11 3 12 4 13 5 14 6 15 7 16 8 17 9 18 10 19 11 8 12
REMARK SMILES IDX 7 13 6 14 5 15 4 16 3 17 2 18 1 19
REMARK H PARENT
REMARK Flexibility Score: inf
ROOT
ATOM      1  C   UNL     1      -4.002  37.555  20.644  1.00  0.00     0.000 C 
ENDROOT
BRANCH   1   2
ATOM      2  C   UNL     1      -3.870  36.048  20.376  1.00  0.00     0.000 C 
BRANCH   2   3
ATOM      3  C   UNL     1      -5.071  35.475  19.609  1.00  0.00     0.000 C 
BRANCH   3   4
ATOM      4  C   UNL     1      -4.620  34.400  18.607  1.00  0.00     0.000 C 
BRANCH   4   5
ATOM      5  C   UNL     1      -4.209  34.990  17.249  1.00  0.00     0.001 C 
BRANCH   5   6
ATOM      6  C   UNL     1      -3.767  36.461  17.351  1.00  0.00     0.009 C 
BRANCH   6   7
ATOM      7  C   UNL     1      -2.788  36.868  16.228  1.00  0.00     0.032 C 
ATOM      8  C   UNL     1      -1.793  35.750  15.887  1.00  0.00     0.014 C 
BRANCH   7   9
ATOM      9  C   UNL     1      -3.561  37.243  14.993  1.00  0.00     0.044 C 
ATOM     10  O   UNL     1      -3.970  38.424  14.837  1.00  0.00    -0.550 OA
ATOM     11  O   UNL     1      -3.832  36.291  14.018  1.00  0.00    -0.550 OA
ENDBRANCH   7   9
ENDBRANCH   6   7
ENDBRANCH   5   6
ENDBRANCH   4   5
ENDBRANCH   3   4
ENDBRANCH   2   3
ENDBRANCH   1   2
BRANCH   1  12
ATOM     12  C   UNL     1      -5.301  38.150  20.069  1.00  0.00     0.000 C 
BRANCH  12  13
ATOM     13  C   UNL     1      -6.125  38.891  21.144  1.00  0.00    -0.000 C 
BRANCH  13  14
ATOM     14  C   UNL     1      -5.281  39.379  22.333  1.00  0.00    -0.000 C 
BRANCH  14  15
ATOM     15  C   UNL     1      -5.742  38.785  23.676  1.00  0.00    -0.000 C 
BRANCH  15  16
ATOM     16  C   UNL     1      -6.106  37.290  23.556  1.00  0.00    -0.000 C 
BRANCH  16  17
ATOM     17  C   UNL     1      -5.997  36.522  24.884  1.00  0.00    -0.000 C 
BRANCH  17  18
ATOM     18  C   UNL     1      -5.939  35.000  24.691  1.00  0.00    -0.003 C 
ATOM     19  C   UNL     1      -5.445  34.642  23.292  1.00  0.00     0.004 C 
ENDBRANCH  17  18
ENDBRANCH  16  17
ENDBRANCH  15  16
ENDBRANCH  14  15
ENDBRANCH  13  14
ENDBRANCH  12  13
ENDBRANCH   1  12
TORSDOF 14
ENDMDL
MODEL 5
REMARK VINA RESULT:    -1.915      1.486      2.030
REMARK INTER + INTRA:          -4.047
REMARK INTER:                  -3.349
REMARK INTRA:                  -0.698
REMARK UNBOUND:                -0.564
REMARK SMILES CCCCCCCCCCCCCC[C@@H](C)C(=O)[O-]
REMARK SMILES IDX 9 1 10 2 11 3 12 4 13 5 14 6 15 7 16 8 17 9 18 10 19 11 8 12
REMARK SMILES IDX 7 13 6 14 5 15 4 16 3 17 2 18 1 19
REMARK H PARENT
REMARK Flexibility Score: inf
ROOT
ATOM      1  C   UNL     1      -5.450  35.593  20.576  1.00  0.00     0.000 C 
ENDROOT
BRANCH   1   2
ATOM      2  C   UNL     1      -5.081  37.013  20.120  1.00  0.00     0.000 C 
BRANCH   2   3
ATOM      3  C   UNL     1      -3.586  37.321  20.290  1.00  0.00     0.000 C 
BRANCH   3   4
ATOM      4  C   UNL     1      -2.851  37.235  18.944  1.00  0.00     0.000 C 
BRANCH   4   5
ATOM      5  C   UNL     1      -3.775  36.819  17.788  1.00  0.00     0.001 C 
BRANCH   5   6
ATOM      6  C   UNL     1      -3.404  37.500  16.458  1.00  0.00     0.009 C 
BRANCH   6   7
ATOM      7  C   UNL     1      -3.484  36.536  15.253  1.00  0.00     0.032 C 
ATOM      8  C   UNL     1      -3.997  37.230  13.984  1.00  0.00     0.014 C 
BRANCH   7   9
ATOM      9  C   UNL     1      -2.128  35.944  14.987  1.00  0.00     0.044 C 
ATOM     10  O   UNL     1      -1.534  36.184  13.902  1.00  0.00    -0.550 OA
ATOM     11  O   UNL     1      -1.520  35.126  15.932  1.00  0.00    -0.550 OA
ENDBRANCH   7   9
ENDBRANCH   6   7
ENDBRANCH   5   6
ENDBRANCH   4   5
ENDBRANCH   3   4
ENDBRANCH   2   3
ENDBRANCH   1   2
BRANCH   1  12
ATOM     12  C   UNL     1      -4.967  35.283  22.005  1.00  0.00     0.000 C 
BRANCH  12  13
ATOM     13  C   UNL     1      -6.125  34.844  22.926  1.00  0.00    -0.000 C 
BRANCH  13  14
ATOM     14  C   UNL     1      -5.753  34.845  24.418  1.00  0.00    -0.000 C 
BRANCH  14  15
ATOM     15  C   UNL     1      -5.023  36.129  24.851  1.00  0.00    -0.000 C 
BRANCH  15  16
ATOM     16  C   UNL     1      -5.925  37.377  24.738  1.00  0.00    -0.000 C 
BRANCH  16  17
ATOM     17  C   UNL     1      -5.776  38.125  23.403  1.00  0.00    -0.000 C 
BRANCH  17  18
ATOM     18  C   UNL     1      -5.359  39.591  23.583  1.00  0.00    -0.003 C 
ATOM     19  C   UNL     1      -5.860  40.451  22.426  1.00  0.00     0.004 C 
ENDBRANCH  17  18
ENDBRANCH  16  17
ENDBRANCH  15  16
ENDBRANCH  14  15
ENDBRANCH  13  14
ENDBRANCH  12  13
ENDBRANCH   1  12
TORSDOF 14
ENDMDL
MODEL 6
REMARK VINA RESULT:    -1.880      1.775      2.700
REMARK INTER + INTRA:          -3.982
REMARK INTER:                  -3.002
REMARK INTRA:                  -0.980
REMARK UNBOUND:                -0.564
REMARK SMILES CCCCCCCCCCCCCC[C@@H](C)C(=O)[O-]
REMARK SMILES IDX 9 1 10 2 11 3 12 4 13 5 14 6 15 7 16 8 17 9 18 10 19 11 8 12
REMARK SMILES IDX 7 13 6 14 5 15 4 16 3 17 2 18 1 19
REMARK H PARENT
REMARK Flexibility Score: inf
ROOT
ATOM      1  C   UNL     1      -3.697  36.673  21.031  1.00  0.00     0.000 C 
ENDROOT
BRANCH   1   2
ATOM      2  C   UNL     1      -3.148  37.724  20.054  1.00  0.00     0.000 C 
BRANCH   2   3
ATOM      3  C   UNL     1      -1.757  37.361  19.513  1.00  0.00     0.000 C 
BRANCH   3   4
ATOM      4  C   UNL     1      -1.809  37.091  18.002  1.00  0.00     0.000 C 
BRANCH   4   5
ATOM      5  C   UNL     1      -3.244  36.919  17.478  1.00  0.00     0.001 C 
BRANCH   5   6
ATOM      6  C   UNL     1      -3.303  36.127  16.160  1.00  0.00     0.009 C 
BRANCH   6   7
ATOM      7  C   UNL     1      -2.939  36.989  14.930  1.00  0.00     0.032 C 
ATOM      8  C   UNL     1      -2.105  36.215  13.900  1.00  0.00     0.014 C 
BRANCH   7   9
ATOM      9  C   UNL     1      -4.196  37.496  14.277  1.00  0.00     0.044 C 
ATOM     10  O   UNL     1      -5.072  36.686  13.877  1.00  0.00    -0.550 OA
ATOM     11  O   UNL     1      -4.398  38.862  14.108  1.00  0.00    -0.550 OA
ENDBRANCH   7   9
ENDBRANCH   6   7
ENDBRANCH   5   6
ENDBRANCH   4   5
ENDBRANCH   3   4
ENDBRANCH   2   3
ENDBRANCH   1   2
BRANCH   1  12
ATOM     12  C   UNL     1      -4.062  35.348  20.336  1.00  0.00     0.000 C 
BRANCH  12  13
ATOM     13  C   UNL     1      -5.572  35.041  20.430  1.00  0.00    -0.000 C 
BRANCH  13  14
ATOM     14  C   UNL     1      -6.125  35.123  21.862  1.00  0.00    -0.000 C 
BRANCH  14  15
ATOM     15  C   UNL     1      -5.268  34.347  22.878  1.00  0.00    -0.000 C 
BRANCH  15  16
ATOM     16  C   UNL     1      -5.400  34.917  24.306  1.00  0.00    -0.000 C 
BRANCH  16  17
ATOM     17  C   UNL     1      -6.116  36.277  24.363  1.00  0.00    -0.000 C 
BRANCH  17  18
ATOM     18  C   UNL     1      -5.193  37.421  24.801  1.00  0.00    -0.003 C 
ATOM     19  C   UNL     1      -4.735  37.237  26.245  1.00  0.00     0.004 C 
ENDBRANCH  17  18
ENDBRANCH  16  17
ENDBRANCH  15  16
ENDBRANCH  14  15
ENDBRANCH  13  14
ENDBRANCH  12  13
ENDBRANCH   1  12
TORSDOF 14
ENDMDL
MODEL 7
REMARK VINA RESULT:    -1.246      1.729      2.703
REMARK INTER + INTRA:          -2.830
REMARK INTER:                  -2.854
REMARK INTRA:                   0.024
REMARK UNBOUND:                -0.564
REMARK SMILES CCCCCCCCCCCCCC[C@@H](C)C(=O)[O-]
REMARK SMILES IDX 9 1 10 2 11 3 12 4 13 5 14 6 15 7 16 8 17 9 18 10 19 11 8 12
REMARK SMILES IDX 7 13 6 14 5 15 4 16 3 17 2 18 1 19
REMARK H PARENT
REMARK Flexibility Score: inf
ROOT
ATOM      1  C   UNL     1      -5.701  37.367  22.061  1.00  0.00     0.000 C 
ENDROOT
BRANCH   1   2
ATOM      2  C   UNL     1      -5.707  38.070  20.695  1.00  0.00     0.000 C 
BRANCH   2   3
ATOM      3  C   UNL     1      -5.121  37.197  19.576  1.00  0.00     0.000 C 
BRANCH   3   4
ATOM      4  C   UNL     1      -3.615  36.976  19.785  1.00  0.00     0.000 C 
BRANCH   4   5
ATOM      5  C   UNL     1      -2.793  37.252  18.515  1.00  0.00     0.001 C 
BRANCH   5   6
ATOM      6  C   UNL     1      -3.468  36.707  17.244  1.00  0.00     0.009 C 
BRANCH   6   7
ATOM      7  C   UNL     1      -2.615  36.931  15.975  1.00  0.00     0.032 C 
ATOM      8  C   UNL     1      -1.616  35.790  15.734  1.00  0.00     0.014 C 
BRANCH   7   9
ATOM      9  C   UNL     1      -3.514  37.068  14.777  1.00  0.00     0.044 C 
ATOM     10  O   UNL     1      -3.664  36.102  13.983  1.00  0.00    -0.550 OA
ATOM     11  O   UNL     1      -4.185  38.262  14.536  1.00  0.00    -0.550 OA
ENDBRANCH   7   9
ENDBRANCH   6   7
ENDBRANCH   5   6
ENDBRANCH   4   5
ENDBRANCH   3   4
ENDBRANCH   2   3
ENDBRANCH   1   2
BRANCH   1  12
ATOM     12  C   UNL     1      -6.123  35.889  21.972  1.00  0.00     0.000 C 
BRANCH  12  13
ATOM     13  C   UNL     1      -5.340  35.002  22.963  1.00  0.00    -0.000 C 
BRANCH  13  14
ATOM     14  C   UNL     1      -6.125  34.678  24.245  1.00  0.00    -0.000 C 
BRANCH  14  15
ATOM     15  C   UNL     1      -6.090  35.823  25.272  1.00  0.00    -0.000 C 
BRANCH  15  16
ATOM     16  C   UNL     1      -5.092  36.931  24.875  1.00  0.00    -0.000 C 
BRANCH  16  17
ATOM     17  C   UNL     1      -4.445  37.637  26.078  1.00  0.00    -0.000 C 
BRANCH  17  18
ATOM     18  C   UNL     1      -3.360  36.790  26.756  1.00  0.00    -0.003 C 
ATOM     19  C   UNL     1      -2.099  37.611  27.009  1.00  0.00     0.004 C 
ENDBRANCH  17  18
ENDBRANCH  16  17
ENDBRANCH  15  16
ENDBRANCH  14  15
ENDBRANCH  13  14
ENDBRANCH  12  13
ENDBRANCH   1  12
TORSDOF 14
ENDMDL
MODEL 8
REMARK VINA RESULT:    -1.096      1.537      3.925
REMARK INTER + INTRA:          -2.557
REMARK INTER:                  -2.682
REMARK INTRA:                   0.125
REMARK UNBOUND:                -0.564
REMARK SMILES CCCCCCCCCCCCCC[C@@H](C)C(=O)[O-]
REMARK SMILES IDX 9 1 10 2 11 3 12 4 13 5 14 6 15 7 16 8 17 9 18 10 19 11 8 12
REMARK SMILES IDX 7 13 6 14 5 15 4 16 3 17 2 18 1 19
REMARK H PARENT
REMARK Flexibility Score: inf
ROOT
ATOM      1  C   UNL     1      -5.106  38.833  23.084  1.00  0.00     0.000 C 
ENDROOT
BRANCH   1   2
ATOM      2  C   UNL     1      -5.810  39.868  22.191  1.00  0.00     0.000 C 
BRANCH   2   3
ATOM      3  C   UNL     1      -5.982  39.384  20.744  1.00  0.00     0.000 C 
BRANCH   3   4
ATOM      4  C   UNL     1      -5.376  37.984  20.559  1.00  0.00     0.000 C 
BRANCH   4   5
ATOM      5  C   UNL     1      -3.958  38.024  19.967  1.00  0.00     0.001 C 
BRANCH   5   6
ATOM      6  C   UNL     1      -3.808  37.126  18.726  1.00  0.00     0.009 C 
BRANCH   6   7
ATOM      7  C   UNL     1      -2.644  37.565  17.811  1.00  0.00     0.032 C 
ATOM      8  C   UNL     1      -1.286  37.508  18.525  1.00  0.00     0.014 C 
BRANCH   7   9
ATOM      9  C   UNL     1      -2.603  36.690  16.588  1.00  0.00     0.044 C 
ATOM     10  O   UNL     1      -1.746  35.772  16.495  1.00  0.00    -0.550 OA
ATOM     11  O   UNL     1      -3.506  36.890  15.550  1.00  0.00    -0.550 OA
ENDBRANCH   7   9
ENDBRANCH   6   7
ENDBRANCH   5   6
ENDBRANCH   4   5
ENDBRANCH   3   4
ENDBRANCH   2   3
ENDBRANCH   1   2
BRANCH   1  12
ATOM     12  C   UNL     1      -6.097  37.921  23.831  1.00  0.00     0.000 C 
BRANCH  12  13
ATOM     13  C   UNL     1      -5.380  36.957  24.799  1.00  0.00    -0.000 C 
BRANCH  13  14
ATOM     14  C   UNL     1      -6.071  35.590  24.924  1.00  0.00    -0.000 C 
BRANCH  14  15
ATOM     15  C   UNL     1      -5.691  34.622  23.789  1.00  0.00    -0.000 C 
BRANCH  15  16
ATOM     16  C   UNL     1      -6.119  35.154  22.405  1.00  0.00    -0.000 C 
BRANCH  16  17
ATOM     17  C   UNL     1      -5.156  34.764  21.271  1.00  0.00    -0.000 C 
BRANCH  17  18
ATOM     18  C   UNL     1      -5.774  34.936  19.876  1.00  0.00    -0.003 C 
ATOM     19  C   UNL     1      -5.124  33.994  18.867  1.00  0.00     0.004 C 
ENDBRANCH  17  18
ENDBRANCH  16  17
ENDBRANCH  15  16
ENDBRANCH  14  15
ENDBRANCH  13  14
ENDBRANCH  12  13
ENDBRANCH   1  12
TORSDOF 14
ENDMDL
MODEL 9
REMARK VINA RESULT:    -0.986      3.483      7.764
REMARK INTER + INTRA:          -2.358
REMARK INTER:                  -2.656
REMARK INTRA:                   0.299
REMARK UNBOUND:                -0.564
REMARK SMILES CCCCCCCCCCCCCC[C@@H](C)C(=O)[O-]
REMARK SMILES IDX 9 1 10 2 11 3 12 4 13 5 14 6 15 7 16 8 17 9 18 10 19 11 8 12
REMARK SMILES IDX 7 13 6 14 5 15 4 16 3 17 2 18 1 19
REMARK H PARENT
REMARK Flexibility Score: inf
ROOT
ATOM      1  C   UNL     1      -3.868  38.090  20.284  1.00  0.00     0.000 C 
ENDROOT
BRANCH   1   2
ATOM      2  C   UNL     1      -5.398  37.983  20.182  1.00  0.00     0.000 C 
BRANCH   2   3
ATOM      3  C   UNL     1      -6.122  39.135  20.894  1.00  0.00     0.000 C 
BRANCH   3   4
ATOM      4  C   UNL     1      -5.376  39.544  22.173  1.00  0.00     0.000 C 
BRANCH   4   5
ATOM      5  C   UNL     1      -5.778  38.698  23.391  1.00  0.00     0.001 C 
BRANCH   5   6
ATOM      6  C   UNL     1      -5.953  37.208  23.045  1.00  0.00     0.009 C 
BRANCH   6   7
ATOM      7  C   UNL     1      -5.400  36.273  24.144  1.00  0.00     0.032 C 
ATOM      8  C   UNL     1      -5.972  36.600  25.531  1.00  0.00     0.014 C 
BRANCH   7   9
ATOM      9  C   UNL     1      -5.715  34.843  23.798  1.00  0.00     0.044 C 
ATOM     10  O   UNL     1      -5.612  34.442  22.609  1.00  0.00    -0.550 OA
ATOM     11  O   UNL     1      -6.125  33.956  24.786  1.00  0.00    -0.550 OA
ENDBRANCH   7   9
ENDBRANCH   6   7
ENDBRANCH   5   6
ENDBRANCH   4   5
ENDBRANCH   3   4
ENDBRANCH   2   3
ENDBRANCH   1   2
BRANCH   1  12
ATOM     12  C   UNL     1      -3.146  36.856  19.713  1.00  0.00     0.000 C 
BRANCH  12  13
ATOM     13  C   UNL     1      -4.103  35.938  18.923  1.00  0.00    -0.000 C 
BRANCH  13  14
ATOM     14  C   UNL     1      -3.900  36.008  17.401  1.00  0.00    -0.000 C 
BRANCH  14  15
ATOM     15  C   UNL     1      -2.685  36.862  16.999  1.00  0.00    -0.000 C 
BRANCH  15  16
ATOM     16  C   UNL     1      -1.959  36.295  15.760  1.00  0.00    -0.000 C 
BRANCH  16  17
ATOM     17  C   UNL     1      -2.913  35.757  14.681  1.00  0.00    -0.000 C 
BRANCH  17  18
ATOM     18  C   UNL     1      -3.601  36.872  13.882  1.00  0.00    -0.003 C 
ATOM     19  C   UNL     1      -3.889  38.083  14.764  1.00  0.00     0.004 C 
ENDBRANCH  17  18
ENDBRANCH  16  17
ENDBRANCH  15  16
ENDBRANCH  14  15
ENDBRANCH  13  14
ENDBRANCH  12  13
ENDBRANCH   1  12
TORSDOF 14
ENDMDL
