MODEL 1
REMARK VINA RESULT:    -2.990      0.000      0.000
REMARK INTER + INTRA:          -3.341
REMARK INTER:                  -3.164
REMARK INTRA:                  -0.176
REMARK UNBOUND:                -0.176
REMARK SMILES C=C(C)[C@H]1CC[C@@]2(C)CCCC(=C)[C@H]2C1
REMARK SMILES IDX 4 1 5 2 6 3 7 4 9 5 10 6 11 7 12 8 13 9 14 10 15 11 8 12
REMARK SMILES IDX 2 13 3 14 1 15
REMARK H PARENT
REMARK Flexibility Score: inf
ROOT
ATOM      1  C   UNL     1       3.936   9.021  11.788  1.00  0.00     0.015 C 
ATOM      2  C   UNL     1       5.144   9.884  11.397  1.00  0.00     0.008 C 
ATOM      3  C   UNL     1       6.291   9.009  10.875  1.00  0.00     0.008 C 
ATOM      4  C   UNL     1       6.726   7.883  11.862  1.00  0.00    -0.026 C 
ATOM      5  C   UNL     1       7.499   8.499  13.069  1.00  0.00     0.008 C 
ATOM      6  C   UNL     1       7.904   7.452  14.122  1.00  0.00     0.005 C 
ATOM      7  C   UNL     1       6.703   6.644  14.625  1.00  0.00     0.031 C 
ATOM      8  C   UNL     1       5.873   6.121  13.473  1.00  0.00    -0.074 C 
ATOM      9  C   UNL     1       5.376   4.875  13.507  1.00  0.00     0.008 C 
ATOM     10  C   UNL     1       5.480   7.078  12.360  1.00  0.00     0.021 C 
ATOM     11  C   UNL     1       4.335   7.991  12.855  1.00  0.00     0.016 C 
ATOM     12  C   UNL     1       7.667   6.934  11.075  1.00  0.00     0.012 C 
ENDROOT
BRANCH   1  13
ATOM     13  C   UNL     1       2.773   9.882  12.261  1.00  0.00    -0.077 C 
ATOM     14  C   UNL     1       2.312  11.083  11.473  1.00  0.00     0.039 C 
ATOM     15  C   UNL     1       2.133   9.583  13.404  1.00  0.00     0.008 C 
ENDBRANCH   1  13
TORSDOF 1
ENDMDL
MODEL 2
REMARK VINA RESULT:    -2.623      1.222      2.711
REMARK INTER + INTRA:          -2.953
REMARK INTER:                  -2.777
REMARK INTRA:                  -0.176
REMARK UNBOUND:                -0.176
REMARK SMILES C=C(C)[C@H]1CC[C@@]2(C)CCCC(=C)[C@H]2C1
REMARK SMILES IDX 4 1 5 2 6 3 7 4 9 5 10 6 11 7 12 8 13 9 14 10 15 11 8 12
REMARK SMILES IDX 2 13 3 14 1 15
REMARK H PARENT
REMARK Flexibility Score: inf
ROOT
ATOM      1  C   UNL     1       4.208   8.646  12.418  1.00  0.00     0.015 C 
ATOM      2  C   UNL     1       4.058   7.341  11.623  1.00  0.00     0.008 C 
ATOM      3  C   UNL     1       4.566   6.146  12.439  1.00  0.00     0.008 C 
ATOM      4  C   UNL     1       6.032   6.307  12.947  1.00  0.00    -0.026 C 
ATOM      5  C   UNL     1       7.030   6.155  11.757  1.00  0.00     0.008 C 
ATOM      6  C   UNL     1       8.497   6.367  12.171  1.00  0.00     0.005 C 
ATOM      7  C   UNL     1       8.711   7.716  12.867  1.00  0.00     0.031 C 
ATOM      8  C   UNL     1       7.688   7.937  13.960  1.00  0.00    -0.074 C 
ATOM      9  C   UNL     1       8.056   8.474  15.133  1.00  0.00     0.008 C 
ATOM     10  C   UNL     1       6.221   7.692  13.650  1.00  0.00     0.021 C 
ATOM     11  C   UNL     1       5.675   8.870  12.811  1.00  0.00     0.016 C 
ATOM     12  C   UNL     1       6.278   5.172  13.976  1.00  0.00     0.012 C 
ENDROOT
BRANCH   1  13
ATOM     13  C   UNL     1       3.660   9.834  11.637  1.00  0.00    -0.077 C 
ATOM     14  C   UNL     1       2.199  10.205  11.692  1.00  0.00     0.039 C 
ATOM     15  C   UNL     1       4.480  10.577  10.876  1.00  0.00     0.008 C 
ENDBRANCH   1  13
TORSDOF 1
ENDMDL
MODEL 3
REMARK VINA RESULT:    -2.345      1.677      5.500
REMARK INTER + INTRA:          -2.659
REMARK INTER:                  -2.484
REMARK INTRA:                  -0.175
REMARK UNBOUND:                -0.176
REMARK SMILES C=C(C)[C@H]1CC[C@@]2(C)CCCC(=C)[C@H]2C1
REMARK SMILES IDX 4 1 5 2 6 3 7 4 9 5 10 6 11 7 12 8 13 9 14 10 15 11 8 12
REMARK SMILES IDX 2 13 3 14 1 15
REMARK H PARENT
REMARK Flexibility Score: inf
ROOT
ATOM      1  C   UNL     1       4.633   8.841  12.701  1.00  0.00     0.015 C 
ATOM      2  C   UNL     1       4.585   9.080  11.185  1.00  0.00     0.008 C 
ATOM      3  C   UNL     1       4.414  10.573  10.875  1.00  0.00     0.008 C 
ATOM      4  C   UNL     1       3.178  11.223  11.566  1.00  0.00    -0.026 C 
ATOM      5  C   UNL     1       1.863  10.741  10.877  1.00  0.00     0.008 C 
ATOM      6  C   UNL     1       0.594  11.292  11.549  1.00  0.00     0.005 C 
ATOM      7  C   UNL     1       0.547  10.971  13.047  1.00  0.00     0.031 C 
ATOM      8  C   UNL     1       1.851  11.333  13.725  1.00  0.00    -0.074 C 
ATOM      9  C   UNL     1       1.847  11.920  14.931  1.00  0.00     0.008 C 
ATOM     10  C   UNL     1       3.156  10.878  13.093  1.00  0.00     0.021 C 
ATOM     11  C   UNL     1       3.356   9.370  13.368  1.00  0.00     0.016 C 
ATOM     12  C   UNL     1       3.320  12.758  11.391  1.00  0.00     0.012 C 
ENDROOT
BRANCH   1  13
ATOM     13  C   UNL     1       4.852   7.368  13.020  1.00  0.00    -0.077 C 
ATOM     14  C   UNL     1       6.004   6.913  13.882  1.00  0.00     0.039 C 
ATOM     15  C   UNL     1       4.014   6.440  12.532  1.00  0.00     0.008 C 
ENDBRANCH   1  13
TORSDOF 1
ENDMDL
MODEL 4
REMARK VINA RESULT:    -2.242      2.094      6.001
REMARK INTER + INTRA:          -2.549
REMARK INTER:                  -2.383
REMARK INTRA:                  -0.166
REMARK UNBOUND:                -0.176
REMARK SMILES C=C(C)[C@H]1CC[C@@]2(C)CCCC(=C)[C@H]2C1
REMARK SMILES IDX 4 1 5 2 6 3 7 4 9 5 10 6 11 7 12 8 13 9 14 10 15 11 8 12
REMARK SMILES IDX 2 13 3 14 1 15
REMARK H PARENT
REMARK Flexibility Score: inf
ROOT
ATOM      1  C   UNL     1       4.219   9.770  11.326  1.00  0.00     0.015 C 
ATOM      2  C   UNL     1       2.765   9.291  11.209  1.00  0.00     0.008 C 
ATOM      3  C   UNL     1       1.832  10.463  10.875  1.00  0.00     0.008 C 
ATOM      4  C   UNL     1       1.931  11.653  11.876  1.00  0.00    -0.026 C 
ATOM      5  C   UNL     1       1.264  11.268  13.234  1.00  0.00     0.008 C 
ATOM      6  C   UNL     1       1.382  12.373  14.298  1.00  0.00     0.005 C 
ATOM      7  C   UNL     1       2.835  12.800  14.530  1.00  0.00     0.031 C 
ATOM      8  C   UNL     1       3.540  13.080  13.220  1.00  0.00    -0.074 C 
ATOM      9  C   UNL     1       4.364  14.133  13.106  1.00  0.00     0.008 C 
ATOM     10  C   UNL     1       3.425  12.064  12.095  1.00  0.00     0.021 C 
ATOM     11  C   UNL     1       4.340  10.857  12.404  1.00  0.00     0.016 C 
ATOM     12  C   UNL     1       1.161  12.841  11.241  1.00  0.00     0.012 C 
ENDROOT
BRANCH   1  13
ATOM     13  C   UNL     1       5.161   8.608  11.608  1.00  0.00    -0.077 C 
ATOM     14  C   UNL     1       4.717   7.414  12.417  1.00  0.00     0.039 C 
ATOM     15  C   UNL     1       6.419   8.629  11.137  1.00  0.00     0.008 C 
ENDBRANCH   1  13
TORSDOF 1
ENDMDL
MODEL 5
REMARK VINA RESULT:    -1.260      3.741      6.461
REMARK INTER + INTRA:          -1.510
REMARK INTER:                  -1.334
REMARK INTRA:                  -0.175
REMARK UNBOUND:                -0.176
REMARK SMILES C=C(C)[C@H]1CC[C@@]2(C)CCCC(=C)[C@H]2C1
REMARK SMILES IDX 4 1 5 2 6 3 7 4 9 5 10 6 11 7 12 8 13 9 14 10 15 11 8 12
REMARK SMILES IDX 2 13 3 14 1 15
REMARK H PARENT
REMARK Flexibility Score: inf
ROOT
ATOM      1  C   UNL     1       4.007  14.564  12.205  1.00  0.00     0.015 C 
ATOM      2  C   UNL     1       2.942  14.750  13.296  1.00  0.00     0.008 C 
ATOM      3  C   UNL     1       2.865  13.511  14.197  1.00  0.00     0.008 C 
ATOM      4  C   UNL     1       2.621  12.180  13.422  1.00  0.00    -0.026 C 
ATOM      5  C   UNL     1       1.150  12.123  12.906  1.00  0.00     0.008 C 
ATOM      6  C   UNL     1       0.852  10.865  12.073  1.00  0.00     0.005 C 
ATOM      7  C   UNL     1       1.825  10.705  10.900  1.00  0.00     0.031 C 
ATOM      8  C   UNL     1       3.260  10.860  11.354  1.00  0.00    -0.074 C 
ATOM      9  C   UNL     1       4.214  10.047  10.875  1.00  0.00     0.008 C 
ATOM     10  C   UNL     1       3.627  12.046  12.231  1.00  0.00     0.021 C 
ATOM     11  C   UNL     1       3.697  13.321  11.359  1.00  0.00     0.016 C 
ATOM     12  C   UNL     1       2.861  11.023  14.427  1.00  0.00     0.012 C 
ENDROOT
BRANCH   1  13
ATOM     13  C   UNL     1       4.127  15.807  11.334  1.00  0.00    -0.077 C 
ATOM     14  C   UNL     1       5.472  16.384  10.968  1.00  0.00     0.039 C 
ATOM     15  C   UNL     1       3.023  16.418  10.875  1.00  0.00     0.008 C 
ENDBRANCH   1  13
TORSDOF 1
ENDMDL
MODEL 6
REMARK VINA RESULT:    -0.598      1.374      4.838
REMARK INTER + INTRA:          -0.809
REMARK INTER:                  -0.635
REMARK INTRA:                  -0.174
REMARK UNBOUND:                -0.176
REMARK SMILES C=C(C)[C@H]1CC[C@@]2(C)CCCC(=C)[C@H]2C1
REMARK SMILES IDX 4 1 5 2 6 3 7 4 9 5 10 6 11 7 12 8 13 9 14 10 15 11 8 12
REMARK SMILES IDX 2 13 3 14 1 15
REMARK H PARENT
REMARK Flexibility Score: inf
ROOT
ATOM      1  C   UNL     1       7.666   7.635  13.108  1.00  0.00     0.015 C 
ATOM      2  C   UNL     1       7.149   6.336  13.744  1.00  0.00     0.008 C 
ATOM      3  C   UNL     1       6.048   5.709  12.879  1.00  0.00     0.008 C 
ATOM      4  C   UNL     1       4.861   6.672  12.571  1.00  0.00    -0.026 C 
ATOM      5  C   UNL     1       3.994   6.879  13.851  1.00  0.00     0.008 C 
ATOM      6  C   UNL     1       2.838   7.873  13.641  1.00  0.00     0.005 C 
ATOM      7  C   UNL     1       3.328   9.226  13.116  1.00  0.00     0.031 C 
ATOM      8  C   UNL     1       4.258   9.051  11.935  1.00  0.00    -0.074 C 
ATOM      9  C   UNL     1       4.168   9.869  10.875  1.00  0.00     0.008 C 
ATOM     10  C   UNL     1       5.392   8.045  12.039  1.00  0.00     0.021 C 
ATOM     11  C   UNL     1       6.516   8.635  12.920  1.00  0.00     0.016 C 
ATOM     12  C   UNL     1       4.005   5.993  11.470  1.00  0.00     0.012 C 
ENDROOT
BRANCH   1  13
ATOM     13  C   UNL     1       8.794   8.241  13.933  1.00  0.00    -0.077 C 
ATOM     14  C   UNL     1      10.236   8.108  13.509  1.00  0.00     0.039 C 
ATOM     15  C   UNL     1       8.518   8.909  15.064  1.00  0.00     0.008 C 
ENDBRANCH   1  13
TORSDOF 1
ENDMDL
