MODEL 1
REMARK VINA RESULT:    -1.794      0.000      0.000
REMARK INTER + INTRA:          -1.819
REMARK INTER:                  -2.529
REMARK INTRA:                   0.710
REMARK UNBOUND:                 0.710
REMARK SMILES CC1=CCC(=C(C)C)C(=O)CC(C)=CCC1
REMARK SMILES IDX 12 1 14 2 13 3 15 4 16 5 2 6 1 7 3 8 11 10 9 11 10 12 5 13
REMARK SMILES IDX 6 14 7 15 8 16 4 17
REMARK H PARENT
REMARK Flexibility Score: 60.00
ROOT
ATOM      1  C   UNL     1      10.116  16.553  13.095  1.00  0.00    -0.070 C 
ATOM      2  C   UNL     1       9.906  16.688  11.767  1.00  0.00    -0.027 C 
ATOM      3  C   UNL     1       8.912  16.401  13.988  1.00  0.00     0.039 C 
ENDROOT
BRANCH   2   4
ATOM      4  C   UNL     1      10.973  16.948  10.726  1.00  0.00     0.032 C 
BRANCH   4   5
ATOM      5  C   UNL     1      11.772  15.702  10.291  1.00  0.00     0.034 C 
BRANCH   5   6
ATOM      6  C   UNL     1      13.238  15.765  10.679  1.00  0.00    -0.077 C 
ATOM      7  C   UNL     1      14.137  16.672   9.878  1.00  0.00     0.039 C 
ATOM      8  C   UNL     1      13.804  15.010  11.651  1.00  0.00    -0.023 CG0
ATOM      9  G   UNL     1      13.100  14.049  12.590  1.00  0.00     0.000 G0
ENDBRANCH   5   6
ENDBRANCH   4   5
ENDBRANCH   2   4
BRANCH   1  10
ATOM     10  C   UNL     1      11.488  16.642  13.733  1.00  0.00     0.111 C 
BRANCH  10  11
ATOM     11  C   UNL     1      11.861  15.361  14.430  1.00  0.00     0.163 C 
ATOM     12  O   UNL     1      11.170  15.000  15.420  1.00  0.00    -0.294 OA
BRANCH  11  13
ATOM     13  C   UNL     1      13.046  14.546  14.028  1.00  0.00    -0.002 C 
ATOM     14  C   UNL     1      14.075  14.331  14.901  1.00  0.00    -0.069 C 
ATOM     15  C   UNL     1      13.983  14.769  16.346  1.00  0.00     0.039 C 
ATOM     16  C   UNL     1      15.357  13.647  14.477  1.00  0.00     0.039 C 
BRANCH  13  17
ATOM     17  C   UNL     1      13.098  14.058  12.589  1.00  0.00     0.066 CG0
ATOM     18  G   UNL     1      13.799  15.040  11.671  1.00  0.00     0.000 G0
ENDBRANCH  13  17
ENDBRANCH  11  13
ENDBRANCH  10  11
ENDBRANCH   1  10
TORSDOF 0
ENDMDL
MODEL 2
REMARK VINA RESULT:    -1.677      1.660      3.357
REMARK INTER + INTRA:          -1.654
REMARK INTER:                  -2.445
REMARK INTRA:                   0.791
REMARK UNBOUND:                 0.710
REMARK SMILES CC1=CCC(=C(C)C)C(=O)CC(C)=CCC1
REMARK SMILES IDX 12 1 14 2 13 3 15 4 16 5 2 6 1 7 3 8 11 10 9 11 10 12 5 13
REMARK SMILES IDX 6 14 7 15 8 16 4 17
REMARK H PARENT
REMARK Flexibility Score: 60.00
ROOT
ATOM      1  C   UNL     1      13.291  15.747  10.549  1.00  0.00    -0.070 C 
ATOM      2  C   UNL     1      12.002  15.673  10.151  1.00  0.00    -0.027 C 
ATOM      3  C   UNL     1      14.164  16.804   9.922  1.00  0.00     0.039 C 
ENDROOT
BRANCH   2   4
ATOM      4  C   UNL     1      11.001  14.626  10.590  1.00  0.00     0.032 C 
BRANCH   4   5
ATOM      5  C   UNL     1       9.827  15.165  11.432  1.00  0.00     0.034 C 
BRANCH   5   6
ATOM      6  C   UNL     1      10.244  16.234  12.426  1.00  0.00    -0.077 C 
ATOM      7  C   UNL     1       9.722  17.632  12.212  1.00  0.00     0.039 C 
ATOM      8  C   UNL     1      11.109  16.030  13.448  1.00  0.00    -0.023 CG0
ATOM      9  G   UNL     1      11.743  14.717  13.862  1.00  0.00     0.000 G0
ENDBRANCH   5   6
ENDBRANCH   4   5
ENDBRANCH   2   4
BRANCH   1  10
ATOM     10  C   UNL     1      13.920  14.767  11.519  1.00  0.00     0.111 C 
BRANCH  10  11
ATOM     11  C   UNL     1      14.030  15.347  12.903  1.00  0.00     0.163 C 
ATOM     12  O   UNL     1      14.867  16.269  13.096  1.00  0.00    -0.294 OA
BRANCH  11  13
ATOM     13  C   UNL     1      13.233  14.829  14.055  1.00  0.00    -0.002 C 
ATOM     14  C   UNL     1      13.851  14.398  15.195  1.00  0.00    -0.069 C 
ATOM     15  C   UNL     1      15.339  14.576  15.397  1.00  0.00     0.039 C 
ATOM     16  C   UNL     1      13.087  13.723  16.314  1.00  0.00     0.039 C 
BRANCH  13  17
ATOM     17  C   UNL     1      11.729  14.714  13.863  1.00  0.00     0.066 CG0
ATOM     18  G   UNL     1      11.098  16.029  13.450  1.00  0.00     0.000 G0
ENDBRANCH  13  17
ENDBRANCH  11  13
ENDBRANCH  10  11
ENDBRANCH   1  10
TORSDOF 0
ENDMDL
MODEL 3
REMARK VINA RESULT:    -1.435      1.922      4.387
REMARK INTER + INTRA:          -1.313
REMARK INTER:                  -1.939
REMARK INTRA:                   0.626
REMARK UNBOUND:                 0.710
REMARK SMILES CC1=CCC(=C(C)C)C(=O)CC(C)=CCC1
REMARK SMILES IDX 12 1 14 2 13 3 15 4 16 5 2 6 1 7 3 8 11 10 9 11 10 12 5 13
REMARK SMILES IDX 6 14 7 15 8 16 4 17
REMARK H PARENT
REMARK Flexibility Score: 60.00
ROOT
ATOM      1  C   UNL     1      12.714  14.877  13.888  1.00  0.00    -0.070 C 
ATOM      2  C   UNL     1      13.227  14.559  12.679  1.00  0.00    -0.027 C 
ATOM      3  C   UNL     1      12.858  13.873  15.003  1.00  0.00     0.039 C 
ENDROOT
BRANCH   2   4
ATOM      4  C   UNL     1      13.099  15.387  11.419  1.00  0.00     0.032 C 
BRANCH   4   5
ATOM      5  C   UNL     1      12.527  14.631  10.202  1.00  0.00     0.034 C 
BRANCH   5   6
ATOM      6  C   UNL     1      11.035  14.372  10.306  1.00  0.00    -0.077 C 
ATOM      7  C   UNL     1      10.528  13.016   9.886  1.00  0.00     0.039 C 
ATOM      8  C   UNL     1      10.123  15.300  10.685  1.00  0.00    -0.023 CG0
ATOM      9  G   UNL     1      10.399  16.712  11.162  1.00  0.00     0.000 G0
ENDBRANCH   5   6
ENDBRANCH   4   5
ENDBRANCH   2   4
BRANCH   1  10
ATOM     10  C   UNL     1      11.926  16.145  14.148  1.00  0.00     0.111 C 
BRANCH  10  11
ATOM     11  C   UNL     1      10.514  16.037  13.638  1.00  0.00     0.163 C 
ATOM     12  O   UNL     1       9.794  15.100  14.076  1.00  0.00    -0.294 OA
BRANCH  11  13
ATOM     13  C   UNL     1       9.966  16.956  12.597  1.00  0.00    -0.002 C 
ATOM     14  C   UNL     1       9.042  17.910  12.923  1.00  0.00    -0.069 C 
ATOM     15  C   UNL     1       8.662  18.175  14.363  1.00  0.00     0.039 C 
ATOM     16  C   UNL     1       8.351  18.749  11.870  1.00  0.00     0.039 C 
BRANCH  13  17
ATOM     17  C   UNL     1      10.404  16.720  11.161  1.00  0.00     0.066 CG0
ATOM     18  G   UNL     1      10.111  15.308  10.693  1.00  0.00     0.000 G0
ENDBRANCH  13  17
ENDBRANCH  11  13
ENDBRANCH  10  11
ENDBRANCH   1  10
TORSDOF 0
ENDMDL
MODEL 4
REMARK VINA RESULT:    -0.961      2.169      5.893
REMARK INTER + INTRA:          -0.644
REMARK INTER:                  -3.132
REMARK INTRA:                   2.488
REMARK UNBOUND:                 0.710
REMARK SMILES CC1=CCC(=C(C)C)C(=O)CC(C)=CCC1
REMARK SMILES IDX 12 1 14 2 13 3 15 4 16 5 2 6 1 7 3 8 11 10 9 11 10 12 5 13
REMARK SMILES IDX 6 14 7 15 8 16 4 17
REMARK H PARENT
REMARK Flexibility Score: 60.00
ROOT
ATOM      1  C   UNL     1      16.104  12.844  15.028  1.00  0.00    -0.070 C 
ATOM      2  C   UNL     1      15.924  13.250  16.304  1.00  0.00    -0.027 C 
ATOM      3  C   UNL     1      17.282  11.951  14.731  1.00  0.00     0.039 C 
ENDROOT
BRANCH   2   4
ATOM      4  C   UNL     1      14.864  14.218  16.782  1.00  0.00     0.032 C 
BRANCH   4   5
ATOM      5  C   UNL     1      13.705  13.574  17.571  1.00  0.00     0.034 C 
BRANCH   5   6
ATOM      6  C   UNL     1      12.639  12.964  16.679  1.00  0.00    -0.077 C 
ATOM      7  C   UNL     1      12.221  11.543  16.958  1.00  0.00     0.039 C 
ATOM      8  C   UNL     1      12.092  13.587  15.608  1.00  0.00    -0.023 CG0
ATOM      9  G   UNL     1      12.345  15.010  15.149  1.00  0.00     0.000 G0
ENDBRANCH   5   6
ENDBRANCH   4   5
ENDBRANCH   2   4
BRANCH   1  10
ATOM     10  C   UNL     1      15.239  13.315  13.876  1.00  0.00     0.111 C 
BRANCH  10  11
ATOM     11  C   UNL     1      14.688  14.694  14.122  1.00  0.00     0.163 C 
ATOM     12  O   UNL     1      15.470  15.575  14.569  1.00  0.00    -0.294 OA
BRANCH  11  13
ATOM     13  C   UNL     1      13.248  15.029  13.914  1.00  0.00    -0.002 C 
ATOM     14  C   UNL     1      12.793  15.428  12.689  1.00  0.00    -0.069 C 
ATOM     15  C   UNL     1      13.688  15.392  11.469  1.00  0.00     0.039 C 
ATOM     16  C   UNL     1      11.379  15.926  12.482  1.00  0.00     0.039 C 
BRANCH  13  17
ATOM     17  C   UNL     1      12.344  15.001  15.136  1.00  0.00     0.066 CG0
ATOM     18  G   UNL     1      12.074  13.590  15.621  1.00  0.00     0.000 G0
ENDBRANCH  13  17
ENDBRANCH  11  13
ENDBRANCH  10  11
ENDBRANCH   1  10
TORSDOF 0
ENDMDL
MODEL 5
REMARK VINA RESULT:    -0.918      1.837      4.906
REMARK INTER + INTRA:          -0.585
REMARK INTER:                  -1.216
REMARK INTRA:                   0.631
REMARK UNBOUND:                 0.710
REMARK SMILES CC1=CCC(=C(C)C)C(=O)CC(C)=CCC1
REMARK SMILES IDX 12 1 14 2 13 3 15 4 16 5 2 6 1 7 3 8 11 10 9 11 10 12 5 13
REMARK SMILES IDX 6 14 7 15 8 16 4 17
REMARK H PARENT
REMARK Flexibility Score: 60.00
ROOT
ATOM      1  C   UNL     1      13.696  15.092  11.155  1.00  0.00    -0.070 C 
ATOM      2  C   UNL     1      14.522  14.997  12.220  1.00  0.00    -0.027 C 
ATOM      3  C   UNL     1      14.025  14.275   9.931  1.00  0.00     0.039 C 
ENDROOT
BRANCH   2   4
ATOM      4  C   UNL     1      14.415  15.804  13.496  1.00  0.00     0.032 C 
BRANCH   4   5
ATOM      5  C   UNL     1      14.355  14.966  14.790  1.00  0.00     0.034 C 
BRANCH   5   6
ATOM      6  C   UNL     1      13.063  14.181  14.934  1.00  0.00    -0.077 C 
ATOM      7  C   UNL     1      13.169  12.713  15.259  1.00  0.00     0.039 C 
ATOM      8  C   UNL     1      11.828  14.697  14.723  1.00  0.00    -0.023 CG0
ATOM      9  G   UNL     1      11.481  16.138  14.405  1.00  0.00     0.000 G0
ENDBRANCH   5   6
ENDBRANCH   4   5
ENDBRANCH   2   4
BRANCH   1  10
ATOM     10  C   UNL     1      12.517  16.042  11.099  1.00  0.00     0.111 C 
BRANCH  10  11
ATOM     11  C   UNL     1      11.352  15.532  11.904  1.00  0.00     0.163 C 
ATOM     12  O   UNL     1      10.814  14.449  11.550  1.00  0.00    -0.294 OA
BRANCH  11  13
ATOM     13  C   UNL     1      10.783  16.290  13.059  1.00  0.00    -0.002 C 
ATOM     14  C   UNL     1       9.730  17.143  12.883  1.00  0.00    -0.069 C 
ATOM     15  C   UNL     1       9.004  17.233  11.559  1.00  0.00     0.039 C 
ATOM     16  C   UNL     1       9.233  18.042  13.995  1.00  0.00     0.039 C 
BRANCH  13  17
ATOM     17  C   UNL     1      11.483  16.143  14.400  1.00  0.00     0.066 CG0
ATOM     18  G   UNL     1      11.813  14.698  14.723  1.00  0.00     0.000 G0
ENDBRANCH  13  17
ENDBRANCH  11  13
ENDBRANCH  10  11
ENDBRANCH   1  10
TORSDOF 0
ENDMDL
MODEL 6
REMARK VINA RESULT:    -0.886      1.820      4.883
REMARK INTER + INTRA:          -0.538
REMARK INTER:                  -2.067
REMARK INTRA:                   1.528
REMARK UNBOUND:                 0.710
REMARK SMILES CC1=CCC(=C(C)C)C(=O)CC(C)=CCC1
REMARK SMILES IDX 12 1 14 2 13 3 15 4 16 5 2 6 1 7 3 8 11 10 9 11 10 12 5 13
REMARK SMILES IDX 6 14 7 15 8 16 4 17
REMARK H PARENT
REMARK Flexibility Score: 60.00
ROOT
ATOM      1  C   UNL     1      12.740  12.692  16.359  1.00  0.00    -0.070 C 
ATOM      2  C   UNL     1      13.610  13.371  17.139  1.00  0.00    -0.027 C 
ATOM      3  C   UNL     1      11.896  11.625  17.008  1.00  0.00     0.039 C 
ENDROOT
BRANCH   2   4
ATOM      4  C   UNL     1      14.605  14.405  16.659  1.00  0.00     0.032 C 
BRANCH   4   5
ATOM      5  C   UNL     1      15.992  13.844  16.284  1.00  0.00     0.034 C 
BRANCH   5   6
ATOM      6  C   UNL     1      16.021  13.181  14.919  1.00  0.00    -0.077 C 
ATOM      7  C   UNL     1      16.679  11.829  14.809  1.00  0.00     0.039 C 
ATOM      8  C   UNL     1      15.557  13.754  13.782  1.00  0.00    -0.023 CG0
ATOM      9  G   UNL     1      14.847  15.088  13.653  1.00  0.00     0.000 G0
ENDBRANCH   5   6
ENDBRANCH   4   5
ENDBRANCH   2   4
BRANCH   1  10
ATOM     10  C   UNL     1      12.641  12.887  14.860  1.00  0.00     0.111 C 
BRANCH  10  11
ATOM     11  C   UNL     1      12.535  14.343  14.494  1.00  0.00     0.163 C 
ATOM     12  O   UNL     1      11.686  15.049  15.102  1.00  0.00    -0.294 OA
BRANCH  11  13
ATOM     13  C   UNL     1      13.352  14.956  13.404  1.00  0.00    -0.002 C 
ATOM     14  C   UNL     1      12.785  15.282  12.204  1.00  0.00    -0.069 C 
ATOM     15  C   UNL     1      11.290  15.184  11.990  1.00  0.00     0.039 C 
ATOM     16  C   UNL     1      13.612  15.755  11.029  1.00  0.00     0.039 C 
BRANCH  13  17
ATOM     17  C   UNL     1      14.844  15.107  13.655  1.00  0.00     0.066 CG0
ATOM     18  G   UNL     1      15.548  13.769  13.769  1.00  0.00     0.000 G0
ENDBRANCH  13  17
ENDBRANCH  11  13
ENDBRANCH  10  11
ENDBRANCH   1  10
TORSDOF 0
ENDMDL
MODEL 7
REMARK VINA RESULT:     0.648      1.862      3.725
REMARK INTER + INTRA:           1.624
REMARK INTER:                   0.652
REMARK INTRA:                   0.971
REMARK UNBOUND:                 0.710
REMARK SMILES CC1=CCC(=C(C)C)C(=O)CC(C)=CCC1
REMARK SMILES IDX 12 1 14 2 13 3 15 4 16 5 2 6 1 7 3 8 11 10 9 11 10 12 5 13
REMARK SMILES IDX 6 14 7 15 8 16 4 17
REMARK H PARENT
REMARK Flexibility Score: 60.00
ROOT
ATOM      1  C   UNL     1      12.791  15.388  11.142  1.00  0.00    -0.070 C 
ATOM      2  C   UNL     1      11.826  16.278  10.820  1.00  0.00    -0.027 C 
ATOM      3  C   UNL     1      13.952  15.232  10.194  1.00  0.00     0.039 C 
ENDROOT
BRANCH   2   4
ATOM      4  C   UNL     1      10.543  16.507  11.588  1.00  0.00     0.032 C 
BRANCH   4   5
ATOM      5  C   UNL     1      10.735  16.900  13.068  1.00  0.00     0.034 C 
BRANCH   5   6
ATOM      6  C   UNL     1      10.207  15.858  14.037  1.00  0.00    -0.077 C 
ATOM      7  C   UNL     1       8.790  15.377  13.846  1.00  0.00     0.039 C 
ATOM      8  C   UNL     1      10.898  15.384  15.101  1.00  0.00    -0.023 CG0
ATOM      9  G   UNL     1      12.330  15.708  15.480  1.00  0.00     0.000 G0
ENDBRANCH   5   6
ENDBRANCH   4   5
ENDBRANCH   2   4
BRANCH   1  10
ATOM     10  C   UNL     1      12.714  14.481  12.353  1.00  0.00     0.111 C 
BRANCH  10  11
ATOM     11  C   UNL     1      13.652  14.927  13.443  1.00  0.00     0.163 C 
ATOM     12  O   UNL     1      14.764  15.417  13.106  1.00  0.00    -0.294 OA
BRANCH  11  13
ATOM     13  C   UNL     1      13.337  14.754  14.892  1.00  0.00    -0.002 C 
ATOM     14  C   UNL     1      13.881  13.724  15.607  1.00  0.00    -0.069 C 
ATOM     15  C   UNL     1      14.938  12.823  15.007  1.00  0.00     0.039 C 
ATOM     16  C   UNL     1      13.461  13.427  17.030  1.00  0.00     0.039 C 
BRANCH  13  17
ATOM     17  C   UNL     1      12.320  15.706  15.501  1.00  0.00     0.066 CG0
ATOM     18  G   UNL     1      10.897  15.357  15.110  1.00  0.00     0.000 G0
ENDBRANCH  13  17
ENDBRANCH  11  13
ENDBRANCH  10  11
ENDBRANCH   1  10
TORSDOF 0
ENDMDL
MODEL 8
REMARK VINA RESULT:     0.732      1.684      4.418
REMARK INTER + INTRA:           1.742
REMARK INTER:                   0.042
REMARK INTRA:                   1.700
REMARK UNBOUND:                 0.710
REMARK SMILES CC1=CCC(=C(C)C)C(=O)CC(C)=CCC1
REMARK SMILES IDX 12 1 14 2 13 3 15 4 16 5 2 6 1 7 3 8 11 10 9 11 10 12 5 13
REMARK SMILES IDX 6 14 7 15 8 16 4 17
REMARK H PARENT
REMARK Flexibility Score: 60.00
ROOT
ATOM      1  C   UNL     1      11.896  15.081  15.013  1.00  0.00    -0.070 C 
ATOM      2  C   UNL     1      12.571  15.198  16.177  1.00  0.00    -0.027 C 
ATOM      3  C   UNL     1      10.727  16.004  14.778  1.00  0.00     0.039 C 
ENDROOT
BRANCH   2   4
ATOM      4  C   UNL     1      13.703  14.305  16.636  1.00  0.00     0.032 C 
BRANCH   4   5
ATOM      5  C   UNL     1      15.075  14.623  16.006  1.00  0.00     0.034 C 
BRANCH   5   6
ATOM      6  C   UNL     1      15.380  13.781  14.780  1.00  0.00    -0.077 C 
ATOM      7  C   UNL     1      15.982  12.416  14.999  1.00  0.00     0.039 C 
ATOM      8  C   UNL     1      15.212  14.202  13.503  1.00  0.00    -0.023 CG0
ATOM      9  G   UNL     1      14.612  15.517  13.045  1.00  0.00     0.000 G0
ENDBRANCH   5   6
ENDBRANCH   4   5
ENDBRANCH   2   4
BRANCH   1  10
ATOM     10  C   UNL     1      12.196  14.011  13.982  1.00  0.00     0.111 C 
BRANCH  10  11
ATOM     11  C   UNL     1      12.250  14.580  12.589  1.00  0.00     0.163 C 
ATOM     12  O   UNL     1      11.283  14.349  11.815  1.00  0.00    -0.294 OA
BRANCH  11  13
ATOM     13  C   UNL     1      13.426  15.350  12.084  1.00  0.00    -0.002 C 
ATOM     14  C   UNL     1      13.466  15.796  10.792  1.00  0.00    -0.069 C 
ATOM     15  C   UNL     1      12.266  15.669   9.880  1.00  0.00     0.039 C 
ATOM     16  C   UNL     1      14.704  16.437  10.204  1.00  0.00     0.039 C 
BRANCH  13  17
ATOM     17  C   UNL     1      14.601  15.525  13.031  1.00  0.00     0.066 CG0
ATOM     18  G   UNL     1      15.182  14.199  13.481  1.00  0.00     0.000 G0
ENDBRANCH  13  17
ENDBRANCH  11  13
ENDBRANCH  10  11
ENDBRANCH   1  10
TORSDOF 0
ENDMDL
