MODEL 1
REMARK VINA RESULT:    -5.526      0.000      0.000
REMARK INTER + INTRA:          -6.794
REMARK INTER:                  -6.495
REMARK INTRA:                  -0.299
REMARK UNBOUND:                -0.299
REMARK SMILES O=c1cc(-c2ccc(O)c(O)c2)oc2cc(O)cc(O)c12
REMARK SMILES IDX 4 1 3 2 2 3 1 4 21 5 19 6 18 7 16 8 15 9 14 10 13 11 5 12
REMARK SMILES IDX 6 13 7 14 8 15 12 16 10 17 9 18 11 20 20 22 17 24
REMARK H PARENT 9 19 11 21 20 23 17 25
REMARK Flexibility Score: inf
ROOT
ATOM      1  C   UNL     1    -105.869 186.855  49.920  1.00  0.00     0.138 A 
ATOM      2  C   UNL     1    -105.897 185.803  50.850  1.00  0.00     0.100 A 
ATOM      3  C   UNL     1    -104.752 185.029  51.046  1.00  0.00     0.197 A 
ATOM      4  O   UNL     1    -104.786 184.088  51.883  1.00  0.00    -0.289 OA
ATOM      5  C   UNL     1    -103.584 185.317  50.312  1.00  0.00     0.107 A 
ATOM      6  C   UNL     1    -102.383 184.582  50.449  1.00  0.00     0.134 A 
ATOM      7  C   UNL     1    -101.261 184.936  49.685  1.00  0.00     0.093 A 
ATOM      8  C   UNL     1    -101.317 186.007  48.789  1.00  0.00     0.123 A 
ATOM      9  C   UNL     1    -102.502 186.736  48.650  1.00  0.00     0.094 A 
ATOM     10  C   UNL     1    -103.632 186.399  49.401  1.00  0.00     0.146 A 
ATOM     11  O   UNL     1    -104.747 187.107  49.250  1.00  0.00    -0.456 OA
ENDROOT
BRANCH   1  12
ATOM     12  C   UNL     1    -107.056 187.712  49.671  1.00  0.00     0.021 A 
ATOM     13  C   UNL     1    -108.338 187.133  49.671  1.00  0.00     0.016 A 
ATOM     14  C   UNL     1    -109.471 187.918  49.446  1.00  0.00     0.051 A 
ATOM     15  C   UNL     1    -109.346 189.295  49.227  1.00  0.00     0.157 A 
ATOM     16  C   UNL     1    -106.938 189.099  49.462  1.00  0.00     0.062 A 
ATOM     17  C   UNL     1    -108.073 189.888  49.239  1.00  0.00     0.158 A 
BRANCH  15  18
ATOM     18  O   UNL     1    -110.479 190.075  49.000  1.00  0.00    -0.504 OA
ATOM     19  H   UNL     1    -111.222 190.143  49.686  1.00  0.00     0.293 HD
ENDBRANCH  15  18
BRANCH  17  20
ATOM     20  O   UNL     1    -107.915 191.259  49.035  1.00  0.00    -0.504 OA
ATOM     21  H   UNL     1    -107.056 191.742  49.268  1.00  0.00     0.293 HD
ENDBRANCH  17  20
ENDBRANCH   1  12
BRANCH   6  22
ATOM     22  O   UNL     1    -102.295 183.508  51.335  1.00  0.00    -0.507 OA
ATOM     23  H   UNL     1    -103.122 183.056  51.709  1.00  0.00     0.293 HD
ENDBRANCH   6  22
BRANCH   8  24
ATOM     24  O   UNL     1    -100.188 186.337  48.042  1.00  0.00    -0.508 OA
ATOM     25  H   UNL     1     -99.393 185.712  47.980  1.00  0.00     0.293 HD
ENDBRANCH   8  24
TORSDOF 5
ENDMDL
MODEL 2
REMARK VINA RESULT:    -5.513      0.617      1.491
REMARK INTER + INTRA:          -6.779
REMARK INTER:                  -6.501
REMARK INTRA:                  -0.278
REMARK UNBOUND:                -0.299
REMARK SMILES O=c1cc(-c2ccc(O)c(O)c2)oc2cc(O)cc(O)c12
REMARK SMILES IDX 4 1 3 2 2 3 1 4 21 5 19 6 18 7 16 8 15 9 14 10 13 11 5 12
REMARK SMILES IDX 6 13 7 14 8 15 12 16 10 17 9 18 11 20 20 22 17 24
REMARK H PARENT 9 19 11 21 20 23 17 25
REMARK Flexibility Score: inf
ROOT
ATOM      1  C   UNL     1    -105.860 186.836  49.825  1.00  0.00     0.138 A 
ATOM      2  C   UNL     1    -105.891 185.795  50.767  1.00  0.00     0.100 A 
ATOM      3  C   UNL     1    -104.743 185.032  50.986  1.00  0.00     0.197 A 
ATOM      4  O   UNL     1    -104.781 184.099  51.833  1.00  0.00    -0.289 OA
ATOM      5  C   UNL     1    -103.569 185.320  50.263  1.00  0.00     0.107 A 
ATOM      6  C   UNL     1    -102.363 184.596  50.423  1.00  0.00     0.134 A 
ATOM      7  C   UNL     1    -101.235 184.951  49.669  1.00  0.00     0.093 A 
ATOM      8  C   UNL     1    -101.288 186.011  48.761  1.00  0.00     0.123 A 
ATOM      9  C   UNL     1    -102.477 186.730  48.598  1.00  0.00     0.094 A 
ATOM     10  C   UNL     1    -103.613 186.392  49.340  1.00  0.00     0.146 A 
ATOM     11  O   UNL     1    -104.731 187.089  49.167  1.00  0.00    -0.456 OA
ENDROOT
BRANCH   1  12
ATOM     12  C   UNL     1    -107.051 187.680  49.552  1.00  0.00     0.021 A 
ATOM     13  C   UNL     1    -106.905 189.077  49.476  1.00  0.00     0.016 A 
ATOM     14  C   UNL     1    -108.008 189.893  49.213  1.00  0.00     0.051 A 
ATOM     15  C   UNL     1    -109.273 189.329  49.011  1.00  0.00     0.157 A 
ATOM     16  C   UNL     1    -108.324 187.118  49.335  1.00  0.00     0.062 A 
ATOM     17  C   UNL     1    -109.429 187.934  49.069  1.00  0.00     0.158 A 
BRANCH  15  18
ATOM     18  O   UNL     1    -110.372 190.147  48.750  1.00  0.00    -0.504 OA
ATOM     19  H   UNL     1    -110.259 191.121  48.498  1.00  0.00     0.293 HD
ENDBRANCH  15  18
BRANCH  17  20
ATOM     20  O   UNL     1    -110.675 187.340  48.861  1.00  0.00    -0.504 OA
ATOM     21  H   UNL     1    -111.526 187.885  48.791  1.00  0.00     0.293 HD
ENDBRANCH  17  20
ENDBRANCH   1  12
BRANCH   6  22
ATOM     22  O   UNL     1    -102.279 183.533  51.323  1.00  0.00    -0.507 OA
ATOM     23  H   UNL     1    -102.390 182.571  51.023  1.00  0.00     0.293 HD
ENDBRANCH   6  22
BRANCH   8  24
ATOM     24  O   UNL     1    -100.153 186.342  48.024  1.00  0.00    -0.508 OA
ATOM     25  H   UNL     1     -99.296 185.805  48.101  1.00  0.00     0.293 HD
ENDBRANCH   8  24
TORSDOF 5
ENDMDL
MODEL 3
REMARK VINA RESULT:    -5.474      2.148      2.410
REMARK INTER + INTRA:          -6.733
REMARK INTER:                  -6.437
REMARK INTRA:                  -0.295
REMARK UNBOUND:                -0.299
REMARK SMILES O=c1cc(-c2ccc(O)c(O)c2)oc2cc(O)cc(O)c12
REMARK SMILES IDX 4 1 3 2 2 3 1 4 21 5 19 6 18 7 16 8 15 9 14 10 13 11 5 12
REMARK SMILES IDX 6 13 7 14 8 15 12 16 10 17 9 18 11 20 20 22 17 24
REMARK H PARENT 9 19 11 21 20 23 17 25
REMARK Flexibility Score: inf
ROOT
ATOM      1  C   UNL     1    -104.969 187.801  50.974  1.00  0.00     0.138 A 
ATOM      2  C   UNL     1    -105.290 186.482  51.333  1.00  0.00     0.100 A 
ATOM      3  C   UNL     1    -104.470 185.435  50.909  1.00  0.00     0.197 A 
ATOM      4  O   UNL     1    -104.766 184.254  51.236  1.00  0.00    -0.289 OA
ATOM      5  C   UNL     1    -103.330 185.717  50.130  1.00  0.00     0.107 A 
ATOM      6  C   UNL     1    -102.448 184.716  49.658  1.00  0.00     0.134 A 
ATOM      7  C   UNL     1    -101.330 185.081  48.893  1.00  0.00     0.093 A 
ATOM      8  C   UNL     1    -101.078 186.422  48.591  1.00  0.00     0.123 A 
ATOM      9  C   UNL     1    -101.947 187.415  49.055  1.00  0.00     0.094 A 
ATOM     10  C   UNL     1    -103.068 187.073  49.818  1.00  0.00     0.146 A 
ATOM     11  O   UNL     1    -103.879 188.034  50.246  1.00  0.00    -0.456 OA
ENDROOT
BRANCH   1  12
ATOM     12  C   UNL     1    -105.805 188.953  51.397  1.00  0.00     0.021 A 
ATOM     13  C   UNL     1    -107.206 188.843  51.355  1.00  0.00     0.016 A 
ATOM     14  C   UNL     1    -108.014 189.910  51.754  1.00  0.00     0.051 A 
ATOM     15  C   UNL     1    -107.438 191.101  52.212  1.00  0.00     0.157 A 
ATOM     16  C   UNL     1    -105.232 190.149  51.870  1.00  0.00     0.062 A 
ATOM     17  C   UNL     1    -106.040 191.218  52.274  1.00  0.00     0.158 A 
BRANCH  15  18
ATOM     18  O   UNL     1    -108.249 192.165  52.608  1.00  0.00    -0.504 OA
ATOM     19  H   UNL     1    -108.241 192.511  53.560  1.00  0.00     0.293 HD
ENDBRANCH  15  18
BRANCH  17  20
ATOM     20  O   UNL     1    -105.435 192.388  52.736  1.00  0.00    -0.504 OA
ATOM     21  H   UNL     1    -105.722 193.305  52.415  1.00  0.00     0.293 HD
ENDBRANCH  17  20
ENDBRANCH   1  12
BRANCH   6  22
ATOM     22  O   UNL     1    -102.671 183.369  49.944  1.00  0.00    -0.507 OA
ATOM     23  H   UNL     1    -102.953 183.060  50.867  1.00  0.00     0.293 HD
ENDBRANCH   6  22
BRANCH   8  24
ATOM     24  O   UNL     1     -99.961 186.756  47.829  1.00  0.00    -0.508 OA
ATOM     25  H   UNL     1     -99.050 186.356  48.021  1.00  0.00     0.293 HD
ENDBRANCH   8  24
TORSDOF 5
ENDMDL
MODEL 4
REMARK VINA RESULT:    -5.228      3.418      6.539
REMARK INTER + INTRA:          -6.445
REMARK INTER:                  -6.149
REMARK INTRA:                  -0.295
REMARK UNBOUND:                -0.299
REMARK SMILES O=c1cc(-c2ccc(O)c(O)c2)oc2cc(O)cc(O)c12
REMARK SMILES IDX 4 1 3 2 2 3 1 4 21 5 19 6 18 7 16 8 15 9 14 10 13 11 5 12
REMARK SMILES IDX 6 13 7 14 8 15 12 16 10 17 9 18 11 20 20 22 17 24
REMARK H PARENT 9 19 11 21 20 23 17 25
REMARK Flexibility Score: inf
ROOT
ATOM      1  C   UNL     1    -104.764 184.854  50.380  1.00  0.00     0.138 A 
ATOM      2  C   UNL     1    -106.012 184.737  49.747  1.00  0.00     0.100 A 
ATOM      3  C   UNL     1    -107.109 184.270  50.472  1.00  0.00     0.197 A 
ATOM      4  O   UNL     1    -108.226 184.169  49.895  1.00  0.00    -0.289 OA
ATOM      5  C   UNL     1    -106.950 183.925  51.829  1.00  0.00     0.107 A 
ATOM      6  C   UNL     1    -108.009 183.442  52.635  1.00  0.00     0.134 A 
ATOM      7  C   UNL     1    -107.769 183.127  53.980  1.00  0.00     0.093 A 
ATOM      8  C   UNL     1    -106.496 183.284  54.534  1.00  0.00     0.123 A 
ATOM      9  C   UNL     1    -105.446 183.761  53.742  1.00  0.00     0.094 A 
ATOM     10  C   UNL     1    -105.663 184.080  52.398  1.00  0.00     0.146 A 
ATOM     11  O   UNL     1    -104.650 184.530  51.666  1.00  0.00    -0.456 OA
ENDROOT
BRANCH   1  12
ATOM     12  C   UNL     1    -103.563 185.346  49.659  1.00  0.00     0.021 A 
ATOM     13  C   UNL     1    -102.292 185.174  50.236  1.00  0.00     0.016 A 
ATOM     14  C   UNL     1    -101.146 185.622  49.574  1.00  0.00     0.051 A 
ATOM     15  C   UNL     1    -101.247 186.240  48.322  1.00  0.00     0.157 A 
ATOM     16  C   UNL     1    -103.657 185.957  48.394  1.00  0.00     0.062 A 
ATOM     17  C   UNL     1    -102.509 186.404  47.729  1.00  0.00     0.158 A 
BRANCH  15  18
ATOM     18  O   UNL     1    -100.101 186.687  47.666  1.00  0.00    -0.504 OA
ATOM     19  H   UNL     1     -99.194 186.271  47.840  1.00  0.00     0.293 HD
ENDBRANCH  15  18
BRANCH  17  20
ATOM     20  O   UNL     1    -102.643 187.006  46.477  1.00  0.00    -0.504 OA
ATOM     21  H   UNL     1    -103.359 187.697  46.286  1.00  0.00     0.293 HD
ENDBRANCH  17  20
ENDBRANCH   1  12
BRANCH   6  22
ATOM     22  O   UNL     1    -109.291 183.275  52.111  1.00  0.00    -0.507 OA
ATOM     23  H   UNL     1    -109.758 184.015  51.599  1.00  0.00     0.293 HD
ENDBRANCH   6  22
BRANCH   8  24
ATOM     24  O   UNL     1    -106.285 182.963  55.873  1.00  0.00    -0.508 OA
ATOM     25  H   UNL     1    -106.769 183.452  56.618  1.00  0.00     0.293 HD
ENDBRANCH   8  24
TORSDOF 5
ENDMDL
MODEL 5
REMARK VINA RESULT:    -5.097      3.174      6.111
REMARK INTER + INTRA:          -6.290
REMARK INTER:                  -6.024
REMARK INTRA:                  -0.266
REMARK UNBOUND:                -0.299
REMARK SMILES O=c1cc(-c2ccc(O)c(O)c2)oc2cc(O)cc(O)c12
REMARK SMILES IDX 4 1 3 2 2 3 1 4 21 5 19 6 18 7 16 8 15 9 14 10 13 11 5 12
REMARK SMILES IDX 6 13 7 14 8 15 12 16 10 17 9 18 11 20 20 22 17 24
REMARK H PARENT 9 19 11 21 20 23 17 25
REMARK Flexibility Score: inf
ROOT
ATOM      1  C   UNL     1    -105.474 184.263  52.154  1.00  0.00     0.138 A 
ATOM      2  C   UNL     1    -106.500 184.839  51.388  1.00  0.00     0.100 A 
ATOM      3  C   UNL     1    -106.183 185.487  50.192  1.00  0.00     0.197 A 
ATOM      4  O   UNL     1    -107.110 186.001  49.510  1.00  0.00    -0.289 OA
ATOM      5  C   UNL     1    -104.840 185.549  49.770  1.00  0.00     0.107 A 
ATOM      6  C   UNL     1    -104.432 186.186  48.574  1.00  0.00     0.134 A 
ATOM      7  C   UNL     1    -103.075 186.199  48.222  1.00  0.00     0.093 A 
ATOM      8  C   UNL     1    -102.120 185.589  49.039  1.00  0.00     0.123 A 
ATOM      9  C   UNL     1    -102.517 184.958  50.222  1.00  0.00     0.094 A 
ATOM     10  C   UNL     1    -103.865 184.935  50.593  1.00  0.00     0.146 A 
ATOM     11  O   UNL     1    -104.217 184.330  51.722  1.00  0.00    -0.456 OA
ENDROOT
BRANCH   1  12
ATOM     12  C   UNL     1    -105.753 183.562  53.433  1.00  0.00     0.021 A 
ATOM     13  C   UNL     1    -106.332 182.281  53.407  1.00  0.00     0.016 A 
ATOM     14  C   UNL     1    -106.598 181.597  54.596  1.00  0.00     0.051 A 
ATOM     15  C   UNL     1    -106.280 182.175  55.830  1.00  0.00     0.157 A 
ATOM     16  C   UNL     1    -105.425 184.133  54.678  1.00  0.00     0.062 A 
ATOM     17  C   UNL     1    -105.687 183.448  55.870  1.00  0.00     0.158 A 
BRANCH  15  18
ATOM     18  O   UNL     1    -106.549 181.490  57.016  1.00  0.00    -0.504 OA
ATOM     19  H   UNL     1    -106.790 180.507  57.016  1.00  0.00     0.293 HD
ENDBRANCH  15  18
BRANCH  17  20
ATOM     20  O   UNL     1    -105.349 184.047  57.084  1.00  0.00    -0.504 OA
ATOM     21  H   UNL     1    -104.559 184.675  57.172  1.00  0.00     0.293 HD
ENDBRANCH  17  20
ENDBRANCH   1  12
BRANCH   6  22
ATOM     22  O   UNL     1    -105.362 186.803  47.737  1.00  0.00    -0.507 OA
ATOM     23  H   UNL     1    -105.790 186.310  46.961  1.00  0.00     0.293 HD
ENDBRANCH   6  22
BRANCH   8  24
ATOM     24  O   UNL     1    -100.778 185.617  48.665  1.00  0.00    -0.508 OA
ATOM     25  H   UNL     1    -100.491 185.915  47.740  1.00  0.00     0.293 HD
ENDBRANCH   8  24
TORSDOF 5
ENDMDL
MODEL 6
REMARK VINA RESULT:    -5.009      2.191      7.058
REMARK INTER + INTRA:          -6.186
REMARK INTER:                  -5.921
REMARK INTRA:                  -0.265
REMARK UNBOUND:                -0.299
REMARK SMILES O=c1cc(-c2ccc(O)c(O)c2)oc2cc(O)cc(O)c12
REMARK SMILES IDX 4 1 3 2 2 3 1 4 21 5 19 6 18 7 16 8 15 9 14 10 13 11 5 12
REMARK SMILES IDX 6 13 7 14 8 15 12 16 10 17 9 18 11 20 20 22 17 24
REMARK H PARENT 9 19 11 21 20 23 17 25
REMARK Flexibility Score: inf
ROOT
ATOM      1  C   UNL     1    -105.360 187.943  50.259  1.00  0.00     0.138 A 
ATOM      2  C   UNL     1    -106.428 188.076  49.358  1.00  0.00     0.100 A 
ATOM      3  C   UNL     1    -107.200 189.238  49.374  1.00  0.00     0.197 A 
ATOM      4  O   UNL     1    -108.156 189.349  48.560  1.00  0.00    -0.289 OA
ATOM      5  C   UNL     1    -106.895 190.263  50.292  1.00  0.00     0.107 A 
ATOM      6  C   UNL     1    -107.626 191.471  50.375  1.00  0.00     0.134 A 
ATOM      7  C   UNL     1    -107.254 192.445  51.313  1.00  0.00     0.093 A 
ATOM      8  C   UNL     1    -106.168 192.235  52.167  1.00  0.00     0.123 A 
ATOM      9  C   UNL     1    -105.441 191.043  52.088  1.00  0.00     0.094 A 
ATOM     10  C   UNL     1    -105.796 190.059  51.161  1.00  0.00     0.146 A 
ATOM     11  O   UNL     1    -105.091 188.934  51.107  1.00  0.00    -0.456 OA
ENDROOT
BRANCH   1  12
ATOM     12  C   UNL     1    -104.504 186.729  50.287  1.00  0.00     0.021 A 
ATOM     13  C   UNL     1    -104.909 185.616  51.044  1.00  0.00     0.016 A 
ATOM     14  C   UNL     1    -104.125 184.460  51.081  1.00  0.00     0.051 A 
ATOM     15  C   UNL     1    -102.931 184.391  50.355  1.00  0.00     0.157 A 
ATOM     16  C   UNL     1    -103.308 186.649  49.548  1.00  0.00     0.062 A 
ATOM     17  C   UNL     1    -102.523 185.490  49.582  1.00  0.00     0.158 A 
BRANCH  15  18
ATOM     18  O   UNL     1    -102.151 183.236  50.395  1.00  0.00    -0.504 OA
ATOM     19  H   UNL     1    -101.913 182.788  51.272  1.00  0.00     0.293 HD
ENDBRANCH  15  18
BRANCH  17  20
ATOM     20  O   UNL     1    -101.344 185.450  48.838  1.00  0.00    -0.504 OA
ATOM     21  H   UNL     1    -101.204 184.785  48.086  1.00  0.00     0.293 HD
ENDBRANCH  17  20
ENDBRANCH   1  12
BRANCH   6  22
ATOM     22  O   UNL     1    -108.715 191.711  49.536  1.00  0.00    -0.507 OA
ATOM     23  H   UNL     1    -108.763 191.322  48.602  1.00  0.00     0.293 HD
ENDBRANCH   6  22
BRANCH   8  24
ATOM     24  O   UNL     1    -105.819 193.219  53.090  1.00  0.00    -0.508 OA
ATOM     25  H   UNL     1    -106.504 193.619  53.721  1.00  0.00     0.293 HD
ENDBRANCH   8  24
TORSDOF 5
ENDMDL
MODEL 7
REMARK VINA RESULT:    -4.967      3.214      7.002
REMARK INTER + INTRA:          -6.137
REMARK INTER:                  -5.845
REMARK INTRA:                  -0.293
REMARK UNBOUND:                -0.299
REMARK SMILES O=c1cc(-c2ccc(O)c(O)c2)oc2cc(O)cc(O)c12
REMARK SMILES IDX 4 1 3 2 2 3 1 4 21 5 19 6 18 7 16 8 15 9 14 10 13 11 5 12
REMARK SMILES IDX 6 13 7 14 8 15 12 16 10 17 9 18 11 20 20 22 17 24
REMARK H PARENT 9 19 11 21 20 23 17 25
REMARK Flexibility Score: inf
ROOT
ATOM      1  C   UNL     1    -105.414 186.717  48.056  1.00  0.00     0.138 A 
ATOM      2  C   UNL     1    -106.467 187.373  48.714  1.00  0.00     0.100 A 
ATOM      3  C   UNL     1    -107.479 187.973  47.964  1.00  0.00     0.197 A 
ATOM      4  O   UNL     1    -108.420 188.558  48.563  1.00  0.00    -0.289 OA
ATOM      5  C   UNL     1    -107.432 187.909  46.556  1.00  0.00     0.107 A 
ATOM      6  C   UNL     1    -108.415 188.491  45.721  1.00  0.00     0.134 A 
ATOM      7  C   UNL     1    -108.298 188.377  44.328  1.00  0.00     0.093 A 
ATOM      8  C   UNL     1    -107.221 187.696  43.756  1.00  0.00     0.123 A 
ATOM      9  C   UNL     1    -106.247 187.119  44.576  1.00  0.00     0.094 A 
ATOM     10  C   UNL     1    -106.344 187.222  45.967  1.00  0.00     0.146 A 
ATOM     11  O   UNL     1    -105.404 186.666  46.726  1.00  0.00    -0.456 OA
ENDROOT
BRANCH   1  12
ATOM     12  C   UNL     1    -104.311 186.061  48.803  1.00  0.00     0.021 A 
ATOM     13  C   UNL     1    -104.614 185.247  49.909  1.00  0.00     0.016 A 
ATOM     14  C   UNL     1    -103.595 184.613  50.624  1.00  0.00     0.051 A 
ATOM     15  C   UNL     1    -102.258 184.772  50.242  1.00  0.00     0.157 A 
ATOM     16  C   UNL     1    -102.965 186.207  48.416  1.00  0.00     0.062 A 
ATOM     17  C   UNL     1    -101.943 185.570  49.131  1.00  0.00     0.158 A 
BRANCH  15  18
ATOM     18  O   UNL     1    -101.244 184.139  50.960  1.00  0.00    -0.504 OA
ATOM     19  H   UNL     1    -100.292 184.484  50.949  1.00  0.00     0.293 HD
ENDBRANCH  15  18
BRANCH  17  20
ATOM     20  O   UNL     1    -100.621 185.740  48.718  1.00  0.00    -0.504 OA
ATOM     21  H   UNL     1     -99.971 186.331  49.222  1.00  0.00     0.293 HD
ENDBRANCH  17  20
ENDBRANCH   1  12
BRANCH   6  22
ATOM     22  O   UNL     1    -109.502 189.177  46.263  1.00  0.00    -0.507 OA
ATOM     23  H   UNL     1    -110.248 188.694  46.751  1.00  0.00     0.293 HD
ENDBRANCH   6  22
BRANCH   8  24
ATOM     24  O   UNL     1    -107.129 187.599  42.369  1.00  0.00    -0.508 OA
ATOM     25  H   UNL     1    -107.205 186.706  41.894  1.00  0.00     0.293 HD
ENDBRANCH   8  24
TORSDOF 5
ENDMDL
MODEL 8
REMARK VINA RESULT:    -4.809      1.966      7.148
REMARK INTER + INTRA:          -5.952
REMARK INTER:                  -5.688
REMARK INTRA:                  -0.264
REMARK UNBOUND:                -0.299
REMARK SMILES O=c1cc(-c2ccc(O)c(O)c2)oc2cc(O)cc(O)c12
REMARK SMILES IDX 4 1 3 2 2 3 1 4 21 5 19 6 18 7 16 8 15 9 14 10 13 11 5 12
REMARK SMILES IDX 6 13 7 14 8 15 12 16 10 17 9 18 11 20 20 22 17 24
REMARK H PARENT 9 19 11 21 20 23 17 25
REMARK Flexibility Score: inf
ROOT
ATOM      1  C   UNL     1    -105.638 186.832  48.511  1.00  0.00     0.138 A 
ATOM      2  C   UNL     1    -106.247 186.377  47.330  1.00  0.00     0.100 A 
ATOM      3  C   UNL     1    -107.308 187.098  46.782  1.00  0.00     0.197 A 
ATOM      4  O   UNL     1    -107.848 186.682  45.722  1.00  0.00    -0.289 OA
ATOM      5  C   UNL     1    -107.752 188.274  47.419  1.00  0.00     0.107 A 
ATOM      6  C   UNL     1    -108.821 189.063  46.931  1.00  0.00     0.134 A 
ATOM      7  C   UNL     1    -109.198 190.225  47.621  1.00  0.00     0.093 A 
ATOM      8  C   UNL     1    -108.529 190.612  48.785  1.00  0.00     0.123 A 
ATOM      9  C   UNL     1    -107.472 189.836  49.271  1.00  0.00     0.094 A 
ATOM     10  C   UNL     1    -107.081 188.674  48.599  1.00  0.00     0.146 A 
ATOM     11  O   UNL     1    -106.074 187.953  49.082  1.00  0.00    -0.456 OA
ENDROOT
BRANCH   1  12
ATOM     12  C   UNL     1    -104.505 186.106  49.139  1.00  0.00     0.021 A 
ATOM     13  C   UNL     1    -104.755 185.222  50.203  1.00  0.00     0.016 A 
ATOM     14  C   UNL     1    -103.707 184.522  50.806  1.00  0.00     0.051 A 
ATOM     15  C   UNL     1    -102.394 184.684  50.350  1.00  0.00     0.157 A 
ATOM     16  C   UNL     1    -103.183 186.256  48.677  1.00  0.00     0.062 A 
ATOM     17  C   UNL     1    -102.132 185.553  49.278  1.00  0.00     0.158 A 
BRANCH  15  18
ATOM     18  O   UNL     1    -101.350 183.985  50.956  1.00  0.00    -0.504 OA
ATOM     19  H   UNL     1    -101.469 183.034  51.282  1.00  0.00     0.293 HD
ENDBRANCH  15  18
BRANCH  17  20
ATOM     20  O   UNL     1    -100.836 185.729  48.793  1.00  0.00    -0.504 OA
ATOM     21  H   UNL     1    -100.165 186.331  49.256  1.00  0.00     0.293 HD
ENDBRANCH  17  20
ENDBRANCH   1  12
BRANCH   6  22
ATOM     22  O   UNL     1    -109.508 188.702  45.771  1.00  0.00    -0.507 OA
ATOM     23  H   UNL     1    -109.773 189.389  45.074  1.00  0.00     0.293 HD
ENDBRANCH   6  22
BRANCH   8  24
ATOM     24  O   UNL     1    -108.924 191.770  49.450  1.00  0.00    -0.508 OA
ATOM     25  H   UNL     1    -109.391 191.731  50.349  1.00  0.00     0.293 HD
ENDBRANCH   8  24
TORSDOF 5
ENDMDL
MODEL 9
REMARK VINA RESULT:    -4.801      3.634      6.564
REMARK INTER + INTRA:          -5.942
REMARK INTER:                  -5.640
REMARK INTRA:                  -0.302
REMARK UNBOUND:                -0.299
REMARK SMILES O=c1cc(-c2ccc(O)c(O)c2)oc2cc(O)cc(O)c12
REMARK SMILES IDX 4 1 3 2 2 3 1 4 21 5 19 6 18 7 16 8 15 9 14 10 13 11 5 12
REMARK SMILES IDX 6 13 7 14 8 15 12 16 10 17 9 18 11 20 20 22 17 24
REMARK H PARENT 9 19 11 21 20 23 17 25
REMARK Flexibility Score: inf
ROOT
ATOM      1  C   UNL     1    -104.938 184.878  50.278  1.00  0.00     0.138 A 
ATOM      2  C   UNL     1    -105.093 184.861  51.674  1.00  0.00     0.100 A 
ATOM      3  C   UNL     1    -106.305 184.445  52.226  1.00  0.00     0.197 A 
ATOM      4  O   UNL     1    -106.436 184.433  53.479  1.00  0.00    -0.289 OA
ATOM      5  C   UNL     1    -107.355 184.044  51.375  1.00  0.00     0.107 A 
ATOM      6  C   UNL     1    -108.615 183.609  51.851  1.00  0.00     0.134 A 
ATOM      7  C   UNL     1    -109.606 183.220  50.938  1.00  0.00     0.093 A 
ATOM      8  C   UNL     1    -109.363 183.256  49.563  1.00  0.00     0.123 A 
ATOM      9  C   UNL     1    -108.120 183.685  49.087  1.00  0.00     0.094 A 
ATOM     10  C   UNL     1    -107.118 184.078  49.980  1.00  0.00     0.146 A 
ATOM     11  O   UNL     1    -105.946 184.482  49.503  1.00  0.00    -0.456 OA
ENDROOT
BRANCH   1  12
ATOM     12  C   UNL     1    -103.671 185.310  49.636  1.00  0.00     0.021 A 
ATOM     13  C   UNL     1    -102.445 185.015  50.259  1.00  0.00     0.016 A 
ATOM     14  C   UNL     1    -101.239 185.405  49.672  1.00  0.00     0.051 A 
ATOM     15  C   UNL     1    -101.235 186.086  48.449  1.00  0.00     0.157 A 
ATOM     16  C   UNL     1    -103.660 185.985  48.400  1.00  0.00     0.062 A 
ATOM     17  C   UNL     1    -102.451 186.374  47.810  1.00  0.00     0.158 A 
BRANCH  15  18
ATOM     18  O   UNL     1    -100.028 186.475  47.867  1.00  0.00    -0.504 OA
ATOM     19  H   UNL     1     -99.928 186.563  46.863  1.00  0.00     0.293 HD
ENDBRANCH  15  18
BRANCH  17  20
ATOM     20  O   UNL     1    -102.481 187.042  46.585  1.00  0.00    -0.504 OA
ATOM     21  H   UNL     1    -103.064 186.732  45.817  1.00  0.00     0.293 HD
ENDBRANCH  17  20
ENDBRANCH   1  12
BRANCH   6  22
ATOM     22  O   UNL     1    -108.888 183.561  53.219  1.00  0.00    -0.507 OA
ATOM     23  H   UNL     1    -109.701 183.079  53.583  1.00  0.00     0.293 HD
ENDBRANCH   6  22
BRANCH   8  24
ATOM     24  O   UNL     1    -110.365 182.865  48.678  1.00  0.00    -0.508 OA
ATOM     25  H   UNL     1    -111.233 182.459  49.007  1.00  0.00     0.293 HD
ENDBRANCH   8  24
TORSDOF 5
ENDMDL
