MODEL 1
REMARK VINA RESULT:    -4.032      0.000      0.000
REMARK INTER + INTRA:          -4.032
REMARK INTER:                  -4.032
REMARK INTRA:                   0.000
REMARK UNBOUND:                 0.000
REMARK SMILES O=c1ccc2ccccc2o1
REMARK SMILES IDX 7 1 8 2 9 3 10 4 5 5 6 6 4 7 3 8 2 9 1 10 11 11
REMARK H PARENT
REMARK Flexibility Score: inf
ROOT
ATOM      1  C   UNL     1       2.881   1.341 -19.122  1.00  0.00     0.001 A 
ATOM      2  C   UNL     1       3.220   2.639 -19.521  1.00  0.00     0.004 A 
ATOM      3  C   UNL     1       4.146   3.383 -18.783  1.00  0.00     0.048 A 
ATOM      4  C   UNL     1       4.739   2.830 -17.642  1.00  0.00     0.138 A 
ATOM      5  C   UNL     1       4.397   1.519 -17.239  1.00  0.00     0.018 A 
ATOM      6  C   UNL     1       3.467   0.780 -17.984  1.00  0.00     0.012 A 
ATOM      7  C   UNL     1       5.006   0.994 -16.095  1.00  0.00     0.019 A 
ATOM      8  C   UNL     1       5.925   1.772 -15.391  1.00  0.00     0.094 A 
ATOM      9  C   UNL     1       6.215   3.061 -15.849  1.00  0.00     0.336 A 
ATOM     10  O   UNL     1       7.041   3.778 -15.226  1.00  0.00    -0.246 OA
ATOM     11  O   UNL     1       5.621   3.538 -16.941  1.00  0.00    -0.423 OA
ENDROOT
TORSDOF 0
ENDMDL
MODEL 2
REMARK VINA RESULT:    -3.968      1.410      3.721
REMARK INTER + INTRA:          -3.968
REMARK INTER:                  -3.968
REMARK INTRA:                   0.000
REMARK UNBOUND:                 0.000
REMARK SMILES O=c1ccc2ccccc2o1
REMARK SMILES IDX 7 1 8 2 9 3 10 4 5 5 6 6 4 7 3 8 2 9 1 10 11 11
REMARK H PARENT
REMARK Flexibility Score: inf
ROOT
ATOM      1  C   UNL     1       5.499   0.758 -15.209  1.00  0.00     0.001 A 
ATOM      2  C   UNL     1       6.112   2.014 -15.296  1.00  0.00     0.004 A 
ATOM      3  C   UNL     1       5.758   2.901 -16.317  1.00  0.00     0.048 A 
ATOM      4  C   UNL     1       4.786   2.536 -17.256  1.00  0.00     0.138 A 
ATOM      5  C   UNL     1       4.166   1.269 -17.168  1.00  0.00     0.018 A 
ATOM      6  C   UNL     1       4.527   0.384 -16.142  1.00  0.00     0.012 A 
ATOM      7  C   UNL     1       3.199   0.932 -18.121  1.00  0.00     0.019 A 
ATOM      8  C   UNL     1       2.877   1.849 -19.121  1.00  0.00     0.094 A 
ATOM      9  C   UNL     1       3.531   3.085 -19.146  1.00  0.00     0.336 A 
ATOM     10  O   UNL     1       3.253   3.925 -20.041  1.00  0.00    -0.246 OA
ATOM     11  O   UNL     1       4.448   3.381 -18.228  1.00  0.00    -0.423 OA
ENDROOT
TORSDOF 0
ENDMDL
MODEL 3
REMARK VINA RESULT:    -3.845      2.065      4.342
REMARK INTER + INTRA:          -3.845
REMARK INTER:                  -3.845
REMARK INTRA:                   0.000
REMARK UNBOUND:                 0.000
REMARK SMILES O=c1ccc2ccccc2o1
REMARK SMILES IDX 7 1 8 2 9 3 10 4 5 5 6 6 4 7 3 8 2 9 1 10 11 11
REMARK H PARENT
REMARK Flexibility Score: inf
ROOT
ATOM      1  C   UNL     1       5.703   3.572 -15.260  1.00  0.00     0.001 A 
ATOM      2  C   UNL     1       5.791   2.280 -14.731  1.00  0.00     0.004 A 
ATOM      3  C   UNL     1       5.219   1.200 -15.411  1.00  0.00     0.048 A 
ATOM      4  C   UNL     1       4.556   1.409 -16.626  1.00  0.00     0.138 A 
ATOM      5  C   UNL     1       4.467   2.715 -17.161  1.00  0.00     0.018 A 
ATOM      6  C   UNL     1       5.043   3.792 -16.473  1.00  0.00     0.012 A 
ATOM      7  C   UNL     1       3.799   2.893 -18.376  1.00  0.00     0.019 A 
ATOM      8  C   UNL     1       3.244   1.787 -19.020  1.00  0.00     0.094 A 
ATOM      9  C   UNL     1       3.371   0.524 -18.431  1.00  0.00     0.336 A 
ATOM     10  O   UNL     1       2.877  -0.485 -18.998  1.00  0.00    -0.246 OA
ATOM     11  O   UNL     1       4.012   0.382 -17.274  1.00  0.00    -0.423 OA
ENDROOT
TORSDOF 0
ENDMDL
MODEL 4
REMARK VINA RESULT:    -3.658      2.028      4.169
REMARK INTER + INTRA:          -3.658
REMARK INTER:                  -3.658
REMARK INTRA:                   0.000
REMARK UNBOUND:                 0.000
REMARK SMILES O=c1ccc2ccccc2o1
REMARK SMILES IDX 7 1 8 2 9 3 10 4 5 5 6 6 4 7 3 8 2 9 1 10 11 11
REMARK H PARENT
REMARK Flexibility Score: inf
ROOT
ATOM      1  C   UNL     1       5.224   1.972 -14.463  1.00  0.00     0.001 A 
ATOM      2  C   UNL     1       5.292   0.755 -15.150  1.00  0.00     0.004 A 
ATOM      3  C   UNL     1       4.824   0.662 -16.465  1.00  0.00     0.048 A 
ATOM      4  C   UNL     1       4.285   1.788 -17.098  1.00  0.00     0.138 A 
ATOM      5  C   UNL     1       4.216   3.018 -16.404  1.00  0.00     0.018 A 
ATOM      6  C   UNL     1       4.687   3.103 -15.086  1.00  0.00     0.012 A 
ATOM      7  C   UNL     1       3.672   4.125 -17.063  1.00  0.00     0.019 A 
ATOM      8  C   UNL     1       3.218   3.985 -18.374  1.00  0.00     0.094 A 
ATOM      9  C   UNL     1       3.318   2.738 -18.998  1.00  0.00     0.336 A 
ATOM     10  O   UNL     1       2.914   2.593 -20.181  1.00  0.00    -0.246 OA
ATOM     11  O   UNL     1       3.839   1.699 -18.349  1.00  0.00    -0.423 OA
ENDROOT
TORSDOF 0
ENDMDL
MODEL 5
REMARK VINA RESULT:    -3.479      1.408      2.291
REMARK INTER + INTRA:          -3.479
REMARK INTER:                  -3.479
REMARK INTRA:                   0.000
REMARK UNBOUND:                 0.000
REMARK SMILES O=c1ccc2ccccc2o1
REMARK SMILES IDX 7 1 8 2 9 3 10 4 5 5 6 6 4 7 3 8 2 9 1 10 11 11
REMARK H PARENT
REMARK Flexibility Score: inf
ROOT
ATOM      1  C   UNL     1       2.881   1.227 -19.497  1.00  0.00     0.001 A 
ATOM      2  C   UNL     1       3.050   0.061 -18.743  1.00  0.00     0.004 A 
ATOM      3  C   UNL     1       3.626   0.122 -17.470  1.00  0.00     0.048 A 
ATOM      4  C   UNL     1       4.035   1.354 -16.945  1.00  0.00     0.138 A 
ATOM      5  C   UNL     1       3.864   2.532 -17.706  1.00  0.00     0.018 A 
ATOM      6  C   UNL     1       3.286   2.463 -18.982  1.00  0.00     0.012 A 
ATOM      7  C   UNL     1       4.283   3.748 -17.155  1.00  0.00     0.019 A 
ATOM      8  C   UNL     1       4.851   3.761 -15.882  1.00  0.00     0.094 A 
ATOM      9  C   UNL     1       4.989   2.555 -15.187  1.00  0.00     0.336 A 
ATOM     10  O   UNL     1       5.500   2.548 -14.036  1.00  0.00    -0.246 OA
ATOM     11  O   UNL     1       4.583   1.412 -15.733  1.00  0.00    -0.423 OA
ENDROOT
TORSDOF 0
ENDMDL
MODEL 6
REMARK VINA RESULT:    -3.413      1.959      3.847
REMARK INTER + INTRA:          -3.413
REMARK INTER:                  -3.413
REMARK INTRA:                   0.000
REMARK UNBOUND:                 0.000
REMARK SMILES O=c1ccc2ccccc2o1
REMARK SMILES IDX 7 1 8 2 9 3 10 4 5 5 6 6 4 7 3 8 2 9 1 10 11 11
REMARK H PARENT
REMARK Flexibility Score: inf
ROOT
ATOM      1  C   UNL     1       5.504   3.420 -14.826  1.00  0.00     0.001 A 
ATOM      2  C   UNL     1       5.871   4.091 -15.998  1.00  0.00     0.004 A 
ATOM      3  C   UNL     1       5.395   3.654 -17.239  1.00  0.00     0.048 A 
ATOM      4  C   UNL     1       4.546   2.543 -17.311  1.00  0.00     0.138 A 
ATOM      5  C   UNL     1       4.175   1.865 -16.128  1.00  0.00     0.018 A 
ATOM      6  C   UNL     1       4.657   2.309 -14.888  1.00  0.00     0.012 A 
ATOM      7  C   UNL     1       3.326   0.759 -16.232  1.00  0.00     0.019 A 
ATOM      8  C   UNL     1       2.875   0.360 -17.489  1.00  0.00     0.094 A 
ATOM      9  C   UNL     1       3.284   1.078 -18.618  1.00  0.00     0.336 A 
ATOM     10  O   UNL     1       2.887   0.732 -19.761  1.00  0.00    -0.246 OA
ATOM     11  O   UNL     1       4.092   2.128 -18.492  1.00  0.00    -0.423 OA
ENDROOT
TORSDOF 0
ENDMDL
MODEL 7
REMARK VINA RESULT:    -2.901      2.849      4.683
REMARK INTER + INTRA:          -2.901
REMARK INTER:                  -2.901
REMARK INTRA:                   0.000
REMARK UNBOUND:                 0.000
REMARK SMILES O=c1ccc2ccccc2o1
REMARK SMILES IDX 7 1 8 2 9 3 10 4 5 5 6 6 4 7 3 8 2 9 1 10 11 11
REMARK H PARENT
REMARK Flexibility Score: inf
ROOT
ATOM      1  C   UNL     1       3.347   3.875 -17.030  1.00  0.00     0.001 A 
ATOM      2  C   UNL     1       3.413   2.763 -16.184  1.00  0.00     0.004 A 
ATOM      3  C   UNL     1       3.326   1.471 -16.712  1.00  0.00     0.048 A 
ATOM      4  C   UNL     1       3.175   1.286 -18.091  1.00  0.00     0.138 A 
ATOM      5  C   UNL     1       3.108   2.410 -18.946  1.00  0.00     0.018 A 
ATOM      6  C   UNL     1       3.195   3.702 -18.409  1.00  0.00     0.012 A 
ATOM      7  C   UNL     1       2.956   2.194 -20.319  1.00  0.00     0.019 A 
ATOM      8  C   UNL     1       2.875   0.888 -20.801  1.00  0.00     0.094 A 
ATOM      9  C   UNL     1       2.948  -0.176 -19.896  1.00  0.00     0.336 A 
ATOM     10  O   UNL     1       2.877  -1.361 -20.313  1.00  0.00    -0.246 OA
ATOM     11  O   UNL     1       3.093   0.056 -18.594  1.00  0.00    -0.423 OA
ENDROOT
TORSDOF 0
ENDMDL
MODEL 8
REMARK VINA RESULT:    -2.722      2.826      4.000
REMARK INTER + INTRA:          -2.722
REMARK INTER:                  -2.722
REMARK INTRA:                   0.000
REMARK UNBOUND:                 0.000
REMARK SMILES O=c1ccc2ccccc2o1
REMARK SMILES IDX 7 1 8 2 9 3 10 4 5 5 6 6 4 7 3 8 2 9 1 10 11 11
REMARK H PARENT
REMARK Flexibility Score: inf
ROOT
ATOM      1  C   UNL     1       2.944  -1.408 -21.612  1.00  0.00     0.001 A 
ATOM      2  C   UNL     1       2.884  -0.344 -22.519  1.00  0.00     0.004 A 
ATOM      3  C   UNL     1       2.878   0.976 -22.056  1.00  0.00     0.048 A 
ATOM      4  C   UNL     1       2.932   1.237 -20.682  1.00  0.00     0.138 A 
ATOM      5  C   UNL     1       2.993   0.163 -19.766  1.00  0.00     0.018 A 
ATOM      6  C   UNL     1       2.998  -1.158 -20.237  1.00  0.00     0.012 A 
ATOM      7  C   UNL     1       3.046   0.455 -18.399  1.00  0.00     0.019 A 
ATOM      8  C   UNL     1       3.038   1.786 -17.984  1.00  0.00     0.094 A 
ATOM      9  C   UNL     1       2.977   2.798 -18.948  1.00  0.00     0.336 A 
ATOM     10  O   UNL     1       2.969   4.005 -18.592  1.00  0.00    -0.246 OA
ATOM     11  O   UNL     1       2.927   2.494 -20.242  1.00  0.00    -0.423 OA
ENDROOT
TORSDOF 0
ENDMDL
MODEL 9
REMARK VINA RESULT:    -2.655      3.116      4.551
REMARK INTER + INTRA:          -2.655
REMARK INTER:                  -2.655
REMARK INTRA:                   0.000
REMARK UNBOUND:                 0.000
REMARK SMILES O=c1ccc2ccccc2o1
REMARK SMILES IDX 7 1 8 2 9 3 10 4 5 5 6 6 4 7 3 8 2 9 1 10 11 11
REMARK H PARENT
REMARK Flexibility Score: inf
ROOT
ATOM      1  C   UNL     1       3.105   2.281 -16.482  1.00  0.00     0.001 A 
ATOM      2  C   UNL     1       3.002   3.361 -17.365  1.00  0.00     0.004 A 
ATOM      3  C   UNL     1       2.936   3.139 -18.744  1.00  0.00     0.048 A 
ATOM      4  C   UNL     1       2.973   1.832 -19.246  1.00  0.00     0.138 A 
ATOM      5  C   UNL     1       3.078   0.741 -18.354  1.00  0.00     0.018 A 
ATOM      6  C   UNL     1       3.143   0.972 -16.972  1.00  0.00     0.012 A 
ATOM      7  C   UNL     1       3.112  -0.552 -18.885  1.00  0.00     0.019 A 
ATOM      8  C   UNL     1       3.043  -0.726 -20.267  1.00  0.00     0.094 A 
ATOM      9  C   UNL     1       2.941   0.401 -21.089  1.00  0.00     0.336 A 
ATOM     10  O   UNL     1       2.878   0.263 -22.338  1.00  0.00    -0.246 OA
ATOM     11  O   UNL     1       2.910   1.621 -20.559  1.00  0.00    -0.423 OA
ENDROOT
TORSDOF 0
ENDMDL
