MODEL 1
REMARK VINA RESULT:     0.000      0.000      0.000
REMARK INTER + INTRA:          -0.318
REMARK INTER:                   0.000
REMARK INTRA:                  -0.318
REMARK UNBOUND:                -0.318
REMARK SMILES O=c1cc(-c2ccc(O)c(O)c2)oc2cc(O)cc(O)c12
REMARK SMILES IDX 4 1 3 2 2 3 1 4 21 5 19 6 18 7 16 8 15 9 14 10 13 11 5 12
REMARK SMILES IDX 6 13 7 14 8 15 12 16 10 17 9 18 11 20 20 22 17 24
REMARK H PARENT 9 19 11 21 20 23 17 25
REMARK Flexibility Score: inf
ROOT
ATOM      1  C   UNL     1      16.657 111.141  95.891  1.00  0.00     0.138 A 
ATOM      2  C   UNL     1      17.085 110.320  96.943  1.00  0.00     0.100 A 
ATOM      3  C   UNL     1      16.606 110.546  98.235  1.00  0.00     0.197 A 
ATOM      4  O   UNL     1      16.966 109.758  99.146  1.00  0.00    -0.289 OA
ATOM      5  C   UNL     1      15.721 111.623  98.478  1.00  0.00     0.107 A 
ATOM      6  C   UNL     1      15.194 111.970  99.759  1.00  0.00     0.134 A 
ATOM      7  C   UNL     1      14.247 112.998  99.861  1.00  0.00     0.093 A 
ATOM      8  C   UNL     1      13.852 113.728  98.739  1.00  0.00     0.123 A 
ATOM      9  C   UNL     1      14.398 113.430  97.490  1.00  0.00     0.094 A 
ATOM     10  C   UNL     1      15.318 112.389  97.351  1.00  0.00     0.146 A 
ATOM     11  O   UNL     1      15.799 112.126  96.140  1.00  0.00    -0.456 OA
ENDROOT
BRANCH   1  12
ATOM     12  C   UNL     1      17.137 110.948  94.498  1.00  0.00     0.021 A 
ATOM     13  C   UNL     1      18.033 109.917  94.160  1.00  0.00     0.016 A 
ATOM     14  C   UNL     1      18.459 109.754  92.840  1.00  0.00     0.051 A 
ATOM     15  C   UNL     1      17.993 110.609  91.834  1.00  0.00     0.157 A 
ATOM     16  C   UNL     1      16.663 111.795  93.481  1.00  0.00     0.062 A 
ATOM     17  C   UNL     1      17.090 111.635  92.158  1.00  0.00     0.158 A 
BRANCH  15  18
ATOM     18  O   UNL     1      18.422 110.444  90.518  1.00  0.00    -0.504 OA
ATOM     19  H   UNL     1      18.409 111.211  89.856  1.00  0.00     0.293 HD
ENDBRANCH  15  18
BRANCH  17  20
ATOM     20  O   UNL     1      16.603 112.501  91.180  1.00  0.00    -0.504 OA
ATOM     21  H   UNL     1      15.728 112.999  91.289  1.00  0.00     0.293 HD
ENDBRANCH  17  20
ENDBRANCH   1  12
BRANCH   6  22
ATOM     22  O   UNL     1      15.579 111.360 100.957  1.00  0.00    -0.507 OA
ATOM     23  H   UNL     1      16.007 110.450 101.032  1.00  0.00     0.293 HD
ENDBRANCH   6  22
BRANCH   8  24
ATOM     24  O   UNL     1      12.919 114.753  98.881  1.00  0.00    -0.508 OA
ATOM     25  H   UNL     1      12.865 115.515  98.216  1.00  0.00     0.293 HD
ENDBRANCH   8  24
TORSDOF 5
ENDMDL
MODEL 2
REMARK VINA RESULT:     0.000      8.948     10.639
REMARK INTER + INTRA:          -0.318
REMARK INTER:                   0.000
REMARK INTRA:                  -0.318
REMARK UNBOUND:                -0.318
REMARK SMILES O=c1cc(-c2ccc(O)c(O)c2)oc2cc(O)cc(O)c12
REMARK SMILES IDX 4 1 3 2 2 3 1 4 21 5 19 6 18 7 16 8 15 9 14 10 13 11 5 12
REMARK SMILES IDX 6 13 7 14 8 15 12 16 10 17 9 18 11 20 20 22 17 24
REMARK H PARENT 9 19 11 21 20 23 17 25
REMARK Flexibility Score: inf
ROOT
ATOM      1  C   UNL     1      19.685 117.521  88.879  1.00  0.00     0.138 A 
ATOM      2  C   UNL     1      19.310 117.892  87.581  1.00  0.00     0.100 A 
ATOM      3  C   UNL     1      18.016 118.358  87.342  1.00  0.00     0.197 A 
ATOM      4  O   UNL     1      17.727 118.735  86.178  1.00  0.00    -0.289 OA
ATOM      5  C   UNL     1      17.083 118.420  88.405  1.00  0.00     0.107 A 
ATOM      6  C   UNL     1      15.727 118.846  88.274  1.00  0.00     0.134 A 
ATOM      7  C   UNL     1      14.925 118.958  89.418  1.00  0.00     0.093 A 
ATOM      8  C   UNL     1      15.412 118.606  90.677  1.00  0.00     0.123 A 
ATOM      9  C   UNL     1      16.720 118.140  90.809  1.00  0.00     0.094 A 
ATOM     10  C   UNL     1      17.555 118.049  89.693  1.00  0.00     0.146 A 
ATOM     11  O   UNL     1      18.800 117.619  89.866  1.00  0.00    -0.456 OA
ENDROOT
BRANCH   1  12
ATOM     12  C   UNL     1      21.047 117.015  89.189  1.00  0.00     0.021 A 
ATOM     13  C   UNL     1      22.038 116.901  88.196  1.00  0.00     0.016 A 
ATOM     14  C   UNL     1      23.313 116.431  88.519  1.00  0.00     0.051 A 
ATOM     15  C   UNL     1      23.625 116.076  89.838  1.00  0.00     0.157 A 
ATOM     16  C   UNL     1      21.371 116.670  90.513  1.00  0.00     0.062 A 
ATOM     17  C   UNL     1      22.647 116.198  90.839  1.00  0.00     0.158 A 
BRANCH  15  18
ATOM     18  O   UNL     1      24.898 115.606  90.156  1.00  0.00    -0.504 OA
ATOM     19  H   UNL     1      25.268 115.672  91.097  1.00  0.00     0.293 HD
ENDBRANCH  15  18
BRANCH  17  20
ATOM     20  O   UNL     1      22.926 115.857  92.162  1.00  0.00    -0.504 OA
ATOM     21  H   UNL     1      23.796 116.114  92.612  1.00  0.00     0.293 HD
ENDBRANCH  17  20
ENDBRANCH   1  12
BRANCH   6  22
ATOM     22  O   UNL     1      15.114 119.147  87.054  1.00  0.00    -0.507 OA
ATOM     23  H   UNL     1      14.333 119.774  86.937  1.00  0.00     0.293 HD
ENDBRANCH   6  22
BRANCH   8  24
ATOM     24  O   UNL     1      14.581 118.716  91.789  1.00  0.00    -0.508 OA
ATOM     25  H   UNL     1      14.175 119.603  92.062  1.00  0.00     0.293 HD
ENDBRANCH   8  24
TORSDOF 5
ENDMDL
MODEL 3
REMARK VINA RESULT:     0.000      8.094     10.450
REMARK INTER + INTRA:          -0.318
REMARK INTER:                   0.000
REMARK INTRA:                  -0.318
REMARK UNBOUND:                -0.318
REMARK SMILES O=c1cc(-c2ccc(O)c(O)c2)oc2cc(O)cc(O)c12
REMARK SMILES IDX 4 1 3 2 2 3 1 4 21 5 19 6 18 7 16 8 15 9 14 10 13 11 5 12
REMARK SMILES IDX 6 13 7 14 8 15 12 16 10 17 9 18 11 20 20 22 17 24
REMARK H PARENT 9 19 11 21 20 23 17 25
REMARK Flexibility Score: inf
ROOT
ATOM      1  C   UNL     1      23.585 113.785  95.099  1.00  0.00     0.138 A 
ATOM      2  C   UNL     1      23.566 115.174  95.278  1.00  0.00     0.100 A 
ATOM      3  C   UNL     1      24.697 115.927  94.958  1.00  0.00     0.197 A 
ATOM      4  O   UNL     1      24.630 117.177  95.077  1.00  0.00    -0.289 OA
ATOM      5  C   UNL     1      25.864 115.279  94.489  1.00  0.00     0.107 A 
ATOM      6  C   UNL     1      27.087 115.939  94.163  1.00  0.00     0.134 A 
ATOM      7  C   UNL     1      28.144 115.202  93.613  1.00  0.00     0.093 A 
ATOM      8  C   UNL     1      28.044 113.823  93.432  1.00  0.00     0.123 A 
ATOM      9  C   UNL     1      26.871 113.159  93.794  1.00  0.00     0.094 A 
ATOM     10  C   UNL     1      25.787 113.871  94.312  1.00  0.00     0.146 A 
ATOM     11  O   UNL     1      24.682 113.203  94.627  1.00  0.00    -0.456 OA
ENDROOT
BRANCH   1  12
ATOM     12  C   UNL     1      22.411 112.934  95.427  1.00  0.00     0.021 A 
ATOM     13  C   UNL     1      21.212 113.485  95.917  1.00  0.00     0.016 A 
ATOM     14  C   UNL     1      20.122 112.662  96.208  1.00  0.00     0.051 A 
ATOM     15  C   UNL     1      20.205 111.278  96.007  1.00  0.00     0.157 A 
ATOM     16  C   UNL     1      22.483 111.547  95.216  1.00  0.00     0.062 A 
ATOM     17  C   UNL     1      21.393 110.720  95.507  1.00  0.00     0.158 A 
BRANCH  15  18
ATOM     18  O   UNL     1      19.115 110.459  96.300  1.00  0.00    -0.504 OA
ATOM     19  H   UNL     1      18.211 110.605  95.866  1.00  0.00     0.293 HD
ENDBRANCH  15  18
BRANCH  17  20
ATOM     20  O   UNL     1      21.507 109.346  95.292  1.00  0.00    -0.504 OA
ATOM     21  H   UNL     1      21.808 108.711  96.021  1.00  0.00     0.293 HD
ENDBRANCH  17  20
ENDBRANCH   1  12
BRANCH   6  22
ATOM     22  O   UNL     1      27.324 117.300  94.376  1.00  0.00    -0.507 OA
ATOM     23  H   UNL     1      26.740 118.050  94.041  1.00  0.00     0.293 HD
ENDBRANCH   6  22
BRANCH   8  24
ATOM     24  O   UNL     1      29.122 113.120  92.897  1.00  0.00    -0.508 OA
ATOM     25  H   UNL     1      29.023 112.165  92.574  1.00  0.00     0.293 HD
ENDBRANCH   8  24
TORSDOF 5
ENDMDL
MODEL 4
REMARK VINA RESULT:     0.000      5.151      7.656
REMARK INTER + INTRA:          -0.318
REMARK INTER:                   0.000
REMARK INTRA:                  -0.318
REMARK UNBOUND:                -0.318
REMARK SMILES O=c1cc(-c2ccc(O)c(O)c2)oc2cc(O)cc(O)c12
REMARK SMILES IDX 4 1 3 2 2 3 1 4 21 5 19 6 18 7 16 8 15 9 14 10 13 11 5 12
REMARK SMILES IDX 6 13 7 14 8 15 12 16 10 17 9 18 11 20 20 22 17 24
REMARK H PARENT 9 19 11 21 20 23 17 25
REMARK Flexibility Score: inf
ROOT
ATOM      1  C   UNL     1      16.750 115.332  92.355  1.00  0.00     0.138 A 
ATOM      2  C   UNL     1      17.635 116.043  91.534  1.00  0.00     0.100 A 
ATOM      3  C   UNL     1      17.207 117.215  90.908  1.00  0.00     0.197 A 
ATOM      4  O   UNL     1      18.041 117.859  90.223  1.00  0.00    -0.289 OA
ATOM      5  C   UNL     1      15.873 117.656  91.078  1.00  0.00     0.107 A 
ATOM      6  C   UNL     1      15.314 118.817  90.462  1.00  0.00     0.134 A 
ATOM      7  C   UNL     1      14.009 119.209  90.784  1.00  0.00     0.093 A 
ATOM      8  C   UNL     1      13.222 118.452  91.653  1.00  0.00     0.123 A 
ATOM      9  C   UNL     1      13.740 117.288  92.222  1.00  0.00     0.094 A 
ATOM     10  C   UNL     1      15.051 116.889  91.947  1.00  0.00     0.146 A 
ATOM     11  O   UNL     1      15.512 115.785  92.524  1.00  0.00    -0.456 OA
ENDROOT
BRANCH   1  12
ATOM     12  C   UNL     1      17.151 114.078  93.043  1.00  0.00     0.021 A 
ATOM     13  C   UNL     1      18.450 113.549  92.920  1.00  0.00     0.016 A 
ATOM     14  C   UNL     1      18.801 112.373  93.587  1.00  0.00     0.051 A 
ATOM     15  C   UNL     1      17.868 111.709  94.393  1.00  0.00     0.157 A 
ATOM     16  C   UNL     1      16.224 113.413  93.865  1.00  0.00     0.062 A 
ATOM     17  C   UNL     1      16.573 112.234  94.532  1.00  0.00     0.158 A 
BRANCH  15  18
ATOM     18  O   UNL     1      18.223 110.535  95.055  1.00  0.00    -0.504 OA
ATOM     19  H   UNL     1      17.999 109.623  94.675  1.00  0.00     0.293 HD
ENDBRANCH  15  18
BRANCH  17  20
ATOM     20  O   UNL     1      15.621 111.600  95.330  1.00  0.00    -0.504 OA
ATOM     21  H   UNL     1      15.190 112.062  96.122  1.00  0.00     0.293 HD
ENDBRANCH  17  20
ENDBRANCH   1  12
BRANCH   6  22
ATOM     22  O   UNL     1      15.983 119.602  89.518  1.00  0.00    -0.507 OA
ATOM     23  H   UNL     1      16.720 120.257  89.727  1.00  0.00     0.293 HD
ENDBRANCH   6  22
BRANCH   8  24
ATOM     24  O   UNL     1      11.922 118.864  91.938  1.00  0.00    -0.508 OA
ATOM     25  H   UNL     1      11.188 118.820  91.241  1.00  0.00     0.293 HD
ENDBRANCH   8  24
TORSDOF 5
ENDMDL
MODEL 5
REMARK VINA RESULT:     0.000      4.302      6.580
REMARK INTER + INTRA:          -0.318
REMARK INTER:                   0.000
REMARK INTRA:                  -0.318
REMARK UNBOUND:                -0.318
REMARK SMILES O=c1cc(-c2ccc(O)c(O)c2)oc2cc(O)cc(O)c12
REMARK SMILES IDX 4 1 3 2 2 3 1 4 21 5 19 6 18 7 16 8 15 9 14 10 13 11 5 12
REMARK SMILES IDX 6 13 7 14 8 15 12 16 10 17 9 18 11 20 20 22 17 24
REMARK H PARENT 9 19 11 21 20 23 17 25
REMARK Flexibility Score: inf
ROOT
ATOM      1  C   UNL     1      18.662 109.885  97.375  1.00  0.00     0.138 A 
ATOM      2  C   UNL     1      17.763 110.935  97.605  1.00  0.00     0.100 A 
ATOM      3  C   UNL     1      18.204 112.256  97.508  1.00  0.00     0.197 A 
ATOM      4  O   UNL     1      17.361 113.175  97.666  1.00  0.00    -0.289 OA
ATOM      5  C   UNL     1      19.562 112.524  97.214  1.00  0.00     0.107 A 
ATOM      6  C   UNL     1      20.133 113.830  97.123  1.00  0.00     0.134 A 
ATOM      7  C   UNL     1      21.469 113.973  96.728  1.00  0.00     0.093 A 
ATOM      8  C   UNL     1      22.270 112.859  96.476  1.00  0.00     0.123 A 
ATOM      9  C   UNL     1      21.737 111.577  96.610  1.00  0.00     0.094 A 
ATOM     10  C   UNL     1      20.399 111.402  96.970  1.00  0.00     0.146 A 
ATOM     11  O   UNL     1      19.925 110.164  97.068  1.00  0.00    -0.456 OA
ENDROOT
BRANCH   1  12
ATOM     12  C   UNL     1      18.248 108.461  97.468  1.00  0.00     0.021 A 
ATOM     13  C   UNL     1      16.924 108.094  97.774  1.00  0.00     0.016 A 
ATOM     14  C   UNL     1      16.562 106.747  97.845  1.00  0.00     0.051 A 
ATOM     15  C   UNL     1      17.509 105.744  97.604  1.00  0.00     0.157 A 
ATOM     16  C   UNL     1      19.190 107.450  97.214  1.00  0.00     0.062 A 
ATOM     17  C   UNL     1      18.830 106.100  97.287  1.00  0.00     0.158 A 
BRANCH  15  18
ATOM     18  O   UNL     1      17.144 104.401  97.677  1.00  0.00    -0.504 OA
ATOM     19  H   UNL     1      17.671 103.681  97.197  1.00  0.00     0.293 HD
ENDBRANCH  15  18
BRANCH  17  20
ATOM     20  O   UNL     1      19.798 105.126  97.037  1.00  0.00    -0.504 OA
ATOM     21  H   UNL     1      19.967 104.762  96.107  1.00  0.00     0.293 HD
ENDBRANCH  17  20
ENDBRANCH   1  12
BRANCH   6  22
ATOM     22  O   UNL     1      19.447 115.009  97.429  1.00  0.00    -0.507 OA
ATOM     23  H   UNL     1      18.471 115.178  97.238  1.00  0.00     0.293 HD
ENDBRANCH   6  22
BRANCH   8  24
ATOM     24  O   UNL     1      23.599 113.040  96.100  1.00  0.00    -0.508 OA
ATOM     25  H   UNL     1      23.887 113.827  95.531  1.00  0.00     0.293 HD
ENDBRANCH   8  24
TORSDOF 5
ENDMDL
MODEL 6
REMARK VINA RESULT:     0.000      4.027      7.013
REMARK INTER + INTRA:          -0.318
REMARK INTER:                   0.000
REMARK INTRA:                  -0.318
REMARK UNBOUND:                -0.318
REMARK SMILES O=c1cc(-c2ccc(O)c(O)c2)oc2cc(O)cc(O)c12
REMARK SMILES IDX 4 1 3 2 2 3 1 4 21 5 19 6 18 7 16 8 15 9 14 10 13 11 5 12
REMARK SMILES IDX 6 13 7 14 8 15 12 16 10 17 9 18 11 20 20 22 17 24
REMARK H PARENT 9 19 11 21 20 23 17 25
REMARK Flexibility Score: inf
ROOT
ATOM      1  C   UNL     1      19.481 111.378  98.571  1.00  0.00     0.138 A 
ATOM      2  C   UNL     1      20.270 112.411  99.092  1.00  0.00     0.100 A 
ATOM      3  C   UNL     1      20.559 113.525  98.302  1.00  0.00     0.197 A 
ATOM      4  O   UNL     1      21.224 114.460  98.817  1.00  0.00    -0.289 OA
ATOM      5  C   UNL     1      20.083 113.586  96.971  1.00  0.00     0.107 A 
ATOM      6  C   UNL     1      20.342 114.656  96.062  1.00  0.00     0.134 A 
ATOM      7  C   UNL     1      19.734 114.652  94.800  1.00  0.00     0.093 A 
ATOM      8  C   UNL     1      18.924 113.592  94.393  1.00  0.00     0.123 A 
ATOM      9  C   UNL     1      18.703 112.517  95.255  1.00  0.00     0.094 A 
ATOM     10  C   UNL     1      19.268 112.508  96.532  1.00  0.00     0.146 A 
ATOM     11  O   UNL     1      19.018 111.474  97.329  1.00  0.00    -0.456 OA
ENDROOT
BRANCH   1  12
ATOM     12  C   UNL     1      19.145 110.168  99.365  1.00  0.00     0.021 A 
ATOM     13  C   UNL     1      19.589 110.007 100.692  1.00  0.00     0.016 A 
ATOM     14  C   UNL     1      19.249 108.862 101.418  1.00  0.00     0.051 A 
ATOM     15  C   UNL     1      18.456 107.865 100.838  1.00  0.00     0.157 A 
ATOM     16  C   UNL     1      18.338 109.168  98.795  1.00  0.00     0.062 A 
ATOM     17  C   UNL     1      17.998 108.021  99.519  1.00  0.00     0.158 A 
BRANCH  15  18
ATOM     18  O   UNL     1      18.121 106.723 101.565  1.00  0.00    -0.504 OA
ATOM     19  H   UNL     1      17.692 105.919 101.123  1.00  0.00     0.293 HD
ENDBRANCH  15  18
BRANCH  17  20
ATOM     20  O   UNL     1      17.203 107.048  98.914  1.00  0.00    -0.504 OA
ATOM     21  H   UNL     1      17.299 106.063  99.130  1.00  0.00     0.293 HD
ENDBRANCH  17  20
ENDBRANCH   1  12
BRANCH   6  22
ATOM     22  O   UNL     1      21.199 115.726  96.335  1.00  0.00    -0.507 OA
ATOM     23  H   UNL     1      21.991 115.994  95.770  1.00  0.00     0.293 HD
ENDBRANCH   6  22
BRANCH   8  24
ATOM     24  O   UNL     1      18.348 113.615  93.125  1.00  0.00    -0.508 OA
ATOM     25  H   UNL     1      17.582 114.240  92.902  1.00  0.00     0.293 HD
ENDBRANCH   8  24
TORSDOF 5
ENDMDL
MODEL 7
REMARK VINA RESULT:     0.000      4.930      7.232
REMARK INTER + INTRA:          -0.318
REMARK INTER:                   0.000
REMARK INTRA:                  -0.318
REMARK UNBOUND:                -0.318
REMARK SMILES O=c1cc(-c2ccc(O)c(O)c2)oc2cc(O)cc(O)c12
REMARK SMILES IDX 4 1 3 2 2 3 1 4 21 5 19 6 18 7 16 8 15 9 14 10 13 11 5 12
REMARK SMILES IDX 6 13 7 14 8 15 12 16 10 17 9 18 11 20 20 22 17 24
REMARK H PARENT 9 19 11 21 20 23 17 25
REMARK Flexibility Score: inf
ROOT
ATOM      1  C   UNL     1      16.256 111.594  90.925  1.00  0.00     0.138 A 
ATOM      2  C   UNL     1      16.945 110.703  90.092  1.00  0.00     0.100 A 
ATOM      3  C   UNL     1      18.267 110.364  90.386  1.00  0.00     0.197 A 
ATOM      4  O   UNL     1      18.840 109.521  89.651  1.00  0.00    -0.289 OA
ATOM      5  C   UNL     1      18.912 110.950  91.501  1.00  0.00     0.107 A 
ATOM      6  C   UNL     1      20.267 110.706  91.879  1.00  0.00     0.134 A 
ATOM      7  C   UNL     1      20.766 111.268  93.061  1.00  0.00     0.093 A 
ATOM      8  C   UNL     1      19.979 112.109  93.848  1.00  0.00     0.123 A 
ATOM      9  C   UNL     1      18.668 112.394  93.463  1.00  0.00     0.094 A 
ATOM     10  C   UNL     1      18.131 111.822  92.307  1.00  0.00     0.146 A 
ATOM     11  O   UNL     1      16.873 112.105  91.986  1.00  0.00    -0.456 OA
ENDROOT
BRANCH   1  12
ATOM     12  C   UNL     1      14.849 111.991  90.658  1.00  0.00     0.021 A 
ATOM     13  C   UNL     1      14.130 111.477  89.563  1.00  0.00     0.016 A 
ATOM     14  C   UNL     1      12.805 111.862  89.343  1.00  0.00     0.051 A 
ATOM     15  C   UNL     1      12.173 112.758  90.214  1.00  0.00     0.157 A 
ATOM     16  C   UNL     1      14.204 112.879  91.536  1.00  0.00     0.062 A 
ATOM     17  C   UNL     1      12.878 113.267  91.317  1.00  0.00     0.158 A 
BRANCH  15  18
ATOM     18  O   UNL     1      10.851 113.140  89.990  1.00  0.00    -0.504 OA
ATOM     19  H   UNL     1      10.275 112.676  89.298  1.00  0.00     0.293 HD
ENDBRANCH  15  18
BRANCH  17  20
ATOM     20  O   UNL     1      12.276 114.158  92.206  1.00  0.00    -0.504 OA
ATOM     21  H   UNL     1      12.014 113.885  93.146  1.00  0.00     0.293 HD
ENDBRANCH  17  20
ENDBRANCH   1  12
BRANCH   6  22
ATOM     22  O   UNL     1      21.166 109.946  91.125  1.00  0.00    -0.507 OA
ATOM     23  H   UNL     1      21.107 108.950  90.983  1.00  0.00     0.293 HD
ENDBRANCH   6  22
BRANCH   8  24
ATOM     24  O   UNL     1      20.514 112.662  95.010  1.00  0.00    -0.508 OA
ATOM     25  H   UNL     1      21.437 113.077  95.022  1.00  0.00     0.293 HD
ENDBRANCH   8  24
TORSDOF 5
ENDMDL
MODEL 8
REMARK VINA RESULT:     0.000      6.043      7.531
REMARK INTER + INTRA:          -0.318
REMARK INTER:                   0.000
REMARK INTRA:                  -0.318
REMARK UNBOUND:                -0.318
REMARK SMILES O=c1cc(-c2ccc(O)c(O)c2)oc2cc(O)cc(O)c12
REMARK SMILES IDX 4 1 3 2 2 3 1 4 21 5 19 6 18 7 16 8 15 9 14 10 13 11 5 12
REMARK SMILES IDX 6 13 7 14 8 15 12 16 10 17 9 18 11 20 20 22 17 24
REMARK H PARENT 9 19 11 21 20 23 17 25
REMARK Flexibility Score: inf
ROOT
ATOM      1  C   UNL     1      22.577 110.328  95.599  1.00  0.00     0.138 A 
ATOM      2  C   UNL     1      21.707 109.631  94.751  1.00  0.00     0.100 A 
ATOM      3  C   UNL     1      20.424 110.129  94.517  1.00  0.00     0.197 A 
ATOM      4  O   UNL     1      19.687 109.511  93.708  1.00  0.00    -0.289 OA
ATOM      5  C   UNL     1      20.000 111.313  95.166  1.00  0.00     0.107 A 
ATOM      6  C   UNL     1      18.703 111.896  95.032  1.00  0.00     0.134 A 
ATOM      7  C   UNL     1      18.432 113.125  95.647  1.00  0.00     0.093 A 
ATOM      8  C   UNL     1      19.388 113.762  96.438  1.00  0.00     0.123 A 
ATOM      9  C   UNL     1      20.642 113.176  96.618  1.00  0.00     0.094 A 
ATOM     10  C   UNL     1      20.955 111.969  95.990  1.00  0.00     0.146 A 
ATOM     11  O   UNL     1      22.166 111.455  96.172  1.00  0.00    -0.456 OA
ENDROOT
BRANCH   1  12
ATOM     12  C   UNL     1      23.952 109.842  95.886  1.00  0.00     0.021 A 
ATOM     13  C   UNL     1      24.458 108.665  95.302  1.00  0.00     0.016 A 
ATOM     14  C   UNL     1      25.758 108.238  95.583  1.00  0.00     0.051 A 
ATOM     15  C   UNL     1      26.578 108.981  96.441  1.00  0.00     0.157 A 
ATOM     16  C   UNL     1      24.786 110.589  96.736  1.00  0.00     0.062 A 
ATOM     17  C   UNL     1      26.088 110.163  97.019  1.00  0.00     0.158 A 
BRANCH  15  18
ATOM     18  O   UNL     1      27.875 108.550  96.720  1.00  0.00    -0.504 OA
ATOM     19  H   UNL     1      28.554 109.162  97.155  1.00  0.00     0.293 HD
ENDBRANCH  15  18
BRANCH  17  20
ATOM     20  O   UNL     1      26.880 110.928  97.875  1.00  0.00    -0.504 OA
ATOM     21  H   UNL     1      27.847 110.695  98.065  1.00  0.00     0.293 HD
ENDBRANCH  17  20
ENDBRANCH   1  12
BRANCH   6  22
ATOM     22  O   UNL     1      17.648 111.306  94.330  1.00  0.00    -0.507 OA
ATOM     23  H   UNL     1      17.578 111.252  93.326  1.00  0.00     0.293 HD
ENDBRANCH   6  22
BRANCH   8  24
ATOM     24  O   UNL     1      19.077 114.975  97.048  1.00  0.00    -0.508 OA
ATOM     25  H   UNL     1      18.700 115.015  97.987  1.00  0.00     0.293 HD
ENDBRANCH   8  24
TORSDOF 5
ENDMDL
MODEL 9
REMARK VINA RESULT:     0.000      7.342     10.166
REMARK INTER + INTRA:          -0.318
REMARK INTER:                   0.000
REMARK INTRA:                  -0.318
REMARK UNBOUND:                -0.318
REMARK SMILES O=c1cc(-c2ccc(O)c(O)c2)oc2cc(O)cc(O)c12
REMARK SMILES IDX 4 1 3 2 2 3 1 4 21 5 19 6 18 7 16 8 15 9 14 10 13 11 5 12
REMARK SMILES IDX 6 13 7 14 8 15 12 16 10 17 9 18 11 20 20 22 17 24
REMARK H PARENT 9 19 11 21 20 23 17 25
REMARK Flexibility Score: inf
ROOT
ATOM      1  C   UNL     1      24.344 113.422  92.273  1.00  0.00     0.138 A 
ATOM      2  C   UNL     1      24.419 112.510  91.213  1.00  0.00     0.100 A 
ATOM      3  C   UNL     1      23.272 112.216  90.472  1.00  0.00     0.197 A 
ATOM      4  O   UNL     1      23.384 111.436  89.492  1.00  0.00    -0.289 OA
ATOM      5  C   UNL     1      22.038 112.814  90.819  1.00  0.00     0.107 A 
ATOM      6  C   UNL     1      20.797 112.565  90.158  1.00  0.00     0.134 A 
ATOM      7  C   UNL     1      19.659 113.292  90.529  1.00  0.00     0.093 A 
ATOM      8  C   UNL     1      19.702 114.215  91.574  1.00  0.00     0.123 A 
ATOM      9  C   UNL     1      20.897 114.431  92.260  1.00  0.00     0.094 A 
ATOM     10  C   UNL     1      22.057 113.747  91.892  1.00  0.00     0.146 A 
ATOM     11  O   UNL     1      23.179 113.995  92.559  1.00  0.00    -0.456 OA
ENDROOT
BRANCH   1  12
ATOM     12  C   UNL     1      25.531 113.769  93.097  1.00  0.00     0.021 A 
ATOM     13  C   UNL     1      26.798 113.212  92.841  1.00  0.00     0.016 A 
ATOM     14  C   UNL     1      27.898 113.564  93.626  1.00  0.00     0.051 A 
ATOM     15  C   UNL     1      27.756 114.483  94.673  1.00  0.00     0.157 A 
ATOM     16  C   UNL     1      25.399 114.701  94.141  1.00  0.00     0.062 A 
ATOM     17  C   UNL     1      26.499 115.054  94.930  1.00  0.00     0.158 A 
BRANCH  15  18
ATOM     18  O   UNL     1      28.857 114.831  95.456  1.00  0.00    -0.504 OA
ATOM     19  H   UNL     1      29.031 115.791  95.729  1.00  0.00     0.293 HD
ENDBRANCH  15  18
BRANCH  17  20
ATOM     20  O   UNL     1      26.324 115.976  95.962  1.00  0.00    -0.504 OA
ATOM     21  H   UNL     1      26.784 115.872  96.859  1.00  0.00     0.293 HD
ENDBRANCH  17  20
ENDBRANCH   1  12
BRANCH   6  22
ATOM     22  O   UNL     1      20.623 111.607  89.155  1.00  0.00    -0.507 OA
ATOM     23  H   UNL     1      19.769 111.099  88.980  1.00  0.00     0.293 HD
ENDBRANCH   6  22
BRANCH   8  24
ATOM     24  O   UNL     1      18.545 114.909  91.925  1.00  0.00    -0.508 OA
ATOM     25  H   UNL     1      17.716 114.426  92.248  1.00  0.00     0.293 HD
ENDBRANCH   8  24
TORSDOF 5
ENDMDL
