MODEL 1
REMARK VINA RESULT:    -2.511      0.000      0.000
REMARK INTER + INTRA:          -2.863
REMARK INTER:                  -2.805
REMARK INTRA:                  -0.058
REMARK UNBOUND:                -0.058
REMARK SMILES CCCC(=O)[O-]
REMARK SMILES IDX 3 1 4 2 5 3 6 4 2 5 1 6
REMARK H PARENT
REMARK Flexibility Score: inf
ROOT
ATOM      1  C   UNL     1      35.875   6.087 -31.974  1.00  0.00     0.052 C 
ENDROOT
BRANCH   1   2
ATOM      2  C   UNL     1      34.816   6.863 -31.251  1.00  0.00     0.041 C 
ATOM      3  O   UNL     1      34.474   8.004 -31.659  1.00  0.00    -0.550 OA
ATOM      4  O   UNL     1      34.229   6.338 -30.107  1.00  0.00    -0.550 OA
ENDBRANCH   1   2
BRANCH   1   5
ATOM      5  C   UNL     1      35.350   5.501 -33.291  1.00  0.00     0.003 C 
ATOM      6  C   UNL     1      34.427   4.305 -33.067  1.00  0.00     0.004 C 
ENDBRANCH   1   5
TORSDOF 2
ENDMDL
MODEL 2
REMARK VINA RESULT:    -2.486      2.377      3.116
REMARK INTER + INTRA:          -2.835
REMARK INTER:                  -2.805
REMARK INTRA:                  -0.030
REMARK UNBOUND:                -0.058
REMARK SMILES CCCC(=O)[O-]
REMARK SMILES IDX 3 1 4 2 5 3 6 4 2 5 1 6
REMARK H PARENT
REMARK Flexibility Score: inf
ROOT
ATOM      1  C   UNL     1      35.043   5.149 -31.544  1.00  0.00     0.052 C 
ENDROOT
BRANCH   1   2
ATOM      2  C   UNL     1      35.018   4.857 -33.013  1.00  0.00     0.041 C 
ATOM      3  O   UNL     1      35.782   5.478 -33.797  1.00  0.00    -0.550 OA
ATOM      4  O   UNL     1      34.126   3.920 -33.521  1.00  0.00    -0.550 OA
ENDBRANCH   1   2
BRANCH   1   5
ATOM      5  C   UNL     1      35.566   6.562 -31.255  1.00  0.00     0.003 C 
ATOM      6  C   UNL     1      34.475   7.623 -31.382  1.00  0.00     0.004 C 
ENDBRANCH   1   5
TORSDOF 2
ENDMDL
MODEL 3
REMARK VINA RESULT:    -2.449      1.266      1.531
REMARK INTER + INTRA:          -2.794
REMARK INTER:                  -2.762
REMARK INTRA:                  -0.032
REMARK UNBOUND:                -0.058
REMARK SMILES CCCC(=O)[O-]
REMARK SMILES IDX 3 1 4 2 5 3 6 4 2 5 1 6
REMARK H PARENT
REMARK Flexibility Score: inf
ROOT
ATOM      1  C   UNL     1      35.387   5.430 -32.999  1.00  0.00     0.052 C 
ENDROOT
BRANCH   1   2
ATOM      2  C   UNL     1      35.729   5.978 -31.647  1.00  0.00     0.041 C 
ATOM      3  O   UNL     1      36.106   7.172 -31.522  1.00  0.00    -0.550 OA
ATOM      4  O   UNL     1      35.661   5.157 -30.528  1.00  0.00    -0.550 OA
ENDBRANCH   1   2
BRANCH   1   5
ATOM      5  C   UNL     1      33.941   4.920 -33.057  1.00  0.00     0.003 C 
ATOM      6  C   UNL     1      33.860   3.443 -33.437  1.00  0.00     0.004 C 
ENDBRANCH   1   5
TORSDOF 2
ENDMDL
MODEL 4
REMARK VINA RESULT:    -2.434     15.670     16.794
REMARK INTER + INTRA:          -2.777
REMARK INTER:                  -2.766
REMARK INTRA:                  -0.010
REMARK UNBOUND:                -0.058
REMARK SMILES CCCC(=O)[O-]
REMARK SMILES IDX 3 1 4 2 5 3 6 4 2 5 1 6
REMARK H PARENT
REMARK Flexibility Score: inf
ROOT
ATOM      1  C   UNL     1      25.547  -7.501 -29.223  1.00  0.00     0.052 C 
ENDROOT
BRANCH   1   2
ATOM      2  C   UNL     1      25.058  -6.298 -29.972  1.00  0.00     0.041 C 
ATOM      3  O   UNL     1      25.861  -5.388 -30.306  1.00  0.00    -0.550 OA
ATOM      4  O   UNL     1      23.708  -6.169 -30.273  1.00  0.00    -0.550 OA
ENDBRANCH   1   2
BRANCH   1   5
ATOM      5  C   UNL     1      24.560  -7.927 -28.129  1.00  0.00     0.003 C 
ATOM      6  C   UNL     1      25.231  -8.067 -26.763  1.00  0.00     0.004 C 
ENDBRANCH   1   5
TORSDOF 2
ENDMDL
MODEL 5
REMARK VINA RESULT:    -2.404     16.264     16.851
REMARK INTER + INTRA:          -2.743
REMARK INTER:                  -2.682
REMARK INTRA:                  -0.062
REMARK UNBOUND:                -0.058
REMARK SMILES CCCC(=O)[O-]
REMARK SMILES IDX 3 1 4 2 5 3 6 4 2 5 1 6
REMARK H PARENT
REMARK Flexibility Score: inf
ROOT
ATOM      1  C   UNL     1      24.536  -7.812 -28.478  1.00  0.00     0.052 C 
ENDROOT
BRANCH   1   2
ATOM      2  C   UNL     1      24.177  -6.458 -29.012  1.00  0.00     0.041 C 
ATOM      3  O   UNL     1      23.944  -6.301 -30.239  1.00  0.00    -0.550 OA
ATOM      4  O   UNL     1      24.132  -5.364 -28.158  1.00  0.00    -0.550 OA
ENDBRANCH   1   2
BRANCH   1   5
ATOM      5  C   UNL     1      25.951  -7.830 -27.884  1.00  0.00     0.003 C 
ATOM      6  C   UNL     1      27.034  -7.825 -28.961  1.00  0.00     0.004 C 
ENDBRANCH   1   5
TORSDOF 2
ENDMDL
MODEL 6
REMARK VINA RESULT:    -2.270     16.075     16.577
REMARK INTER + INTRA:          -2.594
REMARK INTER:                  -2.585
REMARK INTRA:                  -0.009
REMARK UNBOUND:                -0.058
REMARK SMILES CCCC(=O)[O-]
REMARK SMILES IDX 3 1 4 2 5 3 6 4 2 5 1 6
REMARK H PARENT
REMARK Flexibility Score: inf
ROOT
ATOM      1  C   UNL     1      25.428  -6.126 -29.851  1.00  0.00     0.052 C 
ENDROOT
BRANCH   1   2
ATOM      2  C   UNL     1      25.603  -7.452 -29.175  1.00  0.00     0.041 C 
ATOM      3  O   UNL     1      24.632  -7.999 -28.589  1.00  0.00    -0.550 OA
ATOM      4  O   UNL     1      26.848  -8.068 -29.166  1.00  0.00    -0.550 OA
ENDBRANCH   1   2
BRANCH   1   5
ATOM      5  C   UNL     1      24.087  -6.039 -30.592  1.00  0.00     0.003 C 
ATOM      6  C   UNL     1      24.223  -5.385 -31.966  1.00  0.00     0.004 C 
ENDBRANCH   1   5
TORSDOF 2
ENDMDL
MODEL 7
REMARK VINA RESULT:    -2.214      1.944      3.070
REMARK INTER + INTRA:          -2.531
REMARK INTER:                  -2.526
REMARK INTRA:                  -0.005
REMARK UNBOUND:                -0.058
REMARK SMILES CCCC(=O)[O-]
REMARK SMILES IDX 3 1 4 2 5 3 6 4 2 5 1 6
REMARK H PARENT
REMARK Flexibility Score: inf
ROOT
ATOM      1  C   UNL     1      35.069   7.326 -31.528  1.00  0.00     0.052 C 
ENDROOT
BRANCH   1   2
ATOM      2  C   UNL     1      35.433   5.915 -31.877  1.00  0.00     0.041 C 
ATOM      3  O   UNL     1      35.660   5.595 -33.073  1.00  0.00    -0.550 OA
ATOM      4  O   UNL     1      35.489   4.946 -30.883  1.00  0.00    -0.550 OA
ENDBRANCH   1   2
BRANCH   1   5
ATOM      5  C   UNL     1      33.620   7.433 -31.036  1.00  0.00     0.003 C 
ATOM      6  C   UNL     1      33.164   8.883 -30.880  1.00  0.00     0.004 C 
ENDBRANCH   1   5
TORSDOF 2
ENDMDL
MODEL 8
REMARK VINA RESULT:    -2.093     15.744     16.135
REMARK INTER + INTRA:          -2.397
REMARK INTER:                  -2.389
REMARK INTRA:                  -0.007
REMARK UNBOUND:                -0.058
REMARK SMILES CCCC(=O)[O-]
REMARK SMILES IDX 3 1 4 2 5 3 6 4 2 5 1 6
REMARK H PARENT
REMARK Flexibility Score: inf
ROOT
ATOM      1  C   UNL     1      19.901   1.881 -33.479  1.00  0.00     0.052 C 
ENDROOT
BRANCH   1   2
ATOM      2  C   UNL     1      19.980   0.758 -32.490  1.00  0.00     0.041 C 
ATOM      3  O   UNL     1      20.013  -0.436 -32.887  1.00  0.00    -0.550 OA
ATOM      4  O   UNL     1      19.985   1.031 -31.128  1.00  0.00    -0.550 OA
ENDBRANCH   1   2
BRANCH   1   5
ATOM      5  C   UNL     1      19.169   3.098 -32.898  1.00  0.00     0.003 C 
ATOM      6  C   UNL     1      18.763   4.102 -33.975  1.00  0.00     0.004 C 
ENDBRANCH   1   5
TORSDOF 2
ENDMDL
MODEL 9
REMARK VINA RESULT:    -1.248     15.979     16.803
REMARK INTER + INTRA:          -1.453
REMARK INTER:                  -1.404
REMARK INTRA:                  -0.049
REMARK UNBOUND:                -0.058
REMARK SMILES CCCC(=O)[O-]
REMARK SMILES IDX 3 1 4 2 5 3 6 4 2 5 1 6
REMARK H PARENT
REMARK Flexibility Score: inf
ROOT
ATOM      1  C   UNL     1      25.573  -7.736 -29.164  1.00  0.00     0.052 C 
ENDROOT
BRANCH   1   2
ATOM      2  C   UNL     1      26.948  -7.588 -28.588  1.00  0.00     0.041 C 
ATOM      3  O   UNL     1      27.851  -7.005 -29.242  1.00  0.00    -0.550 OA
ATOM      4  O   UNL     1      27.240  -8.125 -27.341  1.00  0.00    -0.550 OA
ENDBRANCH   1   2
BRANCH   1   5
ATOM      5  C   UNL     1      24.498  -7.756 -28.070  1.00  0.00     0.003 C 
ATOM      6  C   UNL     1      24.134  -6.354 -27.586  1.00  0.00     0.004 C 
ENDBRANCH   1   5
TORSDOF 2
ENDMDL
