MODEL 1
REMARK VINA RESULT:    -4.252      0.000      0.000
REMARK INTER + INTRA:          -4.658
REMARK INTER:                  -4.625
REMARK INTRA:                  -0.033
REMARK UNBOUND:                -0.033
REMARK SMILES COc1ccccc1O
REMARK SMILES IDX 3 1 4 2 5 3 6 4 7 5 8 6 2 7 1 8 9 9
REMARK H PARENT 9 10
REMARK Flexibility Score: inf
ROOT
ATOM      1  C   UNL     1      34.892 -30.887  11.196  1.00  0.00     0.160 A 
ATOM      2  C   UNL     1      35.830 -30.005  10.620  1.00  0.00     0.050 A 
ATOM      3  C   UNL     1      35.805 -28.644  10.937  1.00  0.00     0.004 A 
ATOM      4  C   UNL     1      34.851 -28.148  11.826  1.00  0.00     0.004 A 
ATOM      5  C   UNL     1      33.918 -29.012  12.402  1.00  0.00     0.050 A 
ATOM      6  C   UNL     1      33.933 -30.377  12.093  1.00  0.00     0.157 A 
ENDROOT
BRANCH   1   7
ATOM      7  O   UNL     1      34.885 -32.260  10.902  1.00  0.00    -0.493 OA
ATOM      8  C   UNL     1      34.917 -32.804   9.587  1.00  0.00     0.278 C 
ENDBRANCH   1   7
BRANCH   6   9
ATOM      9  O   UNL     1      32.987 -31.212  12.686  1.00  0.00    -0.504 OA
ATOM     10  H   UNL     1      32.217 -30.851  13.237  1.00  0.00     0.293 HD
ENDBRANCH   6   9
TORSDOF 2
ENDMDL
MODEL 2
REMARK VINA RESULT:    -3.967      1.178      1.691
REMARK INTER + INTRA:          -4.349
REMARK INTER:                  -4.313
REMARK INTRA:                  -0.036
REMARK UNBOUND:                -0.033
REMARK SMILES COc1ccccc1O
REMARK SMILES IDX 3 1 4 2 5 3 6 4 7 5 8 6 2 7 1 8 9 9
REMARK H PARENT 9 10
REMARK Flexibility Score: inf
ROOT
ATOM      1  C   UNL     1      35.860 -30.365  10.801  1.00  0.00     0.160 A 
ATOM      2  C   UNL     1      35.945 -28.959  10.865  1.00  0.00     0.050 A 
ATOM      3  C   UNL     1      34.979 -28.225  11.559  1.00  0.00     0.004 A 
ATOM      4  C   UNL     1      33.923 -28.880  12.194  1.00  0.00     0.004 A 
ATOM      5  C   UNL     1      33.829 -30.271  12.137  1.00  0.00     0.050 A 
ATOM      6  C   UNL     1      34.791 -31.018  11.445  1.00  0.00     0.157 A 
ENDROOT
BRANCH   1   7
ATOM      7  O   UNL     1      36.812 -31.137  10.114  1.00  0.00    -0.493 OA
ATOM      8  C   UNL     1      36.725 -31.485   8.736  1.00  0.00     0.278 C 
ENDBRANCH   1   7
BRANCH   6   9
ATOM      9  O   UNL     1      34.667 -32.406  11.408  1.00  0.00    -0.504 OA
ATOM     10  H   UNL     1      33.766 -32.868  11.398  1.00  0.00     0.293 HD
ENDBRANCH   6   9
TORSDOF 2
ENDMDL
MODEL 3
REMARK VINA RESULT:    -3.931      1.266      3.304
REMARK INTER + INTRA:          -4.309
REMARK INTER:                  -4.284
REMARK INTRA:                  -0.025
REMARK UNBOUND:                -0.033
REMARK SMILES COc1ccccc1O
REMARK SMILES IDX 3 1 4 2 5 3 6 4 7 5 8 6 2 7 1 8 9 9
REMARK H PARENT 9 10
REMARK Flexibility Score: inf
ROOT
ATOM      1  C   UNL     1      34.944 -30.719  11.071  1.00  0.00     0.160 A 
ATOM      2  C   UNL     1      35.705 -30.058  10.084  1.00  0.00     0.050 A 
ATOM      3  C   UNL     1      36.427 -30.794   9.140  1.00  0.00     0.004 A 
ATOM      4  C   UNL     1      36.398 -32.189   9.167  1.00  0.00     0.004 A 
ATOM      5  C   UNL     1      35.648 -32.853  10.139  1.00  0.00     0.050 A 
ATOM      6  C   UNL     1      34.921 -32.127  11.090  1.00  0.00     0.157 A 
ENDROOT
BRANCH   1   7
ATOM      7  O   UNL     1      34.206 -30.014  12.036  1.00  0.00    -0.493 OA
ATOM      8  C   UNL     1      34.124 -28.595  12.111  1.00  0.00     0.278 C 
ENDBRANCH   1   7
BRANCH   6   9
ATOM      9  O   UNL     1      34.181 -32.822  12.046  1.00  0.00    -0.504 OA
ATOM     10  H   UNL     1      33.292 -32.482  12.393  1.00  0.00     0.293 HD
ENDBRANCH   6   9
TORSDOF 2
ENDMDL
MODEL 4
REMARK VINA RESULT:    -3.837      1.165      2.334
REMARK INTER + INTRA:          -4.207
REMARK INTER:                  -4.227
REMARK INTRA:                   0.020
REMARK UNBOUND:                -0.033
REMARK SMILES COc1ccccc1O
REMARK SMILES IDX 3 1 4 2 5 3 6 4 7 5 8 6 2 7 1 8 9 9
REMARK H PARENT 9 10
REMARK Flexibility Score: inf
ROOT
ATOM      1  C   UNL     1      34.924 -31.044  10.833  1.00  0.00     0.160 A 
ATOM      2  C   UNL     1      33.785 -30.443  11.408  1.00  0.00     0.050 A 
ATOM      3  C   UNL     1      33.813 -29.099  11.790  1.00  0.00     0.004 A 
ATOM      4  C   UNL     1      34.970 -28.341  11.604  1.00  0.00     0.004 A 
ATOM      5  C   UNL     1      36.104 -28.925  11.036  1.00  0.00     0.050 A 
ATOM      6  C   UNL     1      36.088 -30.271  10.649  1.00  0.00     0.157 A 
ENDROOT
BRANCH   1   7
ATOM      7  O   UNL     1      34.934 -32.391  10.436  1.00  0.00    -0.493 OA
ATOM      8  C   UNL     1      34.765 -32.838   9.095  1.00  0.00     0.278 C 
ENDBRANCH   1   7
BRANCH   6   9
ATOM      9  O   UNL     1      37.237 -30.822  10.084  1.00  0.00    -0.504 OA
ATOM     10  H   UNL     1      38.161 -30.645  10.458  1.00  0.00     0.293 HD
ENDBRANCH   6   9
TORSDOF 2
ENDMDL
MODEL 5
REMARK VINA RESULT:    -3.613      2.494      3.444
REMARK INTER + INTRA:          -3.963
REMARK INTER:                  -3.960
REMARK INTRA:                  -0.003
REMARK UNBOUND:                -0.033
REMARK SMILES COc1ccccc1O
REMARK SMILES IDX 3 1 4 2 5 3 6 4 7 5 8 6 2 7 1 8 9 9
REMARK H PARENT 9 10
REMARK Flexibility Score: inf
ROOT
ATOM      1  C   UNL     1      36.482 -31.934   8.674  1.00  0.00     0.160 A 
ATOM      2  C   UNL     1      37.321 -31.172   9.513  1.00  0.00     0.050 A 
ATOM      3  C   UNL     1      36.782 -30.444  10.578  1.00  0.00     0.004 A 
ATOM      4  C   UNL     1      35.407 -30.466  10.817  1.00  0.00     0.004 A 
ATOM      5  C   UNL     1      34.567 -31.216   9.992  1.00  0.00     0.050 A 
ATOM      6  C   UNL     1      35.096 -31.950   8.924  1.00  0.00     0.157 A 
ENDROOT
BRANCH   1   7
ATOM      7  O   UNL     1      36.987 -32.678   7.596  1.00  0.00    -0.493 OA
ATOM      8  C   UNL     1      37.011 -32.228   6.246  1.00  0.00     0.278 C 
ENDBRANCH   1   7
BRANCH   6   9
ATOM      9  O   UNL     1      34.228 -32.689   8.120  1.00  0.00    -0.504 OA
ATOM     10  H   UNL     1      33.728 -33.499   8.468  1.00  0.00     0.293 HD
ENDBRANCH   6   9
TORSDOF 2
ENDMDL
MODEL 6
REMARK VINA RESULT:    -3.600      2.143      3.343
REMARK INTER + INTRA:          -3.949
REMARK INTER:                  -3.923
REMARK INTRA:                  -0.025
REMARK UNBOUND:                -0.033
REMARK SMILES COc1ccccc1O
REMARK SMILES IDX 3 1 4 2 5 3 6 4 7 5 8 6 2 7 1 8 9 9
REMARK H PARENT 9 10
REMARK Flexibility Score: inf
ROOT
ATOM      1  C   UNL     1      35.570 -28.910  11.328  1.00  0.00     0.160 A 
ATOM      2  C   UNL     1      36.344 -29.752  10.504  1.00  0.00     0.050 A 
ATOM      3  C   UNL     1      35.770 -30.878   9.907  1.00  0.00     0.004 A 
ATOM      4  C   UNL     1      34.424 -31.177  10.125  1.00  0.00     0.004 A 
ATOM      5  C   UNL     1      33.648 -30.351  10.939  1.00  0.00     0.050 A 
ATOM      6  C   UNL     1      34.212 -29.220  11.542  1.00  0.00     0.157 A 
ENDROOT
BRANCH   1   7
ATOM      7  O   UNL     1      36.111 -27.770  11.944  1.00  0.00    -0.493 OA
ATOM      8  C   UNL     1      37.503 -27.486  12.033  1.00  0.00     0.278 C 
ENDBRANCH   1   7
BRANCH   6   9
ATOM      9  O   UNL     1      33.409 -28.416  12.349  1.00  0.00    -0.504 OA
ATOM     10  H   UNL     1      32.982 -27.563  12.008  1.00  0.00     0.293 HD
ENDBRANCH   6   9
TORSDOF 2
ENDMDL
MODEL 7
REMARK VINA RESULT:    -3.502      2.027      3.984
REMARK INTER + INTRA:          -3.842
REMARK INTER:                  -3.815
REMARK INTRA:                  -0.028
REMARK UNBOUND:                -0.033
REMARK SMILES COc1ccccc1O
REMARK SMILES IDX 3 1 4 2 5 3 6 4 7 5 8 6 2 7 1 8 9 9
REMARK H PARENT 9 10
REMARK Flexibility Score: inf
ROOT
ATOM      1  C   UNL     1      35.351 -31.187   9.735  1.00  0.00     0.160 A 
ATOM      2  C   UNL     1      36.504 -30.721  10.399  1.00  0.00     0.050 A 
ATOM      3  C   UNL     1      37.752 -31.292  10.131  1.00  0.00     0.004 A 
ATOM      4  C   UNL     1      37.864 -32.328   9.203  1.00  0.00     0.004 A 
ATOM      5  C   UNL     1      36.729 -32.797   8.539  1.00  0.00     0.050 A 
ATOM      6  C   UNL     1      35.474 -32.233   8.799  1.00  0.00     0.157 A 
ENDROOT
BRANCH   1   7
ATOM      7  O   UNL     1      34.081 -30.638   9.977  1.00  0.00    -0.493 OA
ATOM      8  C   UNL     1      33.655 -30.113  11.230  1.00  0.00     0.278 C 
ENDBRANCH   1   7
BRANCH   6   9
ATOM      9  O   UNL     1      34.361 -32.725   8.119  1.00  0.00    -0.504 OA
ATOM     10  H   UNL     1      33.464 -32.255   8.140  1.00  0.00     0.293 HD
ENDBRANCH   6   9
TORSDOF 2
ENDMDL
MODEL 8
REMARK VINA RESULT:    -3.379      1.867      3.942
REMARK INTER + INTRA:          -3.708
REMARK INTER:                  -3.753
REMARK INTRA:                   0.045
REMARK UNBOUND:                -0.033
REMARK SMILES COc1ccccc1O
REMARK SMILES IDX 3 1 4 2 5 3 6 4 7 5 8 6 2 7 1 8 9 9
REMARK H PARENT 9 10
REMARK Flexibility Score: inf
ROOT
ATOM      1  C   UNL     1      34.870 -31.133   9.848  1.00  0.00     0.160 A 
ATOM      2  C   UNL     1      34.633 -32.266   9.043  1.00  0.00     0.050 A 
ATOM      3  C   UNL     1      35.684 -32.867   8.343  1.00  0.00     0.004 A 
ATOM      4  C   UNL     1      36.976 -32.348   8.438  1.00  0.00     0.004 A 
ATOM      5  C   UNL     1      37.222 -31.227   9.233  1.00  0.00     0.050 A 
ATOM      6  C   UNL     1      36.177 -30.617   9.938  1.00  0.00     0.157 A 
ENDROOT
BRANCH   1   7
ATOM      7  O   UNL     1      33.840 -30.503  10.565  1.00  0.00    -0.493 OA
ATOM      8  C   UNL     1      33.632 -30.640  11.967  1.00  0.00     0.278 C 
ENDBRANCH   1   7
BRANCH   6   9
ATOM      9  O   UNL     1      36.457 -29.499  10.722  1.00  0.00    -0.504 OA
ATOM     10  H   UNL     1      36.188 -29.442  11.697  1.00  0.00     0.293 HD
ENDBRANCH   6   9
TORSDOF 2
ENDMDL
MODEL 9
REMARK VINA RESULT:    -3.331     19.367     20.475
REMARK INTER + INTRA:          -3.656
REMARK INTER:                  -3.616
REMARK INTRA:                  -0.040
REMARK UNBOUND:                -0.033
REMARK SMILES COc1ccccc1O
REMARK SMILES IDX 3 1 4 2 5 3 6 4 7 5 8 6 2 7 1 8 9 9
REMARK H PARENT 9 10
REMARK Flexibility Score: inf
ROOT
ATOM      1  C   UNL     1      21.689 -15.259   6.360  1.00  0.00     0.160 A 
ATOM      2  C   UNL     1      21.178 -13.961   6.570  1.00  0.00     0.050 A 
ATOM      3  C   UNL     1      21.913 -13.023   7.301  1.00  0.00     0.004 A 
ATOM      4  C   UNL     1      23.159 -13.365   7.829  1.00  0.00     0.004 A 
ATOM      5  C   UNL     1      23.674 -14.647   7.627  1.00  0.00     0.050 A 
ATOM      6  C   UNL     1      22.948 -15.595   6.896  1.00  0.00     0.157 A 
ENDROOT
BRANCH   1   7
ATOM      7  O   UNL     1      20.981 -16.227   5.630  1.00  0.00    -0.493 OA
ATOM      8  C   UNL     1      20.638 -16.109   4.254  1.00  0.00     0.278 C 
ENDBRANCH   1   7
BRANCH   6   9
ATOM      9  O   UNL     1      23.492 -16.865   6.712  1.00  0.00    -0.504 OA
ATOM     10  H   UNL     1      22.948 -17.710   6.842  1.00  0.00     0.293 HD
ENDBRANCH   6   9
TORSDOF 2
ENDMDL
