MODEL 1
REMARK VINA RESULT:    -6.798      0.000      0.000
REMARK INTER + INTRA:          -8.169
REMARK INTER:                  -7.990
REMARK INTRA:                  -0.179
REMARK UNBOUND:                -0.179
REMARK SMILES O=c1c(O)c(-c2ccc(O)c(O)c2)oc2cc(O)ccc12
REMARK SMILES IDX 5 1 3 2 2 3 1 4 21 5 15 6 14 7 16 8 17 9 19 10 20 11 6 12
REMARK SMILES IDX 7 13 8 14 9 15 13 16 11 17 10 18 12 20 4 22 18 24
REMARK H PARENT 10 19 12 21 4 23 18 25
REMARK Flexibility Score: inf
ROOT
ATOM      1  C   UNL     1      -2.833   2.772   3.016  1.00  0.00     0.180 A 
ATOM      2  C   UNL     1      -1.632   3.409   3.391  1.00  0.00     0.208 A 
ATOM      3  C   UNL     1      -1.586   4.811   3.408  1.00  0.00     0.235 A 
ATOM      4  O   UNL     1      -0.526   5.404   3.749  1.00  0.00    -0.285 OA
ATOM      5  C   UNL     1      -2.725   5.543   3.036  1.00  0.00     0.069 A 
ATOM      6  C   UNL     1      -3.882   4.832   2.652  1.00  0.00     0.142 A 
ATOM      7  O   UNL     1      -3.886   3.504   2.657  1.00  0.00    -0.452 OA
ATOM      8  C   UNL     1      -5.033   5.525   2.265  1.00  0.00     0.094 A 
ATOM      9  C   UNL     1      -5.044   6.927   2.259  1.00  0.00     0.119 A 
ATOM     10  C   UNL     1      -3.900   7.634   2.641  1.00  0.00     0.047 A 
ATOM     11  C   UNL     1      -2.744   6.950   3.028  1.00  0.00     0.020 A 
ENDROOT
BRANCH   1  12
ATOM     12  C   UNL     1      -2.967   1.297   2.991  1.00  0.00     0.025 A 
ATOM     13  C   UNL     1      -2.245   0.513   2.075  1.00  0.00     0.016 A 
ATOM     14  C   UNL     1      -2.369  -0.879   2.086  1.00  0.00     0.051 A 
ATOM     15  C   UNL     1      -3.202  -1.508   3.016  1.00  0.00     0.157 A 
ATOM     16  C   UNL     1      -3.786   0.661   3.937  1.00  0.00     0.062 A 
ATOM     17  C   UNL     1      -3.913  -0.735   3.949  1.00  0.00     0.158 A 
BRANCH  15  18
ATOM     18  O   UNL     1      -3.307  -2.899   3.001  1.00  0.00    -0.504 OA
ATOM     19  H   UNL     1      -4.040  -3.388   3.499  1.00  0.00     0.293 HD
ENDBRANCH  15  18
BRANCH  17  20
ATOM     20  O   UNL     1      -4.740  -1.356   4.884  1.00  0.00    -0.504 OA
ATOM     21  H   UNL     1      -4.659  -1.162   5.875  1.00  0.00     0.293 HD
ENDBRANCH  17  20
ENDBRANCH   1  12
BRANCH   2  22
ATOM     22  O   UNL     1      -0.500   2.654   3.708  1.00  0.00    -0.502 OA
ATOM     23  H   UNL     1      -0.199   2.502   4.664  1.00  0.00     0.293 HD
ENDBRANCH   2  22
BRANCH   9  24
ATOM     24  O   UNL     1      -6.187   7.625   1.875  1.00  0.00    -0.508 OA
ATOM     25  H   UNL     1      -6.212   8.638   1.869  1.00  0.00     0.293 HD
ENDBRANCH   9  24
TORSDOF 5
ENDMDL
MODEL 2
REMARK VINA RESULT:    -6.666     14.345     17.031
REMARK INTER + INTRA:          -8.014
REMARK INTER:                  -8.253
REMARK INTRA:                   0.239
REMARK UNBOUND:                -0.179
REMARK SMILES O=c1c(O)c(-c2ccc(O)c(O)c2)oc2cc(O)ccc12
REMARK SMILES IDX 5 1 3 2 2 3 1 4 21 5 15 6 14 7 16 8 17 9 19 10 20 11 6 12
REMARK SMILES IDX 7 13 8 14 9 15 13 16 11 17 10 18 12 20 4 22 18 24
REMARK H PARENT 10 19 12 21 4 23 18 25
REMARK Flexibility Score: inf
ROOT
ATOM      1  C   UNL     1      -4.439  -4.608  17.881  1.00  0.00     0.180 A 
ATOM      2  C   UNL     1      -5.804  -4.361  18.138  1.00  0.00     0.208 A 
ATOM      3  C   UNL     1      -6.627  -3.950  17.079  1.00  0.00     0.235 A 
ATOM      4  O   UNL     1      -7.853  -3.732  17.282  1.00  0.00    -0.285 OA
ATOM      5  C   UNL     1      -6.074  -3.778  15.801  1.00  0.00     0.069 A 
ATOM      6  C   UNL     1      -4.694  -4.025  15.630  1.00  0.00     0.142 A 
ATOM      7  O   UNL     1      -3.951  -4.420  16.657  1.00  0.00    -0.452 OA
ATOM      8  C   UNL     1      -4.103  -3.854  14.374  1.00  0.00     0.094 A 
ATOM      9  C   UNL     1      -4.877  -3.443  13.280  1.00  0.00     0.119 A 
ATOM     10  C   UNL     1      -6.244  -3.200  13.446  1.00  0.00     0.047 A 
ATOM     11  C   UNL     1      -6.844  -3.365  14.698  1.00  0.00     0.020 A 
ENDROOT
BRANCH   1  12
ATOM     12  C   UNL     1      -3.509  -5.062  18.941  1.00  0.00     0.025 A 
ATOM     13  C   UNL     1      -2.182  -4.601  18.997  1.00  0.00     0.016 A 
ATOM     14  C   UNL     1      -1.330  -5.024  20.021  1.00  0.00     0.051 A 
ATOM     15  C   UNL     1      -1.791  -5.900  21.008  1.00  0.00     0.157 A 
ATOM     16  C   UNL     1      -3.975  -5.924  19.946  1.00  0.00     0.062 A 
ATOM     17  C   UNL     1      -3.121  -6.351  20.974  1.00  0.00     0.158 A 
BRANCH  15  18
ATOM     18  O   UNL     1      -0.917  -6.307  22.016  1.00  0.00    -0.504 OA
ATOM     19  H   UNL     1      -0.379  -5.646  22.561  1.00  0.00     0.293 HD
ENDBRANCH  15  18
BRANCH  17  20
ATOM     20  O   UNL     1      -3.590  -7.218  21.960  1.00  0.00    -0.504 OA
ATOM     21  H   UNL     1      -3.676  -6.926  22.926  1.00  0.00     0.293 HD
ENDBRANCH  17  20
ENDBRANCH   1  12
BRANCH   2  22
ATOM     22  O   UNL     1      -6.315  -4.492  19.431  1.00  0.00    -0.502 OA
ATOM     23  H   UNL     1      -6.686  -3.705  19.951  1.00  0.00     0.293 HD
ENDBRANCH   2  22
BRANCH   9  24
ATOM     24  O   UNL     1      -4.296  -3.271  12.025  1.00  0.00    -0.508 OA
ATOM     25  H   UNL     1      -4.007  -4.063  11.463  1.00  0.00     0.293 HD
ENDBRANCH   9  24
TORSDOF 5
ENDMDL
MODEL 3
REMARK VINA RESULT:    -6.491     14.668     18.024
REMARK INTER + INTRA:          -7.808
REMARK INTER:                  -7.997
REMARK INTRA:                   0.190
REMARK UNBOUND:                -0.179
REMARK SMILES O=c1c(O)c(-c2ccc(O)c(O)c2)oc2cc(O)ccc12
REMARK SMILES IDX 5 1 3 2 2 3 1 4 21 5 15 6 14 7 16 8 17 9 19 10 20 11 6 12
REMARK SMILES IDX 7 13 8 14 9 15 13 16 11 17 10 18 12 20 4 22 18 24
REMARK H PARENT 10 19 12 21 4 23 18 25
REMARK Flexibility Score: inf
ROOT
ATOM      1  C   UNL     1      -5.434  -5.101  17.612  1.00  0.00     0.180 A 
ATOM      2  C   UNL     1      -6.507  -5.740  18.268  1.00  0.00     0.208 A 
ATOM      3  C   UNL     1      -6.289  -6.296  19.537  1.00  0.00     0.235 A 
ATOM      4  O   UNL     1      -7.235  -6.864  20.148  1.00  0.00    -0.285 OA
ATOM      5  C   UNL     1      -5.011  -6.220  20.113  1.00  0.00     0.069 A 
ATOM      6  C   UNL     1      -3.984  -5.583  19.383  1.00  0.00     0.142 A 
ATOM      7  O   UNL     1      -4.235  -5.063  18.188  1.00  0.00    -0.452 OA
ATOM      8  C   UNL     1      -2.695  -5.496  19.919  1.00  0.00     0.094 A 
ATOM      9  C   UNL     1      -2.418  -6.037  21.182  1.00  0.00     0.119 A 
ATOM     10  C   UNL     1      -3.434  -6.667  21.908  1.00  0.00     0.047 A 
ATOM     11  C   UNL     1      -4.725  -6.760  21.381  1.00  0.00     0.020 A 
ENDROOT
BRANCH   1  12
ATOM     12  C   UNL     1      -5.589  -4.474  16.279  1.00  0.00     0.025 A 
ATOM     13  C   UNL     1      -6.789  -3.847  15.900  1.00  0.00     0.016 A 
ATOM     14  C   UNL     1      -6.903  -3.241  14.645  1.00  0.00     0.051 A 
ATOM     15  C   UNL     1      -5.822  -3.240  13.759  1.00  0.00     0.157 A 
ATOM     16  C   UNL     1      -4.499  -4.453  15.395  1.00  0.00     0.062 A 
ATOM     17  C   UNL     1      -4.611  -3.846  14.135  1.00  0.00     0.158 A 
BRANCH  15  18
ATOM     18  O   UNL     1      -5.966  -2.630  12.513  1.00  0.00    -0.504 OA
ATOM     19  H   UNL     1      -6.722  -1.988  12.312  1.00  0.00     0.293 HD
ENDBRANCH  15  18
BRANCH  17  20
ATOM     20  O   UNL     1      -3.527  -3.842  13.259  1.00  0.00    -0.504 OA
ATOM     21  H   UNL     1      -2.592  -3.608  13.573  1.00  0.00     0.293 HD
ENDBRANCH  17  20
ENDBRANCH   1  12
BRANCH   2  22
ATOM     22  O   UNL     1      -7.755  -5.844  17.648  1.00  0.00    -0.502 OA
ATOM     23  H   UNL     1      -8.624  -5.724  18.155  1.00  0.00     0.293 HD
ENDBRANCH   2  22
BRANCH   9  24
ATOM     24  O   UNL     1      -1.137  -5.955  21.723  1.00  0.00    -0.508 OA
ATOM     25  H   UNL     1      -0.708  -6.744  22.192  1.00  0.00     0.293 HD
ENDBRANCH   9  24
TORSDOF 5
ENDMDL
MODEL 4
REMARK VINA RESULT:    -6.488     15.783     18.051
REMARK INTER + INTRA:          -7.804
REMARK INTER:                  -7.595
REMARK INTRA:                  -0.209
REMARK UNBOUND:                -0.179
REMARK SMILES O=c1c(O)c(-c2ccc(O)c(O)c2)oc2cc(O)ccc12
REMARK SMILES IDX 5 1 3 2 2 3 1 4 21 5 15 6 14 7 16 8 17 9 19 10 20 11 6 12
REMARK SMILES IDX 7 13 8 14 9 15 13 16 11 17 10 18 12 20 4 22 18 24
REMARK H PARENT 10 19 12 21 4 23 18 25
REMARK Flexibility Score: inf
ROOT
ATOM      1  C   UNL     1      -6.079  -4.063  17.989  1.00  0.00     0.180 A 
ATOM      2  C   UNL     1      -6.749  -3.577  16.846  1.00  0.00     0.208 A 
ATOM      3  C   UNL     1      -8.029  -4.071  16.552  1.00  0.00     0.235 A 
ATOM      4  O   UNL     1      -8.653  -3.645  15.541  1.00  0.00    -0.285 OA
ATOM      5  C   UNL     1      -8.602  -5.045  17.386  1.00  0.00     0.069 A 
ATOM      6  C   UNL     1      -7.858  -5.496  18.497  1.00  0.00     0.142 A 
ATOM      7  O   UNL     1      -6.653  -4.997  18.745  1.00  0.00    -0.452 OA
ATOM      8  C   UNL     1      -8.389  -6.473  19.346  1.00  0.00     0.094 A 
ATOM      9  C   UNL     1      -9.663  -7.004  19.098  1.00  0.00     0.119 A 
ATOM     10  C   UNL     1     -10.403  -6.558  17.999  1.00  0.00     0.047 A 
ATOM     11  C   UNL     1      -9.879  -5.584  17.144  1.00  0.00     0.020 A 
ENDROOT
BRANCH   1  12
ATOM     12  C   UNL     1      -4.735  -3.579  18.377  1.00  0.00     0.025 A 
ATOM     13  C   UNL     1      -4.543  -2.796  19.529  1.00  0.00     0.016 A 
ATOM     14  C   UNL     1      -3.261  -2.371  19.888  1.00  0.00     0.051 A 
ATOM     15  C   UNL     1      -2.154  -2.729  19.114  1.00  0.00     0.157 A 
ATOM     16  C   UNL     1      -3.618  -3.954  17.613  1.00  0.00     0.062 A 
ATOM     17  C   UNL     1      -2.331  -3.528  17.971  1.00  0.00     0.158 A 
BRANCH  15  18
ATOM     18  O   UNL     1      -0.887  -2.288  19.495  1.00  0.00    -0.504 OA
ATOM     19  H   UNL     1      -0.399  -1.555  18.997  1.00  0.00     0.293 HD
ENDBRANCH  15  18
BRANCH  17  20
ATOM     20  O   UNL     1      -1.231  -3.895  17.198  1.00  0.00    -0.504 OA
ATOM     21  H   UNL     1      -0.425  -4.353  17.606  1.00  0.00     0.293 HD
ENDBRANCH  17  20
ENDBRANCH   1  12
BRANCH   2  22
ATOM     22  O   UNL     1      -6.133  -2.645  16.008  1.00  0.00    -0.502 OA
ATOM     23  H   UNL     1      -6.123  -1.653  16.215  1.00  0.00     0.293 HD
ENDBRANCH   2  22
BRANCH   9  24
ATOM     24  O   UNL     1     -10.200  -7.977  19.939  1.00  0.00    -0.508 OA
ATOM     25  H   UNL     1     -10.200  -7.865  20.946  1.00  0.00     0.293 HD
ENDBRANCH   9  24
TORSDOF 5
ENDMDL
MODEL 5
REMARK VINA RESULT:    -6.482     14.417     17.574
REMARK INTER + INTRA:          -7.798
REMARK INTER:                  -7.885
REMARK INTRA:                   0.087
REMARK UNBOUND:                -0.179
REMARK SMILES O=c1c(O)c(-c2ccc(O)c(O)c2)oc2cc(O)ccc12
REMARK SMILES IDX 5 1 3 2 2 3 1 4 21 5 15 6 14 7 16 8 17 9 19 10 20 11 6 12
REMARK SMILES IDX 7 13 8 14 9 15 13 16 11 17 10 18 12 20 4 22 18 24
REMARK H PARENT 10 19 12 21 4 23 18 25
REMARK Flexibility Score: inf
ROOT
ATOM      1  C   UNL     1      -4.376  -4.619  17.421  1.00  0.00     0.180 A 
ATOM      2  C   UNL     1      -3.105  -4.299  17.941  1.00  0.00     0.208 A 
ATOM      3  C   UNL     1      -2.724  -4.842  19.177  1.00  0.00     0.235 A 
ATOM      4  O   UNL     1      -1.587  -4.578  19.659  1.00  0.00    -0.285 OA
ATOM      5  C   UNL     1      -3.618  -5.671  19.872  1.00  0.00     0.069 A 
ATOM      6  C   UNL     1      -4.881  -5.925  19.295  1.00  0.00     0.142 A 
ATOM      7  O   UNL     1      -5.199  -5.398  18.119  1.00  0.00    -0.452 OA
ATOM      8  C   UNL     1      -5.804  -6.738  19.961  1.00  0.00     0.094 A 
ATOM      9  C   UNL     1      -5.478  -7.305  21.202  1.00  0.00     0.119 A 
ATOM     10  C   UNL     1      -4.227  -7.056  21.774  1.00  0.00     0.047 A 
ATOM     11  C   UNL     1      -3.299  -6.244  21.117  1.00  0.00     0.020 A 
ENDROOT
BRANCH   1  12
ATOM     12  C   UNL     1      -4.845  -4.101  16.115  1.00  0.00     0.025 A 
ATOM     13  C   UNL     1      -6.116  -3.519  15.972  1.00  0.00     0.016 A 
ATOM     14  C   UNL     1      -6.527  -3.015  14.734  1.00  0.00     0.051 A 
ATOM     15  C   UNL     1      -5.674  -3.072  13.629  1.00  0.00     0.157 A 
ATOM     16  C   UNL     1      -3.982  -4.138  15.007  1.00  0.00     0.062 A 
ATOM     17  C   UNL     1      -4.393  -3.634  13.765  1.00  0.00     0.158 A 
BRANCH  15  18
ATOM     18  O   UNL     1      -6.112  -2.564  12.406  1.00  0.00    -0.504 OA
ATOM     19  H   UNL     1      -5.632  -2.762  11.538  1.00  0.00     0.293 HD
ENDBRANCH  15  18
BRANCH  17  20
ATOM     20  O   UNL     1      -3.534  -3.687  12.668  1.00  0.00    -0.504 OA
ATOM     21  H   UNL     1      -3.010  -4.525  12.445  1.00  0.00     0.293 HD
ENDBRANCH  17  20
ENDBRANCH   1  12
BRANCH   2  22
ATOM     22  O   UNL     1      -2.256  -3.431  17.250  1.00  0.00    -0.502 OA
ATOM     23  H   UNL     1      -1.288  -3.660  17.054  1.00  0.00     0.293 HD
ENDBRANCH   2  22
BRANCH   9  24
ATOM     24  O   UNL     1      -6.392  -8.116  21.872  1.00  0.00    -0.508 OA
ATOM     25  H   UNL     1      -6.940  -7.766  22.649  1.00  0.00     0.293 HD
ENDBRANCH   9  24
TORSDOF 5
ENDMDL
MODEL 6
REMARK VINA RESULT:    -6.456      2.820      6.964
REMARK INTER + INTRA:          -7.767
REMARK INTER:                  -7.450
REMARK INTRA:                  -0.317
REMARK UNBOUND:                -0.179
REMARK SMILES O=c1c(O)c(-c2ccc(O)c(O)c2)oc2cc(O)ccc12
REMARK SMILES IDX 5 1 3 2 2 3 1 4 21 5 15 6 14 7 16 8 17 9 19 10 20 11 6 12
REMARK SMILES IDX 7 13 8 14 9 15 13 16 11 17 10 18 12 20 4 22 18 24
REMARK H PARENT 10 19 12 21 4 23 18 25
REMARK Flexibility Score: inf
ROOT
ATOM      1  C   UNL     1      -1.151   2.993   3.560  1.00  0.00     0.180 A 
ATOM      2  C   UNL     1      -2.044   3.097   4.647  1.00  0.00     0.208 A 
ATOM      3  C   UNL     1      -2.824   1.982   4.989  1.00  0.00     0.235 A 
ATOM      4  O   UNL     1      -3.624   2.047   5.964  1.00  0.00    -0.285 OA
ATOM      5  C   UNL     1      -2.713   0.803   4.236  1.00  0.00     0.069 A 
ATOM      6  C   UNL     1      -1.812   0.787   3.149  1.00  0.00     0.142 A 
ATOM      7  O   UNL     1      -1.086   1.860   2.863  1.00  0.00    -0.452 OA
ATOM      8  C   UNL     1      -1.680  -0.366   2.367  1.00  0.00     0.094 A 
ATOM      9  C   UNL     1      -2.437  -1.508   2.661  1.00  0.00     0.119 A 
ATOM     10  C   UNL     1      -3.329  -1.495   3.738  1.00  0.00     0.047 A 
ATOM     11  C   UNL     1      -3.470  -0.348   4.524  1.00  0.00     0.020 A 
ENDROOT
BRANCH   1  12
ATOM     12  C   UNL     1      -0.280   4.118   3.148  1.00  0.00     0.025 A 
ATOM     13  C   UNL     1      -0.722   5.088   2.231  1.00  0.00     0.016 A 
ATOM     14  C   UNL     1       0.109   6.154   1.876  1.00  0.00     0.051 A 
ATOM     15  C   UNL     1       1.384   6.275   2.437  1.00  0.00     0.157 A 
ATOM     16  C   UNL     1       0.993   4.254   3.726  1.00  0.00     0.062 A 
ATOM     17  C   UNL     1       1.828   5.322   3.369  1.00  0.00     0.158 A 
BRANCH  15  18
ATOM     18  O   UNL     1       2.192   7.348   2.062  1.00  0.00    -0.504 OA
ATOM     19  H   UNL     1       3.128   7.216   1.701  1.00  0.00     0.293 HD
ENDBRANCH  15  18
BRANCH  17  20
ATOM     20  O   UNL     1       3.095   5.441   3.939  1.00  0.00    -0.504 OA
ATOM     21  H   UNL     1       3.930   5.151   3.443  1.00  0.00     0.293 HD
ENDBRANCH  17  20
ENDBRANCH   1  12
BRANCH   2  22
ATOM     22  O   UNL     1      -2.169   4.299   5.347  1.00  0.00    -0.502 OA
ATOM     23  H   UNL     1      -2.480   5.155   4.903  1.00  0.00     0.293 HD
ENDBRANCH   2  22
BRANCH   9  24
ATOM     24  O   UNL     1      -2.311  -2.661   1.888  1.00  0.00    -0.508 OA
ATOM     25  H   UNL     1      -2.889  -3.476   2.055  1.00  0.00     0.293 HD
ENDBRANCH   9  24
TORSDOF 5
ENDMDL
MODEL 7
REMARK VINA RESULT:    -6.362     15.142     18.095
REMARK INTER + INTRA:          -7.656
REMARK INTER:                  -7.444
REMARK INTRA:                  -0.212
REMARK UNBOUND:                -0.179
REMARK SMILES O=c1c(O)c(-c2ccc(O)c(O)c2)oc2cc(O)ccc12
REMARK SMILES IDX 5 1 3 2 2 3 1 4 21 5 15 6 14 7 16 8 17 9 19 10 20 11 6 12
REMARK SMILES IDX 7 13 8 14 9 15 13 16 11 17 10 18 12 20 4 22 18 24
REMARK H PARENT 10 19 12 21 4 23 18 25
REMARK Flexibility Score: inf
ROOT
ATOM      1  C   UNL     1      -6.145  -3.990  18.308  1.00  0.00     0.180 A 
ATOM      2  C   UNL     1      -5.910  -3.082  19.362  1.00  0.00     0.208 A 
ATOM      3  C   UNL     1      -6.500  -3.328  20.610  1.00  0.00     0.235 A 
ATOM      4  O   UNL     1      -6.297  -2.536  21.572  1.00  0.00    -0.285 OA
ATOM      5  C   UNL     1      -7.320  -4.455  20.776  1.00  0.00     0.069 A 
ATOM      6  C   UNL     1      -7.524  -5.304  19.667  1.00  0.00     0.142 A 
ATOM      7  O   UNL     1      -6.941  -5.039  18.504  1.00  0.00    -0.452 OA
ATOM      8  C   UNL     1      -8.344  -6.431  19.789  1.00  0.00     0.094 A 
ATOM      9  C   UNL     1      -8.962  -6.725  21.013  1.00  0.00     0.119 A 
ATOM     10  C   UNL     1      -8.760  -5.887  22.114  1.00  0.00     0.047 A 
ATOM     11  C   UNL     1      -7.945  -4.757  22.001  1.00  0.00     0.020 A 
ENDROOT
BRANCH   1  12
ATOM     12  C   UNL     1      -5.544  -3.810  16.966  1.00  0.00     0.025 A 
ATOM     13  C   UNL     1      -4.159  -3.934  16.762  1.00  0.00     0.016 A 
ATOM     14  C   UNL     1      -3.618  -3.784  15.482  1.00  0.00     0.051 A 
ATOM     15  C   UNL     1      -4.449  -3.522  14.389  1.00  0.00     0.157 A 
ATOM     16  C   UNL     1      -6.378  -3.568  15.863  1.00  0.00     0.062 A 
ATOM     17  C   UNL     1      -5.837  -3.416  14.578  1.00  0.00     0.158 A 
BRANCH  15  18
ATOM     18  O   UNL     1      -3.880  -3.374  13.124  1.00  0.00    -0.504 OA
ATOM     19  H   UNL     1      -4.325  -3.732  12.289  1.00  0.00     0.293 HD
ENDBRANCH  15  18
BRANCH  17  20
ATOM     20  O   UNL     1      -6.673  -3.162  13.491  1.00  0.00    -0.504 OA
ATOM     21  H   UNL     1      -7.000  -2.227  13.281  1.00  0.00     0.293 HD
ENDBRANCH  17  20
ENDBRANCH   1  12
BRANCH   2  22
ATOM     22  O   UNL     1      -5.130  -1.943  19.153  1.00  0.00    -0.502 OA
ATOM     23  H   UNL     1      -5.302  -1.300  18.389  1.00  0.00     0.293 HD
ENDBRANCH   2  22
BRANCH   9  24
ATOM     24  O   UNL     1      -9.779  -7.846  21.143  1.00  0.00    -0.508 OA
ATOM     25  H   UNL     1      -9.937  -8.479  20.368  1.00  0.00     0.293 HD
ENDBRANCH   9  24
TORSDOF 5
ENDMDL
MODEL 8
REMARK VINA RESULT:    -6.305      1.892      3.446
REMARK INTER + INTRA:          -7.590
REMARK INTER:                  -8.060
REMARK INTRA:                   0.470
REMARK UNBOUND:                -0.179
REMARK SMILES O=c1c(O)c(-c2ccc(O)c(O)c2)oc2cc(O)ccc12
REMARK SMILES IDX 5 1 3 2 2 3 1 4 21 5 15 6 14 7 16 8 17 9 19 10 20 11 6 12
REMARK SMILES IDX 7 13 8 14 9 15 13 16 11 17 10 18 12 20 4 22 18 24
REMARK H PARENT 10 19 12 21 4 23 18 25
REMARK Flexibility Score: inf
ROOT
ATOM      1  C   UNL     1      -2.770   1.647   3.249  1.00  0.00     0.180 A 
ATOM      2  C   UNL     1      -3.941   2.330   3.639  1.00  0.00     0.208 A 
ATOM      3  C   UNL     1      -3.891   3.723   3.792  1.00  0.00     0.235 A 
ATOM      4  O   UNL     1      -4.928   4.358   4.130  1.00  0.00    -0.285 OA
ATOM      5  C   UNL     1      -2.681   4.400   3.573  1.00  0.00     0.069 A 
ATOM      6  C   UNL     1      -1.548   3.642   3.207  1.00  0.00     0.142 A 
ATOM      7  O   UNL     1      -1.639   2.325   3.065  1.00  0.00    -0.452 OA
ATOM      8  C   UNL     1      -0.321   4.277   2.990  1.00  0.00     0.094 A 
ATOM      9  C   UNL     1      -0.212   5.668   3.131  1.00  0.00     0.119 A 
ATOM     10  C   UNL     1      -1.334   6.421   3.492  1.00  0.00     0.047 A 
ATOM     11  C   UNL     1      -2.564   5.795   3.713  1.00  0.00     0.020 A 
ENDROOT
BRANCH   1  12
ATOM     12  C   UNL     1      -2.745   0.179   3.049  1.00  0.00     0.025 A 
ATOM     13  C   UNL     1      -3.885  -0.610   3.280  1.00  0.00     0.016 A 
ATOM     14  C   UNL     1      -3.844  -1.990   3.061  1.00  0.00     0.051 A 
ATOM     15  C   UNL     1      -2.674  -2.598   2.598  1.00  0.00     0.157 A 
ATOM     16  C   UNL     1      -1.578  -0.432   2.564  1.00  0.00     0.062 A 
ATOM     17  C   UNL     1      -1.535  -1.816   2.345  1.00  0.00     0.158 A 
BRANCH  15  18
ATOM     18  O   UNL     1      -2.662  -3.977   2.391  1.00  0.00    -0.504 OA
ATOM     19  H   UNL     1      -1.845  -4.463   2.045  1.00  0.00     0.293 HD
ENDBRANCH  15  18
BRANCH  17  20
ATOM     20  O   UNL     1      -0.367  -2.415   1.875  1.00  0.00    -0.504 OA
ATOM     21  H   UNL     1       0.352  -2.746   2.508  1.00  0.00     0.293 HD
ENDBRANCH  17  20
ENDBRANCH   1  12
BRANCH   2  22
ATOM     22  O   UNL     1      -5.118   1.624   3.899  1.00  0.00    -0.502 OA
ATOM     23  H   UNL     1      -5.193   0.624   3.756  1.00  0.00     0.293 HD
ENDBRANCH   2  22
BRANCH   9  24
ATOM     24  O   UNL     1       1.006   6.309   2.916  1.00  0.00    -0.508 OA
ATOM     25  H   UNL     1       1.318   7.066   3.513  1.00  0.00     0.293 HD
ENDBRANCH   9  24
TORSDOF 5
ENDMDL
MODEL 9
REMARK VINA RESULT:    -5.939     16.646     18.546
REMARK INTER + INTRA:          -7.160
REMARK INTER:                  -6.984
REMARK INTRA:                  -0.175
REMARK UNBOUND:                -0.179
REMARK SMILES O=c1c(O)c(-c2ccc(O)c(O)c2)oc2cc(O)ccc12
REMARK SMILES IDX 5 1 3 2 2 3 1 4 21 5 15 6 14 7 16 8 17 9 19 10 20 11 6 12
REMARK SMILES IDX 7 13 8 14 9 15 13 16 11 17 10 18 12 20 4 22 18 24
REMARK H PARENT 10 19 12 21 4 23 18 25
REMARK Flexibility Score: inf
ROOT
ATOM      1  C   UNL     1      -7.231  -4.843  19.150  1.00  0.00     0.180 A 
ATOM      2  C   UNL     1      -7.261  -3.880  20.181  1.00  0.00     0.208 A 
ATOM      3  C   UNL     1      -6.123  -3.090  20.400  1.00  0.00     0.235 A 
ATOM      4  O   UNL     1      -6.128  -2.215  21.310  1.00  0.00    -0.285 OA
ATOM      5  C   UNL     1      -4.982  -3.287  19.607  1.00  0.00     0.069 A 
ATOM      6  C   UNL     1      -5.024  -4.286  18.611  1.00  0.00     0.142 A 
ATOM      7  O   UNL     1      -6.124  -5.008  18.430  1.00  0.00    -0.452 OA
ATOM      8  C   UNL     1      -3.904  -4.521  17.806  1.00  0.00     0.094 A 
ATOM      9  C   UNL     1      -2.737  -3.763  17.983  1.00  0.00     0.119 A 
ATOM     10  C   UNL     1      -2.694  -2.771  18.968  1.00  0.00     0.047 A 
ATOM     11  C   UNL     1      -3.808  -2.531  19.778  1.00  0.00     0.020 A 
ENDROOT
BRANCH   1  12
ATOM     12  C   UNL     1      -8.398  -5.704  18.844  1.00  0.00     0.025 A 
ATOM     13  C   UNL     1      -8.859  -6.664  19.761  1.00  0.00     0.016 A 
ATOM     14  C   UNL     1      -9.977  -7.448  19.460  1.00  0.00     0.051 A 
ATOM     15  C   UNL     1     -10.656  -7.276  18.250  1.00  0.00     0.157 A 
ATOM     16  C   UNL     1      -9.095  -5.520  17.639  1.00  0.00     0.062 A 
ATOM     17  C   UNL     1     -10.215  -6.305  17.335  1.00  0.00     0.158 A 
BRANCH  15  18
ATOM     18  O   UNL     1     -11.766  -8.074  17.976  1.00  0.00    -0.504 OA
ATOM     19  H   UNL     1     -12.404  -8.377  18.701  1.00  0.00     0.293 HD
ENDBRANCH  15  18
BRANCH  17  20
ATOM     20  O   UNL     1     -10.893  -6.124  16.130  1.00  0.00    -0.504 OA
ATOM     21  H   UNL     1     -11.148  -6.907  15.541  1.00  0.00     0.293 HD
ENDBRANCH  17  20
ENDBRANCH   1  12
BRANCH   2  22
ATOM     22  O   UNL     1      -8.394  -3.741  20.987  1.00  0.00    -0.502 OA
ATOM     23  H   UNL     1      -8.655  -2.857  21.407  1.00  0.00     0.293 HD
ENDBRANCH   2  22
BRANCH   9  24
ATOM     24  O   UNL     1      -1.617  -3.989  17.186  1.00  0.00    -0.508 OA
ATOM     25  H   UNL     1      -0.806  -3.384  17.230  1.00  0.00     0.293 HD
ENDBRANCH   9  24
TORSDOF 5
ENDMDL
