MODEL 1
REMARK VINA RESULT:    -5.432      0.000      0.000
REMARK INTER + INTRA:          -6.565
REMARK INTER:                  -6.225
REMARK INTRA:                  -0.340
REMARK UNBOUND:                -0.340
REMARK SMILES COc1ccc(C(C)=O)c(O)c1
REMARK SMILES IDX 6 1 10 2 12 3 3 4 4 5 5 6 7 7 8 8 9 9 11 10 2 12 1 13
REMARK H PARENT 11 11
REMARK Flexibility Score: inf
ROOT
ATOM      1  C   UNL     1      18.437 -11.022  67.859  1.00  0.00     0.059 A 
ATOM      2  C   UNL     1      18.377  -9.911  66.986  1.00  0.00     0.130 A 
ATOM      3  C   UNL     1      17.443  -9.895  65.938  1.00  0.00     0.093 A 
ATOM      4  C   UNL     1      16.555 -10.957  65.751  1.00  0.00     0.122 A 
ATOM      5  C   UNL     1      16.602 -12.053  66.628  1.00  0.00     0.047 A 
ATOM      6  C   UNL     1      17.530 -12.080  67.670  1.00  0.00     0.019 A 
ENDROOT
BRANCH   1   7
ATOM      7  C   UNL     1      19.416 -11.108  68.977  1.00  0.00     0.163 C 
ATOM      8  C   UNL     1      20.310 -12.294  69.175  1.00  0.00     0.093 C 
ATOM      9  O   UNL     1      19.505 -10.151  69.794  1.00  0.00    -0.294 OA
ENDBRANCH   1   7
BRANCH   2  10
ATOM     10  O   UNL     1      19.218  -8.814  67.164  1.00  0.00    -0.507 OA
ATOM     11  H   UNL     1      19.945  -8.807  67.870  1.00  0.00     0.293 HD
ENDBRANCH   2  10
BRANCH   4  12
ATOM     12  O   UNL     1      15.643 -10.883  64.686  1.00  0.00    -0.497 OA
ATOM     13  C   UNL     1      14.360 -11.501  64.683  1.00  0.00     0.278 C 
ENDBRANCH   4  12
TORSDOF 3
ENDMDL
MODEL 2
REMARK VINA RESULT:    -5.208      1.734      1.991
REMARK INTER + INTRA:          -6.309
REMARK INTER:                  -6.143
REMARK INTRA:                  -0.165
REMARK UNBOUND:                -0.340
REMARK SMILES COc1ccc(C(C)=O)c(O)c1
REMARK SMILES IDX 6 1 10 2 12 3 3 4 4 5 5 6 7 7 8 8 9 9 11 10 2 12 1 13
REMARK H PARENT 11 11
REMARK Flexibility Score: inf
ROOT
ATOM      1  C   UNL     1      19.026 -10.261  67.366  1.00  0.00     0.059 A 
ATOM      2  C   UNL     1      19.938  -9.934  66.335  1.00  0.00     0.130 A 
ATOM      3  C   UNL     1      19.464  -9.664  65.042  1.00  0.00     0.093 A 
ATOM      4  C   UNL     1      18.097  -9.698  64.756  1.00  0.00     0.122 A 
ATOM      5  C   UNL     1      17.189 -10.006  65.782  1.00  0.00     0.047 A 
ATOM      6  C   UNL     1      17.651 -10.280  67.071  1.00  0.00     0.019 A 
ENDROOT
BRANCH   1   7
ATOM      7  C   UNL     1      19.466 -10.575  68.752  1.00  0.00     0.163 C 
ATOM      8  C   UNL     1      19.987 -11.923  69.146  1.00  0.00     0.093 C 
ATOM      9  O   UNL     1      19.403  -9.678  69.637  1.00  0.00    -0.294 OA
ENDBRANCH   1   7
BRANCH   2  10
ATOM     10  O   UNL     1      21.306  -9.850  66.589  1.00  0.00    -0.507 OA
ATOM     11  H   UNL     1      21.720 -10.251  67.422  1.00  0.00     0.293 HD
ENDBRANCH   2  10
BRANCH   4  12
ATOM     12  O   UNL     1      17.683  -9.419  63.444  1.00  0.00    -0.497 OA
ATOM     13  C   UNL     1      16.449  -9.853  62.880  1.00  0.00     0.278 C 
ENDBRANCH   4  12
TORSDOF 3
ENDMDL
MODEL 3
REMARK VINA RESULT:    -5.106      1.671      4.997
REMARK INTER + INTRA:          -6.192
REMARK INTER:                  -5.850
REMARK INTRA:                  -0.342
REMARK UNBOUND:                -0.340
REMARK SMILES COc1ccc(C(C)=O)c(O)c1
REMARK SMILES IDX 6 1 10 2 12 3 3 4 4 5 5 6 7 7 8 8 9 9 11 10 2 12 1 13
REMARK H PARENT 11 11
REMARK Flexibility Score: inf
ROOT
ATOM      1  C   UNL     1      17.455 -11.047  66.549  1.00  0.00     0.059 A 
ATOM      2  C   UNL     1      17.886 -12.363  66.834  1.00  0.00     0.130 A 
ATOM      3  C   UNL     1      18.806 -12.588  67.870  1.00  0.00     0.093 A 
ATOM      4  C   UNL     1      19.295 -11.530  68.640  1.00  0.00     0.122 A 
ATOM      5  C   UNL     1      18.854 -10.224  68.369  1.00  0.00     0.047 A 
ATOM      6  C   UNL     1      17.942  -9.989  67.338  1.00  0.00     0.019 A 
ENDROOT
BRANCH   1   7
ATOM      7  C   UNL     1      16.496 -10.740  65.453  1.00  0.00     0.163 C 
ATOM      8  C   UNL     1      16.726  -9.636  64.466  1.00  0.00     0.093 C 
ATOM      9  O   UNL     1      15.446 -11.430  65.340  1.00  0.00    -0.294 OA
ENDBRANCH   1   7
BRANCH   2  10
ATOM     10  O   UNL     1      17.392 -13.451  66.116  1.00  0.00    -0.507 OA
ATOM     11  H   UNL     1      16.442 -13.471  65.764  1.00  0.00     0.293 HD
ENDBRANCH   2  10
BRANCH   4  12
ATOM     12  O   UNL     1      20.212 -11.817  69.663  1.00  0.00    -0.497 OA
ATOM     13  C   UNL     1      21.048 -12.970  69.692  1.00  0.00     0.278 C 
ENDBRANCH   4  12
TORSDOF 3
ENDMDL
MODEL 4
REMARK VINA RESULT:    -5.029      2.190      5.110
REMARK INTER + INTRA:          -6.103
REMARK INTER:                  -5.808
REMARK INTRA:                  -0.296
REMARK UNBOUND:                -0.340
REMARK SMILES COc1ccc(C(C)=O)c(O)c1
REMARK SMILES IDX 6 1 10 2 12 3 3 4 4 5 5 6 7 7 8 8 9 9 11 10 2 12 1 13
REMARK H PARENT 11 11
REMARK Flexibility Score: inf
ROOT
ATOM      1  C   UNL     1      17.288 -10.607  64.150  1.00  0.00     0.059 A 
ATOM      2  C   UNL     1      18.604 -10.102  64.261  1.00  0.00     0.130 A 
ATOM      3  C   UNL     1      19.099  -9.711  65.515  1.00  0.00     0.093 A 
ATOM      4  C   UNL     1      18.315  -9.826  66.665  1.00  0.00     0.122 A 
ATOM      5  C   UNL     1      17.014 -10.344  66.559  1.00  0.00     0.047 A 
ATOM      6  C   UNL     1      16.510 -10.732  65.316  1.00  0.00     0.019 A 
ENDROOT
BRANCH   1   7
ATOM      7  C   UNL     1      16.698 -11.022  62.848  1.00  0.00     0.163 C 
ATOM      8  C   UNL     1      15.566 -10.281  62.204  1.00  0.00     0.093 C 
ATOM      9  O   UNL     1      17.161 -12.034  62.255  1.00  0.00    -0.294 OA
ENDBRANCH   1   7
BRANCH   2  10
ATOM     10  O   UNL     1      19.432 -10.009  63.144  1.00  0.00    -0.507 OA
ATOM     11  H   UNL     1      19.751 -10.832  62.646  1.00  0.00     0.293 HD
ENDBRANCH   2  10
BRANCH   4  12
ATOM     12  O   UNL     1      18.866  -9.419  67.890  1.00  0.00    -0.497 OA
ATOM     13  C   UNL     1      19.425 -10.306  68.854  1.00  0.00     0.278 C 
ENDBRANCH   4  12
TORSDOF 3
ENDMDL
MODEL 5
REMARK VINA RESULT:    -4.995      1.221      2.014
REMARK INTER + INTRA:          -6.065
REMARK INTER:                  -5.966
REMARK INTRA:                  -0.099
REMARK UNBOUND:                -0.340
REMARK SMILES COc1ccc(C(C)=O)c(O)c1
REMARK SMILES IDX 6 1 10 2 12 3 3 4 4 5 5 6 7 7 8 8 9 9 11 10 2 12 1 13
REMARK H PARENT 11 11
REMARK Flexibility Score: inf
ROOT
ATOM      1  C   UNL     1      18.387 -11.190  67.718  1.00  0.00     0.059 A 
ATOM      2  C   UNL     1      17.263 -12.033  67.552  1.00  0.00     0.130 A 
ATOM      3  C   UNL     1      16.370 -11.806  66.494  1.00  0.00     0.093 A 
ATOM      4  C   UNL     1      16.581 -10.766  65.585  1.00  0.00     0.122 A 
ATOM      5  C   UNL     1      17.705  -9.940  65.739  1.00  0.00     0.047 A 
ATOM      6  C   UNL     1      18.598 -10.154  66.791  1.00  0.00     0.019 A 
ENDROOT
BRANCH   1   7
ATOM      7  C   UNL     1      19.360 -11.366  68.830  1.00  0.00     0.163 C 
ATOM      8  C   UNL     1      20.294 -12.536  68.905  1.00  0.00     0.093 C 
ATOM      9  O   UNL     1      19.410 -10.504  69.749  1.00  0.00    -0.294 OA
ENDBRANCH   1   7
BRANCH   2  10
ATOM     10  O   UNL     1      17.039 -13.106  68.413  1.00  0.00    -0.507 OA
ATOM     11  H   UNL     1      16.961 -12.979  69.415  1.00  0.00     0.293 HD
ENDBRANCH   2  10
BRANCH   4  12
ATOM     12  O   UNL     1      15.653 -10.590  64.547  1.00  0.00    -0.497 OA
ATOM     13  C   UNL     1      14.450 -11.340  64.409  1.00  0.00     0.278 C 
ENDBRANCH   4  12
TORSDOF 3
ENDMDL
MODEL 6
REMARK VINA RESULT:    -4.725      1.537      4.733
REMARK INTER + INTRA:          -5.755
REMARK INTER:                  -5.414
REMARK INTRA:                  -0.341
REMARK UNBOUND:                -0.340
REMARK SMILES COc1ccc(C(C)=O)c(O)c1
REMARK SMILES IDX 6 1 10 2 12 3 3 4 4 5 5 6 7 7 8 8 9 9 11 10 2 12 1 13
REMARK H PARENT 11 11
REMARK Flexibility Score: inf
ROOT
ATOM      1  C   UNL     1      17.633 -11.897  66.421  1.00  0.00     0.059 A 
ATOM      2  C   UNL     1      17.932 -10.764  67.213  1.00  0.00     0.130 A 
ATOM      3  C   UNL     1      18.839 -10.876  68.278  1.00  0.00     0.093 A 
ATOM      4  C   UNL     1      19.469 -12.090  68.562  1.00  0.00     0.122 A 
ATOM      5  C   UNL     1      19.186 -13.212  67.766  1.00  0.00     0.047 A 
ATOM      6  C   UNL     1      18.281 -13.112  66.707  1.00  0.00     0.019 A 
ENDROOT
BRANCH   1   7
ATOM      7  C   UNL     1      16.667 -11.849  65.290  1.00  0.00     0.163 C 
ATOM      8  C   UNL     1      16.998 -12.371  63.925  1.00  0.00     0.093 C 
ATOM      9  O   UNL     1      15.522 -11.352  65.477  1.00  0.00    -0.294 OA
ENDBRANCH   1   7
BRANCH   2  10
ATOM     10  O   UNL     1      17.356  -9.525  66.938  1.00  0.00    -0.507 OA
ATOM     11  H   UNL     1      17.861  -8.801  66.441  1.00  0.00     0.293 HD
ENDBRANCH   2  10
BRANCH   4  12
ATOM     12  O   UNL     1      20.367 -12.139  69.639  1.00  0.00    -0.497 OA
ATOM     13  C   UNL     1      21.301 -13.192  69.859  1.00  0.00     0.278 C 
ENDBRANCH   4  12
TORSDOF 3
ENDMDL
MODEL 7
REMARK VINA RESULT:    -4.699      2.386      5.625
REMARK INTER + INTRA:          -5.726
REMARK INTER:                  -5.443
REMARK INTRA:                  -0.283
REMARK UNBOUND:                -0.340
REMARK SMILES COc1ccc(C(C)=O)c(O)c1
REMARK SMILES IDX 6 1 10 2 12 3 3 4 4 5 5 6 7 7 8 8 9 9 11 10 2 12 1 13
REMARK H PARENT 11 11
REMARK Flexibility Score: inf
ROOT
ATOM      1  C   UNL     1      17.182 -11.419  63.431  1.00  0.00     0.059 A 
ATOM      2  C   UNL     1      17.350 -12.094  64.663  1.00  0.00     0.130 A 
ATOM      3  C   UNL     1      18.059 -11.480  65.706  1.00  0.00     0.093 A 
ATOM      4  C   UNL     1      18.593 -10.197  65.555  1.00  0.00     0.122 A 
ATOM      5  C   UNL     1      18.412  -9.519  64.339  1.00  0.00     0.047 A 
ATOM      6  C   UNL     1      17.712 -10.123  63.293  1.00  0.00     0.019 A 
ENDROOT
BRANCH   1   7
ATOM      7  C   UNL     1      16.457 -12.023  62.281  1.00  0.00     0.163 C 
ATOM      8  C   UNL     1      15.134 -11.507  61.802  1.00  0.00     0.093 C 
ATOM      9  O   UNL     1      16.966 -13.007  61.678  1.00  0.00    -0.294 OA
ENDBRANCH   1   7
BRANCH   2  10
ATOM     10  O   UNL     1      16.798 -13.358  64.868  1.00  0.00    -0.507 OA
ATOM     11  H   UNL     1      17.275 -14.202  64.574  1.00  0.00     0.293 HD
ENDBRANCH   2  10
BRANCH   4  12
ATOM     12  O   UNL     1      19.291  -9.635  66.635  1.00  0.00    -0.497 OA
ATOM     13  C   UNL     1      18.845  -9.672  67.987  1.00  0.00     0.278 C 
ENDBRANCH   4  12
TORSDOF 3
ENDMDL
MODEL 8
REMARK VINA RESULT:    -4.613      2.994      5.086
REMARK INTER + INTRA:          -5.627
REMARK INTER:                  -5.291
REMARK INTRA:                  -0.336
REMARK UNBOUND:                -0.340
REMARK SMILES COc1ccc(C(C)=O)c(O)c1
REMARK SMILES IDX 6 1 10 2 12 3 3 4 4 5 5 6 7 7 8 8 9 9 11 10 2 12 1 13
REMARK H PARENT 11 11
REMARK Flexibility Score: inf
ROOT
ATOM      1  C   UNL     1      20.115 -11.124  67.935  1.00  0.00     0.059 A 
ATOM      2  C   UNL     1      20.628 -12.234  68.646  1.00  0.00     0.130 A 
ATOM      3  C   UNL     1      21.504 -13.127  68.010  1.00  0.00     0.093 A 
ATOM      4  C   UNL     1      21.893 -12.930  66.682  1.00  0.00     0.122 A 
ATOM      5  C   UNL     1      21.398 -11.819  65.981  1.00  0.00     0.047 A 
ATOM      6  C   UNL     1      20.522 -10.927  66.603  1.00  0.00     0.019 A 
ENDROOT
BRANCH   1   7
ATOM      7  C   UNL     1      19.169 -10.151  68.546  1.00  0.00     0.163 C 
ATOM      8  C   UNL     1      17.947  -9.659  67.833  1.00  0.00     0.093 C 
ATOM      9  O   UNL     1      19.396  -9.718  69.709  1.00  0.00    -0.294 OA
ENDBRANCH   1   7
BRANCH   2  10
ATOM     10  O   UNL     1      20.297 -12.443  69.983  1.00  0.00    -0.507 OA
ATOM     11  H   UNL     1      20.654 -13.235  70.504  1.00  0.00     0.293 HD
ENDBRANCH   2  10
BRANCH   4  12
ATOM     12  O   UNL     1      22.771 -13.857  66.101  1.00  0.00    -0.497 OA
ATOM     13  C   UNL     1      23.896 -13.506  65.300  1.00  0.00     0.278 C 
ENDBRANCH   4  12
TORSDOF 3
ENDMDL
MODEL 9
REMARK VINA RESULT:    -4.533      1.699      5.423
REMARK INTER + INTRA:          -5.535
REMARK INTER:                  -5.204
REMARK INTRA:                  -0.331
REMARK UNBOUND:                -0.340
REMARK SMILES COc1ccc(C(C)=O)c(O)c1
REMARK SMILES IDX 6 1 10 2 12 3 3 4 4 5 5 6 7 7 8 8 9 9 11 10 2 12 1 13
REMARK H PARENT 11 11
REMARK Flexibility Score: inf
ROOT
ATOM      1  C   UNL     1      15.769 -10.701  64.668  1.00  0.00     0.059 A 
ATOM      2  C   UNL     1      15.589 -11.552  65.783  1.00  0.00     0.130 A 
ATOM      3  C   UNL     1      16.603 -11.667  66.746  1.00  0.00     0.093 A 
ATOM      4  C   UNL     1      17.790 -10.939  66.631  1.00  0.00     0.122 A 
ATOM      5  C   UNL     1      17.963 -10.080  65.534  1.00  0.00     0.047 A 
ATOM      6  C   UNL     1      16.962  -9.962  64.568  1.00  0.00     0.019 A 
ENDROOT
BRANCH   1   7
ATOM      7  C   UNL     1      14.740 -10.548  63.605  1.00  0.00     0.163 C 
ATOM      8  C   UNL     1      15.085 -10.534  62.146  1.00  0.00     0.093 C 
ATOM      9  O   UNL     1      13.528 -10.426  63.931  1.00  0.00    -0.294 OA
ENDBRANCH   1   7
BRANCH   2  10
ATOM     10  O   UNL     1      14.404 -12.264  65.956  1.00  0.00    -0.507 OA
ATOM     11  H   UNL     1      14.321 -13.006  66.642  1.00  0.00     0.293 HD
ENDBRANCH   2  10
BRANCH   4  12
ATOM     12  O   UNL     1      18.767 -11.096  67.626  1.00  0.00    -0.497 OA
ATOM     13  C   UNL     1      19.017 -10.151  68.663  1.00  0.00     0.278 C 
ENDBRANCH   4  12
TORSDOF 3
ENDMDL
