MODEL 1
REMARK VINA RESULT:    -6.100      0.000      0.000
REMARK INTER + INTRA:          -6.456
REMARK INTER:                  -6.456
REMARK INTRA:                   0.000
REMARK UNBOUND:                 0.000
REMARK SMILES O=c1ccc2cc(O)c(O)cc2o1
REMARK SMILES IDX 4 1 3 2 2 3 1 4 13 5 12 6 11 7 9 8 7 9 6 10 5 11 8 12 10 14
REMARK H PARENT 8 13 10 15
REMARK Flexibility Score: inf
ROOT
ATOM      1  C   UNL     1     -34.370  14.651  53.313  1.00  0.00     0.019 A 
ATOM      2  C   UNL     1     -33.049  14.369  53.661  1.00  0.00     0.094 A 
ATOM      3  C   UNL     1     -32.021  14.778  52.805  1.00  0.00     0.336 A 
ATOM      4  O   UNL     1     -30.823  14.533  53.103  1.00  0.00    -0.246 OA
ATOM      5  O   UNL     1     -32.301  15.426  51.677  1.00  0.00    -0.423 OA
ATOM      6  C   UNL     1     -33.546  15.714  51.307  1.00  0.00     0.142 A 
ATOM      7  C   UNL     1     -33.779  16.398  50.111  1.00  0.00     0.098 A 
ATOM      8  C   UNL     1     -35.090  16.706  49.715  1.00  0.00     0.161 A 
ATOM      9  C   UNL     1     -36.175  16.326  50.526  1.00  0.00     0.158 A 
ATOM     10  C   UNL     1     -35.943  15.640  51.726  1.00  0.00     0.062 A 
ATOM     11  C   UNL     1     -34.635  15.334  52.121  1.00  0.00     0.022 A 
ENDROOT
BRANCH   9  12
ATOM     12  O   UNL     1     -37.487  16.618  50.157  1.00  0.00    -0.504 OA
ATOM     13  H   UNL     1     -38.246  15.964  50.305  1.00  0.00     0.293 HD
ENDBRANCH   9  12
BRANCH   8  14
ATOM     14  O   UNL     1     -35.318  17.387  48.521  1.00  0.00    -0.504 OA
ATOM     15  H   UNL     1     -35.859  16.974  47.769  1.00  0.00     0.293 HD
ENDBRANCH   8  14
TORSDOF 2
ENDMDL
MODEL 2
REMARK VINA RESULT:    -6.080      1.110      2.250
REMARK INTER + INTRA:          -6.435
REMARK INTER:                  -6.435
REMARK INTRA:                   0.000
REMARK UNBOUND:                 0.000
REMARK SMILES O=c1ccc2cc(O)c(O)cc2o1
REMARK SMILES IDX 4 1 3 2 2 3 1 4 13 5 12 6 11 7 9 8 7 9 6 10 5 11 8 12 10 14
REMARK H PARENT 8 13 10 15
REMARK Flexibility Score: inf
ROOT
ATOM      1  C   UNL     1     -32.191  15.627  51.659  1.00  0.00     0.019 A 
ATOM      2  C   UNL     1     -31.970  14.908  52.834  1.00  0.00     0.094 A 
ATOM      3  C   UNL     1     -33.071  14.436  53.557  1.00  0.00     0.336 A 
ATOM      4  O   UNL     1     -32.891  13.785  54.619  1.00  0.00    -0.246 OA
ATOM      5  O   UNL     1     -34.308  14.671  53.129  1.00  0.00    -0.423 OA
ATOM      6  C   UNL     1     -34.564  15.353  52.015  1.00  0.00     0.142 A 
ATOM      7  C   UNL     1     -35.885  15.568  51.615  1.00  0.00     0.098 A 
ATOM      8  C   UNL     1     -36.161  16.286  50.440  1.00  0.00     0.161 A 
ATOM      9  C   UNL     1     -35.103  16.790  49.662  1.00  0.00     0.158 A 
ATOM     10  C   UNL     1     -33.778  16.576  50.062  1.00  0.00     0.062 A 
ATOM     11  C   UNL     1     -33.503  15.859  51.233  1.00  0.00     0.022 A 
ENDROOT
BRANCH   9  12
ATOM     12  O   UNL     1     -35.349  17.507  48.492  1.00  0.00    -0.504 OA
ATOM     13  H   UNL     1     -36.287  17.654  48.139  1.00  0.00     0.293 HD
ENDBRANCH   9  12
BRANCH   8  14
ATOM     14  O   UNL     1     -37.481  16.499  50.045  1.00  0.00    -0.504 OA
ATOM     15  H   UNL     1     -38.249  15.983  50.460  1.00  0.00     0.293 HD
ENDBRANCH   8  14
TORSDOF 2
ENDMDL
MODEL 3
REMARK VINA RESULT:    -5.692      7.244      8.367
REMARK INTER + INTRA:          -6.025
REMARK INTER:                  -6.025
REMARK INTRA:                   0.000
REMARK UNBOUND:                 0.000
REMARK SMILES O=c1ccc2cc(O)c(O)cc2o1
REMARK SMILES IDX 4 1 3 2 2 3 1 4 13 5 12 6 11 7 9 8 7 9 6 10 5 11 8 12 10 14
REMARK H PARENT 8 13 10 15
REMARK Flexibility Score: inf
ROOT
ATOM      1  C   UNL     1     -25.564  13.428  54.683  1.00  0.00     0.019 A 
ATOM      2  C   UNL     1     -25.483  12.295  53.874  1.00  0.00     0.094 A 
ATOM      3  C   UNL     1     -26.034  12.338  52.589  1.00  0.00     0.336 A 
ATOM      4  O   UNL     1     -25.970  11.325  51.845  1.00  0.00    -0.246 OA
ATOM      5  O   UNL     1     -26.626  13.444  52.146  1.00  0.00    -0.423 OA
ATOM      6  C   UNL     1     -26.726  14.547  52.885  1.00  0.00     0.142 A 
ATOM      7  C   UNL     1     -27.360  15.679  52.366  1.00  0.00     0.098 A 
ATOM      8  C   UNL     1     -27.467  16.846  53.140  1.00  0.00     0.161 A 
ATOM      9  C   UNL     1     -26.936  16.876  54.442  1.00  0.00     0.158 A 
ATOM     10  C   UNL     1     -26.301  15.742  54.963  1.00  0.00     0.062 A 
ATOM     11  C   UNL     1     -26.193  14.578  54.191  1.00  0.00     0.022 A 
ENDROOT
BRANCH   9  12
ATOM     12  O   UNL     1     -27.030  18.021  55.231  1.00  0.00    -0.504 OA
ATOM     13  H   UNL     1     -27.633  18.066  56.044  1.00  0.00     0.293 HD
ENDBRANCH   9  12
BRANCH   8  14
ATOM     14  O   UNL     1     -28.100  17.974  52.619  1.00  0.00    -0.504 OA
ATOM     15  H   UNL     1     -28.857  17.895  51.949  1.00  0.00     0.293 HD
ENDBRANCH   8  14
TORSDOF 2
ENDMDL
MODEL 4
REMARK VINA RESULT:    -5.632      7.146      8.286
REMARK INTER + INTRA:          -5.961
REMARK INTER:                  -5.961
REMARK INTRA:                   0.000
REMARK UNBOUND:                 0.000
REMARK SMILES O=c1ccc2cc(O)c(O)cc2o1
REMARK SMILES IDX 4 1 3 2 2 3 1 4 13 5 12 6 11 7 9 8 7 9 6 10 5 11 8 12 10 14
REMARK H PARENT 8 13 10 15
REMARK Flexibility Score: inf
ROOT
ATOM      1  C   UNL     1     -27.080  13.477  51.182  1.00  0.00     0.019 A 
ATOM      2  C   UNL     1     -26.561  12.211  51.454  1.00  0.00     0.094 A 
ATOM      3  C   UNL     1     -26.004  11.963  52.713  1.00  0.00     0.336 A 
ATOM      4  O   UNL     1     -25.532  10.826  52.976  1.00  0.00    -0.246 OA
ATOM      5  O   UNL     1     -25.973  12.920  53.637  1.00  0.00    -0.423 OA
ATOM      6  C   UNL     1     -26.456  14.141  53.419  1.00  0.00     0.142 A 
ATOM      7  C   UNL     1     -26.394  15.106  54.428  1.00  0.00     0.098 A 
ATOM      8  C   UNL     1     -26.903  16.395  54.205  1.00  0.00     0.161 A 
ATOM      9  C   UNL     1     -27.477  16.718  52.962  1.00  0.00     0.158 A 
ATOM     10  C   UNL     1     -27.539  15.752  51.950  1.00  0.00     0.062 A 
ATOM     11  C   UNL     1     -27.032  14.465  52.173  1.00  0.00     0.022 A 
ENDROOT
BRANCH   9  12
ATOM     12  O   UNL     1     -27.989  17.990  52.714  1.00  0.00    -0.504 OA
ATOM     13  H   UNL     1     -28.985  18.170  52.669  1.00  0.00     0.293 HD
ENDBRANCH   9  12
BRANCH   8  14
ATOM     14  O   UNL     1     -26.839  17.355  55.214  1.00  0.00    -0.504 OA
ATOM     15  H   UNL     1     -26.653  17.101  56.178  1.00  0.00     0.293 HD
ENDBRANCH   8  14
TORSDOF 2
ENDMDL
MODEL 5
REMARK VINA RESULT:    -5.631      2.520      3.817
REMARK INTER + INTRA:          -5.960
REMARK INTER:                  -5.960
REMARK INTRA:                   0.000
REMARK UNBOUND:                 0.000
REMARK SMILES O=c1ccc2cc(O)c(O)cc2o1
REMARK SMILES IDX 4 1 3 2 2 3 1 4 13 5 12 6 11 7 9 8 7 9 6 10 5 11 8 12 10 14
REMARK H PARENT 8 13 10 15
REMARK Flexibility Score: inf
ROOT
ATOM      1  C   UNL     1     -33.498  13.171  54.308  1.00  0.00     0.019 A 
ATOM      2  C   UNL     1     -32.837  12.238  55.106  1.00  0.00     0.094 A 
ATOM      3  C   UNL     1     -31.439  12.190  55.076  1.00  0.00     0.336 A 
ATOM      4  O   UNL     1     -30.825  11.354  55.790  1.00  0.00    -0.246 OA
ATOM      5  O   UNL     1     -30.752  13.023  54.299  1.00  0.00    -0.423 OA
ATOM      6  C   UNL     1     -31.343  13.928  53.522  1.00  0.00     0.142 A 
ATOM      7  C   UNL     1     -30.569  14.776  52.726  1.00  0.00     0.098 A 
ATOM      8  C   UNL     1     -31.187  15.734  51.905  1.00  0.00     0.161 A 
ATOM      9  C   UNL     1     -32.589  15.840  51.883  1.00  0.00     0.158 A 
ATOM     10  C   UNL     1     -33.366  14.989  52.680  1.00  0.00     0.062 A 
ATOM     11  C   UNL     1     -32.750  14.035  53.500  1.00  0.00     0.022 A 
ENDROOT
BRANCH   9  12
ATOM     12  O   UNL     1     -33.228  16.781  51.077  1.00  0.00    -0.504 OA
ATOM     13  H   UNL     1     -34.201  16.690  50.814  1.00  0.00     0.293 HD
ENDBRANCH   9  12
BRANCH   8  14
ATOM     14  O   UNL     1     -30.411  16.578  51.112  1.00  0.00    -0.504 OA
ATOM     15  H   UNL     1     -30.634  16.743  50.137  1.00  0.00     0.293 HD
ENDBRANCH   8  14
TORSDOF 2
ENDMDL
MODEL 6
REMARK VINA RESULT:    -5.544      1.152      5.026
REMARK INTER + INTRA:          -5.868
REMARK INTER:                  -5.868
REMARK INTRA:                   0.000
REMARK UNBOUND:                 0.000
REMARK SMILES O=c1ccc2cc(O)c(O)cc2o1
REMARK SMILES IDX 4 1 3 2 2 3 1 4 13 5 12 6 11 7 9 8 7 9 6 10 5 11 8 12 10 14
REMARK H PARENT 8 13 10 15
REMARK Flexibility Score: inf
ROOT
ATOM      1  C   UNL     1     -34.253  16.524  49.824  1.00  0.00     0.019 A 
ATOM      2  C   UNL     1     -35.614  16.694  49.569  1.00  0.00     0.094 A 
ATOM      3  C   UNL     1     -36.542  16.244  50.514  1.00  0.00     0.336 A 
ATOM      4  O   UNL     1     -37.774  16.390  50.302  1.00  0.00    -0.246 OA
ATOM      5  O   UNL     1     -36.131  15.664  51.639  1.00  0.00    -0.423 OA
ATOM      6  C   UNL     1     -34.844  15.481  51.921  1.00  0.00     0.142 A 
ATOM      7  C   UNL     1     -34.472  14.865  53.119  1.00  0.00     0.098 A 
ATOM      8  C   UNL     1     -33.115  14.670  53.423  1.00  0.00     0.161 A 
ATOM      9  C   UNL     1     -32.126  15.097  52.519  1.00  0.00     0.158 A 
ATOM     10  C   UNL     1     -32.497  15.714  51.317  1.00  0.00     0.062 A 
ATOM     11  C   UNL     1     -33.850  15.910  51.014  1.00  0.00     0.022 A 
ENDROOT
BRANCH   9  12
ATOM     12  O   UNL     1     -30.771  14.916  52.795  1.00  0.00    -0.504 OA
ATOM     13  H   UNL     1     -30.385  15.076  53.718  1.00  0.00     0.293 HD
ENDBRANCH   9  12
BRANCH   8  14
ATOM     14  O   UNL     1     -32.748  14.055  54.619  1.00  0.00    -0.504 OA
ATOM     15  H   UNL     1     -33.180  13.190  54.924  1.00  0.00     0.293 HD
ENDBRANCH   8  14
TORSDOF 2
ENDMDL
MODEL 7
REMARK VINA RESULT:    -5.504      8.501     11.530
REMARK INTER + INTRA:          -5.826
REMARK INTER:                  -5.826
REMARK INTRA:                   0.000
REMARK UNBOUND:                 0.000
REMARK SMILES O=c1ccc2cc(O)c(O)cc2o1
REMARK SMILES IDX 4 1 3 2 2 3 1 4 13 5 12 6 11 7 9 8 7 9 6 10 5 11 8 12 10 14
REMARK H PARENT 8 13 10 15
REMARK Flexibility Score: inf
ROOT
ATOM      1  C   UNL     1     -24.968  12.653  54.286  1.00  0.00     0.019 A 
ATOM      2  C   UNL     1     -25.742  13.750  53.909  1.00  0.00     0.094 A 
ATOM      3  C   UNL     1     -26.641  14.295  54.832  1.00  0.00     0.336 A 
ATOM      4  O   UNL     1     -27.348  15.285  54.509  1.00  0.00    -0.246 OA
ATOM      5  O   UNL     1     -26.753  13.775  56.051  1.00  0.00    -0.423 OA
ATOM      6  C   UNL     1     -26.034  12.729  56.452  1.00  0.00     0.142 A 
ATOM      7  C   UNL     1     -26.195  12.225  57.746  1.00  0.00     0.098 A 
ATOM      8  C   UNL     1     -25.439  11.123  58.175  1.00  0.00     0.161 A 
ATOM      9  C   UNL     1     -24.515  10.523  57.300  1.00  0.00     0.158 A 
ATOM     10  C   UNL     1     -24.353  11.026  56.003  1.00  0.00     0.062 A 
ATOM     11  C   UNL     1     -25.107  12.126  55.575  1.00  0.00     0.022 A 
ENDROOT
BRANCH   9  12
ATOM     12  O   UNL     1     -23.752   9.427  57.700  1.00  0.00    -0.504 OA
ATOM     13  H   UNL     1     -23.665   9.159  58.673  1.00  0.00     0.293 HD
ENDBRANCH   9  12
BRANCH   8  14
ATOM     14  O   UNL     1     -25.603  10.623  59.466  1.00  0.00    -0.504 OA
ATOM     15  H   UNL     1     -24.927   9.992  59.880  1.00  0.00     0.293 HD
ENDBRANCH   8  14
TORSDOF 2
ENDMDL
MODEL 8
REMARK VINA RESULT:    -5.472      7.110      8.234
REMARK INTER + INTRA:          -5.792
REMARK INTER:                  -5.792
REMARK INTRA:                   0.000
REMARK UNBOUND:                 0.000
REMARK SMILES O=c1ccc2cc(O)c(O)cc2o1
REMARK SMILES IDX 4 1 3 2 2 3 1 4 13 5 12 6 11 7 9 8 7 9 6 10 5 11 8 12 10 14
REMARK H PARENT 8 13 10 15
REMARK Flexibility Score: inf
ROOT
ATOM      1  C   UNL     1     -26.299  11.605  51.718  1.00  0.00     0.019 A 
ATOM      2  C   UNL     1     -25.825  10.901  52.825  1.00  0.00     0.094 A 
ATOM      3  C   UNL     1     -25.685  11.572  54.045  1.00  0.00     0.336 A 
ATOM      4  O   UNL     1     -25.260  10.953  55.055  1.00  0.00    -0.246 OA
ATOM      5  O   UNL     1     -26.000  12.860  54.146  1.00  0.00    -0.423 OA
ATOM      6  C   UNL     1     -26.454  13.570  53.115  1.00  0.00     0.142 A 
ATOM      7  C   UNL     1     -26.768  14.921  53.281  1.00  0.00     0.098 A 
ATOM      8  C   UNL     1     -27.249  15.674  52.198  1.00  0.00     0.161 A 
ATOM      9  C   UNL     1     -27.415  15.066  50.940  1.00  0.00     0.158 A 
ATOM     10  C   UNL     1     -27.100  13.712  50.772  1.00  0.00     0.062 A 
ATOM     11  C   UNL     1     -26.622  12.960  51.853  1.00  0.00     0.022 A 
ENDROOT
BRANCH   9  12
ATOM     12  O   UNL     1     -27.890  15.790  49.848  1.00  0.00    -0.504 OA
ATOM     13  H   UNL     1     -28.866  16.044  49.754  1.00  0.00     0.293 HD
ENDBRANCH   9  12
BRANCH   8  14
ATOM     14  O   UNL     1     -27.561  17.022  52.367  1.00  0.00    -0.504 OA
ATOM     15  H   UNL     1     -27.622  17.440  53.289  1.00  0.00     0.293 HD
ENDBRANCH   8  14
TORSDOF 2
ENDMDL
MODEL 9
REMARK VINA RESULT:    -5.450      7.366      8.128
REMARK INTER + INTRA:          -5.769
REMARK INTER:                  -5.769
REMARK INTRA:                   0.000
REMARK UNBOUND:                 0.000
REMARK SMILES O=c1ccc2cc(O)c(O)cc2o1
REMARK SMILES IDX 4 1 3 2 2 3 1 4 13 5 12 6 11 7 9 8 7 9 6 10 5 11 8 12 10 14
REMARK H PARENT 8 13 10 15
REMARK Flexibility Score: inf
ROOT
ATOM      1  C   UNL     1     -27.428  15.804  57.031  1.00  0.00     0.019 A 
ATOM      2  C   UNL     1     -27.132  14.640  57.741  1.00  0.00     0.094 A 
ATOM      3  C   UNL     1     -26.776  13.487  57.033  1.00  0.00     0.336 A 
ATOM      4  O   UNL     1     -26.505  12.428  57.656  1.00  0.00    -0.246 OA
ATOM      5  O   UNL     1     -26.721  13.503  55.704  1.00  0.00    -0.423 OA
ATOM      6  C   UNL     1     -26.996  14.590  54.988  1.00  0.00     0.142 A 
ATOM      7  C   UNL     1     -26.921  14.546  53.593  1.00  0.00     0.098 A 
ATOM      8  C   UNL     1     -27.209  15.691  52.833  1.00  0.00     0.161 A 
ATOM      9  C   UNL     1     -27.574  16.887  53.477  1.00  0.00     0.158 A 
ATOM     10  C   UNL     1     -27.650  16.933  54.875  1.00  0.00     0.062 A 
ATOM     11  C   UNL     1     -27.362  15.791  55.633  1.00  0.00     0.022 A 
ENDROOT
BRANCH   9  12
ATOM     12  O   UNL     1     -27.866  18.037  52.746  1.00  0.00    -0.504 OA
ATOM     13  H   UNL     1     -27.164  18.516  52.195  1.00  0.00     0.293 HD
ENDBRANCH   9  12
BRANCH   8  14
ATOM     14  O   UNL     1     -27.134  15.642  51.442  1.00  0.00    -0.504 OA
ATOM     15  H   UNL     1     -26.296  15.926  50.946  1.00  0.00     0.293 HD
ENDBRANCH   8  14
TORSDOF 2
ENDMDL
