MODEL 1
REMARK VINA RESULT:    -3.632      0.000      0.000
REMARK INTER + INTRA:          -9.201
REMARK INTER:                  -6.816
REMARK INTRA:                  -2.385
REMARK UNBOUND:                -2.385
REMARK SMILES CCCCCCCCC=CCCCCCCCC(=O)[O-]
REMARK SMILES IDX 10 1 9 2 11 3 12 4 13 5 14 6 15 7 16 8 17 9 18 10 19 11
REMARK SMILES IDX 20 12 8 13 7 14 6 15 5 16 4 17 3 18 2 19 1 20
REMARK H PARENT
REMARK Flexibility Score: inf
ROOT
ATOM      1  C   UNL     1      61.939  32.320  59.802  1.00  0.00    -0.031 C 
ATOM      2  C   UNL     1      63.224  32.726  59.822  1.00  0.00    -0.031 C 
ENDROOT
BRANCH   1   3
ATOM      3  C   UNL     1      61.016  32.292  60.994  1.00  0.00     0.027 C 
BRANCH   3   4
ATOM      4  C   UNL     1      60.654  30.855  61.391  1.00  0.00     0.004 C 
BRANCH   4   5
ATOM      5  C   UNL     1      61.863  30.128  61.990  1.00  0.00     0.000 C 
BRANCH   5   6
ATOM      6  C   UNL     1      62.002  28.716  61.402  1.00  0.00     0.000 C 
BRANCH   6   7
ATOM      7  C   UNL     1      63.335  28.507  60.667  1.00  0.00     0.000 C 
BRANCH   7   8
ATOM      8  C   UNL     1      64.400  29.545  61.062  1.00  0.00     0.006 C 
BRANCH   8   9
ATOM      9  C   UNL     1      65.462  29.729  59.968  1.00  0.00     0.053 C 
BRANCH   9  10
ATOM     10  C   UNL     1      66.815  29.284  60.429  1.00  0.00     0.041 C 
ATOM     11  O   UNL     1      67.843  29.585  59.765  1.00  0.00    -0.550 OA
ATOM     12  O   UNL     1      66.945  28.561  61.608  1.00  0.00    -0.550 OA
ENDBRANCH   9  10
ENDBRANCH   8   9
ENDBRANCH   7   8
ENDBRANCH   6   7
ENDBRANCH   5   6
ENDBRANCH   4   5
ENDBRANCH   3   4
ENDBRANCH   1   3
BRANCH   2  13
ATOM     13  C   UNL     1      63.959  33.242  61.039  1.00  0.00     0.027 C 
BRANCH  13  14
ATOM     14  C   UNL     1      64.510  34.659  60.812  1.00  0.00     0.004 C 
BRANCH  14  15
ATOM     15  C   UNL     1      63.484  35.663  60.252  1.00  0.00     0.000 C 
BRANCH  15  16
ATOM     16  C   UNL     1      62.948  36.653  61.309  1.00  0.00     0.000 C 
BRANCH  16  17
ATOM     17  C   UNL     1      61.486  37.053  61.039  1.00  0.00    -0.000 C 
BRANCH  17  18
ATOM     18  C   UNL     1      60.639  35.885  60.510  1.00  0.00    -0.000 C 
BRANCH  18  19
ATOM     19  C   UNL     1      59.977  36.197  59.161  1.00  0.00    -0.003 C 
ATOM     20  C   UNL     1      59.716  34.919  58.367  1.00  0.00     0.004 C 
ENDBRANCH  18  19
ENDBRANCH  17  18
ENDBRANCH  16  17
ENDBRANCH  15  16
ENDBRANCH  14  15
ENDBRANCH  13  14
ENDBRANCH   2  13
TORSDOF 15
ENDMDL
MODEL 2
REMARK VINA RESULT:    -3.530      2.878      3.977
REMARK INTER + INTRA:          -9.011
REMARK INTER:                  -6.355
REMARK INTRA:                  -2.655
REMARK UNBOUND:                -2.385
REMARK SMILES CCCCCCCCC=CCCCCCCCC(=O)[O-]
REMARK SMILES IDX 10 1 9 2 11 3 12 4 13 5 14 6 15 7 16 8 17 9 18 10 19 11
REMARK SMILES IDX 20 12 8 13 7 14 6 15 5 16 4 17 3 18 2 19 1 20
REMARK H PARENT
REMARK Flexibility Score: inf
ROOT
ATOM      1  C   UNL     1      62.058  31.047  58.061  1.00  0.00    -0.031 C 
ATOM      2  C   UNL     1      63.374  30.766  58.119  1.00  0.00    -0.031 C 
ENDROOT
BRANCH   1   3
ATOM      3  C   UNL     1      61.422  32.339  58.509  1.00  0.00     0.027 C 
BRANCH   3   4
ATOM      4  C   UNL     1      60.333  32.093  59.561  1.00  0.00     0.004 C 
BRANCH   4   5
ATOM      5  C   UNL     1      60.912  32.159  60.979  1.00  0.00     0.000 C 
BRANCH   5   6
ATOM      6  C   UNL     1      60.651  30.850  61.740  1.00  0.00     0.000 C 
BRANCH   6   7
ATOM      7  C   UNL     1      61.905  29.969  61.855  1.00  0.00     0.000 C 
BRANCH   7   8
ATOM      8  C   UNL     1      61.845  28.729  60.947  1.00  0.00     0.006 C 
BRANCH   8   9
ATOM      9  C   UNL     1      61.884  27.421  61.751  1.00  0.00     0.053 C 
BRANCH   9  10
ATOM     10  C   UNL     1      60.614  26.641  61.604  1.00  0.00     0.041 C 
ATOM     11  O   UNL     1      59.550  27.219  61.258  1.00  0.00    -0.550 OA
ATOM     12  O   UNL     1      60.613  25.269  61.822  1.00  0.00    -0.550 OA
ENDBRANCH   9  10
ENDBRANCH   8   9
ENDBRANCH   7   8
ENDBRANCH   6   7
ENDBRANCH   5   6
ENDBRANCH   4   5
ENDBRANCH   3   4
ENDBRANCH   1   3
BRANCH   2  13
ATOM     13  C   UNL     1      64.447  31.704  58.628  1.00  0.00     0.027 C 
BRANCH  13  14
ATOM     14  C   UNL     1      64.755  31.462  60.114  1.00  0.00     0.004 C 
BRANCH  14  15
ATOM     15  C   UNL     1      64.239  32.562  61.062  1.00  0.00     0.000 C 
BRANCH  15  16
ATOM     16  C   UNL     1      64.188  33.963  60.414  1.00  0.00     0.000 C 
BRANCH  16  17
ATOM     17  C   UNL     1      64.341  35.087  61.454  1.00  0.00    -0.000 C 
BRANCH  17  18
ATOM     18  C   UNL     1      63.233  36.148  61.349  1.00  0.00    -0.000 C 
BRANCH  18  19
ATOM     19  C   UNL     1      62.331  35.943  60.124  1.00  0.00    -0.003 C 
ATOM     20  C   UNL     1      60.874  35.763  60.538  1.00  0.00     0.004 C 
ENDBRANCH  18  19
ENDBRANCH  17  18
ENDBRANCH  16  17
ENDBRANCH  15  16
ENDBRANCH  14  15
ENDBRANCH  13  14
ENDBRANCH   2  13
TORSDOF 15
ENDMDL
MODEL 3
REMARK VINA RESULT:    -3.485     10.670     12.842
REMARK INTER + INTRA:          -8.926
REMARK INTER:                  -6.236
REMARK INTRA:                  -2.689
REMARK UNBOUND:                -2.385
REMARK SMILES CCCCCCCCC=CCCCCCCCC(=O)[O-]
REMARK SMILES IDX 10 1 9 2 11 3 12 4 13 5 14 6 15 7 16 8 17 9 18 10 19 11
REMARK SMILES IDX 20 12 8 13 7 14 6 15 5 16 4 17 3 18 2 19 1 20
REMARK H PARENT
REMARK Flexibility Score: inf
ROOT
ATOM      1  C   UNL     1      56.013  30.746  53.181  1.00  0.00    -0.031 C 
ATOM      2  C   UNL     1      54.829  31.165  52.695  1.00  0.00    -0.031 C 
ENDROOT
BRANCH   1   3
ATOM      3  C   UNL     1      56.436  29.305  53.323  1.00  0.00     0.027 C 
BRANCH   3   4
ATOM      4  C   UNL     1      57.802  29.054  52.671  1.00  0.00     0.004 C 
BRANCH   4   5
ATOM      5  C   UNL     1      58.064  30.055  51.540  1.00  0.00     0.000 C 
BRANCH   5   6
ATOM      6  C   UNL     1      57.794  29.418  50.168  1.00  0.00     0.000 C 
BRANCH   6   7
ATOM      7  C   UNL     1      59.072  29.236  49.335  1.00  0.00     0.000 C 
BRANCH   7   8
ATOM      8  C   UNL     1      59.556  27.775  49.301  1.00  0.00     0.006 C 
BRANCH   8   9
ATOM      9  C   UNL     1      60.589  27.483  50.398  1.00  0.00     0.053 C 
BRANCH   9  10
ATOM     10  C   UNL     1      61.947  27.218  49.824  1.00  0.00     0.041 C 
ATOM     11  O   UNL     1      62.573  26.168  50.130  1.00  0.00    -0.550 OA
ATOM     12  O   UNL     1      62.510  28.119  48.928  1.00  0.00    -0.550 OA
ENDBRANCH   9  10
ENDBRANCH   8   9
ENDBRANCH   7   8
ENDBRANCH   6   7
ENDBRANCH   5   6
ENDBRANCH   4   5
ENDBRANCH   3   4
ENDBRANCH   1   3
BRANCH   2  13
ATOM     13  C   UNL     1      53.723  30.265  52.189  1.00  0.00     0.027 C 
BRANCH  13  14
ATOM     14  C   UNL     1      53.682  30.224  50.653  1.00  0.00     0.004 C 
BRANCH  14  15
ATOM     15  C   UNL     1      53.444  28.824  50.057  1.00  0.00     0.000 C 
BRANCH  15  16
ATOM     16  C   UNL     1      54.282  27.714  50.729  1.00  0.00     0.000 C 
BRANCH  16  17
ATOM     17  C   UNL     1      54.869  26.730  49.702  1.00  0.00    -0.000 C 
BRANCH  17  18
ATOM     18  C   UNL     1      56.274  26.240  50.085  1.00  0.00    -0.000 C 
BRANCH  18  19
ATOM     19  C   UNL     1      56.400  25.910  51.580  1.00  0.00    -0.003 C 
ATOM     20  C   UNL     1      57.787  25.362  51.906  1.00  0.00     0.004 C 
ENDBRANCH  18  19
ENDBRANCH  17  18
ENDBRANCH  16  17
ENDBRANCH  15  16
ENDBRANCH  14  15
ENDBRANCH  13  14
ENDBRANCH   2  13
TORSDOF 15
ENDMDL
MODEL 4
REMARK VINA RESULT:    -3.415     10.887     12.550
REMARK INTER + INTRA:          -8.794
REMARK INTER:                  -6.016
REMARK INTRA:                  -2.778
REMARK UNBOUND:                -2.385
REMARK SMILES CCCCCCCCC=CCCCCCCCC(=O)[O-]
REMARK SMILES IDX 10 1 9 2 11 3 12 4 13 5 14 6 15 7 16 8 17 9 18 10 19 11
REMARK SMILES IDX 20 12 8 13 7 14 6 15 5 16 4 17 3 18 2 19 1 20
REMARK H PARENT
REMARK Flexibility Score: inf
ROOT
ATOM      1  C   UNL     1      53.814  27.163  49.751  1.00  0.00    -0.031 C 
ATOM      2  C   UNL     1      53.210  28.350  49.957  1.00  0.00    -0.031 C 
ENDROOT
BRANCH   1   3
ATOM      3  C   UNL     1      55.293  26.903  49.886  1.00  0.00     0.027 C 
BRANCH   3   4
ATOM      4  C   UNL     1      55.627  26.240  51.228  1.00  0.00     0.004 C 
BRANCH   4   5
ATOM      5  C   UNL     1      57.123  25.917  51.325  1.00  0.00     0.000 C 
BRANCH   5   6
ATOM      6  C   UNL     1      57.828  26.172  49.985  1.00  0.00     0.000 C 
BRANCH   6   7
ATOM      7  C   UNL     1      59.278  25.663  49.970  1.00  0.00     0.000 C 
BRANCH   7   8
ATOM      8  C   UNL     1      59.955  25.760  51.348  1.00  0.00     0.006 C 
BRANCH   8   9
ATOM      9  C   UNL     1      60.966  26.913  51.416  1.00  0.00     0.053 C 
BRANCH   9  10
ATOM     10  C   UNL     1      61.950  26.856  50.288  1.00  0.00     0.041 C 
ATOM     11  O   UNL     1      62.717  25.863  50.163  1.00  0.00    -0.550 OA
ATOM     12  O   UNL     1      62.001  27.886  49.357  1.00  0.00    -0.550 OA
ENDBRANCH   9  10
ENDBRANCH   8   9
ENDBRANCH   7   8
ENDBRANCH   6   7
ENDBRANCH   5   6
ENDBRANCH   4   5
ENDBRANCH   3   4
ENDBRANCH   1   3
BRANCH   2  13
ATOM     13  C   UNL     1      53.908  29.624  50.378  1.00  0.00     0.027 C 
BRANCH  13  14
ATOM     14  C   UNL     1      53.780  29.871  51.889  1.00  0.00     0.004 C 
BRANCH  14  15
ATOM     15  C   UNL     1      55.038  30.465  52.550  1.00  0.00     0.000 C 
BRANCH  15  16
ATOM     16  C   UNL     1      55.952  29.406  53.204  1.00  0.00     0.000 C 
BRANCH  16  17
ATOM     17  C   UNL     1      57.382  29.446  52.638  1.00  0.00    -0.000 C 
BRANCH  17  18
ATOM     18  C   UNL     1      57.411  29.579  51.107  1.00  0.00    -0.000 C 
BRANCH  18  19
ATOM     19  C   UNL     1      58.836  29.712  50.550  1.00  0.00    -0.003 C 
ATOM     20  C   UNL     1      58.846  29.581  49.029  1.00  0.00     0.004 C 
ENDBRANCH  18  19
ENDBRANCH  17  18
ENDBRANCH  16  17
ENDBRANCH  15  16
ENDBRANCH  14  15
ENDBRANCH  13  14
ENDBRANCH   2  13
TORSDOF 15
ENDMDL
MODEL 5
REMARK VINA RESULT:    -3.402     11.360     13.048
REMARK INTER + INTRA:          -8.769
REMARK INTER:                  -5.933
REMARK INTRA:                  -2.836
REMARK UNBOUND:                -2.385
REMARK SMILES CCCCCCCCC=CCCCCCCCC(=O)[O-]
REMARK SMILES IDX 10 1 9 2 11 3 12 4 13 5 14 6 15 7 16 8 17 9 18 10 19 11
REMARK SMILES IDX 20 12 8 13 7 14 6 15 5 16 4 17 3 18 2 19 1 20
REMARK H PARENT
REMARK Flexibility Score: inf
ROOT
ATOM      1  C   UNL     1      57.222  28.055  51.309  1.00  0.00    -0.031 C 
ATOM      2  C   UNL     1      56.566  26.882  51.212  1.00  0.00    -0.031 C 
ENDROOT
BRANCH   1   3
ATOM      3  C   UNL     1      57.130  29.189  50.321  1.00  0.00     0.027 C 
BRANCH   3   4
ATOM      4  C   UNL     1      58.520  29.665  49.880  1.00  0.00     0.004 C 
BRANCH   4   5
ATOM      5  C   UNL     1      59.284  28.543  49.166  1.00  0.00     0.000 C 
BRANCH   5   6
ATOM      6  C   UNL     1      60.697  28.383  49.749  1.00  0.00     0.000 C 
BRANCH   6   7
ATOM      7  C   UNL     1      61.111  26.912  49.908  1.00  0.00     0.000 C 
BRANCH   7   8
ATOM      8  C   UNL     1      59.907  25.953  49.902  1.00  0.00     0.006 C 
BRANCH   8   9
ATOM      9  C   UNL     1      59.852  25.085  51.167  1.00  0.00     0.053 C 
BRANCH   9  10
ATOM     10  C   UNL     1      60.025  23.632  50.851  1.00  0.00     0.041 C 
ATOM     11  O   UNL     1      59.679  22.754  51.687  1.00  0.00    -0.550 OA
ATOM     12  O   UNL     1      60.541  23.245  49.620  1.00  0.00    -0.550 OA
ENDBRANCH   9  10
ENDBRANCH   8   9
ENDBRANCH   7   8
ENDBRANCH   6   7
ENDBRANCH   5   6
ENDBRANCH   4   5
ENDBRANCH   3   4
ENDBRANCH   1   3
BRANCH   2  13
ATOM     13  C   UNL     1      55.608  26.506  50.104  1.00  0.00     0.027 C 
BRANCH  13  14
ATOM     14  C   UNL     1      54.157  26.874  50.457  1.00  0.00     0.004 C 
BRANCH  14  15
ATOM     15  C   UNL     1      53.611  28.108  49.714  1.00  0.00     0.000 C 
BRANCH  15  16
ATOM     16  C   UNL     1      53.399  29.335  50.628  1.00  0.00     0.000 C 
BRANCH  16  17
ATOM     17  C   UNL     1      53.418  28.957  52.119  1.00  0.00    -0.000 C 
BRANCH  17  18
ATOM     18  C   UNL     1      54.440  29.774  52.927  1.00  0.00    -0.000 C 
BRANCH  18  19
ATOM     19  C   UNL     1      55.056  28.976  54.084  1.00  0.00    -0.003 C 
ATOM     20  C   UNL     1      54.454  27.576  54.168  1.00  0.00     0.004 C 
ENDBRANCH  18  19
ENDBRANCH  17  18
ENDBRANCH  16  17
ENDBRANCH  15  16
ENDBRANCH  14  15
ENDBRANCH  13  14
ENDBRANCH   2  13
TORSDOF 15
ENDMDL
MODEL 6
REMARK VINA RESULT:    -3.367     11.851     13.208
REMARK INTER + INTRA:          -8.705
REMARK INTER:                  -6.274
REMARK INTRA:                  -2.431
REMARK UNBOUND:                -2.385
REMARK SMILES CCCCCCCCC=CCCCCCCCC(=O)[O-]
REMARK SMILES IDX 10 1 9 2 11 3 12 4 13 5 14 6 15 7 16 8 17 9 18 10 19 11
REMARK SMILES IDX 20 12 8 13 7 14 6 15 5 16 4 17 3 18 2 19 1 20
REMARK H PARENT
REMARK Flexibility Score: inf
ROOT
ATOM      1  C   UNL     1      58.318  29.544  49.571  1.00  0.00    -0.031 C 
ATOM      2  C   UNL     1      57.350  29.185  50.436  1.00  0.00    -0.031 C 
ENDROOT
BRANCH   1   3
ATOM      3  C   UNL     1      59.779  29.195  49.705  1.00  0.00     0.027 C 
BRANCH   3   4
ATOM      4  C   UNL     1      60.048  27.738  49.310  1.00  0.00     0.004 C 
BRANCH   4   5
ATOM      5  C   UNL     1      61.236  27.166  50.093  1.00  0.00     0.000 C 
BRANCH   5   6
ATOM      6  C   UNL     1      61.021  25.678  50.409  1.00  0.00     0.000 C 
BRANCH   6   7
ATOM      7  C   UNL     1      60.123  25.455  51.636  1.00  0.00     0.000 C 
BRANCH   7   8
ATOM      8  C   UNL     1      59.424  24.084  51.619  1.00  0.00     0.006 C 
BRANCH   8   9
ATOM      9  C   UNL     1      60.411  22.928  51.828  1.00  0.00     0.053 C 
BRANCH   9  10
ATOM     10  C   UNL     1      60.308  21.906  50.739  1.00  0.00     0.041 C 
ATOM     11  O   UNL     1      60.102  20.695  51.020  1.00  0.00    -0.550 OA
ATOM     12  O   UNL     1      60.412  22.296  49.409  1.00  0.00    -0.550 OA
ENDBRANCH   9  10
ENDBRANCH   8   9
ENDBRANCH   7   8
ENDBRANCH   6   7
ENDBRANCH   5   6
ENDBRANCH   4   5
ENDBRANCH   3   4
ENDBRANCH   1   3
BRANCH   2  13
ATOM     13  C   UNL     1      57.555  28.355  51.684  1.00  0.00     0.027 C 
BRANCH  13  14
ATOM     14  C   UNL     1      56.792  27.023  51.613  1.00  0.00     0.004 C 
BRANCH  14  15
ATOM     15  C   UNL     1      56.579  26.482  50.186  1.00  0.00     0.000 C 
BRANCH  15  16
ATOM     16  C   UNL     1      55.096  26.234  49.834  1.00  0.00     0.000 C 
BRANCH  16  17
ATOM     17  C   UNL     1      54.151  27.159  50.623  1.00  0.00    -0.000 C 
BRANCH  17  18
ATOM     18  C   UNL     1      53.615  28.323  49.774  1.00  0.00    -0.000 C 
BRANCH  18  19
ATOM     19  C   UNL     1      53.699  29.673  50.499  1.00  0.00    -0.003 C 
ATOM     20  C   UNL     1      53.989  29.481  51.985  1.00  0.00     0.004 C 
ENDBRANCH  18  19
ENDBRANCH  17  18
ENDBRANCH  16  17
ENDBRANCH  15  16
ENDBRANCH  14  15
ENDBRANCH  13  14
ENDBRANCH   2  13
TORSDOF 15
ENDMDL
MODEL 7
REMARK VINA RESULT:    -3.366      3.464      6.753
REMARK INTER + INTRA:          -8.703
REMARK INTER:                  -5.783
REMARK INTRA:                  -2.920
REMARK UNBOUND:                -2.385
REMARK SMILES CCCCCCCCC=CCCCCCCCC(=O)[O-]
REMARK SMILES IDX 10 1 9 2 11 3 12 4 13 5 14 6 15 7 16 8 17 9 18 10 19 11
REMARK SMILES IDX 20 12 8 13 7 14 6 15 5 16 4 17 3 18 2 19 1 20
REMARK H PARENT
REMARK Flexibility Score: inf
ROOT
ATOM      1  C   UNL     1      61.205  31.836  58.465  1.00  0.00    -0.031 C 
ATOM      2  C   UNL     1      60.417  31.872  59.558  1.00  0.00    -0.031 C 
ENDROOT
BRANCH   1   3
ATOM      3  C   UNL     1      62.664  32.215  58.430  1.00  0.00     0.027 C 
BRANCH   3   4
ATOM      4  C   UNL     1      62.863  33.633  57.881  1.00  0.00     0.004 C 
BRANCH   4   5
ATOM      5  C   UNL     1      64.019  34.343  58.596  1.00  0.00     0.000 C 
BRANCH   5   6
ATOM      6  C   UNL     1      64.303  33.695  59.960  1.00  0.00     0.000 C 
BRANCH   6   7
ATOM      7  C   UNL     1      63.749  34.515  61.135  1.00  0.00     0.000 C 
BRANCH   7   8
ATOM      8  C   UNL     1      63.156  35.864  60.690  1.00  0.00     0.006 C 
BRANCH   8   9
ATOM      9  C   UNL     1      61.645  35.944  60.946  1.00  0.00     0.053 C 
BRANCH   9  10
ATOM     10  C   UNL     1      60.903  36.440  59.743  1.00  0.00     0.041 C 
ATOM     11  O   UNL     1      59.644  36.434  59.725  1.00  0.00    -0.550 OA
ATOM     12  O   UNL     1      61.605  36.936  58.651  1.00  0.00    -0.550 OA
ENDBRANCH   9  10
ENDBRANCH   8   9
ENDBRANCH   7   8
ENDBRANCH   6   7
ENDBRANCH   5   6
ENDBRANCH   4   5
ENDBRANCH   3   4
ENDBRANCH   1   3
BRANCH   2  13
ATOM     13  C   UNL     1      60.863  32.282  60.943  1.00  0.00     0.027 C 
BRANCH  13  14
ATOM     14  C   UNL     1      60.801  31.106  61.932  1.00  0.00     0.004 C 
BRANCH  14  15
ATOM     15  C   UNL     1      61.858  30.011  61.691  1.00  0.00     0.000 C 
BRANCH  15  16
ATOM     16  C   UNL     1      63.306  30.546  61.662  1.00  0.00     0.000 C 
BRANCH  16  17
ATOM     17  C   UNL     1      64.282  29.538  61.030  1.00  0.00    -0.000 C 
BRANCH  17  18
ATOM     18  C   UNL     1      65.318  30.210  60.113  1.00  0.00    -0.000 C 
BRANCH  18  19
ATOM     19  C   UNL     1      65.365  29.582  58.712  1.00  0.00    -0.003 C 
ATOM     20  C   UNL     1      64.074  28.827  58.406  1.00  0.00     0.004 C 
ENDBRANCH  18  19
ENDBRANCH  17  18
ENDBRANCH  16  17
ENDBRANCH  15  16
ENDBRANCH  14  15
ENDBRANCH  13  14
ENDBRANCH   2  13
TORSDOF 15
ENDMDL
MODEL 8
REMARK VINA RESULT:    -3.312      1.578      2.605
REMARK INTER + INTRA:          -8.601
REMARK INTER:                  -5.935
REMARK INTRA:                  -2.666
REMARK UNBOUND:                -2.385
REMARK SMILES CCCCCCCCC=CCCCCCCCC(=O)[O-]
REMARK SMILES IDX 10 1 9 2 11 3 12 4 13 5 14 6 15 7 16 8 17 9 18 10 19 11
REMARK SMILES IDX 20 12 8 13 7 14 6 15 5 16 4 17 3 18 2 19 1 20
REMARK H PARENT
REMARK Flexibility Score: inf
ROOT
ATOM      1  C   UNL     1      63.891  32.176  58.563  1.00  0.00    -0.031 C 
ATOM      2  C   UNL     1      64.105  33.265  57.799  1.00  0.00    -0.031 C 
ENDROOT
BRANCH   1   3
ATOM      3  C   UNL     1      64.645  31.834  59.823  1.00  0.00     0.027 C 
BRANCH   3   4
ATOM      4  C   UNL     1      63.716  31.805  61.044  1.00  0.00     0.004 C 
BRANCH   4   5
ATOM      5  C   UNL     1      62.264  32.081  60.636  1.00  0.00     0.000 C 
BRANCH   5   6
ATOM      6  C   UNL     1      61.294  31.179  61.414  1.00  0.00     0.000 C 
BRANCH   6   7
ATOM      7  C   UNL     1      61.956  29.887  61.915  1.00  0.00     0.000 C 
BRANCH   7   8
ATOM      8  C   UNL     1      61.765  28.707  60.945  1.00  0.00     0.006 C 
BRANCH   8   9
ATOM      9  C   UNL     1      62.914  27.693  61.035  1.00  0.00     0.053 C 
BRANCH   9  10
ATOM     10  C   UNL     1      64.149  28.192  60.349  1.00  0.00     0.041 C 
ATOM     11  O   UNL     1      65.202  28.400  61.009  1.00  0.00    -0.550 OA
ATOM     12  O   UNL     1      64.145  28.398  58.975  1.00  0.00    -0.550 OA
ENDBRANCH   9  10
ENDBRANCH   8   9
ENDBRANCH   7   8
ENDBRANCH   6   7
ENDBRANCH   5   6
ENDBRANCH   4   5
ENDBRANCH   3   4
ENDBRANCH   1   3
BRANCH   2  13
ATOM     13  C   UNL     1      65.125  34.345  58.082  1.00  0.00     0.027 C 
BRANCH  13  14
ATOM     14  C   UNL     1      64.526  35.490  58.913  1.00  0.00     0.004 C 
BRANCH  14  15
ATOM     15  C   UNL     1      64.931  35.482  60.400  1.00  0.00     0.000 C 
BRANCH  15  16
ATOM     16  C   UNL     1      63.728  35.501  61.368  1.00  0.00     0.000 C 
BRANCH  16  17
ATOM     17  C   UNL     1      63.010  36.863  61.373  1.00  0.00    -0.000 C 
BRANCH  17  18
ATOM     18  C   UNL     1      61.541  36.761  60.931  1.00  0.00    -0.000 C 
BRANCH  18  19
ATOM     19  C   UNL     1      61.120  35.323  60.598  1.00  0.00    -0.003 C 
ATOM     20  C   UNL     1      60.777  35.179  59.118  1.00  0.00     0.004 C 
ENDBRANCH  18  19
ENDBRANCH  17  18
ENDBRANCH  16  17
ENDBRANCH  15  16
ENDBRANCH  14  15
ENDBRANCH  13  14
ENDBRANCH   2  13
TORSDOF 15
ENDMDL
MODEL 9
REMARK VINA RESULT:    -3.267      4.120      5.790
REMARK INTER + INTRA:          -8.517
REMARK INTER:                  -6.773
REMARK INTRA:                  -1.744
REMARK UNBOUND:                -2.385
REMARK SMILES CCCCCCCCC=CCCCCCCCC(=O)[O-]
REMARK SMILES IDX 10 1 9 2 11 3 12 4 13 5 14 6 15 7 16 8 17 9 18 10 19 11
REMARK SMILES IDX 20 12 8 13 7 14 6 15 5 16 4 17 3 18 2 19 1 20
REMARK H PARENT
REMARK Flexibility Score: inf
ROOT
ATOM      1  C   UNL     1      62.112  29.901  61.658  1.00  0.00    -0.031 C 
ATOM      2  C   UNL     1      61.299  30.965  61.814  1.00  0.00    -0.031 C 
ENDROOT
BRANCH   1   3
ATOM      3  C   UNL     1      62.598  29.364  60.336  1.00  0.00     0.027 C 
BRANCH   3   4
ATOM      4  C   UNL     1      62.340  27.857  60.212  1.00  0.00     0.004 C 
BRANCH   4   5
ATOM      5  C   UNL     1      61.891  27.264  61.553  1.00  0.00     0.000 C 
BRANCH   5   6
ATOM      6  C   UNL     1      60.523  26.577  61.420  1.00  0.00     0.000 C 
BRANCH   6   7
ATOM      7  C   UNL     1      59.837  26.874  60.077  1.00  0.00     0.000 C 
BRANCH   7   8
ATOM      8  C   UNL     1      58.312  27.025  60.210  1.00  0.00     0.006 C 
BRANCH   8   9
ATOM      9  C   UNL     1      57.920  27.904  61.406  1.00  0.00     0.053 C 
BRANCH   9  10
ATOM     10  C   UNL     1      56.454  27.818  61.701  1.00  0.00     0.041 C 
ATOM     11  O   UNL     1      55.946  28.527  62.610  1.00  0.00    -0.550 OA
ATOM     12  O   UNL     1      55.643  26.976  60.950  1.00  0.00    -0.550 OA
ENDBRANCH   9  10
ENDBRANCH   8   9
ENDBRANCH   7   8
ENDBRANCH   6   7
ENDBRANCH   5   6
ENDBRANCH   4   5
ENDBRANCH   3   4
ENDBRANCH   1   3
BRANCH   2  13
ATOM     13  C   UNL     1      60.748  31.816  60.693  1.00  0.00     0.027 C 
BRANCH  13  14
ATOM     14  C   UNL     1      61.463  33.175  60.606  1.00  0.00     0.004 C 
BRANCH  14  15
ATOM     15  C   UNL     1      62.704  33.188  59.694  1.00  0.00     0.000 C 
BRANCH  15  16
ATOM     16  C   UNL     1      64.039  33.263  60.467  1.00  0.00     0.000 C 
BRANCH  16  17
ATOM     17  C   UNL     1      64.126  34.520  61.351  1.00  0.00    -0.000 C 
BRANCH  17  18
ATOM     18  C   UNL     1      63.881  35.818  60.565  1.00  0.00    -0.000 C 
BRANCH  18  19
ATOM     19  C   UNL     1      63.027  36.830  61.341  1.00  0.00    -0.003 C 
ATOM     20  C   UNL     1      61.561  36.744  60.926  1.00  0.00     0.004 C 
ENDBRANCH  18  19
ENDBRANCH  17  18
ENDBRANCH  16  17
ENDBRANCH  15  16
ENDBRANCH  14  15
ENDBRANCH  13  14
ENDBRANCH   2  13
TORSDOF 15
ENDMDL
