MODEL 1
REMARK VINA RESULT:    -2.907      0.000      0.000
REMARK INTER + INTRA:          -3.418
REMARK INTER:                  -3.332
REMARK INTRA:                  -0.086
REMARK UNBOUND:                -0.086
REMARK SMILES COc1cc(C(=O)[O-])ccc1O
REMARK SMILES IDX 5 1 9 2 4 3 10 4 3 5 11 6 6 7 7 8 8 9 2 10 1 11 12 12
REMARK H PARENT 12 13
REMARK Flexibility Score: inf
ROOT
ATOM      1  C   UNL     1     134.162 129.930 117.810  1.00  0.00     0.001 A 
ATOM      2  C   UNL     1     133.327 128.831 117.557  1.00  0.00     0.014 A 
ATOM      3  C   UNL     1     134.201 130.475 119.107  1.00  0.00     0.060 A 
ATOM      4  C   UNL     1     132.545 128.288 118.577  1.00  0.00     0.051 A 
ATOM      5  C   UNL     1     133.413 129.931 120.141  1.00  0.00     0.161 A 
ATOM      6  C   UNL     1     132.583 128.830 119.865  1.00  0.00     0.157 A 
ENDROOT
BRANCH   1   7
ATOM      7  C   UNL     1     134.990 130.502 116.725  1.00  0.00     0.072 C 
ATOM      8  O   UNL     1     134.620 131.539 116.113  1.00  0.00    -0.545 OA
ATOM      9  O   UNL     1     136.191 129.900 116.364  1.00  0.00    -0.545 OA
ENDBRANCH   1   7
BRANCH   5  10
ATOM     10  O   UNL     1     133.430 130.455 121.443  1.00  0.00    -0.493 OA
ATOM     11  C   UNL     1     132.581 131.500 121.907  1.00  0.00     0.278 C 
ENDBRANCH   5  10
BRANCH   6  12
ATOM     12  O   UNL     1     131.787 128.260 120.858  1.00  0.00    -0.504 OA
ATOM     13  H   UNL     1     132.097 128.179 121.819  1.00  0.00     0.293 HD
ENDBRANCH   6  12
TORSDOF 3
ENDMDL
MODEL 2
REMARK VINA RESULT:    -2.794      1.320      2.750
REMARK INTER + INTRA:          -3.289
REMARK INTER:                  -3.214
REMARK INTRA:                  -0.075
REMARK UNBOUND:                -0.086
REMARK SMILES COc1cc(C(=O)[O-])ccc1O
REMARK SMILES IDX 5 1 9 2 4 3 10 4 3 5 11 6 6 7 7 8 8 9 2 10 1 11 12 12
REMARK H PARENT 12 13
REMARK Flexibility Score: inf
ROOT
ATOM      1  C   UNL     1     135.003 130.594 118.139  1.00  0.00     0.001 A 
ATOM      2  C   UNL     1     134.976 131.083 119.454  1.00  0.00     0.014 A 
ATOM      3  C   UNL     1     134.060 129.623 117.751  1.00  0.00     0.060 A 
ATOM      4  C   UNL     1     134.028 130.612 120.364  1.00  0.00     0.051 A 
ATOM      5  C   UNL     1     133.101 129.144 118.665  1.00  0.00     0.161 A 
ATOM      6  C   UNL     1     133.093 129.648 119.978  1.00  0.00     0.157 A 
ENDROOT
BRANCH   1   7
ATOM      7  C   UNL     1     136.009 131.096 117.178  1.00  0.00     0.072 C 
ATOM      8  O   UNL     1     135.917 132.259 116.701  1.00  0.00    -0.545 OA
ATOM      9  O   UNL     1     137.073 130.290 116.785  1.00  0.00    -0.545 OA
ENDBRANCH   1   7
BRANCH   5  10
ATOM     10  O   UNL     1     132.150 128.176 118.307  1.00  0.00    -0.493 OA
ATOM     11  C   UNL     1     131.730 127.908 116.972  1.00  0.00     0.278 C 
ENDBRANCH   5  10
BRANCH   6  12
ATOM     12  O   UNL     1     132.161 129.202 120.916  1.00  0.00    -0.504 OA
ATOM     13  H   UNL     1     132.212 128.279 121.332  1.00  0.00     0.293 HD
ENDBRANCH   6  12
TORSDOF 3
ENDMDL
MODEL 3
REMARK VINA RESULT:    -2.705      6.790      8.760
REMARK INTER + INTRA:          -3.187
REMARK INTER:                  -3.111
REMARK INTRA:                  -0.076
REMARK UNBOUND:                -0.086
REMARK SMILES COc1cc(C(=O)[O-])ccc1O
REMARK SMILES IDX 5 1 9 2 4 3 10 4 3 5 11 6 6 7 7 8 8 9 2 10 1 11 12 12
REMARK H PARENT 12 13
REMARK Flexibility Score: inf
ROOT
ATOM      1  C   UNL     1     136.695 136.276 117.732  1.00  0.00     0.001 A 
ATOM      2  C   UNL     1     136.751 134.882 117.579  1.00  0.00     0.014 A 
ATOM      3  C   UNL     1     137.803 137.053 117.344  1.00  0.00     0.060 A 
ATOM      4  C   UNL     1     137.891 134.275 117.048  1.00  0.00     0.051 A 
ATOM      5  C   UNL     1     138.956 136.445 116.808  1.00  0.00     0.161 A 
ATOM      6  C   UNL     1     138.991 135.047 116.663  1.00  0.00     0.157 A 
ENDROOT
BRANCH   1   7
ATOM      7  C   UNL     1     135.485 136.916 118.295  1.00  0.00     0.072 C 
ATOM      8  O   UNL     1     135.288 136.936 119.539  1.00  0.00    -0.545 OA
ATOM      9  O   UNL     1     134.544 137.503 117.455  1.00  0.00    -0.545 OA
ENDBRANCH   1   7
BRANCH   5  10
ATOM     10  O   UNL     1     140.076 137.193 116.413  1.00  0.00    -0.493 OA
ATOM     11  C   UNL     1     140.483 138.419 117.013  1.00  0.00     0.278 C 
ENDBRANCH   5  10
BRANCH   6  12
ATOM     12  O   UNL     1     140.112 134.404 116.137  1.00  0.00    -0.504 OA
ATOM     13  H   UNL     1     140.110 133.982 115.216  1.00  0.00     0.293 HD
ENDBRANCH   6  12
TORSDOF 3
ENDMDL
MODEL 4
REMARK VINA RESULT:    -2.655     16.806     18.118
REMARK INTER + INTRA:          -3.129
REMARK INTER:                  -3.038
REMARK INTRA:                  -0.091
REMARK UNBOUND:                -0.086
REMARK SMILES COc1cc(C(=O)[O-])ccc1O
REMARK SMILES IDX 5 1 9 2 4 3 10 4 3 5 11 6 6 7 7 8 8 9 2 10 1 11 12 12
REMARK H PARENT 12 13
REMARK Flexibility Score: inf
ROOT
ATOM      1  C   UNL     1     140.447 146.222 118.113  1.00  0.00     0.001 A 
ATOM      2  C   UNL     1     141.565 147.034 117.866  1.00  0.00     0.014 A 
ATOM      3  C   UNL     1     140.191 145.790 119.428  1.00  0.00     0.060 A 
ATOM      4  C   UNL     1     142.411 147.407 118.912  1.00  0.00     0.051 A 
ATOM      5  C   UNL     1     141.042 146.164 120.486  1.00  0.00     0.161 A 
ATOM      6  C   UNL     1     142.157 146.978 120.217  1.00  0.00     0.157 A 
ENDROOT
BRANCH   1   7
ATOM      7  C   UNL     1     139.552 145.830 117.001  1.00  0.00     0.072 C 
ATOM      8  O   UNL     1     139.701 144.723 116.416  1.00  0.00    -0.545 OA
ATOM      9  O   UNL     1     138.532 146.679 116.584  1.00  0.00    -0.545 OA
ENDBRANCH   1   7
BRANCH   5  10
ATOM     10  O   UNL     1     140.812 145.748 121.808  1.00  0.00    -0.493 OA
ATOM     11  C   UNL     1     140.899 144.400 122.258  1.00  0.00     0.278 C 
ENDBRANCH   5  10
BRANCH   6  12
ATOM     12  O   UNL     1     143.025 147.371 121.235  1.00  0.00    -0.504 OA
ATOM     13  H   UNL     1     142.692 147.683 122.140  1.00  0.00     0.293 HD
ENDBRANCH   6  12
TORSDOF 3
ENDMDL
MODEL 5
REMARK VINA RESULT:    -2.628     16.803     18.274
REMARK INTER + INTRA:          -3.098
REMARK INTER:                  -3.018
REMARK INTRA:                  -0.080
REMARK UNBOUND:                -0.086
REMARK SMILES COc1cc(C(=O)[O-])ccc1O
REMARK SMILES IDX 5 1 9 2 4 3 10 4 3 5 11 6 6 7 7 8 8 9 2 10 1 11 12 12
REMARK H PARENT 12 13
REMARK Flexibility Score: inf
ROOT
ATOM      1  C   UNL     1     139.744 145.816 118.170  1.00  0.00     0.001 A 
ATOM      2  C   UNL     1     139.605 145.509 119.532  1.00  0.00     0.014 A 
ATOM      3  C   UNL     1     140.879 146.530 117.741  1.00  0.00     0.060 A 
ATOM      4  C   UNL     1     140.580 145.907 120.449  1.00  0.00     0.051 A 
ATOM      5  C   UNL     1     141.865 146.935 118.663  1.00  0.00     0.161 A 
ATOM      6  C   UNL     1     141.706 146.617 120.023  1.00  0.00     0.157 A 
ENDROOT
BRANCH   1   7
ATOM      7  C   UNL     1     138.708 145.391 117.201  1.00  0.00     0.072 C 
ATOM      8  O   UNL     1     137.833 144.544 117.527  1.00  0.00    -0.545 OA
ATOM      9  O   UNL     1     138.687 145.920 115.915  1.00  0.00    -0.545 OA
ENDBRANCH   1   7
BRANCH   5  10
ATOM     10  O   UNL     1     143.006 147.649 118.265  1.00  0.00    -0.493 OA
ATOM     11  C   UNL     1     143.385 147.881 116.911  1.00  0.00     0.278 C 
ENDBRANCH   5  10
BRANCH   6  12
ATOM     12  O   UNL     1     142.658 146.998 120.969  1.00  0.00    -0.504 OA
ATOM     13  H   UNL     1     142.475 146.960 121.965  1.00  0.00     0.293 HD
ENDBRANCH   6  12
TORSDOF 3
ENDMDL
MODEL 6
REMARK VINA RESULT:    -2.619      1.518      1.954
REMARK INTER + INTRA:          -3.087
REMARK INTER:                  -3.010
REMARK INTRA:                  -0.078
REMARK UNBOUND:                -0.086
REMARK SMILES COc1cc(C(=O)[O-])ccc1O
REMARK SMILES IDX 5 1 9 2 4 3 10 4 3 5 11 6 6 7 7 8 8 9 2 10 1 11 12 12
REMARK H PARENT 12 13
REMARK Flexibility Score: inf
ROOT
ATOM      1  C   UNL     1     135.241 130.856 117.881  1.00  0.00     0.001 A 
ATOM      2  C   UNL     1     134.728 130.044 116.858  1.00  0.00     0.014 A 
ATOM      3  C   UNL     1     134.655 130.798 119.159  1.00  0.00     0.060 A 
ATOM      4  C   UNL     1     133.650 129.191 117.106  1.00  0.00     0.051 A 
ATOM      5  C   UNL     1     133.567 129.940 119.415  1.00  0.00     0.161 A 
ATOM      6  C   UNL     1     133.069 129.135 118.375  1.00  0.00     0.157 A 
ENDROOT
BRANCH   1   7
ATOM      7  C   UNL     1     136.384 131.757 117.613  1.00  0.00     0.072 C 
ATOM      8  O   UNL     1     137.485 131.590 118.203  1.00  0.00    -0.545 OA
ATOM      9  O   UNL     1     136.258 132.804 116.707  1.00  0.00    -0.545 OA
ENDBRANCH   1   7
BRANCH   5  10
ATOM     10  O   UNL     1     132.962 129.862 120.679  1.00  0.00    -0.493 OA
ATOM     11  C   UNL     1     132.812 130.960 121.574  1.00  0.00     0.278 C 
ENDBRANCH   5  10
BRANCH   6  12
ATOM     12  O   UNL     1     131.993 128.271 118.584  1.00  0.00    -0.504 OA
ATOM     13  H   UNL     1     132.120 127.319 118.905  1.00  0.00     0.293 HD
ENDBRANCH   6  12
TORSDOF 3
ENDMDL
MODEL 7
REMARK VINA RESULT:    -2.599      8.383      9.935
REMARK INTER + INTRA:          -3.065
REMARK INTER:                  -2.990
REMARK INTRA:                  -0.075
REMARK UNBOUND:                -0.086
REMARK SMILES COc1cc(C(=O)[O-])ccc1O
REMARK SMILES IDX 5 1 9 2 4 3 10 4 3 5 11 6 6 7 7 8 8 9 2 10 1 11 12 12
REMARK H PARENT 12 13
REMARK Flexibility Score: inf
ROOT
ATOM      1  C   UNL     1     138.944 138.706 117.417  1.00  0.00     0.001 A 
ATOM      2  C   UNL     1     138.153 139.865 117.432  1.00  0.00     0.014 A 
ATOM      3  C   UNL     1     138.315 137.447 117.474  1.00  0.00     0.060 A 
ATOM      4  C   UNL     1     136.762 139.770 117.502  1.00  0.00     0.051 A 
ATOM      5  C   UNL     1     136.911 137.347 117.545  1.00  0.00     0.161 A 
ATOM      6  C   UNL     1     136.138 138.521 117.559  1.00  0.00     0.157 A 
ENDROOT
BRANCH   1   7
ATOM      7  C   UNL     1     140.418 138.811 117.341  1.00  0.00     0.072 C 
ATOM      8  O   UNL     1     141.144 138.325 118.249  1.00  0.00    -0.545 OA
ATOM      9  O   UNL     1     141.024 139.449 116.264  1.00  0.00    -0.545 OA
ENDBRANCH   1   7
BRANCH   5  10
ATOM     10  O   UNL     1     136.257 136.106 117.604  1.00  0.00    -0.493 OA
ATOM     11  C   UNL     1     136.895 134.845 117.428  1.00  0.00     0.278 C 
ENDBRANCH   5  10
BRANCH   6  12
ATOM     12  O   UNL     1     134.746 138.467 117.629  1.00  0.00    -0.504 OA
ATOM     13  H   UNL     1     134.173 138.235 116.826  1.00  0.00     0.293 HD
ENDBRANCH   6  12
TORSDOF 3
ENDMDL
MODEL 8
REMARK VINA RESULT:    -2.561      1.292      4.303
REMARK INTER + INTRA:          -3.022
REMARK INTER:                  -2.947
REMARK INTRA:                  -0.075
REMARK UNBOUND:                -0.086
REMARK SMILES COc1cc(C(=O)[O-])ccc1O
REMARK SMILES IDX 5 1 9 2 4 3 10 4 3 5 11 6 6 7 7 8 8 9 2 10 1 11 12 12
REMARK H PARENT 12 13
REMARK Flexibility Score: inf
ROOT
ATOM      1  C   UNL     1     133.318 129.742 119.987  1.00  0.00     0.001 A 
ATOM      2  C   UNL     1     132.544 128.639 119.595  1.00  0.00     0.014 A 
ATOM      3  C   UNL     1     134.032 130.459 119.008  1.00  0.00     0.060 A 
ATOM      4  C   UNL     1     132.483 128.259 118.254  1.00  0.00     0.051 A 
ATOM      5  C   UNL     1     133.975 130.079 117.652  1.00  0.00     0.161 A 
ATOM      6  C   UNL     1     133.192 128.970 117.282  1.00  0.00     0.157 A 
ENDROOT
BRANCH   1   7
ATOM      7  C   UNL     1     133.379 130.142 121.410  1.00  0.00     0.072 C 
ATOM      8  O   UNL     1     134.252 129.656 122.178  1.00  0.00    -0.545 OA
ATOM      9  O   UNL     1     132.470 131.062 121.923  1.00  0.00    -0.545 OA
ENDBRANCH   1   7
BRANCH   5  10
ATOM     10  O   UNL     1     134.676 130.774 116.654  1.00  0.00    -0.493 OA
ATOM     11  C   UNL     1     135.899 131.474 116.863  1.00  0.00     0.278 C 
ENDBRANCH   5  10
BRANCH   6  12
ATOM     12  O   UNL     1     133.107 128.559 115.952  1.00  0.00    -0.504 OA
ATOM     13  H   UNL     1     132.374 127.942 115.623  1.00  0.00     0.293 HD
ENDBRANCH   6  12
TORSDOF 3
ENDMDL
