MODEL 1
REMARK VINA RESULT:    -1.397      0.000      0.000
REMARK INTER + INTRA:          -1.617
REMARK INTER:                  -1.969
REMARK INTRA:                   0.352
REMARK UNBOUND:                 0.352
REMARK SMILES CC1=CCC(=C(C)C)C(=O)CC(C)=CCC1
REMARK SMILES IDX 12 1 14 2 13 3 15 4 16 5 2 6 1 7 3 8 11 10 9 11 10 12 5 13
REMARK SMILES IDX 6 14 7 15 8 16 4 17
REMARK H PARENT
REMARK Flexibility Score: 60.00
ROOT
ATOM      1  C   UNL     1      31.016  61.035  10.757  1.00  0.00    -0.070 C 
ATOM      2  C   UNL     1      31.933  60.355  10.030  1.00  0.00    -0.027 C 
ATOM      3  C   UNL     1      31.485  62.229  11.550  1.00  0.00     0.039 C 
ENDROOT
BRANCH   2   4
ATOM      4  C   UNL     1      31.657  59.100   9.235  1.00  0.00     0.032 C 
BRANCH   4   5
ATOM      5  C   UNL     1      31.756  57.843  10.111  1.00  0.00     0.034 C 
BRANCH   5   6
ATOM      6  C   UNL     1      30.752  56.762   9.736  1.00  0.00    -0.077 C 
ATOM      7  C   UNL     1      30.977  55.967   8.473  1.00  0.00     0.039 C 
ATOM      8  C   UNL     1      29.651  56.481  10.469  1.00  0.00    -0.023 CG0
ATOM      9  G   UNL     1      29.293  57.119  11.791  1.00  0.00     0.000 G0
ENDBRANCH   5   6
ENDBRANCH   4   5
ENDBRANCH   2   4
BRANCH   1  10
ATOM     10  C   UNL     1      29.550  60.654  10.800  1.00  0.00     0.111 C 
BRANCH  10  11
ATOM     11  C   UNL     1      29.268  59.703  11.928  1.00  0.00     0.163 C 
ATOM     12  O   UNL     1      29.687  59.975  13.086  1.00  0.00    -0.294 OA
BRANCH  11  13
ATOM     13  C   UNL     1      28.524  58.437  11.702  1.00  0.00    -0.002 C 
ATOM     14  C   UNL     1      27.197  58.466  11.400  1.00  0.00    -0.069 C 
ATOM     15  C   UNL     1      26.436  57.193  11.108  1.00  0.00     0.039 C 
ATOM     16  C   UNL     1      26.427  59.768  11.384  1.00  0.00     0.039 C 
BRANCH  13  17
ATOM     17  C   UNL     1      29.263  57.109  11.819  1.00  0.00     0.066 CG0
ATOM     18  G   UNL     1      29.637  56.500  10.487  1.00  0.00     0.000 G0
ENDBRANCH  13  17
ENDBRANCH  11  13
ENDBRANCH  10  11
ENDBRANCH   1  10
TORSDOF 0
ENDMDL
MODEL 2
REMARK VINA RESULT:    -1.300      2.229      4.346
REMARK INTER + INTRA:          -1.480
REMARK INTER:                  -1.784
REMARK INTRA:                   0.305
REMARK UNBOUND:                 0.352
REMARK SMILES CC1=CCC(=C(C)C)C(=O)CC(C)=CCC1
REMARK SMILES IDX 12 1 14 2 13 3 15 4 16 5 2 6 1 7 3 8 11 10 9 11 10 12 5 13
REMARK SMILES IDX 6 14 7 15 8 16 4 17
REMARK H PARENT
REMARK Flexibility Score: 60.00
ROOT
ATOM      1  C   UNL     1      26.861  56.032  11.150  1.00  0.00    -0.070 C 
ATOM      2  C   UNL     1      27.124  56.018   9.822  1.00  0.00    -0.027 C 
ATOM      3  C   UNL     1      25.422  56.141  11.585  1.00  0.00     0.039 C 
ENDROOT
BRANCH   2   4
ATOM      4  C   UNL     1      28.505  55.985   9.208  1.00  0.00     0.032 C 
BRANCH   4   5
ATOM      5  C   UNL     1      29.221  57.335   9.355  1.00  0.00     0.034 C 
BRANCH   5   6
ATOM      6  C   UNL     1      30.658  57.211   9.839  1.00  0.00    -0.077 C 
ATOM      7  C   UNL     1      31.655  56.476   8.977  1.00  0.00     0.039 C 
ATOM      8  C   UNL     1      31.094  57.712  11.017  1.00  0.00    -0.023 CG0
ATOM      9  G   UNL     1      30.265  58.530  11.981  1.00  0.00     0.000 G0
ENDBRANCH   5   6
ENDBRANCH   4   5
ENDBRANCH   2   4
BRANCH   1  10
ATOM     10  C   UNL     1      27.944  55.936  12.206  1.00  0.00     0.111 C 
BRANCH  10  11
ATOM     11  C   UNL     1      28.194  57.270  12.850  1.00  0.00     0.163 C 
ATOM     12  O   UNL     1      27.215  57.994  13.174  1.00  0.00    -0.294 OA
BRANCH  11  13
ATOM     13  C   UNL     1      29.575  57.762  13.094  1.00  0.00    -0.002 C 
ATOM     14  C   UNL     1      30.196  57.505  14.277  1.00  0.00    -0.069 C 
ATOM     15  C   UNL     1      31.621  57.945  14.522  1.00  0.00     0.039 C 
ATOM     16  C   UNL     1      29.470  56.807  15.406  1.00  0.00     0.039 C 
BRANCH  13  17
ATOM     17  C   UNL     1      30.283  58.559  12.005  1.00  0.00     0.066 CG0
ATOM     18  G   UNL     1      31.076  57.706  11.042  1.00  0.00     0.000 G0
ENDBRANCH  13  17
ENDBRANCH  11  13
ENDBRANCH  10  11
ENDBRANCH   1  10
TORSDOF 0
ENDMDL
MODEL 3
REMARK VINA RESULT:    -1.285      2.495      5.171
REMARK INTER + INTRA:          -1.458
REMARK INTER:                  -1.936
REMARK INTRA:                   0.478
REMARK UNBOUND:                 0.352
REMARK SMILES CC1=CCC(=C(C)C)C(=O)CC(C)=CCC1
REMARK SMILES IDX 12 1 14 2 13 3 15 4 16 5 2 6 1 7 3 8 11 10 9 11 10 12 5 13
REMARK SMILES IDX 6 14 7 15 8 16 4 17
REMARK H PARENT
REMARK Flexibility Score: 60.00
ROOT
ATOM      1  C   UNL     1      28.866  56.790  14.445  1.00  0.00    -0.070 C 
ATOM      2  C   UNL     1      29.532  57.637  15.265  1.00  0.00    -0.027 C 
ATOM      3  C   UNL     1      27.479  56.359  14.846  1.00  0.00     0.039 C 
ENDROOT
BRANCH   2   4
ATOM      4  C   UNL     1      30.950  58.116  15.057  1.00  0.00     0.032 C 
BRANCH   4   5
ATOM      5  C   UNL     1      31.021  59.647  14.967  1.00  0.00     0.034 C 
BRANCH   5   6
ATOM      6  C   UNL     1      29.958  60.253  14.062  1.00  0.00    -0.077 C 
ATOM      7  C   UNL     1      28.905  61.144  14.673  1.00  0.00     0.039 C 
ATOM      8  C   UNL     1      29.893  60.022  12.731  1.00  0.00    -0.023 CG0
ATOM      9  G   UNL     1      30.890  59.215  11.932  1.00  0.00     0.000 G0
ENDBRANCH   5   6
ENDBRANCH   4   5
ENDBRANCH   2   4
BRANCH   1  10
ATOM     10  C   UNL     1      29.451  56.270  13.146  1.00  0.00     0.111 C 
BRANCH  10  11
ATOM     11  C   UNL     1      29.226  57.242  12.022  1.00  0.00     0.163 C 
ATOM     12  O   UNL     1      28.051  57.473  11.630  1.00  0.00    -0.294 OA
BRANCH  11  13
ATOM     13  C   UNL     1      30.365  57.919  11.349  1.00  0.00    -0.002 C 
ATOM     14  C   UNL     1      30.926  57.374  10.235  1.00  0.00    -0.069 C 
ATOM     15  C   UNL     1      32.046  58.077   9.502  1.00  0.00     0.039 C 
ATOM     16  C   UNL     1      30.478  56.026   9.713  1.00  0.00     0.039 C 
BRANCH  13  17
ATOM     17  C   UNL     1      30.899  59.225  11.925  1.00  0.00     0.066 CG0
ATOM     18  G   UNL     1      29.874  60.007  12.713  1.00  0.00     0.000 G0
ENDBRANCH  13  17
ENDBRANCH  11  13
ENDBRANCH  10  11
ENDBRANCH   1  10
TORSDOF 0
ENDMDL
MODEL 4
REMARK VINA RESULT:    -1.281      1.615      2.117
REMARK INTER + INTRA:          -1.452
REMARK INTER:                  -2.240
REMARK INTRA:                   0.788
REMARK UNBOUND:                 0.352
REMARK SMILES CC1=CCC(=C(C)C)C(=O)CC(C)=CCC1
REMARK SMILES IDX 12 1 14 2 13 3 15 4 16 5 2 6 1 7 3 8 11 10 9 11 10 12 5 13
REMARK SMILES IDX 6 14 7 15 8 16 4 17
REMARK H PARENT
REMARK Flexibility Score: 60.00
ROOT
ATOM      1  C   UNL     1      31.357  59.603  10.437  1.00  0.00    -0.070 C 
ATOM      2  C   UNL     1      31.554  58.453   9.750  1.00  0.00    -0.027 C 
ATOM      3  C   UNL     1      31.653  60.905   9.738  1.00  0.00     0.039 C 
ENDROOT
BRANCH   2   4
ATOM      4  C   UNL     1      31.376  57.062  10.312  1.00  0.00     0.032 C 
BRANCH   4   5
ATOM      5  C   UNL     1      30.550  56.173   9.371  1.00  0.00     0.034 C 
BRANCH   5   6
ATOM      6  C   UNL     1      29.061  56.486   9.392  1.00  0.00    -0.077 C 
ATOM      7  C   UNL     1      28.299  56.484   8.089  1.00  0.00     0.039 C 
ATOM      8  C   UNL     1      28.378  56.784  10.521  1.00  0.00    -0.023 CG0
ATOM      9  G   UNL     1      28.950  56.772  11.920  1.00  0.00     0.000 G0
ENDBRANCH   5   6
ENDBRANCH   4   5
ENDBRANCH   2   4
BRANCH   1  10
ATOM     10  C   UNL     1      30.848  59.635  11.864  1.00  0.00     0.111 C 
BRANCH  10  11
ATOM     11  C   UNL     1      29.377  59.335  11.923  1.00  0.00     0.163 C 
ATOM     12  O   UNL     1      28.562  60.129  11.382  1.00  0.00    -0.294 OA
BRANCH  11  13
ATOM     13  C   UNL     1      28.863  58.130  12.625  1.00  0.00    -0.002 C 
ATOM     14  C   UNL     1      28.337  58.238  13.876  1.00  0.00    -0.069 C 
ATOM     15  C   UNL     1      27.755  57.035  14.583  1.00  0.00     0.039 C 
ATOM     16  C   UNL     1      28.352  59.554  14.620  1.00  0.00     0.039 C 
BRANCH  13  17
ATOM     17  C   UNL     1      28.938  56.776  11.930  1.00  0.00     0.066 CG0
ATOM     18  G   UNL     1      28.386  56.782  10.523  1.00  0.00     0.000 G0
ENDBRANCH  13  17
ENDBRANCH  11  13
ENDBRANCH  10  11
ENDBRANCH   1  10
TORSDOF 0
ENDMDL
MODEL 5
REMARK VINA RESULT:    -1.097      3.096      5.240
REMARK INTER + INTRA:          -1.193
REMARK INTER:                  -1.667
REMARK INTRA:                   0.474
REMARK UNBOUND:                 0.352
REMARK SMILES CC1=CCC(=C(C)C)C(=O)CC(C)=CCC1
REMARK SMILES IDX 12 1 14 2 13 3 15 4 16 5 2 6 1 7 3 8 11 10 9 11 10 12 5 13
REMARK SMILES IDX 6 14 7 15 8 16 4 17
REMARK H PARENT
REMARK Flexibility Score: 60.00
ROOT
ATOM      1  C   UNL     1      28.415  60.872  12.850  1.00  0.00    -0.070 C 
ATOM      2  C   UNL     1      28.209  61.112  14.166  1.00  0.00    -0.027 C 
ATOM      3  C   UNL     1      28.289  62.028  11.890  1.00  0.00     0.039 C 
ENDROOT
BRANCH   2   4
ATOM      4  C   UNL     1      28.226  60.065  15.256  1.00  0.00     0.032 C 
BRANCH   4   5
ATOM      5  C   UNL     1      29.350  60.321  16.269  1.00  0.00     0.034 C 
BRANCH   5   6
ATOM      6  C   UNL     1      30.639  60.822  15.633  1.00  0.00    -0.077 C 
ATOM      7  C   UNL     1      31.035  62.265  15.830  1.00  0.00     0.039 C 
ATOM      8  C   UNL     1      31.449  60.044  14.879  1.00  0.00    -0.023 CG0
ATOM      9  G   UNL     1      31.256  58.567  14.624  1.00  0.00     0.000 G0
ENDBRANCH   5   6
ENDBRANCH   4   5
ENDBRANCH   2   4
BRANCH   1  10
ATOM     10  C   UNL     1      28.772  59.502  12.308  1.00  0.00     0.111 C 
BRANCH  10  11
ATOM     11  C   UNL     1      30.259  59.285  12.317  1.00  0.00     0.163 C 
ATOM     12  O   UNL     1      30.993  59.997  11.581  1.00  0.00    -0.294 OA
BRANCH  11  13
ATOM     13  C   UNL     1      30.879  58.231  13.162  1.00  0.00    -0.002 C 
ATOM     14  C   UNL     1      31.083  56.982  12.661  1.00  0.00    -0.069 C 
ATOM     15  C   UNL     1      31.765  55.914  13.484  1.00  0.00     0.039 C 
ATOM     16  C   UNL     1      30.598  56.605  11.278  1.00  0.00     0.039 C 
BRANCH  13  17
ATOM     17  C   UNL     1      31.277  58.565  14.595  1.00  0.00     0.066 CG0
ATOM     18  G   UNL     1      31.431  60.046  14.855  1.00  0.00     0.000 G0
ENDBRANCH  13  17
ENDBRANCH  11  13
ENDBRANCH  10  11
ENDBRANCH   1  10
TORSDOF 0
ENDMDL
MODEL 6
REMARK VINA RESULT:    -1.064      2.403      4.280
REMARK INTER + INTRA:          -1.146
REMARK INTER:                  -1.507
REMARK INTRA:                   0.361
REMARK UNBOUND:                 0.352
REMARK SMILES CC1=CCC(=C(C)C)C(=O)CC(C)=CCC1
REMARK SMILES IDX 12 1 14 2 13 3 15 4 16 5 2 6 1 7 3 8 11 10 9 11 10 12 5 13
REMARK SMILES IDX 6 14 7 15 8 16 4 17
REMARK H PARENT
REMARK Flexibility Score: 60.00
ROOT
ATOM      1  C   UNL     1      29.258  61.746  11.939  1.00  0.00    -0.070 C 
ATOM      2  C   UNL     1      29.185  62.113  13.240  1.00  0.00    -0.027 C 
ATOM      3  C   UNL     1      28.546  62.599  10.921  1.00  0.00     0.039 C 
ENDROOT
BRANCH   2   4
ATOM      4  C   UNL     1      29.776  61.341  14.397  1.00  0.00     0.032 C 
BRANCH   4   5
ATOM      5  C   UNL     1      28.889  60.153  14.796  1.00  0.00     0.034 C 
BRANCH   5   6
ATOM      6  C   UNL     1      29.678  58.923  15.221  1.00  0.00    -0.077 C 
ATOM      7  C   UNL     1      30.473  58.976  16.503  1.00  0.00     0.039 C 
ATOM      8  C   UNL     1      29.721  57.779  14.501  1.00  0.00    -0.023 CG0
ATOM      9  G   UNL     1      28.944  57.514  13.232  1.00  0.00     0.000 G0
ENDBRANCH   5   6
ENDBRANCH   4   5
ENDBRANCH   2   4
BRANCH   1  10
ATOM     10  C   UNL     1      30.027  60.528  11.468  1.00  0.00     0.111 C 
BRANCH  10  11
ATOM     11  C   UNL     1      29.138  59.318  11.396  1.00  0.00     0.163 C 
ATOM     12  O   UNL     1      27.994  59.422  10.877  1.00  0.00    -0.294 OA
BRANCH  11  13
ATOM     13  C   UNL     1      29.573  58.007  11.943  1.00  0.00    -0.002 C 
ATOM     14  C   UNL     1      30.525  57.278  11.300  1.00  0.00    -0.069 C 
ATOM     15  C   UNL     1      31.024  55.970  11.871  1.00  0.00     0.039 C 
ATOM     16  C   UNL     1      31.089  57.727   9.970  1.00  0.00     0.039 C 
BRANCH  13  17
ATOM     17  C   UNL     1      28.937  57.490  13.227  1.00  0.00     0.066 CG0
ATOM     18  G   UNL     1      29.741  57.793  14.471  1.00  0.00     0.000 G0
ENDBRANCH  13  17
ENDBRANCH  11  13
ENDBRANCH  10  11
ENDBRANCH   1  10
TORSDOF 0
ENDMDL
MODEL 7
REMARK VINA RESULT:    -1.057      2.585      3.411
REMARK INTER + INTRA:          -1.138
REMARK INTER:                  -1.612
REMARK INTRA:                   0.474
REMARK UNBOUND:                 0.352
REMARK SMILES CC1=CCC(=C(C)C)C(=O)CC(C)=CCC1
REMARK SMILES IDX 12 1 14 2 13 3 15 4 16 5 2 6 1 7 3 8 11 10 9 11 10 12 5 13
REMARK SMILES IDX 6 14 7 15 8 16 4 17
REMARK H PARENT
REMARK Flexibility Score: 60.00
ROOT
ATOM      1  C   UNL     1      28.758  57.469  13.941  1.00  0.00    -0.070 C 
ATOM      2  C   UNL     1      30.048  57.101  13.763  1.00  0.00    -0.027 C 
ATOM      3  C   UNL     1      28.085  57.088  15.235  1.00  0.00     0.039 C 
ENDROOT
BRANCH   2   4
ATOM      4  C   UNL     1      30.856  57.335  12.507  1.00  0.00     0.032 C 
BRANCH   4   5
ATOM      5  C   UNL     1      30.754  56.148  11.539  1.00  0.00     0.034 C 
BRANCH   5   6
ATOM      6  C   UNL     1      30.383  56.551  10.119  1.00  0.00    -0.077 C 
ATOM      7  C   UNL     1      31.471  57.042   9.196  1.00  0.00     0.039 C 
ATOM      8  C   UNL     1      29.120  56.510   9.639  1.00  0.00    -0.023 CG0
ATOM      9  G   UNL     1      27.915  55.988  10.387  1.00  0.00     0.000 G0
ENDBRANCH   5   6
ENDBRANCH   4   5
ENDBRANCH   2   4
BRANCH   1  10
ATOM     10  C   UNL     1      27.973  58.250  12.906  1.00  0.00     0.111 C 
BRANCH  10  11
ATOM     11  C   UNL     1      26.893  57.403  12.292  1.00  0.00     0.163 C 
ATOM     12  O   UNL     1      25.951  56.982  13.016  1.00  0.00    -0.294 OA
BRANCH  11  13
ATOM     13  C   UNL     1      26.926  57.036  10.853  1.00  0.00    -0.002 C 
ATOM     14  C   UNL     1      26.087  57.644   9.970  1.00  0.00    -0.069 C 
ATOM     15  C   UNL     1      26.146  57.327   8.493  1.00  0.00     0.039 C 
ATOM     16  C   UNL     1      25.038  58.628  10.439  1.00  0.00     0.039 C 
BRANCH  13  17
ATOM     17  C   UNL     1      27.905  55.968  10.380  1.00  0.00     0.066 CG0
ATOM     18  G   UNL     1      29.106  56.522   9.650  1.00  0.00     0.000 G0
ENDBRANCH  13  17
ENDBRANCH  11  13
ENDBRANCH  10  11
ENDBRANCH   1  10
TORSDOF 0
ENDMDL
MODEL 8
REMARK VINA RESULT:    -1.024      2.532      3.689
REMARK INTER + INTRA:          -1.091
REMARK INTER:                  -1.629
REMARK INTRA:                   0.538
REMARK UNBOUND:                 0.352
REMARK SMILES CC1=CCC(=C(C)C)C(=O)CC(C)=CCC1
REMARK SMILES IDX 12 1 14 2 13 3 15 4 16 5 2 6 1 7 3 8 11 10 9 11 10 12 5 13
REMARK SMILES IDX 6 14 7 15 8 16 4 17
REMARK H PARENT
REMARK Flexibility Score: 60.00
ROOT
ATOM      1  C   UNL     1      29.175  59.928  11.858  1.00  0.00    -0.070 C 
ATOM      2  C   UNL     1      28.742  58.955  11.021  1.00  0.00    -0.027 C 
ATOM      3  C   UNL     1      29.596  61.244  11.256  1.00  0.00     0.039 C 
ENDROOT
BRANCH   2   4
ATOM      4  C   UNL     1      28.349  57.558  11.441  1.00  0.00     0.032 C 
BRANCH   4   5
ATOM      5  C   UNL     1      29.235  56.497  10.772  1.00  0.00     0.034 C 
BRANCH   5   6
ATOM      6  C   UNL     1      30.725  56.755  10.942  1.00  0.00    -0.077 C 
ATOM      7  C   UNL     1      31.575  56.945   9.709  1.00  0.00     0.039 C 
ATOM      8  C   UNL     1      31.339  56.808  12.145  1.00  0.00    -0.023 CG0
ATOM      9  G   UNL     1      30.650  56.707  13.486  1.00  0.00     0.000 G0
ENDBRANCH   5   6
ENDBRANCH   4   5
ENDBRANCH   2   4
BRANCH   1  10
ATOM     10  C   UNL     1      29.246  59.751  13.362  1.00  0.00     0.111 C 
BRANCH  10  11
ATOM     11  C   UNL     1      30.614  59.301  13.792  1.00  0.00     0.163 C 
ATOM     12  O   UNL     1      31.597  60.075  13.637  1.00  0.00    -0.294 OA
BRANCH  11  13
ATOM     13  C   UNL     1      30.833  57.952  14.376  1.00  0.00    -0.002 C 
ATOM     14  C   UNL     1      31.198  57.821  15.680  1.00  0.00    -0.069 C 
ATOM     15  C   UNL     1      31.369  56.457  16.309  1.00  0.00     0.039 C 
ATOM     16  C   UNL     1      31.487  59.034  16.538  1.00  0.00     0.039 C 
BRANCH  13  17
ATOM     17  C   UNL     1      30.650  56.722  13.496  1.00  0.00     0.066 CG0
ATOM     18  G   UNL     1      31.348  56.819  12.159  1.00  0.00     0.000 G0
ENDBRANCH  13  17
ENDBRANCH  11  13
ENDBRANCH  10  11
ENDBRANCH   1  10
TORSDOF 0
ENDMDL
MODEL 9
REMARK VINA RESULT:    -0.919      2.309      4.791
REMARK INTER + INTRA:          -0.943
REMARK INTER:                  -1.376
REMARK INTRA:                   0.433
REMARK UNBOUND:                 0.352
REMARK SMILES CC1=CCC(=C(C)C)C(=O)CC(C)=CCC1
REMARK SMILES IDX 12 1 14 2 13 3 15 4 16 5 2 6 1 7 3 8 11 10 9 11 10 12 5 13
REMARK SMILES IDX 6 14 7 15 8 16 4 17
REMARK H PARENT
REMARK Flexibility Score: 60.00
ROOT
ATOM      1  C   UNL     1      26.659  58.534  12.810  1.00  0.00    -0.070 C 
ATOM      2  C   UNL     1      27.172  59.271  13.822  1.00  0.00    -0.027 C 
ATOM      3  C   UNL     1      25.396  57.754  13.070  1.00  0.00     0.039 C 
ENDROOT
BRANCH   2   4
ATOM      4  C   UNL     1      28.461  60.056  13.761  1.00  0.00     0.032 C 
BRANCH   4   5
ATOM      5  C   UNL     1      29.478  59.554  14.796  1.00  0.00     0.034 C 
BRANCH   5   6
ATOM      6  C   UNL     1      29.721  58.053  14.729  1.00  0.00    -0.077 C 
ATOM      7  C   UNL     1      29.393  57.209  15.937  1.00  0.00     0.039 C 
ATOM      8  C   UNL     1      30.235  57.429  13.645  1.00  0.00    -0.023 CG0
ATOM      9  G   UNL     1      30.562  58.090  12.327  1.00  0.00     0.000 G0
ENDBRANCH   5   6
ENDBRANCH   4   5
ENDBRANCH   2   4
BRANCH   1  10
ATOM     10  C   UNL     1      27.293  58.467  11.434  1.00  0.00     0.111 C 
BRANCH  10  11
ATOM     11  C   UNL     1      28.276  57.334  11.344  1.00  0.00     0.163 C 
ATOM     12  O   UNL     1      27.866  56.148  11.461  1.00  0.00    -0.294 OA
BRANCH  11  13
ATOM     13  C   UNL     1      29.726  57.586  11.140  1.00  0.00    -0.002 C 
ATOM     14  C   UNL     1      30.294  57.377   9.921  1.00  0.00    -0.069 C 
ATOM     15  C   UNL     1      31.755  57.684   9.679  1.00  0.00     0.039 C 
ATOM     16  C   UNL     1      29.497  56.792   8.777  1.00  0.00     0.039 C 
BRANCH  13  17
ATOM     17  C   UNL     1      30.568  58.075  12.313  1.00  0.00     0.066 CG0
ATOM     18  G   UNL     1      30.213  57.426  13.631  1.00  0.00     0.000 G0
ENDBRANCH  13  17
ENDBRANCH  11  13
ENDBRANCH  10  11
ENDBRANCH   1  10
TORSDOF 0
ENDMDL
