MODEL 1
REMARK VINA RESULT:    -3.268      0.000      0.000
REMARK INTER + INTRA:          -3.652
REMARK INTER:                  -3.650
REMARK INTRA:                  -0.002
REMARK UNBOUND:                -0.002
REMARK SMILES CCCC(=O)[O-]
REMARK SMILES IDX 3 1 4 2 5 3 6 4 2 5 1 6
REMARK H PARENT
REMARK Flexibility Score: inf
ROOT
ATOM      1  C   UNL     1       3.567  -8.093  11.323  1.00  0.00     0.052 C 
ENDROOT
BRANCH   1   2
ATOM      2  C   UNL     1       2.384  -7.179  11.409  1.00  0.00     0.041 C 
ATOM      3  O   UNL     1       2.548  -5.944  11.587  1.00  0.00    -0.550 OA
ATOM      4  O   UNL     1       1.099  -7.688  11.257  1.00  0.00    -0.550 OA
ENDBRANCH   1   2
BRANCH   1   5
ATOM      5  C   UNL     1       4.532  -7.887  12.498  1.00  0.00     0.003 C 
ATOM      6  C   UNL     1       5.737  -7.026  12.116  1.00  0.00     0.004 C 
ENDBRANCH   1   5
TORSDOF 2
ENDMDL
MODEL 2
REMARK VINA RESULT:    -3.016      2.141      3.438
REMARK INTER + INTRA:          -3.371
REMARK INTER:                  -3.355
REMARK INTRA:                  -0.015
REMARK UNBOUND:                -0.002
REMARK SMILES CCCC(=O)[O-]
REMARK SMILES IDX 3 1 4 2 5 3 6 4 2 5 1 6
REMARK H PARENT
REMARK Flexibility Score: inf
ROOT
ATOM      1  C   UNL     1       3.292  -7.990  11.168  1.00  0.00     0.052 C 
ENDROOT
BRANCH   1   2
ATOM      2  C   UNL     1       4.364  -7.849  12.203  1.00  0.00     0.041 C 
ATOM      3  O   UNL     1       4.338  -8.557  13.244  1.00  0.00    -0.550 OA
ATOM      4  O   UNL     1       5.413  -6.959  12.004  1.00  0.00    -0.550 OA
ENDBRANCH   1   2
BRANCH   1   5
ATOM      5  C   UNL     1       2.143  -7.000  11.400  1.00  0.00     0.003 C 
ATOM      6  C   UNL     1       0.774  -7.680  11.356  1.00  0.00     0.004 C 
ENDBRANCH   1   5
TORSDOF 2
ENDMDL
