MODEL 1
REMARK VINA RESULT:    -4.904      0.000      0.000
REMARK INTER + INTRA:          -5.214
REMARK INTER:                  -5.191
REMARK INTRA:                  -0.023
REMARK UNBOUND:                -0.023
REMARK SMILES O=C([O-])c1cccnc1
REMARK SMILES IDX 4 1 5 2 9 3 6 4 8 5 7 6 2 7 1 8 3 9
REMARK H PARENT
REMARK Flexibility Score: inf
ROOT
ATOM      1  C   UNL     1     -20.243  -0.843   8.904  1.00  0.00     0.016 A 
ATOM      2  C   UNL     1     -20.126  -0.824   7.505  1.00  0.00     0.013 A 
ATOM      3  C   UNL     1     -20.637   0.337   9.558  1.00  0.00     0.120 A 
ATOM      4  C   UNL     1     -20.398   0.347   6.794  1.00  0.00     0.021 A 
ATOM      5  N   UNL     1     -20.896   1.464   8.842  1.00  0.00    -0.264 NA
ATOM      6  C   UNL     1     -20.787   1.494   7.488  1.00  0.00     0.111 A 
ENDROOT
BRANCH   1   7
ATOM      7  C   UNL     1     -19.957  -2.077   9.666  1.00  0.00     0.073 C 
ATOM      8  O   UNL     1     -20.243  -2.154  10.890  1.00  0.00    -0.545 OA
ATOM      9  O   UNL     1     -19.368  -3.171   9.042  1.00  0.00    -0.545 OA
ENDBRANCH   1   7
TORSDOF 1
ENDMDL
MODEL 2
REMARK VINA RESULT:    -4.865      0.192      1.092
REMARK INTER + INTRA:          -5.173
REMARK INTER:                  -5.149
REMARK INTRA:                  -0.024
REMARK UNBOUND:                -0.023
REMARK SMILES O=C([O-])c1cccnc1
REMARK SMILES IDX 4 1 5 2 9 3 6 4 8 5 7 6 2 7 1 8 3 9
REMARK H PARENT
REMARK Flexibility Score: inf
ROOT
ATOM      1  C   UNL     1     -20.252  -0.776   9.019  1.00  0.00     0.016 A 
ATOM      2  C   UNL     1     -20.106  -0.800   7.623  1.00  0.00     0.013 A 
ATOM      3  C   UNL     1     -20.704   0.411   9.624  1.00  0.00     0.120 A 
ATOM      4  C   UNL     1     -20.403   0.336   6.867  1.00  0.00     0.021 A 
ATOM      5  N   UNL     1     -20.988   1.502   8.864  1.00  0.00    -0.264 NA
ATOM      6  C   UNL     1     -20.849   1.490   7.513  1.00  0.00     0.111 A 
ENDROOT
BRANCH   1   7
ATOM      7  C   UNL     1     -19.940  -1.973   9.829  1.00  0.00     0.073 C 
ATOM      8  O   UNL     1     -19.459  -3.004   9.288  1.00  0.00    -0.545 OA
ATOM      9  O   UNL     1     -20.175  -1.978  11.199  1.00  0.00    -0.545 OA
ENDBRANCH   1   7
TORSDOF 1
ENDMDL
MODEL 3
REMARK VINA RESULT:    -4.806      2.638      3.387
REMARK INTER + INTRA:          -5.110
REMARK INTER:                  -5.087
REMARK INTRA:                  -0.023
REMARK UNBOUND:                -0.023
REMARK SMILES O=C([O-])c1cccnc1
REMARK SMILES IDX 4 1 5 2 9 3 6 4 8 5 7 6 2 7 1 8 3 9
REMARK H PARENT
REMARK Flexibility Score: inf
ROOT
ATOM      1  C   UNL     1     -20.850   0.720   9.005  1.00  0.00     0.016 A 
ATOM      2  C   UNL     1     -20.710   0.900   7.619  1.00  0.00     0.013 A 
ATOM      3  C   UNL     1     -20.543  -0.539   9.549  1.00  0.00     0.120 A 
ATOM      4  C   UNL     1     -20.277  -0.155   6.815  1.00  0.00     0.021 A 
ATOM      5  N   UNL     1     -20.122  -1.551   8.743  1.00  0.00    -0.264 NA
ATOM      6  C   UNL     1     -19.984  -1.387   7.402  1.00  0.00     0.111 A 
ENDROOT
BRANCH   1   7
ATOM      7  C   UNL     1     -21.307   1.831   9.866  1.00  0.00     0.073 C 
ATOM      8  O   UNL     1     -21.247   1.735  11.121  1.00  0.00    -0.545 OA
ATOM      9  O   UNL     1     -21.812   2.998   9.303  1.00  0.00    -0.545 OA
ENDBRANCH   1   7
TORSDOF 1
ENDMDL
MODEL 4
REMARK VINA RESULT:    -4.717      2.675      3.426
REMARK INTER + INTRA:          -5.016
REMARK INTER:                  -4.992
REMARK INTRA:                  -0.024
REMARK UNBOUND:                -0.023
REMARK SMILES O=C([O-])c1cccnc1
REMARK SMILES IDX 4 1 5 2 9 3 6 4 8 5 7 6 2 7 1 8 3 9
REMARK H PARENT
REMARK Flexibility Score: inf
ROOT
ATOM      1  C   UNL     1     -20.838   0.597   9.056  1.00  0.00     0.016 A 
ATOM      2  C   UNL     1     -20.731   0.682   7.659  1.00  0.00     0.013 A 
ATOM      3  C   UNL     1     -20.487  -0.613   9.680  1.00  0.00     0.120 A 
ATOM      4  C   UNL     1     -20.286  -0.417   6.920  1.00  0.00     0.021 A 
ATOM      5  N   UNL     1     -20.056  -1.668   8.938  1.00  0.00    -0.264 NA
ATOM      6  C   UNL     1     -19.949  -1.596   7.586  1.00  0.00     0.111 A 
ENDROOT
BRANCH   1   7
ATOM      7  C   UNL     1     -21.307   1.754   9.847  1.00  0.00     0.073 C 
ATOM      8  O   UNL     1     -21.742   2.788   9.272  1.00  0.00    -0.545 OA
ATOM      9  O   UNL     1     -21.273   1.720  11.236  1.00  0.00    -0.545 OA
ENDBRANCH   1   7
TORSDOF 1
ENDMDL
MODEL 5
REMARK VINA RESULT:    -4.606      2.738      3.812
REMARK INTER + INTRA:          -4.899
REMARK INTER:                  -4.876
REMARK INTRA:                  -0.023
REMARK UNBOUND:                -0.023
REMARK SMILES O=C([O-])c1cccnc1
REMARK SMILES IDX 4 1 5 2 9 3 6 4 8 5 7 6 2 7 1 8 3 9
REMARK H PARENT
REMARK Flexibility Score: inf
ROOT
ATOM      1  C   UNL     1     -20.601  -0.003   8.897  1.00  0.00     0.016 A 
ATOM      2  C   UNL     1     -20.269  -0.830   9.982  1.00  0.00     0.013 A 
ATOM      3  C   UNL     1     -20.482  -0.526   7.598  1.00  0.00     0.120 A 
ATOM      4  C   UNL     1     -19.832  -2.138   9.760  1.00  0.00     0.021 A 
ATOM      5  N   UNL     1     -20.054  -1.804   7.409  1.00  0.00    -0.264 NA
ATOM      6  C   UNL     1     -19.730  -2.612   8.452  1.00  0.00     0.111 A 
ENDROOT
BRANCH   1   7
ATOM      7  C   UNL     1     -21.065   1.382   9.122  1.00  0.00     0.073 C 
ATOM      8  O   UNL     1     -21.106   2.205   8.168  1.00  0.00    -0.545 OA
ATOM      9  O   UNL     1     -21.462   1.797  10.388  1.00  0.00    -0.545 OA
ENDBRANCH   1   7
TORSDOF 1
ENDMDL
MODEL 6
REMARK VINA RESULT:    -4.565      1.111      1.891
REMARK INTER + INTRA:          -4.855
REMARK INTER:                  -4.832
REMARK INTRA:                  -0.024
REMARK UNBOUND:                -0.023
REMARK SMILES O=C([O-])c1cccnc1
REMARK SMILES IDX 4 1 5 2 9 3 6 4 8 5 7 6 2 7 1 8 3 9
REMARK H PARENT
REMARK Flexibility Score: inf
ROOT
ATOM      1  C   UNL     1     -20.490  -0.157   9.156  1.00  0.00     0.016 A 
ATOM      2  C   UNL     1     -21.080   0.638  10.151  1.00  0.00     0.013 A 
ATOM      3  C   UNL     1     -20.311   0.399   7.876  1.00  0.00     0.120 A 
ATOM      4  C   UNL     1     -21.476   1.945   9.863  1.00  0.00     0.021 A 
ATOM      5  N   UNL     1     -20.705   1.675   7.622  1.00  0.00    -0.264 NA
ATOM      6  C   UNL     1     -21.278   2.452   8.578  1.00  0.00     0.111 A 
ENDROOT
BRANCH   1   7
ATOM      7  C   UNL     1     -20.067  -1.542   9.451  1.00  0.00     0.073 C 
ATOM      8  O   UNL     1     -20.043  -1.965  10.637  1.00  0.00    -0.545 OA
ATOM      9  O   UNL     1     -19.688  -2.398   8.423  1.00  0.00    -0.545 OA
ENDBRANCH   1   7
TORSDOF 1
ENDMDL
MODEL 7
REMARK VINA RESULT:    -4.108      1.872      2.671
REMARK INTER + INTRA:          -4.371
REMARK INTER:                  -4.348
REMARK INTRA:                  -0.024
REMARK UNBOUND:                -0.023
REMARK SMILES O=C([O-])c1cccnc1
REMARK SMILES IDX 4 1 5 2 9 3 6 4 8 5 7 6 2 7 1 8 3 9
REMARK H PARENT
REMARK Flexibility Score: inf
ROOT
ATOM      1  C   UNL     1     -20.504   0.314   8.173  1.00  0.00     0.016 A 
ATOM      2  C   UNL     1     -20.772   1.608   7.700  1.00  0.00     0.013 A 
ATOM      3  C   UNL     1     -20.750   0.033   9.528  1.00  0.00     0.120 A 
ATOM      4  C   UNL     1     -21.270   2.583   8.567  1.00  0.00     0.021 A 
ATOM      5  N   UNL     1     -21.237   1.000  10.351  1.00  0.00    -0.264 NA
ATOM      6  C   UNL     1     -21.500   2.256   9.904  1.00  0.00     0.111 A 
ENDROOT
BRANCH   1   7
ATOM      7  C   UNL     1     -19.976  -0.726   7.263  1.00  0.00     0.073 C 
ATOM      8  O   UNL     1     -19.509  -0.412   6.136  1.00  0.00    -0.545 OA
ATOM      9  O   UNL     1     -19.989  -2.064   7.639  1.00  0.00    -0.545 OA
ENDBRANCH   1   7
TORSDOF 1
ENDMDL
MODEL 8
REMARK VINA RESULT:    -3.373      2.497      3.433
REMARK INTER + INTRA:          -3.593
REMARK INTER:                  -3.570
REMARK INTRA:                  -0.023
REMARK UNBOUND:                -0.023
REMARK SMILES O=C([O-])c1cccnc1
REMARK SMILES IDX 4 1 5 2 9 3 6 4 8 5 7 6 2 7 1 8 3 9
REMARK H PARENT
REMARK Flexibility Score: inf
ROOT
ATOM      1  C   UNL     1     -20.286  -0.313   8.499  1.00  0.00     0.016 A 
ATOM      2  C   UNL     1     -19.886  -1.654   8.616  1.00  0.00     0.013 A 
ATOM      3  C   UNL     1     -20.695   0.365   9.661  1.00  0.00     0.120 A 
ATOM      4  C   UNL     1     -19.900  -2.285   9.862  1.00  0.00     0.021 A 
ATOM      5  N   UNL     1     -20.698  -0.272  10.863  1.00  0.00    -0.264 NA
ATOM      6  C   UNL     1     -20.313  -1.569  10.986  1.00  0.00     0.111 A 
ENDROOT
BRANCH   1   7
ATOM      7  C   UNL     1     -20.275   0.364   7.185  1.00  0.00     0.073 C 
ATOM      8  O   UNL     1     -20.844   1.478   7.035  1.00  0.00    -0.545 OA
ATOM      9  O   UNL     1     -19.639  -0.220   6.096  1.00  0.00    -0.545 OA
ENDBRANCH   1   7
TORSDOF 1
ENDMDL
MODEL 9
REMARK VINA RESULT:    -3.212     13.223     13.797
REMARK INTER + INTRA:          -3.423
REMARK INTER:                  -3.402
REMARK INTRA:                  -0.021
REMARK UNBOUND:                -0.023
REMARK SMILES O=C([O-])c1cccnc1
REMARK SMILES IDX 4 1 5 2 9 3 6 4 8 5 7 6 2 7 1 8 3 9
REMARK H PARENT
REMARK Flexibility Score: inf
ROOT
ATOM      1  C   UNL     1     -13.563  10.768  12.548  1.00  0.00     0.016 A 
ATOM      2  C   UNL     1     -12.563  11.102  11.620  1.00  0.00     0.013 A 
ATOM      3  C   UNL     1     -14.836  10.422  12.062  1.00  0.00     0.120 A 
ATOM      4  C   UNL     1     -12.841  11.087  10.252  1.00  0.00     0.021 A 
ATOM      5  N   UNL     1     -15.081  10.415  10.724  1.00  0.00    -0.264 NA
ATOM      6  C   UNL     1     -14.121  10.736   9.818  1.00  0.00     0.111 A 
ENDROOT
BRANCH   1   7
ATOM      7  C   UNL     1     -13.278  10.780  13.998  1.00  0.00     0.073 C 
ATOM      8  O   UNL     1     -14.168  11.125  14.822  1.00  0.00    -0.545 OA
ATOM      9  O   UNL     1     -12.025  10.414  14.474  1.00  0.00    -0.545 OA
ENDBRANCH   1   7
TORSDOF 1
ENDMDL
