MODEL 1
REMARK VINA RESULT:    -3.293      0.000      0.000
REMARK INTER + INTRA:          -6.158
REMARK INTER:                  -5.411
REMARK INTRA:                  -0.747
REMARK UNBOUND:                -0.747
REMARK SMILES CCCCCCCCCCCC(=O)OC
REMARK SMILES IDX 7 1 6 2 5 3 4 4 3 5 2 6 1 7 8 8 9 9 10 10 11 11 12 12 13 13
REMARK SMILES IDX 14 14 15 15
REMARK H PARENT
REMARK Flexibility Score: inf
ROOT
ATOM      1  C   UNL     1      19.909  78.467 100.801  1.00  0.00     0.000 C 
ENDROOT
BRANCH   1   2
ATOM      2  C   UNL     1      20.609  77.905 102.052  1.00  0.00     0.000 C 
BRANCH   2   3
ATOM      3  C   UNL     1      20.315  78.724 103.321  1.00  0.00    -0.000 C 
BRANCH   3   4
ATOM      4  C   UNL     1      20.523  80.231 103.111  1.00  0.00    -0.000 C 
BRANCH   4   5
ATOM      5  C   UNL     1      20.481  81.022 104.431  1.00  0.00    -0.000 C 
BRANCH   5   6
ATOM      6  C   UNL     1      20.487  82.541 104.207  1.00  0.00    -0.003 C 
ATOM      7  C   UNL     1      21.549  82.986 103.203  1.00  0.00     0.004 C 
ENDBRANCH   5   6
ENDBRANCH   4   5
ENDBRANCH   3   4
ENDBRANCH   2   3
ENDBRANCH   1   2
BRANCH   1   8
ATOM      8  C   UNL     1      20.200  77.705  99.495  1.00  0.00     0.000 C 
BRANCH   8   9
ATOM      9  C   UNL     1      20.380  78.638  98.286  1.00  0.00     0.001 C 
BRANCH   9  10
ATOM     10  C   UNL     1      20.171  80.117  98.646  1.00  0.00     0.012 C 
BRANCH  10  11
ATOM     11  C   UNL     1      21.217  81.036  98.000  1.00  0.00     0.123 C 
BRANCH  11  12
ATOM     12  C   UNL     1      22.453  81.087  98.841  1.00  0.00     0.305 C 
ATOM     13  O   UNL     1      22.364  80.967 100.094  1.00  0.00    -0.252 OA
BRANCH  12  14
ATOM     14  O   UNL     1      23.700  81.221  98.224  1.00  0.00    -0.469 OA
ATOM     15  C   UNL     1      24.186  82.470  97.746  1.00  0.00     0.282 C 
ENDBRANCH  12  14
ENDBRANCH  11  12
ENDBRANCH  10  11
ENDBRANCH   9  10
ENDBRANCH   8   9
ENDBRANCH   1   8
TORSDOF 11
ENDMDL
MODEL 2
REMARK VINA RESULT:    -3.086      2.414      5.978
REMARK INTER + INTRA:          -5.817
REMARK INTER:                  -4.714
REMARK INTRA:                  -1.103
REMARK UNBOUND:                -0.747
REMARK SMILES CCCCCCCCCCCC(=O)OC
REMARK SMILES IDX 7 1 6 2 5 3 4 4 3 5 2 6 1 7 8 8 9 9 10 10 11 11 12 12 13 13
REMARK SMILES IDX 14 14 15 15
REMARK H PARENT
REMARK Flexibility Score: inf
ROOT
ATOM      1  C   UNL     1      21.789  81.292 100.708  1.00  0.00     0.000 C 
ENDROOT
BRANCH   1   2
ATOM      2  C   UNL     1      20.479  80.846 100.032  1.00  0.00     0.000 C 
BRANCH   2   3
ATOM      3  C   UNL     1      20.478  81.084  98.513  1.00  0.00    -0.000 C 
BRANCH   3   4
ATOM      4  C   UNL     1      21.887  81.021  97.905  1.00  0.00    -0.000 C 
BRANCH   4   5
ATOM      5  C   UNL     1      22.286  82.331  97.203  1.00  0.00    -0.000 C 
BRANCH   5   6
ATOM      6  C   UNL     1      23.622  82.889  97.714  1.00  0.00    -0.003 C 
ATOM      7  C   UNL     1      24.740  81.848  97.701  1.00  0.00     0.004 C 
ENDBRANCH   5   6
ENDBRANCH   4   5
ENDBRANCH   3   4
ENDBRANCH   2   3
ENDBRANCH   1   2
BRANCH   1   8
ATOM      8  C   UNL     1      21.754  82.702 101.327  1.00  0.00     0.000 C 
BRANCH   8   9
ATOM      9  C   UNL     1      20.579  82.901 102.299  1.00  0.00     0.001 C 
BRANCH   9  10
ATOM     10  C   UNL     1      20.949  82.556 103.751  1.00  0.00     0.012 C 
BRANCH  10  11
ATOM     11  C   UNL     1      19.948  81.594 104.403  1.00  0.00     0.123 C 
BRANCH  11  12
ATOM     12  C   UNL     1      20.433  80.183 104.284  1.00  0.00     0.305 C 
ATOM     13  O   UNL     1      21.147  79.687 105.198  1.00  0.00    -0.252 OA
BRANCH  12  14
ATOM     14  O   UNL     1      20.050  79.416 103.180  1.00  0.00    -0.469 OA
ATOM     15  C   UNL     1      20.673  78.179 102.856  1.00  0.00     0.282 C 
ENDBRANCH  12  14
ENDBRANCH  11  12
ENDBRANCH  10  11
ENDBRANCH   9  10
ENDBRANCH   8   9
ENDBRANCH   1   8
TORSDOF 11
ENDMDL
MODEL 3
REMARK VINA RESULT:    -3.065     22.064     23.711
REMARK INTER + INTRA:          -5.782
REMARK INTER:                  -5.037
REMARK INTRA:                  -0.746
REMARK UNBOUND:                -0.747
REMARK SMILES CCCCCCCCCCCC(=O)OC
REMARK SMILES IDX 7 1 6 2 5 3 4 4 3 5 2 6 1 7 8 8 9 9 10 10 11 11 12 12 13 13
REMARK SMILES IDX 14 14 15 15
REMARK H PARENT
REMARK Flexibility Score: inf
ROOT
ATOM      1  C   UNL     1      36.862  63.473  98.083  1.00  0.00     0.000 C 
ENDROOT
BRANCH   1   2
ATOM      2  C   UNL     1      37.802  64.614  97.656  1.00  0.00     0.000 C 
BRANCH   2   3
ATOM      3  C   UNL     1      38.361  64.430  96.235  1.00  0.00    -0.000 C 
BRANCH   3   4
ATOM      4  C   UNL     1      37.801  63.179  95.539  1.00  0.00    -0.000 C 
BRANCH   4   5
ATOM      5  C   UNL     1      37.149  63.502  94.183  1.00  0.00    -0.000 C 
BRANCH   5   6
ATOM      6  C   UNL     1      35.791  64.203  94.335  1.00  0.00    -0.003 C 
ATOM      7  C   UNL     1      34.747  63.324  95.022  1.00  0.00     0.004 C 
ENDBRANCH   5   6
ENDBRANCH   4   5
ENDBRANCH   3   4
ENDBRANCH   2   3
ENDBRANCH   1   2
BRANCH   1   8
ATOM      8  C   UNL     1      36.254  63.622  99.490  1.00  0.00     0.000 C 
BRANCH   8   9
ATOM      9  C   UNL     1      37.160  64.405 100.455  1.00  0.00     0.001 C 
BRANCH   9  10
ATOM     10  C   UNL     1      37.650  63.546 101.632  1.00  0.00     0.012 C 
BRANCH  10  11
ATOM     11  C   UNL     1      36.521  63.178 102.604  1.00  0.00     0.123 C 
BRANCH  11  12
ATOM     12  C   UNL     1      36.826  63.700 103.973  1.00  0.00     0.305 C 
ATOM     13  O   UNL     1      38.012  63.674 104.404  1.00  0.00    -0.252 OA
BRANCH  12  14
ATOM     14  O   UNL     1      35.798  64.252 104.743  1.00  0.00    -0.469 OA
ATOM     15  C   UNL     1      35.979  64.628 106.103  1.00  0.00     0.282 C 
ENDBRANCH  12  14
ENDBRANCH  11  12
ENDBRANCH  10  11
ENDBRANCH   9  10
ENDBRANCH   8   9
ENDBRANCH   1   8
TORSDOF 11
ENDMDL
MODEL 4
REMARK VINA RESULT:    -3.061      2.036      5.273
REMARK INTER + INTRA:          -5.776
REMARK INTER:                  -4.788
REMARK INTRA:                  -0.989
REMARK UNBOUND:                -0.747
REMARK SMILES CCCCCCCCCCCC(=O)OC
REMARK SMILES IDX 7 1 6 2 5 3 4 4 3 5 2 6 1 7 8 8 9 9 10 10 11 11 12 12 13 13
REMARK SMILES IDX 14 14 15 15
REMARK H PARENT
REMARK Flexibility Score: inf
ROOT
ATOM      1  C   UNL     1      20.829  78.633  98.525  1.00  0.00     0.000 C 
ENDROOT
BRANCH   1   2
ATOM      2  C   UNL     1      20.140  79.257  97.298  1.00  0.00     0.000 C 
BRANCH   2   3
ATOM      3  C   UNL     1      20.564  80.715  97.049  1.00  0.00    -0.000 C 
BRANCH   3   4
ATOM      4  C   UNL     1      22.048  80.959  97.364  1.00  0.00    -0.000 C 
BRANCH   4   5
ATOM      5  C   UNL     1      22.285  82.301  98.080  1.00  0.00    -0.000 C 
BRANCH   5   6
ATOM      6  C   UNL     1      23.724  82.809  97.915  1.00  0.00    -0.003 C 
ATOM      7  C   UNL     1      24.728  81.679  97.693  1.00  0.00     0.004 C 
ENDBRANCH   5   6
ENDBRANCH   4   5
ENDBRANCH   3   4
ENDBRANCH   2   3
ENDBRANCH   1   2
BRANCH   1   8
ATOM      8  C   UNL     1      19.875  78.145  99.630  1.00  0.00     0.000 C 
BRANCH   8   9
ATOM      9  C   UNL     1      19.947  79.002 100.905  1.00  0.00     0.001 C 
BRANCH   9  10
ATOM     10  C   UNL     1      20.836  80.244 100.730  1.00  0.00     0.012 C 
BRANCH  10  11
ATOM     11  C   UNL     1      21.708  80.524 101.961  1.00  0.00     0.123 C 
BRANCH  11  12
ATOM     12  C   UNL     1      21.012  81.473 102.885  1.00  0.00     0.305 C 
ATOM     13  O   UNL     1      20.725  82.636 102.489  1.00  0.00    -0.252 OA
BRANCH  12  14
ATOM     14  O   UNL     1      20.648  81.044 104.165  1.00  0.00    -0.469 OA
ATOM     15  C   UNL     1      20.618  79.670 104.531  1.00  0.00     0.282 C 
ENDBRANCH  12  14
ENDBRANCH  11  12
ENDBRANCH  10  11
ENDBRANCH   9  10
ENDBRANCH   8   9
ENDBRANCH   1   8
TORSDOF 11
ENDMDL
MODEL 5
REMARK VINA RESULT:    -3.000      1.842      4.853
REMARK INTER + INTRA:          -5.675
REMARK INTER:                  -4.567
REMARK INTRA:                  -1.108
REMARK UNBOUND:                -0.747
REMARK SMILES CCCCCCCCCCCC(=O)OC
REMARK SMILES IDX 7 1 6 2 5 3 4 4 3 5 2 6 1 7 8 8 9 9 10 10 11 11 12 12 13 13
REMARK SMILES IDX 14 14 15 15
REMARK H PARENT
REMARK Flexibility Score: inf
ROOT
ATOM      1  C   UNL     1      20.691  78.637  97.824  1.00  0.00     0.000 C 
ENDROOT
BRANCH   1   2
ATOM      2  C   UNL     1      19.934  79.773  97.112  1.00  0.00     0.000 C 
BRANCH   2   3
ATOM      3  C   UNL     1      20.489  81.167  97.451  1.00  0.00    -0.000 C 
BRANCH   3   4
ATOM      4  C   UNL     1      22.021  81.178  97.573  1.00  0.00    -0.000 C 
BRANCH   4   5
ATOM      5  C   UNL     1      22.510  81.980  98.791  1.00  0.00    -0.000 C 
BRANCH   5   6
ATOM      6  C   UNL     1      21.582  81.829 100.006  1.00  0.00    -0.003 C 
ATOM      7  C   UNL     1      21.722  82.980 101.001  1.00  0.00     0.004 C 
ENDBRANCH   5   6
ENDBRANCH   4   5
ENDBRANCH   3   4
ENDBRANCH   2   3
ENDBRANCH   1   2
BRANCH   1   8
ATOM      8  C   UNL     1      19.875  77.875  98.885  1.00  0.00     0.000 C 
BRANCH   8   9
ATOM      9  C   UNL     1      19.884  78.568 100.258  1.00  0.00     0.001 C 
BRANCH   9  10
ATOM     10  C   UNL     1      20.614  77.743 101.330  1.00  0.00     0.012 C 
BRANCH  10  11
ATOM     11  C   UNL     1      20.452  78.329 102.738  1.00  0.00     0.123 C 
BRANCH  11  12
ATOM     12  C   UNL     1      21.348  79.515 102.913  1.00  0.00     0.305 C 
ATOM     13  O   UNL     1      22.520  79.488 102.447  1.00  0.00    -0.252 OA
BRANCH  12  14
ATOM     14  O   UNL     1      20.859  80.657 103.553  1.00  0.00    -0.469 OA
ATOM     15  C   UNL     1      20.713  80.739 104.965  1.00  0.00     0.282 C 
ENDBRANCH  12  14
ENDBRANCH  11  12
ENDBRANCH  10  11
ENDBRANCH   9  10
ENDBRANCH   8   9
ENDBRANCH   1   8
TORSDOF 11
ENDMDL
MODEL 6
REMARK VINA RESULT:    -2.955     22.027     22.962
REMARK INTER + INTRA:          -5.602
REMARK INTER:                  -5.005
REMARK INTRA:                  -0.596
REMARK UNBOUND:                -0.747
REMARK SMILES CCCCCCCCCCCC(=O)OC
REMARK SMILES IDX 7 1 6 2 5 3 4 4 3 5 2 6 1 7 8 8 9 9 10 10 11 11 12 12 13 13
REMARK SMILES IDX 14 14 15 15
REMARK H PARENT
REMARK Flexibility Score: inf
ROOT
ATOM      1  C   UNL     1      36.449  63.651  99.810  1.00  0.00     0.000 C 
ENDROOT
BRANCH   1   2
ATOM      2  C   UNL     1      36.294  62.884 101.135  1.00  0.00     0.000 C 
BRANCH   2   3
ATOM      3  C   UNL     1      37.449  63.146 102.117  1.00  0.00    -0.000 C 
BRANCH   3   4
ATOM      4  C   UNL     1      36.955  63.565 103.510  1.00  0.00    -0.000 C 
BRANCH   4   5
ATOM      5  C   UNL     1      35.496  63.150 103.768  1.00  0.00    -0.000 C 
BRANCH   5   6
ATOM      6  C   UNL     1      34.948  63.713 105.087  1.00  0.00    -0.003 C 
ATOM      7  C   UNL     1      35.870  64.758 105.711  1.00  0.00     0.004 C 
ENDBRANCH   5   6
ENDBRANCH   4   5
ENDBRANCH   3   4
ENDBRANCH   2   3
ENDBRANCH   1   2
BRANCH   1   8
ATOM      8  C   UNL     1      37.508  64.770  99.824  1.00  0.00     0.000 C 
BRANCH   8   9
ATOM      9  C   UNL     1      38.196  64.961  98.462  1.00  0.00     0.001 C 
BRANCH   9  10
ATOM     10  C   UNL     1      37.629  64.028  97.379  1.00  0.00     0.012 C 
BRANCH  10  11
ATOM     11  C   UNL     1      38.100  64.407  95.969  1.00  0.00     0.123 C 
BRANCH  11  12
ATOM     12  C   UNL     1      37.003  64.174  94.977  1.00  0.00     0.305 C 
ATOM     13  O   UNL     1      36.009  64.950  94.950  1.00  0.00    -0.252 OA
BRANCH  12  14
ATOM     14  O   UNL     1      37.116  63.124  94.061  1.00  0.00    -0.469 OA
ATOM     15  C   UNL     1      38.165  63.054  93.104  1.00  0.00     0.282 C 
ENDBRANCH  12  14
ENDBRANCH  11  12
ENDBRANCH  10  11
ENDBRANCH   9  10
ENDBRANCH   8   9
ENDBRANCH   1   8
TORSDOF 11
ENDMDL
MODEL 7
REMARK VINA RESULT:    -2.898      2.337      5.601
REMARK INTER + INTRA:          -5.508
REMARK INTER:                  -4.717
REMARK INTRA:                  -0.791
REMARK UNBOUND:                -0.747
REMARK SMILES CCCCCCCCCCCC(=O)OC
REMARK SMILES IDX 7 1 6 2 5 3 4 4 3 5 2 6 1 7 8 8 9 9 10 10 11 11 12 12 13 13
REMARK SMILES IDX 14 14 15 15
REMARK H PARENT
REMARK Flexibility Score: inf
ROOT
ATOM      1  C   UNL     1      20.094  80.725 100.422  1.00  0.00     0.000 C 
ENDROOT
BRANCH   1   2
ATOM      2  C   UNL     1      20.114  81.815  99.335  1.00  0.00     0.000 C 
BRANCH   2   3
ATOM      3  C   UNL     1      19.875  81.256  97.922  1.00  0.00    -0.000 C 
BRANCH   3   4
ATOM      4  C   UNL     1      20.926  81.741  96.911  1.00  0.00    -0.000 C 
BRANCH   4   5
ATOM      5  C   UNL     1      22.148  82.380  97.593  1.00  0.00    -0.000 C 
BRANCH   5   6
ATOM      6  C   UNL     1      23.322  81.401  97.736  1.00  0.00    -0.003 C 
ATOM      7  C   UNL     1      24.682  82.096  97.681  1.00  0.00     0.004 C 
ENDBRANCH   5   6
ENDBRANCH   4   5
ENDBRANCH   3   4
ENDBRANCH   2   3
ENDBRANCH   1   2
BRANCH   1   8
ATOM      8  C   UNL     1      19.916  79.287  99.899  1.00  0.00     0.000 C 
BRANCH   8   9
ATOM      9  C   UNL     1      20.271  78.220 100.948  1.00  0.00     0.001 C 
BRANCH   9  10
ATOM     10  C   UNL     1      21.031  78.805 102.150  1.00  0.00     0.012 C 
BRANCH  10  11
ATOM     11  C   UNL     1      20.236  78.703 103.458  1.00  0.00     0.123 C 
BRANCH  11  12
ATOM     12  C   UNL     1      20.463  79.920 104.299  1.00  0.00     0.305 C 
ATOM     13  O   UNL     1      21.078  79.818 105.396  1.00  0.00    -0.252 OA
BRANCH  12  14
ATOM     14  O   UNL     1      20.030  81.165 103.836  1.00  0.00    -0.469 OA
ATOM     15  C   UNL     1      20.817  82.344 103.959  1.00  0.00     0.282 C 
ENDBRANCH  12  14
ENDBRANCH  11  12
ENDBRANCH  10  11
ENDBRANCH   9  10
ENDBRANCH   8   9
ENDBRANCH   1   8
TORSDOF 11
ENDMDL
MODEL 8
REMARK VINA RESULT:    -2.846     22.343     24.008
REMARK INTER + INTRA:          -5.422
REMARK INTER:                  -4.566
REMARK INTRA:                  -0.857
REMARK UNBOUND:                -0.747
REMARK SMILES CCCCCCCCCCCC(=O)OC
REMARK SMILES IDX 7 1 6 2 5 3 4 4 3 5 2 6 1 7 8 8 9 9 10 10 11 11 12 12 13 13
REMARK SMILES IDX 14 14 15 15
REMARK H PARENT
REMARK Flexibility Score: inf
ROOT
ATOM      1  C   UNL     1      38.880  64.078  96.993  1.00  0.00     0.000 C 
ENDROOT
BRANCH   1   2
ATOM      2  C   UNL     1      38.756  64.378  95.488  1.00  0.00     0.000 C 
BRANCH   2   3
ATOM      3  C   UNL     1      38.380  63.138  94.660  1.00  0.00    -0.000 C 
BRANCH   3   4
ATOM      4  C   UNL     1      37.018  63.284  93.965  1.00  0.00    -0.000 C 
BRANCH   4   5
ATOM      5  C   UNL     1      36.048  64.183  94.751  1.00  0.00    -0.000 C 
BRANCH   5   6
ATOM      6  C   UNL     1      34.839  63.410  95.297  1.00  0.00    -0.003 C 
ATOM      7  C   UNL     1      34.849  63.299  96.821  1.00  0.00     0.004 C 
ENDBRANCH   5   6
ENDBRANCH   4   5
ENDBRANCH   3   4
ENDBRANCH   2   3
ENDBRANCH   1   2
BRANCH   1   8
ATOM      8  C   UNL     1      38.269  65.142  97.922  1.00  0.00     0.000 C 
BRANCH   8   9
ATOM      9  C   UNL     1      37.434  64.535  99.062  1.00  0.00     0.001 C 
BRANCH   9  10
ATOM     10  C   UNL     1      38.226  64.414 100.374  1.00  0.00     0.012 C 
BRANCH  10  11
ATOM     11  C   UNL     1      38.044  63.050 101.051  1.00  0.00     0.123 C 
BRANCH  11  12
ATOM     12  C   UNL     1      37.573  63.229 102.460  1.00  0.00     0.305 C 
ATOM     13  O   UNL     1      38.415  63.390 103.386  1.00  0.00    -0.252 OA
BRANCH  12  14
ATOM     14  O   UNL     1      36.202  63.259 102.727  1.00  0.00    -0.469 OA
ATOM     15  C   UNL     1      35.681  63.287 104.050  1.00  0.00     0.282 C 
ENDBRANCH  12  14
ENDBRANCH  11  12
ENDBRANCH  10  11
ENDBRANCH   9  10
ENDBRANCH   8   9
ENDBRANCH   1   8
TORSDOF 11
ENDMDL
MODEL 9
REMARK VINA RESULT:    -2.831     22.487     24.004
REMARK INTER + INTRA:          -5.399
REMARK INTER:                  -4.743
REMARK INTRA:                  -0.656
REMARK UNBOUND:                -0.747
REMARK SMILES CCCCCCCCCCCC(=O)OC
REMARK SMILES IDX 7 1 6 2 5 3 4 4 3 5 2 6 1 7 8 8 9 9 10 10 11 11 12 12 13 13
REMARK SMILES IDX 14 14 15 15
REMARK H PARENT
REMARK Flexibility Score: inf
ROOT
ATOM      1  C   UNL     1      35.059  63.733  95.923  1.00  0.00     0.000 C 
ENDROOT
BRANCH   1   2
ATOM      2  C   UNL     1      35.189  62.876  94.651  1.00  0.00     0.000 C 
BRANCH   2   3
ATOM      3  C   UNL     1      36.293  63.374  93.703  1.00  0.00    -0.000 C 
BRANCH   3   4
ATOM      4  C   UNL     1      37.689  62.875  94.110  1.00  0.00    -0.000 C 
BRANCH   4   5
ATOM      5  C   UNL     1      38.807  63.479  93.243  1.00  0.00    -0.000 C 
BRANCH   5   6
ATOM      6  C   UNL     1      39.867  64.214  94.076  1.00  0.00    -0.003 C 
ATOM      7  C   UNL     1      39.348  64.637  95.450  1.00  0.00     0.004 C 
ENDBRANCH   5   6
ENDBRANCH   4   5
ENDBRANCH   3   4
ENDBRANCH   2   3
ENDBRANCH   1   2
BRANCH   1   8
ATOM      8  C   UNL     1      35.946  63.288  97.101  1.00  0.00     0.000 C 
BRANCH   8   9
ATOM      9  C   UNL     1      35.146  63.021  98.386  1.00  0.00     0.001 C 
BRANCH   9  10
ATOM     10  C   UNL     1      35.923  63.407  99.655  1.00  0.00     0.012 C 
BRANCH  10  11
ATOM     11  C   UNL     1      37.112  64.331  99.361  1.00  0.00     0.123 C 
BRANCH  11  12
ATOM     12  C   UNL     1      38.054  64.350 100.524  1.00  0.00     0.305 C 
ATOM     13  O   UNL     1      37.700  63.843 101.625  1.00  0.00    -0.252 OA
BRANCH  12  14
ATOM     14  O   UNL     1      39.333  64.891 100.365  1.00  0.00    -0.469 OA
ATOM     15  C   UNL     1      40.039  64.832  99.132  1.00  0.00     0.282 C 
ENDBRANCH  12  14
ENDBRANCH  11  12
ENDBRANCH  10  11
ENDBRANCH   9  10
ENDBRANCH   8   9
ENDBRANCH   1   8
TORSDOF 11
ENDMDL
