MODEL 1
REMARK VINA RESULT:    -4.490      0.000      0.000
REMARK INTER + INTRA:          -5.897
REMARK INTER:                  -5.803
REMARK INTRA:                  -0.094
REMARK UNBOUND:                -0.094
REMARK SMILES CCCCCCC(=O)[O-]
REMARK SMILES IDX 5 1 6 2 7 3 8 4 9 5 4 6 3 7 2 8 1 9
REMARK H PARENT
REMARK Flexibility Score: inf
ROOT
ATOM      1  C   UNL     1      39.502  67.130  24.929  1.00  0.00     0.006 C 
ENDROOT
BRANCH   1   2
ATOM      2  C   UNL     1      40.257  66.323  23.869  1.00  0.00     0.053 C 
BRANCH   2   3
ATOM      3  C   UNL     1      41.106  67.225  23.030  1.00  0.00     0.041 C 
ATOM      4  O   UNL     1      41.043  67.167  21.774  1.00  0.00    -0.550 OA
ATOM      5  O   UNL     1      41.933  68.163  23.635  1.00  0.00    -0.550 OA
ENDBRANCH   2   3
ENDBRANCH   1   2
BRANCH   1   6
ATOM      6  C   UNL     1      38.000  67.183  24.613  1.00  0.00     0.000 C 
BRANCH   6   7
ATOM      7  C   UNL     1      37.141  67.536  25.840  1.00  0.00    -0.000 C 
BRANCH   7   8
ATOM      8  C   UNL     1      35.623  67.543  25.586  1.00  0.00    -0.003 C 
ATOM      9  C   UNL     1      34.926  66.279  26.088  1.00  0.00     0.004 C 
ENDBRANCH   7   8
ENDBRANCH   6   7
ENDBRANCH   1   6
TORSDOF 5
ENDMDL
MODEL 2
REMARK VINA RESULT:    -4.412      1.332      1.650
REMARK INTER + INTRA:          -5.795
REMARK INTER:                  -5.700
REMARK INTRA:                  -0.095
REMARK UNBOUND:                -0.094
REMARK SMILES CCCCCCC(=O)[O-]
REMARK SMILES IDX 5 1 6 2 7 3 8 4 9 5 4 6 3 7 2 8 1 9
REMARK H PARENT
REMARK Flexibility Score: inf
ROOT
ATOM      1  C   UNL     1      39.717  66.857  25.012  1.00  0.00     0.006 C 
ENDROOT
BRANCH   1   2
ATOM      2  C   UNL     1      40.676  67.102  23.844  1.00  0.00     0.053 C 
BRANCH   2   3
ATOM      3  C   UNL     1      41.203  65.805  23.317  1.00  0.00     0.041 C 
ATOM      4  O   UNL     1      41.697  64.955  24.104  1.00  0.00    -0.550 OA
ATOM      5  O   UNL     1      41.105  65.513  21.962  1.00  0.00    -0.550 OA
ENDBRANCH   2   3
ENDBRANCH   1   2
BRANCH   1   6
ATOM      6  C   UNL     1      38.266  67.149  24.602  1.00  0.00     0.000 C 
BRANCH   6   7
ATOM      7  C   UNL     1      37.355  67.464  25.802  1.00  0.00    -0.000 C 
BRANCH   7   8
ATOM      8  C   UNL     1      35.859  67.589  25.463  1.00  0.00    -0.003 C 
ATOM      9  C   UNL     1      35.014  66.464  26.060  1.00  0.00     0.004 C 
ENDBRANCH   7   8
ENDBRANCH   6   7
ENDBRANCH   1   6
TORSDOF 5
ENDMDL
MODEL 3
REMARK VINA RESULT:    -4.371      3.586      5.470
REMARK INTER + INTRA:          -5.743
REMARK INTER:                  -5.662
REMARK INTRA:                  -0.080
REMARK UNBOUND:                -0.094
REMARK SMILES CCCCCCC(=O)[O-]
REMARK SMILES IDX 5 1 6 2 7 3 8 4 9 5 4 6 3 7 2 8 1 9
REMARK H PARENT
REMARK Flexibility Score: inf
ROOT
ATOM      1  C   UNL     1      41.222  65.596  24.471  1.00  0.00     0.006 C 
ENDROOT
BRANCH   1   2
ATOM      2  C   UNL     1      41.374  67.051  24.923  1.00  0.00     0.053 C 
BRANCH   2   3
ATOM      3  C   UNL     1      41.805  67.913  23.778  1.00  0.00     0.041 C 
ATOM      4  O   UNL     1      42.542  68.914  23.980  1.00  0.00    -0.550 OA
ATOM      5  O   UNL     1      41.434  67.583  22.481  1.00  0.00    -0.550 OA
ENDBRANCH   2   3
ENDBRANCH   1   2
BRANCH   1   6
ATOM      6  C   UNL     1      41.761  64.631  25.537  1.00  0.00     0.000 C 
BRANCH   6   7
ATOM      7  C   UNL     1      42.144  63.256  24.963  1.00  0.00    -0.000 C 
BRANCH   7   8
ATOM      8  C   UNL     1      42.663  62.243  26.000  1.00  0.00    -0.003 C 
ATOM      9  C   UNL     1      44.169  62.001  25.898  1.00  0.00     0.004 C 
ENDBRANCH   7   8
ENDBRANCH   6   7
ENDBRANCH   1   6
TORSDOF 5
ENDMDL
MODEL 4
REMARK VINA RESULT:    -4.316      3.742      5.887
REMARK INTER + INTRA:          -5.671
REMARK INTER:                  -5.572
REMARK INTRA:                  -0.099
REMARK UNBOUND:                -0.094
REMARK SMILES CCCCCCC(=O)[O-]
REMARK SMILES IDX 5 1 6 2 7 3 8 4 9 5 4 6 3 7 2 8 1 9
REMARK H PARENT
REMARK Flexibility Score: inf
ROOT
ATOM      1  C   UNL     1      41.715  64.683  24.338  1.00  0.00     0.006 C 
ENDROOT
BRANCH   1   2
ATOM      2  C   UNL     1      41.011  65.993  24.704  1.00  0.00     0.053 C 
BRANCH   2   3
ATOM      3  C   UNL     1      40.653  66.759  23.469  1.00  0.00     0.041 C 
ATOM      4  O   UNL     1      39.545  66.568  22.903  1.00  0.00    -0.550 OA
ATOM      5  O   UNL     1      41.524  67.720  22.971  1.00  0.00    -0.550 OA
ENDBRANCH   2   3
ENDBRANCH   1   2
BRANCH   1   6
ATOM      6  C   UNL     1      42.064  63.877  25.597  1.00  0.00     0.000 C 
BRANCH   6   7
ATOM      7  C   UNL     1      42.384  62.402  25.295  1.00  0.00    -0.000 C 
BRANCH   7   8
ATOM      8  C   UNL     1      43.398  61.751  26.253  1.00  0.00    -0.003 C 
ATOM      9  C   UNL     1      44.850  61.981  25.834  1.00  0.00     0.004 C 
ENDBRANCH   7   8
ENDBRANCH   6   7
ENDBRANCH   1   6
TORSDOF 5
ENDMDL
MODEL 5
REMARK VINA RESULT:    -4.196      3.134      5.236
REMARK INTER + INTRA:          -5.516
REMARK INTER:                  -5.380
REMARK INTRA:                  -0.136
REMARK UNBOUND:                -0.094
REMARK SMILES CCCCCCC(=O)[O-]
REMARK SMILES IDX 5 1 6 2 7 3 8 4 9 5 4 6 3 7 2 8 1 9
REMARK H PARENT
REMARK Flexibility Score: inf
ROOT
ATOM      1  C   UNL     1      41.268  65.988  24.900  1.00  0.00     0.006 C 
ENDROOT
BRANCH   1   2
ATOM      2  C   UNL     1      40.080  66.440  24.046  1.00  0.00     0.053 C 
BRANCH   2   3
ATOM      3  C   UNL     1      40.505  66.653  22.627  1.00  0.00     0.041 C 
ATOM      4  O   UNL     1      41.417  67.477  22.356  1.00  0.00    -0.550 OA
ATOM      5  O   UNL     1      39.928  65.905  21.608  1.00  0.00    -0.550 OA
ENDBRANCH   2   3
ENDBRANCH   1   2
BRANCH   1   6
ATOM      6  C   UNL     1      41.728  64.579  24.499  1.00  0.00     0.000 C 
BRANCH   6   7
ATOM      7  C   UNL     1      42.218  63.745  25.696  1.00  0.00    -0.000 C 
BRANCH   7   8
ATOM      8  C   UNL     1      42.478  62.260  25.387  1.00  0.00    -0.003 C 
ATOM      9  C   UNL     1      43.239  61.541  26.500  1.00  0.00     0.004 C 
ENDBRANCH   7   8
ENDBRANCH   6   7
ENDBRANCH   1   6
TORSDOF 5
ENDMDL
MODEL 6
REMARK VINA RESULT:    -4.151      3.550      5.898
REMARK INTER + INTRA:          -5.458
REMARK INTER:                  -5.362
REMARK INTRA:                  -0.096
REMARK UNBOUND:                -0.094
REMARK SMILES CCCCCCC(=O)[O-]
REMARK SMILES IDX 5 1 6 2 7 3 8 4 9 5 4 6 3 7 2 8 1 9
REMARK H PARENT
REMARK Flexibility Score: inf
ROOT
ATOM      1  C   UNL     1      42.164  68.334  23.851  1.00  0.00     0.006 C 
ENDROOT
BRANCH   1   2
ATOM      2  C   UNL     1      41.420  67.191  24.548  1.00  0.00     0.053 C 
BRANCH   2   3
ATOM      3  C   UNL     1      40.624  66.402  23.556  1.00  0.00     0.041 C 
ATOM      4  O   UNL     1      41.192  65.552  22.821  1.00  0.00    -0.550 OA
ATOM      5  O   UNL     1      39.247  66.570  23.478  1.00  0.00    -0.550 OA
ENDBRANCH   2   3
ENDBRANCH   1   2
BRANCH   1   6
ATOM      6  C   UNL     1      42.884  69.225  24.873  1.00  0.00     0.000 C 
BRANCH   6   7
ATOM      7  C   UNL     1      43.971  70.109  24.238  1.00  0.00    -0.000 C 
BRANCH   7   8
ATOM      8  C   UNL     1      44.263  71.419  24.993  1.00  0.00    -0.003 C 
ATOM      9  C   UNL     1      43.322  72.558  24.602  1.00  0.00     0.004 C 
ENDBRANCH   7   8
ENDBRANCH   6   7
ENDBRANCH   1   6
TORSDOF 5
ENDMDL
MODEL 7
REMARK VINA RESULT:    -4.138      3.487      4.438
REMARK INTER + INTRA:          -5.441
REMARK INTER:                  -5.244
REMARK INTRA:                  -0.197
REMARK UNBOUND:                -0.094
REMARK SMILES CCCCCCC(=O)[O-]
REMARK SMILES IDX 5 1 6 2 7 3 8 4 9 5 4 6 3 7 2 8 1 9
REMARK H PARENT
REMARK Flexibility Score: inf
ROOT
ATOM      1  C   UNL     1      40.354  66.744  23.567  1.00  0.00     0.006 C 
ENDROOT
BRANCH   1   2
ATOM      2  C   UNL     1      41.146  67.205  22.340  1.00  0.00     0.053 C 
BRANCH   2   3
ATOM      3  C   UNL     1      41.031  66.202  21.235  1.00  0.00     0.041 C 
ATOM      4  O   UNL     1      40.018  65.459  21.157  1.00  0.00    -0.550 OA
ATOM      5  O   UNL     1      42.021  66.122  20.263  1.00  0.00    -0.550 OA
ENDBRANCH   2   3
ENDBRANCH   1   2
BRANCH   1   6
ATOM      6  C   UNL     1      41.185  66.905  24.849  1.00  0.00     0.000 C 
BRANCH   6   7
ATOM      7  C   UNL     1      41.426  65.572  25.579  1.00  0.00    -0.000 C 
BRANCH   7   8
ATOM      8  C   UNL     1      41.791  64.390  24.663  1.00  0.00    -0.003 C 
ATOM      9  C   UNL     1      42.348  63.190  25.428  1.00  0.00     0.004 C 
ENDBRANCH   7   8
ENDBRANCH   6   7
ENDBRANCH   1   6
TORSDOF 5
ENDMDL
MODEL 8
REMARK VINA RESULT:    -4.080      3.484      4.653
REMARK INTER + INTRA:          -5.366
REMARK INTER:                  -5.200
REMARK INTRA:                  -0.166
REMARK UNBOUND:                -0.094
REMARK SMILES CCCCCCC(=O)[O-]
REMARK SMILES IDX 5 1 6 2 7 3 8 4 9 5 4 6 3 7 2 8 1 9
REMARK H PARENT
REMARK Flexibility Score: inf
ROOT
ATOM      1  C   UNL     1      40.357  66.573  23.394  1.00  0.00     0.006 C 
ENDROOT
BRANCH   1   2
ATOM      2  C   UNL     1      41.021  65.666  22.353  1.00  0.00     0.053 C 
BRANCH   2   3
ATOM      3  C   UNL     1      41.087  66.353  21.026  1.00  0.00     0.041 C 
ATOM      4  O   UNL     1      42.014  66.082  20.218  1.00  0.00    -0.550 OA
ATOM      5  O   UNL     1      40.097  67.256  20.659  1.00  0.00    -0.550 OA
ENDBRANCH   2   3
ENDBRANCH   1   2
BRANCH   1   6
ATOM      6  C   UNL     1      41.075  66.472  24.748  1.00  0.00     0.000 C 
BRANCH   6   7
ATOM      7  C   UNL     1      41.758  67.786  25.164  1.00  0.00    -0.000 C 
BRANCH   7   8
ATOM      8  C   UNL     1      42.377  68.588  24.005  1.00  0.00    -0.003 C 
ATOM      9  C   UNL     1      43.324  69.690  24.480  1.00  0.00     0.004 C 
ENDBRANCH   7   8
ENDBRANCH   6   7
ENDBRANCH   1   6
TORSDOF 5
ENDMDL
MODEL 9
REMARK VINA RESULT:    -4.016      3.433      5.513
REMARK INTER + INTRA:          -5.284
REMARK INTER:                  -5.168
REMARK INTRA:                  -0.116
REMARK UNBOUND:                -0.094
REMARK SMILES CCCCCCC(=O)[O-]
REMARK SMILES IDX 5 1 6 2 7 3 8 4 9 5 4 6 3 7 2 8 1 9
REMARK H PARENT
REMARK Flexibility Score: inf
ROOT
ATOM      1  C   UNL     1      37.991  67.104  24.575  1.00  0.00     0.006 C 
ENDROOT
BRANCH   1   2
ATOM      2  C   UNL     1      37.279  67.471  25.880  1.00  0.00     0.053 C 
BRANCH   2   3
ATOM      3  C   UNL     1      35.814  67.186  25.776  1.00  0.00     0.041 C 
ATOM      4  O   UNL     1      35.023  68.074  25.362  1.00  0.00    -0.550 OA
ATOM      5  O   UNL     1      35.327  65.923  26.090  1.00  0.00    -0.550 OA
ENDBRANCH   2   3
ENDBRANCH   1   2
BRANCH   1   6
ATOM      6  C   UNL     1      39.512  67.037  24.779  1.00  0.00     0.000 C 
BRANCH   6   7
ATOM      7  C   UNL     1      40.255  66.459  23.562  1.00  0.00    -0.000 C 
BRANCH   7   8
ATOM      8  C   UNL     1      41.310  67.395  22.944  1.00  0.00    -0.003 C 
ATOM      9  C   UNL     1      42.056  68.227  23.988  1.00  0.00     0.004 C 
ENDBRANCH   7   8
ENDBRANCH   6   7
ENDBRANCH   1   6
TORSDOF 5
ENDMDL
