MODEL 1
REMARK VINA RESULT:     6.991      0.000      0.000
REMARK INTER + INTRA:          15.065
REMARK INTER:                  12.712
REMARK INTRA:                   2.352
REMARK UNBOUND:                 2.352
REMARK SMILES CCCCCCCCCCCCCCCC(=O)[O-]
REMARK SMILES IDX 9 1 10 2 11 3 12 4 13 5 14 6 15 7 16 8 17 9 18 10 8 11 7 12
REMARK SMILES IDX 6 13 5 14 4 15 3 16 2 17 1 18
REMARK H PARENT
REMARK Flexibility Score: inf
ROOT
ATOM      1  C   UNL     1      16.331  97.837   9.277  1.00  0.00     0.000 C 
ENDROOT
BRANCH   1   2
ATOM      2  C   UNL     1      15.007  97.411   9.941  1.00  0.00     0.000 C 
BRANCH   2   3
ATOM      3  C   UNL     1      14.770  95.891  10.006  1.00  0.00     0.000 C 
BRANCH   3   4
ATOM      4  C   UNL     1      15.143  95.117   8.727  1.00  0.00     0.000 C 
BRANCH   4   5
ATOM      5  C   UNL     1      16.167  93.997   8.983  1.00  0.00     0.000 C 
BRANCH   5   6
ATOM      6  C   UNL     1      17.556  94.538   9.370  1.00  0.00     0.006 C 
BRANCH   6   7
ATOM      7  C   UNL     1      18.689  93.502   9.287  1.00  0.00     0.053 C 
BRANCH   7   8
ATOM      8  C   UNL     1      19.087  93.217   7.871  1.00  0.00     0.041 C 
ATOM      9  O   UNL     1      18.429  93.710   6.917  1.00  0.00    -0.550 OA
ATOM     10  O   UNL     1      20.163  92.381   7.605  1.00  0.00    -0.550 OA
ENDBRANCH   7   8
ENDBRANCH   6   7
ENDBRANCH   5   6
ENDBRANCH   4   5
ENDBRANCH   3   4
ENDBRANCH   2   3
ENDBRANCH   1   2
BRANCH   1  11
ATOM     11  C   UNL     1      16.426  97.458   7.783  1.00  0.00     0.000 C 
BRANCH  11  12
ATOM     12  C   UNL     1      17.784  96.836   7.422  1.00  0.00    -0.000 C 
BRANCH  12  13
ATOM     13  C   UNL     1      18.971  97.584   8.054  1.00  0.00    -0.000 C 
BRANCH  13  14
ATOM     14  C   UNL     1      18.772  97.910   9.549  1.00  0.00    -0.000 C 
BRANCH  14  15
ATOM     15  C   UNL     1      19.862  98.855  10.086  1.00  0.00    -0.000 C 
BRANCH  15  16
ATOM     16  C   UNL     1      19.581 100.330   9.760  1.00  0.00    -0.000 C 
BRANCH  16  17
ATOM     17  C   UNL     1      18.207 100.541   9.110  1.00  0.00    -0.003 C 
ATOM     18  C   UNL     1      18.310 100.515   7.588  1.00  0.00     0.004 C 
ENDBRANCH  16  17
ENDBRANCH  15  16
ENDBRANCH  14  15
ENDBRANCH  13  14
ENDBRANCH  12  13
ENDBRANCH  11  12
ENDBRANCH   1  11
TORSDOF 14
ENDMDL
MODEL 2
REMARK VINA RESULT:     7.018      0.727      1.170
REMARK INTER + INTRA:          15.114
REMARK INTER:                  14.168
REMARK INTRA:                   0.946
REMARK UNBOUND:                 2.352
REMARK SMILES CCCCCCCCCCCCCCCC(=O)[O-]
REMARK SMILES IDX 9 1 10 2 11 3 12 4 13 5 14 6 15 7 16 8 17 9 18 10 8 11 7 12
REMARK SMILES IDX 6 13 5 14 4 15 3 16 2 17 1 18
REMARK H PARENT
REMARK Flexibility Score: inf
ROOT
ATOM      1  C   UNL     1      15.735  98.249   8.466  1.00  0.00     0.000 C 
ENDROOT
BRANCH   1   2
ATOM      2  C   UNL     1      15.710  97.595   9.861  1.00  0.00     0.000 C 
BRANCH   2   3
ATOM      3  C   UNL     1      14.510  96.665  10.125  1.00  0.00     0.000 C 
BRANCH   3   4
ATOM      4  C   UNL     1      14.759  95.176   9.813  1.00  0.00     0.000 C 
BRANCH   4   5
ATOM      5  C   UNL     1      15.791  94.964   8.692  1.00  0.00     0.000 C 
BRANCH   5   6
ATOM      6  C   UNL     1      16.435  93.566   8.733  1.00  0.00     0.006 C 
BRANCH   6   7
ATOM      7  C   UNL     1      17.894  93.550   9.217  1.00  0.00     0.053 C 
BRANCH   7   8
ATOM      8  C   UNL     1      18.851  93.250   8.105  1.00  0.00     0.041 C 
ATOM      9  O   UNL     1      20.066  93.033   8.356  1.00  0.00    -0.550 OA
ATOM     10  O   UNL     1      18.409  93.243   6.788  1.00  0.00    -0.550 OA
ENDBRANCH   7   8
ENDBRANCH   6   7
ENDBRANCH   5   6
ENDBRANCH   4   5
ENDBRANCH   3   4
ENDBRANCH   2   3
ENDBRANCH   1   2
BRANCH   1  11
ATOM     11  C   UNL     1      16.473  97.409   7.401  1.00  0.00     0.000 C 
BRANCH  11  12
ATOM     12  C   UNL     1      17.633  96.596   7.997  1.00  0.00    -0.000 C 
BRANCH  12  13
ATOM     13  C   UNL     1      18.987  96.916   7.341  1.00  0.00    -0.000 C 
BRANCH  13  14
ATOM     14  C   UNL     1      19.926  97.752   8.236  1.00  0.00    -0.000 C 
BRANCH  14  15
ATOM     15  C   UNL     1      19.228  98.232   9.520  1.00  0.00    -0.000 C 
BRANCH  15  16
ATOM     16  C   UNL     1      19.658  99.648   9.936  1.00  0.00    -0.000 C 
BRANCH  16  17
ATOM     17  C   UNL     1      18.727 100.736   9.381  1.00  0.00    -0.003 C 
ATOM     18  C   UNL     1      18.357 100.452   7.928  1.00  0.00     0.004 C 
ENDBRANCH  16  17
ENDBRANCH  15  16
ENDBRANCH  14  15
ENDBRANCH  13  14
ENDBRANCH  12  13
ENDBRANCH  11  12
ENDBRANCH   1  11
TORSDOF 14
ENDMDL
MODEL 3
REMARK VINA RESULT:     7.143      0.787      2.413
REMARK INTER + INTRA:          15.341
REMARK INTER:                  14.008
REMARK INTRA:                   1.333
REMARK UNBOUND:                 2.352
REMARK SMILES CCCCCCCCCCCCCCCC(=O)[O-]
REMARK SMILES IDX 9 1 10 2 11 3 12 4 13 5 14 6 15 7 16 8 17 9 18 10 8 11 7 12
REMARK SMILES IDX 6 13 5 14 4 15 3 16 2 17 1 18
REMARK H PARENT
REMARK Flexibility Score: inf
ROOT
ATOM      1  C   UNL     1      16.093  98.727   8.928  1.00  0.00     0.000 C 
ENDROOT
BRANCH   1   2
ATOM      2  C   UNL     1      15.043  98.403  10.009  1.00  0.00     0.000 C 
BRANCH   2   3
ATOM      3  C   UNL     1      14.604  96.928  10.070  1.00  0.00     0.000 C 
BRANCH   3   4
ATOM      4  C   UNL     1      15.754  95.903  10.049  1.00  0.00     0.000 C 
BRANCH   4   5
ATOM      5  C   UNL     1      15.800  95.083   8.748  1.00  0.00     0.000 C 
BRANCH   5   6
ATOM      6  C   UNL     1      16.606  93.779   8.895  1.00  0.00     0.006 C 
BRANCH   6   7
ATOM      7  C   UNL     1      18.116  93.983   9.102  1.00  0.00     0.053 C 
BRANCH   7   8
ATOM      8  C   UNL     1      18.928  93.246   8.082  1.00  0.00     0.041 C 
ATOM      9  O   UNL     1      20.015  92.702   8.410  1.00  0.00    -0.550 OA
ATOM     10  O   UNL     1      18.500  93.186   6.762  1.00  0.00    -0.550 OA
ENDBRANCH   7   8
ENDBRANCH   6   7
ENDBRANCH   5   6
ENDBRANCH   4   5
ENDBRANCH   3   4
ENDBRANCH   2   3
ENDBRANCH   1   2
BRANCH   1  11
ATOM     11  C   UNL     1      16.659 100.160   9.023  1.00  0.00     0.000 C 
BRANCH  11  12
ATOM     12  C   UNL     1      18.069 100.273   8.422  1.00  0.00    -0.000 C 
BRANCH  12  13
ATOM     13  C   UNL     1      19.175 100.298   9.490  1.00  0.00    -0.000 C 
BRANCH  13  14
ATOM     14  C   UNL     1      19.714  98.898   9.857  1.00  0.00    -0.000 C 
BRANCH  14  15
ATOM     15  C   UNL     1      18.895  97.772   9.200  1.00  0.00    -0.000 C 
BRANCH  15  16
ATOM     16  C   UNL     1      19.348  97.471   7.762  1.00  0.00    -0.000 C 
BRANCH  16  17
ATOM     17  C   UNL     1      18.493  96.389   7.088  1.00  0.00    -0.003 C 
ATOM     18  C   UNL     1      17.030  96.816   7.007  1.00  0.00     0.004 C 
ENDBRANCH  16  17
ENDBRANCH  15  16
ENDBRANCH  14  15
ENDBRANCH  13  14
ENDBRANCH  12  13
ENDBRANCH  11  12
ENDBRANCH   1  11
TORSDOF 14
ENDMDL
MODEL 4
REMARK VINA RESULT:     7.270      2.576      5.779
REMARK INTER + INTRA:          15.573
REMARK INTER:                  14.922
REMARK INTRA:                   0.651
REMARK UNBOUND:                 2.352
REMARK SMILES CCCCCCCCCCCCCCCC(=O)[O-]
REMARK SMILES IDX 9 1 10 2 11 3 12 4 13 5 14 6 15 7 16 8 17 9 18 10 8 11 7 12
REMARK SMILES IDX 6 13 5 14 4 15 3 16 2 17 1 18
REMARK H PARENT
REMARK Flexibility Score: inf
ROOT
ATOM      1  C   UNL     1      15.754  97.723   8.394  1.00  0.00     0.000 C 
ENDROOT
BRANCH   1   2
ATOM      2  C   UNL     1      16.662  96.996   7.383  1.00  0.00     0.000 C 
BRANCH   2   3
ATOM      3  C   UNL     1      18.018  96.527   7.945  1.00  0.00     0.000 C 
BRANCH   3   4
ATOM      4  C   UNL     1      19.035  97.652   8.219  1.00  0.00     0.000 C 
BRANCH   4   5
ATOM      5  C   UNL     1      19.145  98.007   9.712  1.00  0.00     0.000 C 
BRANCH   5   6
ATOM      6  C   UNL     1      20.052  99.225   9.969  1.00  0.00     0.006 C 
BRANCH   6   7
ATOM      7  C   UNL     1      19.373 100.585   9.739  1.00  0.00     0.053 C 
BRANCH   7   8
ATOM      8  C   UNL     1      18.214 100.482   8.796  1.00  0.00     0.041 C 
ATOM      9  O   UNL     1      18.414 100.372   7.557  1.00  0.00    -0.550 OA
ATOM     10  O   UNL     1      16.914 100.541   9.281  1.00  0.00    -0.550 OA
ENDBRANCH   7   8
ENDBRANCH   6   7
ENDBRANCH   5   6
ENDBRANCH   4   5
ENDBRANCH   3   4
ENDBRANCH   2   3
ENDBRANCH   1   2
BRANCH   1  11
ATOM     11  C   UNL     1      15.872  97.182   9.835  1.00  0.00     0.000 C 
BRANCH  11  12
ATOM     12  C   UNL     1      14.856  96.066  10.125  1.00  0.00    -0.000 C 
BRANCH  12  13
ATOM     13  C   UNL     1      14.613  95.148   8.914  1.00  0.00    -0.000 C 
BRANCH  13  14
ATOM     14  C   UNL     1      15.370  93.806   8.993  1.00  0.00    -0.000 C 
BRANCH  14  15
ATOM     15  C   UNL     1      16.816  93.925   8.478  1.00  0.00    -0.000 C 
BRANCH  15  16
ATOM     16  C   UNL     1      17.854  93.474   9.518  1.00  0.00    -0.000 C 
BRANCH  16  17
ATOM     17  C   UNL     1      19.251  93.277   8.911  1.00  0.00    -0.003 C 
ATOM     18  C   UNL     1      19.185  93.227   7.387  1.00  0.00     0.004 C 
ENDBRANCH  16  17
ENDBRANCH  15  16
ENDBRANCH  14  15
ENDBRANCH  13  14
ENDBRANCH  12  13
ENDBRANCH  11  12
ENDBRANCH   1  11
TORSDOF 14
ENDMDL
MODEL 5
REMARK VINA RESULT:     7.521      1.531      5.091
REMARK INTER + INTRA:          16.030
REMARK INTER:                  15.742
REMARK INTRA:                   0.287
REMARK UNBOUND:                 2.352
REMARK SMILES CCCCCCCCCCCCCCCC(=O)[O-]
REMARK SMILES IDX 9 1 10 2 11 3 12 4 13 5 14 6 15 7 16 8 17 9 18 10 8 11 7 12
REMARK SMILES IDX 6 13 5 14 4 15 3 16 2 17 1 18
REMARK H PARENT
REMARK Flexibility Score: inf
ROOT
ATOM      1  C   UNL     1      15.568  98.384   8.771  1.00  0.00     0.000 C 
ENDROOT
BRANCH   1   2
ATOM      2  C   UNL     1      16.349  99.697   8.974  1.00  0.00     0.000 C 
BRANCH   2   3
ATOM      3  C   UNL     1      17.452  99.968   7.933  1.00  0.00     0.000 C 
BRANCH   3   4
ATOM      4  C   UNL     1      18.750 100.574   8.501  1.00  0.00     0.000 C 
BRANCH   4   5
ATOM      5  C   UNL     1      19.169  99.941   9.839  1.00  0.00     0.000 C 
BRANCH   5   6
ATOM      6  C   UNL     1      19.677  98.496   9.681  1.00  0.00     0.006 C 
BRANCH   6   7
ATOM      7  C   UNL     1      18.594  97.479   9.286  1.00  0.00     0.053 C 
BRANCH   7   8
ATOM      8  C   UNL     1      18.757  97.004   7.875  1.00  0.00     0.041 C 
ATOM      9  O   UNL     1      19.890  97.032   7.324  1.00  0.00    -0.550 OA
ATOM     10  O   UNL     1      17.654  96.561   7.157  1.00  0.00    -0.550 OA
ENDBRANCH   7   8
ENDBRANCH   6   7
ENDBRANCH   5   6
ENDBRANCH   4   5
ENDBRANCH   3   4
ENDBRANCH   2   3
ENDBRANCH   1   2
BRANCH   1  11
ATOM     11  C   UNL     1      14.620  98.039   9.940  1.00  0.00     0.000 C 
BRANCH  11  12
ATOM     12  C   UNL     1      14.446  96.523  10.125  1.00  0.00    -0.000 C 
BRANCH  12  13
ATOM     13  C   UNL     1      15.753  95.741   9.911  1.00  0.00    -0.000 C 
BRANCH  13  14
ATOM     14  C   UNL     1      15.748  94.863   8.642  1.00  0.00    -0.000 C 
BRANCH  14  15
ATOM     15  C   UNL     1      16.618  93.603   8.805  1.00  0.00    -0.000 C 
BRANCH  15  16
ATOM     16  C   UNL     1      18.010  93.914   9.377  1.00  0.00    -0.000 C 
BRANCH  16  17
ATOM     17  C   UNL     1      19.132  93.168   8.640  1.00  0.00    -0.003 C 
ATOM     18  C   UNL     1      19.046  93.396   7.134  1.00  0.00     0.004 C 
ENDBRANCH  16  17
ENDBRANCH  15  16
ENDBRANCH  14  15
ENDBRANCH  13  14
ENDBRANCH  12  13
ENDBRANCH  11  12
ENDBRANCH   1  11
TORSDOF 14
ENDMDL
MODEL 6
REMARK VINA RESULT:     7.690      1.325      2.904
REMARK INTER + INTRA:          16.336
REMARK INTER:                  14.923
REMARK INTRA:                   1.413
REMARK UNBOUND:                 2.352
REMARK SMILES CCCCCCCCCCCCCCCC(=O)[O-]
REMARK SMILES IDX 9 1 10 2 11 3 12 4 13 5 14 6 15 7 16 8 17 9 18 10 8 11 7 12
REMARK SMILES IDX 6 13 5 14 4 15 3 16 2 17 1 18
REMARK H PARENT
REMARK Flexibility Score: inf
ROOT
ATOM      1  C   UNL     1      15.163  95.206   8.657  1.00  0.00     0.000 C 
ENDROOT
BRANCH   1   2
ATOM      2  C   UNL     1      15.972  93.926   8.940  1.00  0.00     0.000 C 
BRANCH   2   3
ATOM      3  C   UNL     1      17.382  94.159   9.517  1.00  0.00     0.000 C 
BRANCH   3   4
ATOM      4  C   UNL     1      18.221  92.884   9.725  1.00  0.00     0.000 C 
BRANCH   4   5
ATOM      5  C   UNL     1      19.670  93.035   9.232  1.00  0.00     0.000 C 
BRANCH   5   6
ATOM      6  C   UNL     1      19.772  93.097   7.696  1.00  0.00     0.006 C 
BRANCH   6   7
ATOM      7  C   UNL     1      18.593  93.803   7.007  1.00  0.00     0.053 C 
BRANCH   7   8
ATOM      8  C   UNL     1      18.764  95.290   6.984  1.00  0.00     0.041 C 
ATOM      9  O   UNL     1      17.762  96.041   6.853  1.00  0.00    -0.550 OA
ATOM     10  O   UNL     1      20.033  95.847   7.076  1.00  0.00    -0.550 OA
ENDBRANCH   7   8
ENDBRANCH   6   7
ENDBRANCH   5   6
ENDBRANCH   4   5
ENDBRANCH   3   4
ENDBRANCH   2   3
ENDBRANCH   1   2
BRANCH   1  11
ATOM     11  C   UNL     1      14.554  95.847   9.923  1.00  0.00     0.000 C 
BRANCH  11  12
ATOM     12  C   UNL     1      14.930  97.330  10.065  1.00  0.00    -0.000 C 
BRANCH  12  13
ATOM     13  C   UNL     1      16.195  97.706   9.275  1.00  0.00    -0.000 C 
BRANCH  13  14
ATOM     14  C   UNL     1      17.481  97.043   9.813  1.00  0.00    -0.000 C 
BRANCH  14  15
ATOM     15  C   UNL     1      18.730  97.902   9.546  1.00  0.00    -0.000 C 
BRANCH  15  16
ATOM     16  C   UNL     1      18.587  98.785   8.296  1.00  0.00    -0.000 C 
BRANCH  16  17
ATOM     17  C   UNL     1      18.353 100.263   8.641  1.00  0.00    -0.003 C 
ATOM     18  C   UNL     1      19.300 100.726   9.743  1.00  0.00     0.004 C 
ENDBRANCH  16  17
ENDBRANCH  15  16
ENDBRANCH  14  15
ENDBRANCH  13  14
ENDBRANCH  12  13
ENDBRANCH  11  12
ENDBRANCH   1  11
TORSDOF 14
ENDMDL
MODEL 7
REMARK VINA RESULT:     7.757      0.866      2.038
REMARK INTER + INTRA:          16.458
REMARK INTER:                  16.867
REMARK INTRA:                  -0.409
REMARK UNBOUND:                 2.352
REMARK SMILES CCCCCCCCCCCCCCCC(=O)[O-]
REMARK SMILES IDX 9 1 10 2 11 3 12 4 13 5 14 6 15 7 16 8 17 9 18 10 8 11 7 12
REMARK SMILES IDX 6 13 5 14 4 15 3 16 2 17 1 18
REMARK H PARENT
REMARK Flexibility Score: inf
ROOT
ATOM      1  C   UNL     1      13.890  96.414  10.124  1.00  0.00     0.000 C 
ENDROOT
BRANCH   1   2
ATOM      2  C   UNL     1      14.043  94.883  10.038  1.00  0.00     0.000 C 
BRANCH   2   3
ATOM      3  C   UNL     1      14.801  94.372   8.797  1.00  0.00     0.000 C 
BRANCH   3   4
ATOM      4  C   UNL     1      16.133  93.658   9.095  1.00  0.00     0.000 C 
BRANCH   4   5
ATOM      5  C   UNL     1      17.301  94.637   9.311  1.00  0.00     0.000 C 
BRANCH   5   6
ATOM      6  C   UNL     1      18.555  93.950   9.883  1.00  0.00     0.006 C 
BRANCH   6   7
ATOM      7  C   UNL     1      19.176  92.887   8.962  1.00  0.00     0.053 C 
BRANCH   7   8
ATOM      8  C   UNL     1      19.249  93.350   7.539  1.00  0.00     0.041 C 
ATOM      9  O   UNL     1      19.913  94.378   7.241  1.00  0.00    -0.550 OA
ATOM     10  O   UNL     1      18.557  92.666   6.548  1.00  0.00    -0.550 OA
ENDBRANCH   7   8
ENDBRANCH   6   7
ENDBRANCH   5   6
ENDBRANCH   4   5
ENDBRANCH   3   4
ENDBRANCH   2   3
ENDBRANCH   1   2
BRANCH   1  11
ATOM     11  C   UNL     1      15.234  97.173  10.124  1.00  0.00     0.000 C 
BRANCH  11  12
ATOM     12  C   UNL     1      15.354  98.150   8.943  1.00  0.00    -0.000 C 
BRANCH  12  13
ATOM     13  C   UNL     1      16.284  97.634   7.832  1.00  0.00    -0.000 C 
BRANCH  13  14
ATOM     14  C   UNL     1      17.562  96.950   8.361  1.00  0.00    -0.000 C 
BRANCH  14  15
ATOM     15  C   UNL     1      18.774  97.899   8.352  1.00  0.00    -0.000 C 
BRANCH  15  16
ATOM     16  C   UNL     1      19.133  98.414   9.755  1.00  0.00    -0.000 C 
BRANCH  16  17
ATOM     17  C   UNL     1      19.490  99.908   9.762  1.00  0.00    -0.003 C 
ATOM     18  C   UNL     1      18.689 100.669   8.710  1.00  0.00     0.004 C 
ENDBRANCH  16  17
ENDBRANCH  15  16
ENDBRANCH  14  15
ENDBRANCH  13  14
ENDBRANCH  12  13
ENDBRANCH  11  12
ENDBRANCH   1  11
TORSDOF 14
ENDMDL
MODEL 8
REMARK VINA RESULT:     8.064      2.738      5.782
REMARK INTER + INTRA:          17.017
REMARK INTER:                  16.290
REMARK INTRA:                   0.727
REMARK UNBOUND:                 2.352
REMARK SMILES CCCCCCCCCCCCCCCC(=O)[O-]
REMARK SMILES IDX 9 1 10 2 11 3 12 4 13 5 14 6 15 7 16 8 17 9 18 10 8 11 7 12
REMARK SMILES IDX 6 13 5 14 4 15 3 16 2 17 1 18
REMARK H PARENT
REMARK Flexibility Score: inf
ROOT
ATOM      1  C   UNL     1      18.662  93.333   7.119  1.00  0.00     0.000 C 
ENDROOT
BRANCH   1   2
ATOM      2  C   UNL     1      18.747  94.837   6.792  1.00  0.00     0.000 C 
BRANCH   2   3
ATOM      3  C   UNL     1      20.157  95.449   6.897  1.00  0.00     0.000 C 
BRANCH   3   4
ATOM      4  C   UNL     1      20.218  96.838   7.561  1.00  0.00     0.000 C 
BRANCH   4   5
ATOM      5  C   UNL     1      18.835  97.498   7.692  1.00  0.00     0.000 C 
BRANCH   5   6
ATOM      6  C   UNL     1      18.471  97.834   9.150  1.00  0.00     0.006 C 
BRANCH   6   7
ATOM      7  C   UNL     1      19.335  98.935   9.786  1.00  0.00     0.053 C 
BRANCH   7   8
ATOM      8  C   UNL     1      18.990 100.294   9.260  1.00  0.00     0.041 C 
ATOM      9  O   UNL     1      19.373 101.326   9.871  1.00  0.00    -0.550 OA
ATOM     10  O   UNL     1      18.217 100.421   8.112  1.00  0.00    -0.550 OA
ENDBRANCH   7   8
ENDBRANCH   6   7
ENDBRANCH   5   6
ENDBRANCH   4   5
ENDBRANCH   3   4
ENDBRANCH   2   3
ENDBRANCH   1   2
BRANCH   1  11
ATOM     11  C   UNL     1      19.531  92.911   8.324  1.00  0.00     0.000 C 
BRANCH  11  12
ATOM     12  C   UNL     1      19.064  93.560   9.637  1.00  0.00    -0.000 C 
BRANCH  12  13
ATOM     13  C   UNL     1      17.900  94.545   9.438  1.00  0.00    -0.000 C 
BRANCH  13  14
ATOM     14  C   UNL     1      16.561  93.859   9.093  1.00  0.00    -0.000 C 
BRANCH  14  15
ATOM     15  C   UNL     1      15.514  94.861   8.575  1.00  0.00    -0.000 C 
BRANCH  15  16
ATOM     16  C   UNL     1      15.847  96.314   8.950  1.00  0.00    -0.000 C 
BRANCH  16  17
ATOM     17  C   UNL     1      15.004  96.829  10.125  1.00  0.00    -0.003 C 
ATOM     18  C   UNL     1      13.567  96.323  10.033  1.00  0.00     0.004 C 
ENDBRANCH  16  17
ENDBRANCH  15  16
ENDBRANCH  14  15
ENDBRANCH  13  14
ENDBRANCH  12  13
ENDBRANCH  11  12
ENDBRANCH   1  11
TORSDOF 14
ENDMDL
