MODEL 1
REMARK VINA RESULT:    -2.950      0.000      0.000
REMARK INTER + INTRA:          -2.884
REMARK INTER:                  -3.640
REMARK INTRA:                   0.756
REMARK UNBOUND:                 0.756
REMARK SMILES CC1=CC=CC(C)(C)CC1=O
REMARK SMILES IDX 1 1 2 2 3 3 10 4 11 5 9 6 4 8 5 9 6 10 7 11 8 12
REMARK H PARENT
REMARK Flexibility Score: 80.00
ROOT
ATOM      1  C   UNL     1       5.000  27.083  57.249  1.00  0.00     0.048 C 
ATOM      2  C   UNL     1       4.046  27.999  56.519  1.00  0.00    -0.008 C 
ATOM      3  C   UNL     1       4.406  28.426  55.289  1.00  0.00     0.007 C 
ENDROOT
BRANCH   2   4
ATOM      4  C   UNL     1       2.752  28.296  57.184  1.00  0.00     0.159 C 
ATOM      5  O   UNL     1       2.412  27.609  58.186  1.00  0.00    -0.295 OA
BRANCH   4   6
ATOM      6  C   UNL     1       1.824  29.382  56.737  1.00  0.00     0.091 CG0
ATOM      7  G   UNL     1       1.317  29.194  55.289  1.00  0.00     0.000 G0
ENDBRANCH   4   6
ENDBRANCH   2   4
BRANCH   3   8
ATOM      8  C   UNL     1       3.680  29.295  54.334  1.00  0.00    -0.003 C 
ATOM      9  C   UNL     1       2.380  29.618  54.306  1.00  0.00    -0.020 C 
BRANCH   9  10
ATOM     10  C   UNL     1       1.324  29.176  55.291  1.00  0.00    -0.010 CG0
ATOM     11  C   UNL     1       0.914  27.713  55.005  1.00  0.00     0.016 C 
ATOM     12  C   UNL     1       0.076  30.068  55.096  1.00  0.00     0.016 C 
ATOM     13  G   UNL     1       1.840  29.379  56.733  1.00  0.00     0.000 G0
ENDBRANCH   9  10
ENDBRANCH   3   8
TORSDOF 0
ENDMDL
MODEL 2
REMARK VINA RESULT:    -2.926      9.106     10.987
REMARK INTER + INTRA:          -2.855
REMARK INTER:                  -3.608
REMARK INTRA:                   0.754
REMARK UNBOUND:                 0.756
REMARK SMILES CC1=CC=CC(C)(C)CC1=O
REMARK SMILES IDX 1 1 2 2 3 3 10 4 11 5 9 6 4 8 5 9 6 10 7 11 8 12
REMARK H PARENT
REMARK Flexibility Score: 80.00
ROOT
ATOM      1  C   UNL     1      -5.639  29.212  58.323  1.00  0.00     0.048 C 
ATOM      2  C   UNL     1      -6.647  30.211  57.805  1.00  0.00    -0.008 C 
ATOM      3  C   UNL     1      -7.576  29.768  56.931  1.00  0.00     0.007 C 
ENDROOT
BRANCH   2   4
ATOM      4  C   UNL     1      -6.581  31.586  58.360  1.00  0.00     0.159 C 
ATOM      5  O   UNL     1      -5.829  31.808  59.349  1.00  0.00    -0.295 OA
BRANCH   4   6
ATOM      6  C   UNL     1      -7.354  32.741  57.801  1.00  0.00     0.091 CG0
ATOM      7  G   UNL     1      -8.883  32.516  57.818  1.00  0.00     0.000 G0
ENDBRANCH   4   6
ENDBRANCH   2   4
BRANCH   3   8
ATOM      8  C   UNL     1      -8.693  30.493  56.281  1.00  0.00    -0.003 C 
ATOM      9  C   UNL     1      -9.270  31.648  56.636  1.00  0.00    -0.020 C 
BRANCH   9  10
ATOM     10  C   UNL     1      -8.884  32.521  57.806  1.00  0.00    -0.010 CG0
ATOM     11  C   UNL     1      -9.405  31.902  59.123  1.00  0.00     0.016 C 
ATOM     12  C   UNL     1      -9.562  33.900  57.626  1.00  0.00     0.016 C 
ATOM     13  G   UNL     1      -7.354  32.736  57.813  1.00  0.00     0.000 G0
ENDBRANCH   9  10
ENDBRANCH   3   8
TORSDOF 0
ENDMDL
MODEL 3
REMARK VINA RESULT:    -2.906     12.855     13.918
REMARK INTER + INTRA:          -2.829
REMARK INTER:                  -3.587
REMARK INTRA:                   0.757
REMARK UNBOUND:                 0.756
REMARK SMILES CC1=CC=CC(C)(C)CC1=O
REMARK SMILES IDX 1 1 2 2 3 3 10 4 11 5 9 6 4 8 5 9 6 10 7 11 8 12
REMARK H PARENT
REMARK Flexibility Score: 80.00
ROOT
ATOM      1  C   UNL     1      -0.003  27.480  40.575  1.00  0.00     0.048 C 
ATOM      2  C   UNL     1       0.408  28.595  41.508  1.00  0.00    -0.008 C 
ATOM      3  C   UNL     1       1.686  29.027  41.441  1.00  0.00     0.007 C 
ENDROOT
BRANCH   2   4
ATOM      4  C   UNL     1      -0.649  29.178  42.371  1.00  0.00     0.159 C 
ATOM      5  O   UNL     1      -1.855  28.889  42.136  1.00  0.00    -0.295 OA
BRANCH   4   6
ATOM      6  C   UNL     1      -0.364  30.090  43.525  1.00  0.00     0.091 CG0
ATOM      7  G   UNL     1       0.362  31.389  43.110  1.00  0.00     0.000 G0
ENDBRANCH   4   6
ENDBRANCH   2   4
BRANCH   3   8
ATOM      8  C   UNL     1       2.366  30.106  42.197  1.00  0.00    -0.003 C 
ATOM      9  C   UNL     1       1.829  31.115  42.895  1.00  0.00    -0.020 C 
BRANCH   9  10
ATOM     10  C   UNL     1       0.357  31.381  43.101  1.00  0.00    -0.010 CG0
ATOM     11  C   UNL     1      -0.250  32.013  41.827  1.00  0.00     0.016 C 
ATOM     12  C   UNL     1       0.205  32.398  44.256  1.00  0.00     0.016 C 
ATOM     13  G   UNL     1      -0.355  30.074  43.514  1.00  0.00     0.000 G0
ENDBRANCH   9  10
ENDBRANCH   3   8
TORSDOF 0
ENDMDL
MODEL 4
REMARK VINA RESULT:    -2.847      1.908      3.519
REMARK INTER + INTRA:          -2.756
REMARK INTER:                  -3.800
REMARK INTRA:                   1.044
REMARK UNBOUND:                 0.756
REMARK SMILES CC1=CC=CC(C)(C)CC1=O
REMARK SMILES IDX 1 1 2 2 3 3 10 4 11 5 9 6 4 8 5 9 6 10 7 11 8 12
REMARK H PARENT
REMARK Flexibility Score: 80.00
ROOT
ATOM      1  C   UNL     1      -1.110  29.676  57.171  1.00  0.00     0.048 C 
ATOM      2  C   UNL     1       0.238  29.201  56.682  1.00  0.00    -0.008 C 
ATOM      3  C   UNL     1       1.264  29.217  57.560  1.00  0.00     0.007 C 
ENDROOT
BRANCH   2   4
ATOM      4  C   UNL     1       0.308  28.681  55.294  1.00  0.00     0.159 C 
ATOM      5  O   UNL     1      -0.640  28.935  54.501  1.00  0.00    -0.295 OA
BRANCH   4   6
ATOM      6  C   UNL     1       1.457  27.876  54.769  1.00  0.00     0.091 CG0
ATOM      7  G   UNL     1       2.808  28.622  54.843  1.00  0.00     0.000 G0
ENDBRANCH   4   6
ENDBRANCH   2   4
BRANCH   3   8
ATOM      8  C   UNL     1       2.673  28.794  57.385  1.00  0.00    -0.003 C 
ATOM      9  C   UNL     1       3.339  28.525  56.254  1.00  0.00    -0.020 C 
BRANCH   9  10
ATOM     10  C   UNL     1       2.796  28.620  54.848  1.00  0.00    -0.010 CG0
ATOM     11  C   UNL     1       3.836  28.076  53.842  1.00  0.00     0.016 C 
ATOM     12  C   UNL     1       2.552  30.112  54.523  1.00  0.00     0.016 C 
ATOM     13  G   UNL     1       1.442  27.881  54.763  1.00  0.00     0.000 G0
ENDBRANCH   9  10
ENDBRANCH   3   8
TORSDOF 0
ENDMDL
MODEL 5
REMARK VINA RESULT:    -2.817      8.776     10.509
REMARK INTER + INTRA:          -2.720
REMARK INTER:                  -3.471
REMARK INTRA:                   0.751
REMARK UNBOUND:                 0.756
REMARK SMILES CC1=CC=CC(C)(C)CC1=O
REMARK SMILES IDX 1 1 2 2 3 3 10 4 11 5 9 6 4 8 5 9 6 10 7 11 8 12
REMARK H PARENT
REMARK Flexibility Score: 80.00
ROOT
ATOM      1  C   UNL     1      -5.062  28.757  58.152  1.00  0.00     0.048 C 
ATOM      2  C   UNL     1      -6.263  29.648  57.940  1.00  0.00    -0.008 C 
ATOM      3  C   UNL     1      -6.279  30.839  58.576  1.00  0.00     0.007 C 
ENDROOT
BRANCH   2   4
ATOM      4  C   UNL     1      -7.297  29.172  56.987  1.00  0.00     0.159 C 
ATOM      5  O   UNL     1      -7.040  28.174  56.260  1.00  0.00    -0.295 OA
BRANCH   4   6
ATOM      6  C   UNL     1      -8.646  29.807  56.847  1.00  0.00     0.091 CG0
ATOM      7  G   UNL     1      -8.579  31.298  56.448  1.00  0.00     0.000 G0
ENDBRANCH   4   6
ENDBRANCH   2   4
BRANCH   3   8
ATOM      8  C   UNL     1      -7.291  31.922  58.543  1.00  0.00    -0.003 C 
ATOM      9  C   UNL     1      -8.261  32.143  57.647  1.00  0.00    -0.020 C 
BRANCH   9  10
ATOM     10  C   UNL     1      -8.576  31.296  56.437  1.00  0.00    -0.010 CG0
ATOM     11  C   UNL     1      -7.547  31.573  55.316  1.00  0.00     0.016 C 
ATOM     12  C   UNL     1      -9.974  31.700  55.913  1.00  0.00     0.016 C 
ATOM     13  G   UNL     1      -8.627  29.806  56.843  1.00  0.00     0.000 G0
ENDBRANCH   9  10
ENDBRANCH   3   8
TORSDOF 0
ENDMDL
MODEL 6
REMARK VINA RESULT:    -2.801     12.299     13.529
REMARK INTER + INTRA:          -2.700
REMARK INTER:                  -3.447
REMARK INTRA:                   0.746
REMARK UNBOUND:                 0.756
REMARK SMILES CC1=CC=CC(C)(C)CC1=O
REMARK SMILES IDX 1 1 2 2 3 3 10 4 11 5 9 6 4 8 5 9 6 10 7 11 8 12
REMARK H PARENT
REMARK Flexibility Score: 80.00
ROOT
ATOM      1  C   UNL     1       2.399  29.372  41.368  1.00  0.00     0.048 C 
ATOM      2  C   UNL     1       1.266  29.411  42.366  1.00  0.00    -0.008 C 
ATOM      3  C   UNL     1       1.493  30.025  43.547  1.00  0.00     0.007 C 
ENDROOT
BRANCH   2   4
ATOM      4  C   UNL     1      -0.032  28.835  41.935  1.00  0.00     0.159 C 
ATOM      5  O   UNL     1      -0.195  28.543  40.719  1.00  0.00    -0.295 OA
BRANCH   4   6
ATOM      6  C   UNL     1      -1.168  28.566  42.874  1.00  0.00     0.091 CG0
ATOM      7  G   UNL     1      -1.692  29.837  43.578  1.00  0.00     0.000 G0
ENDBRANCH   4   6
ENDBRANCH   2   4
BRANCH   3   8
ATOM      8  C   UNL     1       0.582  30.243  44.696  1.00  0.00    -0.003 C 
ATOM      9  C   UNL     1      -0.755  30.182  44.737  1.00  0.00    -0.020 C 
BRANCH   9  10
ATOM     10  C   UNL     1      -1.673  29.840  43.588  1.00  0.00    -0.010 CG0
ATOM     11  C   UNL     1      -1.809  31.054  42.639  1.00  0.00     0.016 C 
ATOM     12  C   UNL     1      -3.074  29.526  44.164  1.00  0.00     0.016 C 
ATOM     13  G   UNL     1      -1.156  28.576  42.867  1.00  0.00     0.000 G0
ENDBRANCH   9  10
ENDBRANCH   3   8
TORSDOF 0
ENDMDL
MODEL 7
REMARK VINA RESULT:    -2.740      9.912     11.004
REMARK INTER + INTRA:          -2.625
REMARK INTER:                  -3.362
REMARK INTRA:                   0.738
REMARK UNBOUND:                 0.756
REMARK SMILES CC1=CC=CC(C)(C)CC1=O
REMARK SMILES IDX 1 1 2 2 3 3 10 4 11 5 9 6 4 8 5 9 6 10 7 11 8 12
REMARK H PARENT
REMARK Flexibility Score: 80.00
ROOT
ATOM      1  C   UNL     1      -6.971  28.015  56.545  1.00  0.00     0.048 C 
ATOM      2  C   UNL     1      -7.295  29.390  57.082  1.00  0.00    -0.008 C 
ATOM      3  C   UNL     1      -6.366  29.996  57.851  1.00  0.00     0.007 C 
ENDROOT
BRANCH   2   4
ATOM      4  C   UNL     1      -8.581  29.995  56.655  1.00  0.00     0.159 C 
ATOM      5  O   UNL     1      -9.237  29.442  55.730  1.00  0.00    -0.295 OA
BRANCH   4   6
ATOM      6  C   UNL     1      -9.159  31.230  57.275  1.00  0.00     0.091 CG0
ATOM      7  G   UNL     1      -8.238  32.464  57.146  1.00  0.00     0.000 G0
ENDBRANCH   4   6
ENDBRANCH   2   4
BRANCH   3   8
ATOM      8  C   UNL     1      -6.384  31.334  58.488  1.00  0.00    -0.003 C 
ATOM      9  C   UNL     1      -7.156  32.392  58.208  1.00  0.00    -0.020 C 
BRANCH   9  10
ATOM     10  C   UNL     1      -8.242  32.458  57.160  1.00  0.00    -0.010 CG0
ATOM     11  C   UNL     1      -7.613  32.626  55.758  1.00  0.00     0.016 C 
ATOM     12  C   UNL     1      -9.114  33.704  57.444  1.00  0.00     0.016 C 
ATOM     13  G   UNL     1      -9.143  31.207  57.264  1.00  0.00     0.000 G0
ENDBRANCH   9  10
ENDBRANCH   3   8
TORSDOF 0
ENDMDL
MODEL 8
REMARK VINA RESULT:    -2.716     15.532     17.144
REMARK INTER + INTRA:          -2.596
REMARK INTER:                  -3.345
REMARK INTRA:                   0.749
REMARK UNBOUND:                 0.756
REMARK SMILES CC1=CC=CC(C)(C)CC1=O
REMARK SMILES IDX 1 1 2 2 3 3 10 4 11 5 9 6 4 8 5 9 6 10 7 11 8 12
REMARK H PARENT
REMARK Flexibility Score: 80.00
ROOT
ATOM      1  C   UNL     1      -8.824  37.880  45.505  1.00  0.00     0.048 C 
ATOM      2  C   UNL     1      -7.613  37.707  44.618  1.00  0.00    -0.008 C 
ATOM      3  C   UNL     1      -7.068  38.818  44.079  1.00  0.00     0.007 C 
ENDROOT
BRANCH   2   4
ATOM      4  C   UNL     1      -7.075  36.331  44.472  1.00  0.00     0.159 C 
ATOM      5  O   UNL     1      -7.533  35.416  45.210  1.00  0.00    -0.295 OA
BRANCH   4   6
ATOM      6  C   UNL     1      -6.017  35.960  43.479  1.00  0.00     0.091 CG0
ATOM      7  G   UNL     1      -4.706  36.758  43.657  1.00  0.00     0.000 G0
ENDBRANCH   4   6
ENDBRANCH   2   4
BRANCH   3   8
ATOM      8  C   UNL     1      -5.881  38.967  43.204  1.00  0.00    -0.003 C 
ATOM      9  C   UNL     1      -4.864  38.119  43.010  1.00  0.00    -0.020 C 
BRANCH   9  10
ATOM     10  C   UNL     1      -4.699  36.756  43.639  1.00  0.00    -0.010 CG0
ATOM     11  C   UNL     1      -4.242  36.904  45.109  1.00  0.00     0.016 C 
ATOM     12  C   UNL     1      -3.593  35.997  42.870  1.00  0.00     0.016 C 
ATOM     13  G   UNL     1      -6.014  35.957  43.502  1.00  0.00     0.000 G0
ENDBRANCH   9  10
ENDBRANCH   3   8
TORSDOF 0
ENDMDL
MODEL 9
REMARK VINA RESULT:    -2.620     12.317     13.685
REMARK INTER + INTRA:          -2.477
REMARK INTER:                  -3.235
REMARK INTRA:                   0.758
REMARK UNBOUND:                 0.756
REMARK SMILES CC1=CC=CC(C)(C)CC1=O
REMARK SMILES IDX 1 1 2 2 3 3 10 4 11 5 9 6 4 8 5 9 6 10 7 11 8 12
REMARK H PARENT
REMARK Flexibility Score: 80.00
ROOT
ATOM      1  C   UNL     1       0.212  27.213  41.018  1.00  0.00     0.048 C 
ATOM      2  C   UNL     1       0.069  28.481  41.828  1.00  0.00    -0.008 C 
ATOM      3  C   UNL     1      -1.000  28.584  42.646  1.00  0.00     0.007 C 
ENDROOT
BRANCH   2   4
ATOM      4  C   UNL     1       1.160  29.481  41.714  1.00  0.00     0.159 C 
ATOM      5  O   UNL     1       2.222  29.158  41.114  1.00  0.00    -0.295 OA
BRANCH   4   6
ATOM      6  C   UNL     1       1.068  30.870  42.265  1.00  0.00     0.091 CG0
ATOM      7  G   UNL     1       0.834  30.906  43.792  1.00  0.00     0.000 G0
ENDBRANCH   4   6
ENDBRANCH   2   4
BRANCH   3   8
ATOM      8  C   UNL     1      -1.391  29.677  43.568  1.00  0.00    -0.003 C 
ATOM      9  C   UNL     1      -0.640  30.665  44.071  1.00  0.00    -0.020 C 
BRANCH   9  10
ATOM     10  C   UNL     1       0.821  30.918  43.783  1.00  0.00    -0.010 CG0
ATOM     11  C   UNL     1       1.696  29.911  44.564  1.00  0.00     0.016 C 
ATOM     12  C   UNL     1       1.173  32.340  44.279  1.00  0.00     0.016 C 
ATOM     13  G   UNL     1       1.068  30.865  42.259  1.00  0.00     0.000 G0
ENDBRANCH   9  10
ENDBRANCH   3   8
TORSDOF 0
ENDMDL
