MODEL 1
REMARK VINA RESULT:    -4.696      0.000      0.000
REMARK INTER + INTRA:          -5.277
REMARK INTER:                  -5.794
REMARK INTRA:                   0.517
REMARK UNBOUND:                 0.517
REMARK SMILES C=C1CC[C@H]2[C@@H]1[C@H]1[C@H](CC[C@H]2C)C1(C)C
REMARK SMILES IDX 6 1 5 2 4 3 3 4 2 5 1 6 11 7 12 8 10 9 7 11 8 12 13 13 14 14
REMARK SMILES IDX 15 15 9 16
REMARK H PARENT
REMARK Flexibility Score: 80.00
ROOT
ATOM      1  C   UNL     1       3.841  -3.280  18.131  1.00  0.00     0.022 C 
ATOM      2  C   UNL     1       2.746  -3.984  18.980  1.00  0.00    -0.000 C 
ATOM      3  C   UNL     1       1.534  -3.035  18.961  1.00  0.00     0.009 C 
ATOM      4  C   UNL     1       1.610  -2.291  17.631  1.00  0.00     0.031 C 
ATOM      5  C   UNL     1       3.035  -2.424  17.210  1.00  0.00    -0.074 C 
ATOM      6  C   UNL     1       3.526  -1.850  16.105  1.00  0.00     0.008 C 
ENDROOT
BRANCH   2   7
ATOM      7  C   UNL     1       3.136  -4.555  20.400  1.00  0.00    -0.011 C 
ATOM      8  C   UNL     1       1.930  -5.276  21.026  1.00  0.00     0.008 C 
BRANCH   7   9
ATOM      9  C   UNL     1       3.721  -3.527  21.427  1.00  0.00     0.004 CG0
ATOM     10  G   UNL     1       5.233  -3.219  21.256  1.00  0.00     0.000 G0
ENDBRANCH   7   9
ENDBRANCH   2   7
BRANCH   1  11
ATOM     11  C   UNL     1       4.723  -2.371  18.995  1.00  0.00     0.006 C 
ATOM     12  C   UNL     1       5.672  -3.285  19.796  1.00  0.00    -0.001 C 
ATOM     13  C   UNL     1       6.234  -2.165  18.922  1.00  0.00    -0.029 C 
ATOM     14  C   UNL     1       6.802  -0.941  19.652  1.00  0.00     0.012 C 
ATOM     15  C   UNL     1       6.956  -2.605  17.643  1.00  0.00     0.012 C 
BRANCH  12  16
ATOM     16  C   UNL     1       5.237  -3.217  21.262  1.00  0.00     0.005 CG0
ATOM     17  G   UNL     1       3.725  -3.531  21.429  1.00  0.00     0.000 G0
ENDBRANCH  12  16
ENDBRANCH   1  11
TORSDOF 0
ENDMDL
MODEL 2
REMARK VINA RESULT:    -4.660      1.486      4.030
REMARK INTER + INTRA:          -5.233
REMARK INTER:                  -5.750
REMARK INTRA:                   0.516
REMARK UNBOUND:                 0.517
REMARK SMILES C=C1CC[C@H]2[C@@H]1[C@H]1[C@H](CC[C@H]2C)C1(C)C
REMARK SMILES IDX 6 1 5 2 4 3 3 4 2 5 1 6 11 7 12 8 10 9 7 11 8 12 13 13 14 14
REMARK SMILES IDX 15 15 9 16
REMARK H PARENT
REMARK Flexibility Score: 80.00
ROOT
ATOM      1  C   UNL     1       2.546  -1.990  17.771  1.00  0.00     0.022 C 
ATOM      2  C   UNL     1       4.086  -2.005  17.568  1.00  0.00    -0.000 C 
ATOM      3  C   UNL     1       4.308  -2.510  16.131  1.00  0.00     0.009 C 
ATOM      4  C   UNL     1       3.081  -2.066  15.340  1.00  0.00     0.031 C 
ATOM      5  C   UNL     1       2.037  -1.823  16.377  1.00  0.00    -0.074 C 
ATOM      6  C   UNL     1       0.781  -1.470  16.080  1.00  0.00     0.008 C 
ENDROOT
BRANCH   2   7
ATOM      7  C   UNL     1       4.992  -2.683  18.670  1.00  0.00    -0.011 C 
ATOM      8  C   UNL     1       6.477  -2.512  18.308  1.00  0.00     0.008 C 
BRANCH   7   9
ATOM      9  C   UNL     1       4.700  -4.190  18.980  1.00  0.00     0.004 CG0
ATOM     10  G   UNL     1       3.518  -4.441  19.956  1.00  0.00     0.000 G0
ENDBRANCH   7   9
ENDBRANCH   2   7
BRANCH   1  11
ATOM     11  C   UNL     1       2.039  -3.330  18.318  1.00  0.00     0.006 C 
ATOM     12  C   UNL     1       2.424  -3.388  19.810  1.00  0.00    -0.001 C 
ATOM     13  C   UNL     1       0.970  -3.580  19.381  1.00  0.00    -0.029 C 
ATOM     14  C   UNL     1       0.407  -5.004  19.475  1.00  0.00     0.012 C 
ATOM     15  C   UNL     1       0.011  -2.431  19.715  1.00  0.00     0.012 C 
BRANCH  12  16
ATOM     16  C   UNL     1       3.519  -4.448  19.955  1.00  0.00     0.005 CG0
ATOM     17  G   UNL     1       4.700  -4.193  18.979  1.00  0.00     0.000 G0
ENDBRANCH  12  16
ENDBRANCH   1  11
TORSDOF 0
ENDMDL
MODEL 3
REMARK VINA RESULT:    -4.474      2.156      3.638
REMARK INTER + INTRA:          -5.003
REMARK INTER:                  -5.512
REMARK INTRA:                   0.509
REMARK UNBOUND:                 0.517
REMARK SMILES C=C1CC[C@H]2[C@@H]1[C@H]1[C@H](CC[C@H]2C)C1(C)C
REMARK SMILES IDX 6 1 5 2 4 3 3 4 2 5 1 6 11 7 12 8 10 9 7 11 8 12 13 13 14 14
REMARK SMILES IDX 15 15 9 16
REMARK H PARENT
REMARK Flexibility Score: 80.00
ROOT
ATOM      1  C   UNL     1       0.214  -3.127  19.354  1.00  0.00     0.022 C 
ATOM      2  C   UNL     1       0.254  -3.966  20.662  1.00  0.00    -0.000 C 
ATOM      3  C   UNL     1       0.183  -2.944  21.810  1.00  0.00     0.009 C 
ATOM      4  C   UNL     1      -0.613  -1.761  21.266  1.00  0.00     0.031 C 
ATOM      5  C   UNL     1      -0.509  -1.893  19.784  1.00  0.00    -0.074 C 
ATOM      6  C   UNL     1      -1.033  -1.003  18.933  1.00  0.00     0.008 C 
ENDROOT
BRANCH   2   7
ATOM      7  C   UNL     1       1.362  -5.080  20.816  1.00  0.00    -0.011 C 
ATOM      8  C   UNL     1       1.164  -5.840  22.139  1.00  0.00     0.008 C 
BRANCH   7   9
ATOM      9  C   UNL     1       2.850  -4.603  20.706  1.00  0.00     0.004 CG0
ATOM     10  G   UNL     1       3.380  -4.439  19.256  1.00  0.00     0.000 G0
ENDBRANCH   7   9
ENDBRANCH   2   7
BRANCH   1  11
ATOM     11  C   UNL     1       1.623  -2.733  18.897  1.00  0.00     0.006 C 
ATOM     12  C   UNL     1       2.272  -3.991  18.285  1.00  0.00    -0.001 C 
ATOM     13  C   UNL     1       2.187  -2.697  17.478  1.00  0.00    -0.029 C 
ATOM     14  C   UNL     1       3.497  -1.926  17.273  1.00  0.00     0.012 C 
ATOM     15  C   UNL     1       1.191  -2.694  16.312  1.00  0.00     0.012 C 
BRANCH  12  16
ATOM     16  C   UNL     1       3.379  -4.441  19.243  1.00  0.00     0.005 CG0
ATOM     17  G   UNL     1       2.855  -4.596  20.697  1.00  0.00     0.000 G0
ENDBRANCH  12  16
ENDBRANCH   1  11
TORSDOF 0
ENDMDL
MODEL 4
REMARK VINA RESULT:    -4.472      2.511      5.300
REMARK INTER + INTRA:          -5.001
REMARK INTER:                  -5.510
REMARK INTRA:                   0.509
REMARK UNBOUND:                 0.517
REMARK SMILES C=C1CC[C@H]2[C@@H]1[C@H]1[C@H](CC[C@H]2C)C1(C)C
REMARK SMILES IDX 6 1 5 2 4 3 3 4 2 5 1 6 11 7 12 8 10 9 7 11 8 12 13 13 14 14
REMARK SMILES IDX 15 15 9 16
REMARK H PARENT
REMARK Flexibility Score: 80.00
ROOT
ATOM      1  C   UNL     1       3.202  -3.724  17.930  1.00  0.00     0.022 C 
ATOM      2  C   UNL     1       3.897  -3.042  16.719  1.00  0.00    -0.000 C 
ATOM      3  C   UNL     1       5.049  -2.214  17.316  1.00  0.00     0.009 C 
ATOM      4  C   UNL     1       5.480  -2.953  18.580  1.00  0.00     0.031 C 
ATOM      5  C   UNL     1       4.306  -3.802  18.934  1.00  0.00    -0.074 C 
ATOM      6  C   UNL     1       4.264  -4.571  20.028  1.00  0.00     0.008 C 
ENDROOT
BRANCH   2   7
ATOM      7  C   UNL     1       3.003  -2.288  15.657  1.00  0.00    -0.011 C 
ATOM      8  C   UNL     1       3.880  -1.776  14.501  1.00  0.00     0.008 C 
BRANCH   7   9
ATOM      9  C   UNL     1       2.117  -1.116  16.198  1.00  0.00     0.004 CG0
ATOM     10  G   UNL     1       0.775  -1.555  16.845  1.00  0.00     0.000 G0
ENDBRANCH   7   9
ENDBRANCH   2   7
BRANCH   1  11
ATOM     11  C   UNL     1       2.083  -2.847  18.504  1.00  0.00     0.006 C 
ATOM     12  C   UNL     1       0.891  -2.934  17.528  1.00  0.00    -0.001 C 
ATOM     13  C   UNL     1       0.705  -3.272  19.007  1.00  0.00    -0.029 C 
ATOM     14  C   UNL     1      -0.067  -2.252  19.854  1.00  0.00     0.012 C 
ATOM     15  C   UNL     1       0.490  -4.754  19.338  1.00  0.00     0.012 C 
BRANCH  12  16
ATOM     16  C   UNL     1       0.766  -1.571  16.843  1.00  0.00     0.005 CG0
ATOM     17  G   UNL     1       2.108  -1.121  16.205  1.00  0.00     0.000 G0
ENDBRANCH  12  16
ENDBRANCH   1  11
TORSDOF 0
ENDMDL
MODEL 5
REMARK VINA RESULT:    -4.084      2.052      3.955
REMARK INTER + INTRA:          -4.522
REMARK INTER:                  -5.030
REMARK INTRA:                   0.508
REMARK UNBOUND:                 0.517
REMARK SMILES C=C1CC[C@H]2[C@@H]1[C@H]1[C@H](CC[C@H]2C)C1(C)C
REMARK SMILES IDX 6 1 5 2 4 3 3 4 2 5 1 6 11 7 12 8 10 9 7 11 8 12 13 13 14 14
REMARK SMILES IDX 15 15 9 16
REMARK H PARENT
REMARK Flexibility Score: 80.00
ROOT
ATOM      1  C   UNL     1       1.298  -3.009  18.050  1.00  0.00     0.022 C 
ATOM      2  C   UNL     1       2.176  -3.883  18.988  1.00  0.00    -0.000 C 
ATOM      3  C   UNL     1       2.111  -3.204  20.367  1.00  0.00     0.009 C 
ATOM      4  C   UNL     1       0.747  -2.520  20.430  1.00  0.00     0.031 C 
ATOM      5  C   UNL     1       0.336  -2.378  19.004  1.00  0.00    -0.074 C 
ATOM      6  C   UNL     1      -0.793  -1.767  18.626  1.00  0.00     0.008 C 
ENDROOT
BRANCH   2   7
ATOM      7  C   UNL     1       3.622  -4.297  18.506  1.00  0.00    -0.011 C 
ATOM      8  C   UNL     1       4.269  -5.240  19.535  1.00  0.00     0.008 C 
BRANCH   7   9
ATOM      9  C   UNL     1       4.608  -3.126  18.178  1.00  0.00     0.004 CG0
ATOM     10  G   UNL     1       4.443  -2.507  16.763  1.00  0.00     0.000 G0
ENDBRANCH   7   9
ENDBRANCH   2   7
BRANCH   1  11
ATOM     11  C   UNL     1       2.120  -1.900  17.382  1.00  0.00     0.006 C 
ATOM     12  C   UNL     1       2.978  -2.567  16.288  1.00  0.00    -0.001 C 
ATOM     13  C   UNL     1       2.051  -1.404  15.940  1.00  0.00    -0.029 C 
ATOM     14  C   UNL     1       2.720  -0.056  15.639  1.00  0.00     0.012 C 
ATOM     15  C   UNL     1       0.804  -1.756  15.120  1.00  0.00     0.012 C 
BRANCH  12  16
ATOM     16  C   UNL     1       4.434  -2.513  16.758  1.00  0.00     0.005 CG0
ATOM     17  G   UNL     1       4.608  -3.139  18.168  1.00  0.00     0.000 G0
ENDBRANCH  12  16
ENDBRANCH   1  11
TORSDOF 0
ENDMDL
MODEL 6
REMARK VINA RESULT:    -4.065      2.261      4.327
REMARK INTER + INTRA:          -4.499
REMARK INTER:                  -5.017
REMARK INTRA:                   0.517
REMARK UNBOUND:                 0.517
REMARK SMILES C=C1CC[C@H]2[C@@H]1[C@H]1[C@H](CC[C@H]2C)C1(C)C
REMARK SMILES IDX 6 1 5 2 4 3 3 4 2 5 1 6 11 7 12 8 10 9 7 11 8 12 13 13 14 14
REMARK SMILES IDX 15 15 9 16
REMARK H PARENT
REMARK Flexibility Score: 80.00
ROOT
ATOM      1  C   UNL     1       3.822  -2.122  17.730  1.00  0.00     0.022 C 
ATOM      2  C   UNL     1       3.150  -2.636  19.034  1.00  0.00    -0.000 C 
ATOM      3  C   UNL     1       3.937  -3.897  19.434  1.00  0.00     0.009 C 
ATOM      4  C   UNL     1       5.357  -3.682  18.919  1.00  0.00     0.031 C 
ATOM      5  C   UNL     1       5.215  -2.646  17.856  1.00  0.00    -0.074 C 
ATOM      6  C   UNL     1       6.241  -2.218  17.111  1.00  0.00     0.008 C 
ENDROOT
BRANCH   2   7
ATOM      7  C   UNL     1       1.578  -2.778  19.073  1.00  0.00    -0.011 C 
ATOM      8  C   UNL     1       1.124  -3.204  20.480  1.00  0.00     0.008 C 
BRANCH   7   9
ATOM      9  C   UNL     1       0.939  -3.731  18.007  1.00  0.00     0.004 CG0
ATOM     10  G   UNL     1       0.730  -3.099  16.604  1.00  0.00     0.000 G0
ENDBRANCH   7   9
ENDBRANCH   2   7
BRANCH   1  11
ATOM     11  C   UNL     1       3.178  -2.744  16.484  1.00  0.00     0.006 C 
ATOM     12  C   UNL     1       1.813  -2.053  16.285  1.00  0.00    -0.001 C 
ATOM     13  C   UNL     1       2.840  -2.073  15.154  1.00  0.00    -0.029 C 
ATOM     14  C   UNL     1       2.541  -3.000  13.969  1.00  0.00     0.012 C 
ATOM     15  C   UNL     1       3.518  -0.735  14.834  1.00  0.00     0.012 C 
BRANCH  12  16
ATOM     16  C   UNL     1       0.731  -3.088  16.603  1.00  0.00     0.005 CG0
ATOM     17  G   UNL     1       0.939  -3.728  18.003  1.00  0.00     0.000 G0
ENDBRANCH  12  16
ENDBRANCH   1  11
TORSDOF 0
ENDMDL
MODEL 7
REMARK VINA RESULT:    -4.052      9.071     11.077
REMARK INTER + INTRA:          -4.482
REMARK INTER:                  -4.999
REMARK INTRA:                   0.517
REMARK UNBOUND:                 0.517
REMARK SMILES C=C1CC[C@H]2[C@@H]1[C@H]1[C@H](CC[C@H]2C)C1(C)C
REMARK SMILES IDX 6 1 5 2 4 3 3 4 2 5 1 6 11 7 12 8 10 9 7 11 8 12 13 13 14 14
REMARK SMILES IDX 15 15 9 16
REMARK H PARENT
REMARK Flexibility Score: 80.00
ROOT
ATOM      1  C   UNL     1      10.681   0.880  26.152  1.00  0.00     0.022 C 
ATOM      2  C   UNL     1      12.106   0.261  26.125  1.00  0.00    -0.000 C 
ATOM      3  C   UNL     1      12.125  -0.677  24.904  1.00  0.00     0.009 C 
ATOM      4  C   UNL     1      11.151  -0.070  23.898  1.00  0.00     0.031 C 
ATOM      5  C   UNL     1      10.271   0.813  24.718  1.00  0.00    -0.074 C 
ATOM      6  C   UNL     1       9.236   1.490  24.206  1.00  0.00     0.008 C 
ENDROOT
BRANCH   2   7
ATOM      7  C   UNL     1      12.694  -0.351  27.457  1.00  0.00    -0.011 C 
ATOM      8  C   UNL     1      14.141  -0.818  27.226  1.00  0.00     0.008 C 
BRANCH   7   9
ATOM      9  C   UNL     1      11.870  -1.510  28.114  1.00  0.00     0.004 CG0
ATOM     10  G   UNL     1      10.676  -1.048  28.993  1.00  0.00     0.000 G0
ENDBRANCH   7   9
ENDBRANCH   2   7
BRANCH   1  11
ATOM     11  C   UNL     1       9.712   0.024  26.977  1.00  0.00     0.006 C 
ATOM     12  C   UNL     1      10.054   0.253  28.463  1.00  0.00    -0.001 C 
ATOM     13  C   UNL     1       8.632   0.484  27.954  1.00  0.00    -0.029 C 
ATOM     14  C   UNL     1       7.578  -0.554  28.359  1.00  0.00     0.012 C 
ATOM     15  C   UNL     1       8.172   1.945  27.877  1.00  0.00     0.012 C 
BRANCH  12  16
ATOM     16  C   UNL     1      10.674  -1.044  28.990  1.00  0.00     0.005 CG0
ATOM     17  G   UNL     1      11.870  -1.508  28.115  1.00  0.00     0.000 G0
ENDBRANCH  12  16
ENDBRANCH   1  11
TORSDOF 0
ENDMDL
MODEL 8
REMARK VINA RESULT:    -3.926      1.837      4.911
REMARK INTER + INTRA:          -4.327
REMARK INTER:                  -4.844
REMARK INTRA:                   0.517
REMARK UNBOUND:                 0.517
REMARK SMILES C=C1CC[C@H]2[C@@H]1[C@H]1[C@H](CC[C@H]2C)C1(C)C
REMARK SMILES IDX 6 1 5 2 4 3 3 4 2 5 1 6 11 7 12 8 10 9 7 11 8 12 13 13 14 14
REMARK SMILES IDX 15 15 9 16
REMARK H PARENT
REMARK Flexibility Score: 80.00
ROOT
ATOM      1  C   UNL     1       3.856  -4.527  20.232  1.00  0.00     0.022 C 
ATOM      2  C   UNL     1       4.107  -3.753  18.908  1.00  0.00    -0.000 C 
ATOM      3  C   UNL     1       4.964  -2.535  19.297  1.00  0.00     0.009 C 
ATOM      4  C   UNL     1       5.784  -2.973  20.508  1.00  0.00     0.031 C 
ATOM      5  C   UNL     1       5.036  -4.139  21.062  1.00  0.00    -0.074 C 
ATOM      6  C   UNL     1       5.406  -4.781  22.177  1.00  0.00     0.008 C 
ENDROOT
BRANCH   2   7
ATOM      7  C   UNL     1       2.879  -3.441  17.966  1.00  0.00    -0.011 C 
ATOM      8  C   UNL     1       3.364  -2.752  16.679  1.00  0.00     0.008 C 
BRANCH   7   9
ATOM      9  C   UNL     1       1.712  -2.609  18.596  1.00  0.00     0.004 CG0
ATOM     10  G   UNL     1       0.702  -3.432  19.442  1.00  0.00     0.000 G0
ENDBRANCH   7   9
ENDBRANCH   2   7
BRANCH   1  11
ATOM     11  C   UNL     1       2.584  -4.038  20.936  1.00  0.00     0.006 C 
ATOM     12  C   UNL     1       1.384  -4.612  20.156  1.00  0.00    -0.001 C 
ATOM     13  C   UNL     1       1.520  -4.864  21.656  1.00  0.00    -0.029 C 
ATOM     14  C   UNL     1       0.555  -4.100  22.573  1.00  0.00     0.012 C 
ATOM     15  C   UNL     1       1.883  -6.295  22.070  1.00  0.00     0.012 C 
BRANCH  12  16
ATOM     16  C   UNL     1       0.701  -3.439  19.448  1.00  0.00     0.005 CG0
ATOM     17  G   UNL     1       1.707  -2.614  18.599  1.00  0.00     0.000 G0
ENDBRANCH  12  16
ENDBRANCH   1  11
TORSDOF 0
ENDMDL
MODEL 9
REMARK VINA RESULT:    -3.917      2.013      4.745
REMARK INTER + INTRA:          -4.317
REMARK INTER:                  -4.825
REMARK INTRA:                   0.509
REMARK UNBOUND:                 0.517
REMARK SMILES C=C1CC[C@H]2[C@@H]1[C@H]1[C@H](CC[C@H]2C)C1(C)C
REMARK SMILES IDX 6 1 5 2 4 3 3 4 2 5 1 6 11 7 12 8 10 9 7 11 8 12 13 13 14 14
REMARK SMILES IDX 15 15 9 16
REMARK H PARENT
REMARK Flexibility Score: 80.00
ROOT
ATOM      1  C   UNL     1       2.373  -4.350  20.806  1.00  0.00     0.022 C 
ATOM      2  C   UNL     1       3.729  -3.671  20.468  1.00  0.00    -0.000 C 
ATOM      3  C   UNL     1       4.050  -4.087  19.021  1.00  0.00     0.009 C 
ATOM      4  C   UNL     1       2.700  -4.289  18.337  1.00  0.00     0.031 C 
ATOM      5  C   UNL     1       1.742  -4.500  19.461  1.00  0.00    -0.074 C 
ATOM      6  C   UNL     1       0.445  -4.772  19.273  1.00  0.00     0.008 C 
ENDROOT
BRANCH   2   7
ATOM      7  C   UNL     1       4.924  -3.809  21.491  1.00  0.00    -0.011 C 
ATOM      8  C   UNL     1       6.124  -2.973  21.013  1.00  0.00     0.008 C 
BRANCH   7   9
ATOM      9  C   UNL     1       5.399  -5.265  21.816  1.00  0.00     0.004 CG0
ATOM     10  G   UNL     1       4.552  -6.007  22.886  1.00  0.00     0.000 G0
ENDBRANCH   7   9
ENDBRANCH   2   7
BRANCH   1  11
ATOM     11  C   UNL     1       2.579  -5.746  21.407  1.00  0.00     0.006 C 
ATOM     12  C   UNL     1       3.083  -5.551  22.851  1.00  0.00    -0.001 C 
ATOM     13  C   UNL     1       1.841  -6.396  22.575  1.00  0.00    -0.029 C 
ATOM     14  C   UNL     1       1.993  -7.915  22.731  1.00  0.00     0.012 C 
ATOM     15  C   UNL     1       0.501  -5.786  23.004  1.00  0.00     0.012 C 
BRANCH  12  16
ATOM     16  C   UNL     1       4.547  -5.997  22.884  1.00  0.00     0.005 CG0
ATOM     17  G   UNL     1       5.400  -5.254  21.820  1.00  0.00     0.000 G0
ENDBRANCH  12  16
ENDBRANCH   1  11
TORSDOF 0
ENDMDL
