MODEL 1
REMARK VINA RESULT:    -3.475      0.000      0.000
REMARK INTER + INTRA:          -4.635
REMARK INTER:                  -4.491
REMARK INTRA:                  -0.144
REMARK UNBOUND:                -0.144
REMARK SMILES CCCCCCC(=O)[O-]
REMARK SMILES IDX 5 1 6 2 7 3 8 4 9 5 4 6 3 7 2 8 1 9
REMARK H PARENT
REMARK Flexibility Score: inf
ROOT
ATOM      1  C   UNL     1    -115.616  12.845  24.120  1.00  0.00     0.006 C 
ENDROOT
BRANCH   1   2
ATOM      2  C   UNL     1    -117.089  12.869  23.693  1.00  0.00     0.053 C 
BRANCH   2   3
ATOM      3  C   UNL     1    -117.575  14.280  23.576  1.00  0.00     0.041 C 
ATOM      4  O   UNL     1    -117.309  15.119  24.477  1.00  0.00    -0.550 OA
ATOM      5  O   UNL     1    -118.362  14.655  22.495  1.00  0.00    -0.550 OA
ENDBRANCH   2   3
ENDBRANCH   1   2
BRANCH   1   6
ATOM      6  C   UNL     1    -115.183  11.489  24.705  1.00  0.00     0.000 C 
BRANCH   6   7
ATOM      7  C   UNL     1    -113.926  11.534  25.593  1.00  0.00    -0.000 C 
BRANCH   7   8
ATOM      8  C   UNL     1    -112.693  12.074  24.857  1.00  0.00    -0.003 C 
ATOM      9  C   UNL     1    -112.024  10.980  24.030  1.00  0.00     0.004 C 
ENDBRANCH   7   8
ENDBRANCH   6   7
ENDBRANCH   1   6
TORSDOF 5
ENDMDL
MODEL 2
REMARK VINA RESULT:    -3.458      3.497      5.412
REMARK INTER + INTRA:          -4.613
REMARK INTER:                  -4.488
REMARK INTRA:                  -0.125
REMARK UNBOUND:                -0.144
REMARK SMILES CCCCCCC(=O)[O-]
REMARK SMILES IDX 5 1 6 2 7 3 8 4 9 5 4 6 3 7 2 8 1 9
REMARK H PARENT
REMARK Flexibility Score: inf
ROOT
ATOM      1  C   UNL     1    -114.889  11.640  24.661  1.00  0.00     0.006 C 
ENDROOT
BRANCH   1   2
ATOM      2  C   UNL     1    -113.542  11.932  25.334  1.00  0.00     0.053 C 
BRANCH   2   3
ATOM      3  C   UNL     1    -112.533  10.895  24.954  1.00  0.00     0.041 C 
ATOM      4  O   UNL     1    -112.397   9.856  25.653  1.00  0.00    -0.550 OA
ATOM      5  O   UNL     1    -111.707  11.098  23.856  1.00  0.00    -0.550 OA
ENDBRANCH   2   3
ENDBRANCH   1   2
BRANCH   1   6
ATOM      6  C   UNL     1    -115.616  12.914  24.196  1.00  0.00     0.000 C 
BRANCH   6   7
ATOM      7  C   UNL     1    -116.778  12.678  23.214  1.00  0.00    -0.000 C 
BRANCH   7   8
ATOM      8  C   UNL     1    -117.728  13.878  23.111  1.00  0.00    -0.003 C 
ATOM      9  C   UNL     1    -117.511  14.852  24.266  1.00  0.00     0.004 C 
ENDBRANCH   7   8
ENDBRANCH   6   7
ENDBRANCH   1   6
TORSDOF 5
ENDMDL
MODEL 3
REMARK VINA RESULT:    -3.393      3.739      5.313
REMARK INTER + INTRA:          -4.529
REMARK INTER:                  -4.342
REMARK INTRA:                  -0.187
REMARK UNBOUND:                -0.144
REMARK SMILES CCCCCCC(=O)[O-]
REMARK SMILES IDX 5 1 6 2 7 3 8 4 9 5 4 6 3 7 2 8 1 9
REMARK H PARENT
REMARK Flexibility Score: inf
ROOT
ATOM      1  C   UNL     1    -114.211  11.882  25.201  1.00  0.00     0.006 C 
ENDROOT
BRANCH   1   2
ATOM      2  C   UNL     1    -112.725  12.050  24.862  1.00  0.00     0.053 C 
BRANCH   2   3
ATOM      3  C   UNL     1    -112.112  10.726  24.529  1.00  0.00     0.041 C 
ATOM      4  O   UNL     1    -111.583  10.538  23.402  1.00  0.00    -0.550 OA
ATOM      5  O   UNL     1    -112.169   9.684  25.446  1.00  0.00    -0.550 OA
ENDBRANCH   2   3
ENDBRANCH   1   2
BRANCH   1   6
ATOM      6  C   UNL     1    -115.085  11.634  23.959  1.00  0.00     0.000 C 
BRANCH   6   7
ATOM      7  C   UNL     1    -116.267  12.606  23.790  1.00  0.00    -0.000 C 
BRANCH   7   8
ATOM      8  C   UNL     1    -116.911  12.529  22.400  1.00  0.00    -0.003 C 
ATOM      9  C   UNL     1    -116.266  11.435  21.554  1.00  0.00     0.004 C 
ENDBRANCH   7   8
ENDBRANCH   6   7
ENDBRANCH   1   6
TORSDOF 5
ENDMDL
MODEL 4
REMARK VINA RESULT:    -3.375      0.794      1.700
REMARK INTER + INTRA:          -4.505
REMARK INTER:                  -4.337
REMARK INTRA:                  -0.169
REMARK UNBOUND:                -0.144
REMARK SMILES CCCCCCC(=O)[O-]
REMARK SMILES IDX 5 1 6 2 7 3 8 4 9 5 4 6 3 7 2 8 1 9
REMARK H PARENT
REMARK Flexibility Score: inf
ROOT
ATOM      1  C   UNL     1    -116.821  12.375  22.587  1.00  0.00     0.006 C 
ENDROOT
BRANCH   1   2
ATOM      2  C   UNL     1    -117.918  12.922  23.508  1.00  0.00     0.053 C 
BRANCH   2   3
ATOM      3  C   UNL     1    -118.037  14.405  23.356  1.00  0.00     0.041 C 
ATOM      4  O   UNL     1    -118.633  14.895  22.360  1.00  0.00    -0.550 OA
ATOM      5  O   UNL     1    -117.446  15.249  24.288  1.00  0.00    -0.550 OA
ENDBRANCH   2   3
ENDBRANCH   1   2
BRANCH   1   6
ATOM      6  C   UNL     1    -115.711  11.631  23.351  1.00  0.00     0.000 C 
BRANCH   6   7
ATOM      7  C   UNL     1    -115.083  12.418  24.516  1.00  0.00    -0.000 C 
BRANCH   7   8
ATOM      8  C   UNL     1    -114.010  11.620  25.269  1.00  0.00    -0.003 C 
ATOM      9  C   UNL     1    -112.618  12.187  25.007  1.00  0.00     0.004 C 
ENDBRANCH   7   8
ENDBRANCH   6   7
ENDBRANCH   1   6
TORSDOF 5
ENDMDL
MODEL 5
REMARK VINA RESULT:    -3.193      2.879      5.201
REMARK INTER + INTRA:          -4.270
REMARK INTER:                  -4.089
REMARK INTRA:                  -0.181
REMARK UNBOUND:                -0.144
REMARK SMILES CCCCCCC(=O)[O-]
REMARK SMILES IDX 5 1 6 2 7 3 8 4 9 5 4 6 3 7 2 8 1 9
REMARK H PARENT
REMARK Flexibility Score: inf
ROOT
ATOM      1  C   UNL     1    -116.383  12.684  23.448  1.00  0.00     0.006 C 
ENDROOT
BRANCH   1   2
ATOM      2  C   UNL     1    -115.177  12.666  24.396  1.00  0.00     0.053 C 
BRANCH   2   3
ATOM      3  C   UNL     1    -115.060  11.334  25.067  1.00  0.00     0.041 C 
ATOM      4  O   UNL     1    -116.028  10.529  25.051  1.00  0.00    -0.550 OA
ATOM      5  O   UNL     1    -113.898  11.002  25.753  1.00  0.00    -0.550 OA
ENDBRANCH   2   3
ENDBRANCH   1   2
BRANCH   1   6
ATOM      6  C   UNL     1    -117.391  13.799  23.780  1.00  0.00     0.000 C 
BRANCH   6   7
ATOM      7  C   UNL     1    -118.268  14.255  22.600  1.00  0.00    -0.000 C 
BRANCH   7   8
ATOM      8  C   UNL     1    -117.937  13.525  21.291  1.00  0.00    -0.003 C 
ATOM      9  C   UNL     1    -118.194  14.420  20.083  1.00  0.00     0.004 C 
ENDBRANCH   7   8
ENDBRANCH   6   7
ENDBRANCH   1   6
TORSDOF 5
ENDMDL
MODEL 6
REMARK VINA RESULT:    -3.141     18.462     18.941
REMARK INTER + INTRA:          -4.203
REMARK INTER:                  -3.963
REMARK INTRA:                  -0.240
REMARK UNBOUND:                -0.144
REMARK SMILES CCCCCCC(=O)[O-]
REMARK SMILES IDX 5 1 6 2 7 3 8 4 9 5 4 6 3 7 2 8 1 9
REMARK H PARENT
REMARK Flexibility Score: inf
ROOT
ATOM      1  C   UNL     1    -100.213  22.125  31.991  1.00  0.00     0.006 C 
ENDROOT
BRANCH   1   2
ATOM      2  C   UNL     1    -101.341  22.744  31.156  1.00  0.00     0.053 C 
BRANCH   2   3
ATOM      3  C   UNL     1    -102.280  23.511  32.034  1.00  0.00     0.041 C 
ATOM      4  O   UNL     1    -103.398  23.885  31.593  1.00  0.00    -0.550 OA
ATOM      5  O   UNL     1    -101.898  23.854  33.326  1.00  0.00    -0.550 OA
ENDBRANCH   2   3
ENDBRANCH   1   2
BRANCH   1   6
ATOM      6  C   UNL     1    -100.212  20.587  31.950  1.00  0.00     0.000 C 
BRANCH   6   7
ATOM      7  C   UNL     1    -100.256  19.899  33.327  1.00  0.00    -0.000 C 
BRANCH   7   8
ATOM      8  C   UNL     1    -101.369  20.445  34.232  1.00  0.00    -0.003 C 
ATOM      9  C   UNL     1    -101.926  19.351  35.138  1.00  0.00     0.004 C 
ENDBRANCH   7   8
ENDBRANCH   6   7
ENDBRANCH   1   6
TORSDOF 5
ENDMDL
MODEL 7
REMARK VINA RESULT:    -3.138     18.620     19.414
REMARK INTER + INTRA:          -4.199
REMARK INTER:                  -4.054
REMARK INTRA:                  -0.144
REMARK UNBOUND:                -0.144
REMARK SMILES CCCCCCC(=O)[O-]
REMARK SMILES IDX 5 1 6 2 7 3 8 4 9 5 4 6 3 7 2 8 1 9
REMARK H PARENT
REMARK Flexibility Score: inf
ROOT
ATOM      1  C   UNL     1     -99.946  21.776  32.143  1.00  0.00     0.006 C 
ENDROOT
BRANCH   1   2
ATOM      2  C   UNL     1    -100.126  20.257  32.244  1.00  0.00     0.053 C 
BRANCH   2   3
ATOM      3  C   UNL     1    -100.532  19.870  33.632  1.00  0.00     0.041 C 
ATOM      4  O   UNL     1     -99.875  19.003  34.266  1.00  0.00    -0.550 OA
ATOM      5  O   UNL     1    -101.666  20.432  34.205  1.00  0.00    -0.550 OA
ENDBRANCH   2   3
ENDBRANCH   1   2
BRANCH   1   6
ATOM      6  C   UNL     1    -101.054  22.458  31.322  1.00  0.00     0.000 C 
BRANCH   6   7
ATOM      7  C   UNL     1    -101.657  23.721  31.965  1.00  0.00    -0.000 C 
BRANCH   7   8
ATOM      8  C   UNL     1    -103.154  23.886  31.668  1.00  0.00    -0.003 C 
ATOM      9  C   UNL     1    -103.934  24.211  32.939  1.00  0.00     0.004 C 
ENDBRANCH   7   8
ENDBRANCH   6   7
ENDBRANCH   1   6
TORSDOF 5
ENDMDL
MODEL 8
REMARK VINA RESULT:    -3.118     11.953     13.132
REMARK INTER + INTRA:          -4.173
REMARK INTER:                  -4.045
REMARK INTRA:                  -0.129
REMARK UNBOUND:                -0.144
REMARK SMILES CCCCCCC(=O)[O-]
REMARK SMILES IDX 5 1 6 2 7 3 8 4 9 5 4 6 3 7 2 8 1 9
REMARK H PARENT
REMARK Flexibility Score: inf
ROOT
ATOM      1  C   UNL     1    -102.894  10.787  21.760  1.00  0.00     0.006 C 
ENDROOT
BRANCH   1   2
ATOM      2  C   UNL     1    -102.511  10.784  20.275  1.00  0.00     0.053 C 
BRANCH   2   3
ATOM      3  C   UNL     1    -103.680  11.190  19.434  1.00  0.00     0.041 C 
ATOM      4  O   UNL     1    -104.815  10.682  19.638  1.00  0.00    -0.550 OA
ATOM      5  O   UNL     1    -103.506  12.092  18.392  1.00  0.00    -0.550 OA
ENDBRANCH   2   3
ENDBRANCH   1   2
BRANCH   1   6
ATOM      6  C   UNL     1    -101.868  11.520  22.643  1.00  0.00     0.000 C 
BRANCH   6   7
ATOM      7  C   UNL     1    -102.005  11.257  24.154  1.00  0.00    -0.000 C 
BRANCH   7   8
ATOM      8  C   UNL     1    -102.916  12.272  24.857  1.00  0.00    -0.003 C 
ATOM      9  C   UNL     1    -104.006  11.567  25.660  1.00  0.00     0.004 C 
ENDBRANCH   7   8
ENDBRANCH   6   7
ENDBRANCH   1   6
TORSDOF 5
ENDMDL
MODEL 9
REMARK VINA RESULT:    -3.115     13.075     13.978
REMARK INTER + INTRA:          -4.169
REMARK INTER:                  -3.962
REMARK INTRA:                  -0.208
REMARK UNBOUND:                -0.144
REMARK SMILES CCCCCCC(=O)[O-]
REMARK SMILES IDX 5 1 6 2 7 3 8 4 9 5 4 6 3 7 2 8 1 9
REMARK H PARENT
REMARK Flexibility Score: inf
ROOT
ATOM      1  C   UNL     1    -102.948  12.099  24.714  1.00  0.00     0.006 C 
ENDROOT
BRANCH   1   2
ATOM      2  C   UNL     1    -102.960  10.962  23.685  1.00  0.00     0.053 C 
BRANCH   2   3
ATOM      3  C   UNL     1    -102.094  11.308  22.515  1.00  0.00     0.041 C 
ATOM      4  O   UNL     1    -100.947  11.794  22.697  1.00  0.00    -0.550 OA
ATOM      5  O   UNL     1    -102.574  11.140  21.222  1.00  0.00    -0.550 OA
ENDBRANCH   2   3
ENDBRANCH   1   2
BRANCH   1   6
ATOM      6  C   UNL     1    -102.799  11.597  26.161  1.00  0.00     0.000 C 
BRANCH   6   7
ATOM      7  C   UNL     1    -102.167  10.200  26.304  1.00  0.00    -0.000 C 
BRANCH   7   8
ATOM      8  C   UNL     1    -100.673  10.252  26.651  1.00  0.00    -0.003 C 
ATOM      9  C   UNL     1    -100.447  10.015  28.141  1.00  0.00     0.004 C 
ENDBRANCH   7   8
ENDBRANCH   6   7
ENDBRANCH   1   6
TORSDOF 5
ENDMDL
