MODEL 1
REMARK VINA RESULT:     4.789      0.000      0.000
REMARK INTER + INTRA:           4.789
REMARK INTER:                   4.789
REMARK INTRA:                   0.000
REMARK UNBOUND:                 0.000
REMARK SMILES CC1=CC[C@@]2(C)CCCC(C)(C)[C@]23C[C@H]13
REMARK SMILES IDX 1 1 2 2 3 3 4 4 5 5 7 6 8 7 9 8 10 9 13 10 15 11 14 12 11 13
REMARK SMILES IDX 12 14 6 15
REMARK H PARENT
REMARK Flexibility Score: inf
ROOT
ATOM      1  C   UNL     1       2.294   7.921  13.875  1.00  0.00     0.039 C 
ATOM      2  C   UNL     1       3.487   7.171  13.353  1.00  0.00    -0.074 C 
ATOM      3  C   UNL     1       3.433   5.843  13.223  1.00  0.00    -0.027 C 
ATOM      4  C   UNL     1       4.563   5.100  12.590  1.00  0.00     0.034 C 
ATOM      5  C   UNL     1       5.982   5.524  13.090  1.00  0.00    -0.022 C 
ATOM      6  C   UNL     1       6.970   4.875  12.064  1.00  0.00     0.008 C 
ATOM      7  C   UNL     1       8.348   5.509  12.038  1.00  0.00     0.001 C 
ATOM      8  C   UNL     1       8.207   6.964  11.612  1.00  0.00     0.007 C 
ATOM      9  C   UNL     1       7.490   7.819  12.684  1.00  0.00    -0.029 C 
ATOM     10  C   UNL     1       6.135   7.118  13.163  1.00  0.00    -0.012 C 
ATOM     11  C   UNL     1       4.787   7.904  13.139  1.00  0.00     0.022 C 
ATOM     12  C   UNL     1       5.581   7.831  14.424  1.00  0.00     0.017 C 
ATOM     13  C   UNL     1       7.247   9.209  12.046  1.00  0.00     0.012 C 
ATOM     14  C   UNL     1       8.471   8.016  13.878  1.00  0.00     0.012 C 
ATOM     15  C   UNL     1       6.241   4.875  14.476  1.00  0.00     0.012 C 
ENDROOT
TORSDOF 0
ENDMDL
MODEL 2
REMARK VINA RESULT:     5.820      1.238      3.910
REMARK INTER + INTRA:           5.820
REMARK INTER:                   5.820
REMARK INTRA:                   0.000
REMARK UNBOUND:                 0.000
REMARK SMILES CC1=CC[C@@]2(C)CCCC(C)(C)[C@]23C[C@H]13
REMARK SMILES IDX 1 1 2 2 3 3 4 4 5 5 7 6 8 7 9 8 10 9 13 10 15 11 14 12 11 13
REMARK SMILES IDX 12 14 6 15
REMARK H PARENT
REMARK Flexibility Score: inf
ROOT
ATOM      1  C   UNL     1       8.828   9.765  14.255  1.00  0.00     0.039 C 
ATOM      2  C   UNL     1       8.017   8.526  14.007  1.00  0.00    -0.074 C 
ATOM      3  C   UNL     1       8.594   7.324  14.091  1.00  0.00    -0.027 C 
ATOM      4  C   UNL     1       7.773   6.082  13.971  1.00  0.00     0.034 C 
ATOM      5  C   UNL     1       6.745   6.092  12.794  1.00  0.00    -0.022 C 
ATOM      6  C   UNL     1       5.804   4.876  13.084  1.00  0.00     0.008 C 
ATOM      7  C   UNL     1       4.463   4.942  12.378  1.00  0.00     0.001 C 
ATOM      8  C   UNL     1       3.713   6.171  12.871  1.00  0.00     0.007 C 
ATOM      9  C   UNL     1       4.378   7.487  12.402  1.00  0.00    -0.029 C 
ATOM     10  C   UNL     1       5.946   7.480  12.715  1.00  0.00    -0.012 C 
ATOM     11  C   UNL     1       6.600   8.655  13.505  1.00  0.00     0.022 C 
ATOM     12  C   UNL     1       6.641   8.663  11.994  1.00  0.00     0.017 C 
ATOM     13  C   UNL     1       3.633   8.637  13.126  1.00  0.00     0.012 C 
ATOM     14  C   UNL     1       4.111   7.644  10.876  1.00  0.00     0.012 C 
ATOM     15  C   UNL     1       7.498   5.807  11.467  1.00  0.00     0.012 C 
ENDROOT
TORSDOF 0
ENDMDL
MODEL 3
REMARK VINA RESULT:     6.390      1.156      3.114
REMARK INTER + INTRA:           6.390
REMARK INTER:                   6.390
REMARK INTRA:                   0.000
REMARK UNBOUND:                 0.000
REMARK SMILES CC1=CC[C@@]2(C)CCCC(C)(C)[C@]23C[C@H]13
REMARK SMILES IDX 1 1 2 2 3 3 4 4 5 5 7 6 8 7 9 8 10 9 13 10 15 11 14 12 11 13
REMARK SMILES IDX 12 14 6 15
REMARK H PARENT
REMARK Flexibility Score: inf
ROOT
ATOM      1  C   UNL     1       2.391   4.875  12.841  1.00  0.00     0.039 C 
ATOM      2  C   UNL     1       3.462   5.906  13.058  1.00  0.00    -0.074 C 
ATOM      3  C   UNL     1       3.127   7.186  13.240  1.00  0.00    -0.027 C 
ATOM      4  C   UNL     1       4.170   8.199  13.580  1.00  0.00     0.034 C 
ATOM      5  C   UNL     1       5.469   8.112  12.716  1.00  0.00    -0.022 C 
ATOM      6  C   UNL     1       6.504   9.013  13.469  1.00  0.00     0.008 C 
ATOM      7  C   UNL     1       7.952   8.729  13.117  1.00  0.00     0.001 C 
ATOM      8  C   UNL     1       8.280   7.298  13.520  1.00  0.00     0.007 C 
ATOM      9  C   UNL     1       7.536   6.261  12.644  1.00  0.00    -0.029 C 
ATOM     10  C   UNL     1       5.976   6.599  12.556  1.00  0.00    -0.012 C 
ATOM     11  C   UNL     1       4.911   5.514  12.905  1.00  0.00     0.022 C 
ATOM     12  C   UNL     1       5.302   5.733  11.460  1.00  0.00     0.017 C 
ATOM     13  C   UNL     1       7.809   4.875  13.280  1.00  0.00     0.012 C 
ATOM     14  C   UNL     1       8.192   6.266  11.231  1.00  0.00     0.012 C 
ATOM     15  C   UNL     1       5.196   8.757  11.331  1.00  0.00     0.012 C 
ENDROOT
TORSDOF 0
ENDMDL
