MODEL 1
REMARK VINA RESULT:    -3.404      0.000      0.000
REMARK INTER + INTRA:          -5.931
REMARK INTER:                  -5.195
REMARK INTRA:                  -0.736
REMARK UNBOUND:                -0.736
REMARK SMILES O=C([O-])CCCCCCCCC(=O)[O-]
REMARK SMILES IDX 7 1 6 2 5 3 4 4 2 5 1 6 3 7 8 8 9 9 10 10 11 11 12 12 13 13
REMARK SMILES IDX 14 14
REMARK H PARENT
REMARK Flexibility Score: inf
ROOT
ATOM      1  C   UNL     1      30.332  50.748  38.706  1.00  0.00     0.000 C 
ENDROOT
BRANCH   1   2
ATOM      2  C   UNL     1      30.426  49.967  40.025  1.00  0.00     0.000 C 
BRANCH   2   3
ATOM      3  C   UNL     1      29.382  48.843  40.123  1.00  0.00     0.006 C 
BRANCH   3   4
ATOM      4  C   UNL     1      29.368  48.167  41.499  1.00  0.00     0.053 C 
BRANCH   4   5
ATOM      5  C   UNL     1      29.831  46.748  41.388  1.00  0.00     0.041 C 
ATOM      6  O   UNL     1      29.051  45.802  41.676  1.00  0.00    -0.550 OA
ATOM      7  O   UNL     1      31.140  46.471  41.013  1.00  0.00    -0.550 OA
ENDBRANCH   4   5
ENDBRANCH   3   4
ENDBRANCH   2   3
ENDBRANCH   1   2
BRANCH   1   8
ATOM      8  C   UNL     1      29.914  52.205  38.961  1.00  0.00     0.000 C 
BRANCH   8   9
ATOM      9  C   UNL     1      28.682  52.620  38.142  1.00  0.00     0.000 C 
BRANCH   9  10
ATOM     10  C   UNL     1      27.411  52.730  38.997  1.00  0.00     0.006 C 
BRANCH  10  11
ATOM     11  C   UNL     1      27.759  52.992  40.464  1.00  0.00     0.053 C 
BRANCH  11  12
ATOM     12  C   UNL     1      27.095  51.984  41.349  1.00  0.00     0.041 C 
ATOM     13  O   UNL     1      27.784  51.272  42.125  1.00  0.00    -0.550 OA
ATOM     14  O   UNL     1      25.712  51.868  41.353  1.00  0.00    -0.550 OA
ENDBRANCH  11  12
ENDBRANCH  10  11
ENDBRANCH   9  10
ENDBRANCH   8   9
ENDBRANCH   1   8
TORSDOF 9
ENDMDL
MODEL 2
REMARK VINA RESULT:    -3.404     16.972     18.032
REMARK INTER + INTRA:          -5.930
REMARK INTER:                  -5.364
REMARK INTRA:                  -0.566
REMARK UNBOUND:                -0.736
REMARK SMILES O=C([O-])CCCCCCCCC(=O)[O-]
REMARK SMILES IDX 7 1 6 2 5 3 4 4 2 5 1 6 3 7 8 8 9 9 10 10 11 11 12 12 13 13
REMARK SMILES IDX 14 14
REMARK H PARENT
REMARK Flexibility Score: inf
ROOT
ATOM      1  C   UNL     1      25.586  40.981  24.521  1.00  0.00     0.000 C 
ENDROOT
BRANCH   1   2
ATOM      2  C   UNL     1      24.957  40.222  25.698  1.00  0.00     0.000 C 
BRANCH   2   3
ATOM      3  C   UNL     1      25.378  38.744  25.742  1.00  0.00     0.006 C 
BRANCH   3   4
ATOM      4  C   UNL     1      25.822  38.216  24.373  1.00  0.00     0.053 C 
BRANCH   4   5
ATOM      5  C   UNL     1      27.181  37.595  24.469  1.00  0.00     0.041 C 
ATOM      6  O   UNL     1      27.779  37.546  25.576  1.00  0.00    -0.550 OA
ATOM      7  O   UNL     1      27.808  37.116  23.325  1.00  0.00    -0.550 OA
ENDBRANCH   4   5
ENDBRANCH   3   4
ENDBRANCH   2   3
ENDBRANCH   1   2
BRANCH   1   8
ATOM      8  C   UNL     1      26.347  42.222  25.013  1.00  0.00     0.000 C 
BRANCH   8   9
ATOM      9  C   UNL     1      26.490  42.262  26.543  1.00  0.00     0.000 C 
BRANCH   9  10
ATOM     10  C   UNL     1      27.950  42.405  26.998  1.00  0.00     0.006 C 
BRANCH  10  11
ATOM     11  C   UNL     1      28.600  43.642  26.373  1.00  0.00     0.053 C 
BRANCH  11  12
ATOM     12  C   UNL     1      30.080  43.452  26.252  1.00  0.00     0.041 C 
ATOM     13  O   UNL     1      30.799  44.371  25.780  1.00  0.00    -0.550 OA
ATOM     14  O   UNL     1      30.669  42.280  26.707  1.00  0.00    -0.550 OA
ENDBRANCH  11  12
ENDBRANCH  10  11
ENDBRANCH   9  10
ENDBRANCH   8   9
ENDBRANCH   1   8
TORSDOF 9
ENDMDL
MODEL 3
REMARK VINA RESULT:    -3.374     15.699     17.158
REMARK INTER + INTRA:          -5.885
REMARK INTER:                  -5.220
REMARK INTRA:                  -0.666
REMARK UNBOUND:                -0.736
REMARK SMILES O=C([O-])CCCCCCCCC(=O)[O-]
REMARK SMILES IDX 7 1 6 2 5 3 4 4 2 5 1 6 3 7 8 8 9 9 10 10 11 11 12 12 13 13
REMARK SMILES IDX 14 14
REMARK H PARENT
REMARK Flexibility Score: inf
ROOT
ATOM      1  C   UNL     1      25.952  41.251  25.596  1.00  0.00     0.000 C 
ENDROOT
BRANCH   1   2
ATOM      2  C   UNL     1      26.813  41.508  26.841  1.00  0.00     0.000 C 
BRANCH   2   3
ATOM      3  C   UNL     1      27.349  42.947  26.904  1.00  0.00     0.006 C 
BRANCH   3   4
ATOM      4  C   UNL     1      28.478  43.202  25.898  1.00  0.00     0.053 C 
BRANCH   4   5
ATOM      5  C   UNL     1      29.782  43.382  26.610  1.00  0.00     0.041 C 
ATOM      6  O   UNL     1      30.503  44.386  26.369  1.00  0.00    -0.550 OA
ATOM      7  O   UNL     1      30.224  42.416  27.506  1.00  0.00    -0.550 OA
ENDBRANCH   4   5
ENDBRANCH   3   4
ENDBRANCH   2   3
ENDBRANCH   1   2
BRANCH   1   8
ATOM      8  C   UNL     1      25.636  39.755  25.447  1.00  0.00     0.000 C 
BRANCH   8   9
ATOM      9  C   UNL     1      26.766  38.855  25.971  1.00  0.00     0.000 C 
BRANCH   9  10
ATOM     10  C   UNL     1      26.279  37.842  27.018  1.00  0.00     0.006 C 
BRANCH  10  11
ATOM     11  C   UNL     1      24.875  38.197  27.513  1.00  0.00     0.053 C 
BRANCH  11  12
ATOM     12  C   UNL     1      24.918  38.636  28.943  1.00  0.00     0.041 C 
ATOM     13  O   UNL     1      24.876  39.860  29.232  1.00  0.00    -0.550 OA
ATOM     14  O   UNL     1      24.955  37.690  29.959  1.00  0.00    -0.550 OA
ENDBRANCH  11  12
ENDBRANCH  10  11
ENDBRANCH   9  10
ENDBRANCH   8   9
ENDBRANCH   1   8
TORSDOF 9
ENDMDL
MODEL 4
REMARK VINA RESULT:    -3.356     16.627     18.029
REMARK INTER + INTRA:          -5.858
REMARK INTER:                  -5.273
REMARK INTRA:                  -0.585
REMARK UNBOUND:                -0.736
REMARK SMILES O=C([O-])CCCCCCCCC(=O)[O-]
REMARK SMILES IDX 7 1 6 2 5 3 4 4 2 5 1 6 3 7 8 8 9 9 10 10 11 11 12 12 13 13
REMARK SMILES IDX 14 14
REMARK H PARENT
REMARK Flexibility Score: inf
ROOT
ATOM      1  C   UNL     1      26.409  42.433  24.999  1.00  0.00     0.000 C 
ENDROOT
BRANCH   1   2
ATOM      2  C   UNL     1      26.536  41.941  26.448  1.00  0.00     0.000 C 
BRANCH   2   3
ATOM      3  C   UNL     1      27.815  42.446  27.135  1.00  0.00     0.006 C 
BRANCH   3   4
ATOM      4  C   UNL     1      28.472  43.608  26.380  1.00  0.00     0.053 C 
BRANCH   4   5
ATOM      5  C   UNL     1      29.961  43.456  26.382  1.00  0.00     0.041 C 
ATOM      6  O   UNL     1      30.505  42.542  27.056  1.00  0.00    -0.550 OA
ATOM      7  O   UNL     1      30.752  44.356  25.678  1.00  0.00    -0.550 OA
ENDBRANCH   4   5
ENDBRANCH   3   4
ENDBRANCH   2   3
ENDBRANCH   1   2
BRANCH   1   8
ATOM      8  C   UNL     1      25.638  41.417  24.142  1.00  0.00     0.000 C 
BRANCH   8   9
ATOM      9  C   UNL     1      25.152  40.205  24.951  1.00  0.00     0.000 C 
BRANCH   9  10
ATOM     10  C   UNL     1      25.392  38.873  24.225  1.00  0.00     0.006 C 
BRANCH  10  11
ATOM     11  C   UNL     1      25.453  37.710  25.219  1.00  0.00     0.053 C 
BRANCH  11  12
ATOM     12  C   UNL     1      26.598  37.889  26.166  1.00  0.00     0.041 C 
ATOM     13  O   UNL     1      26.409  37.822  27.409  1.00  0.00    -0.550 OA
ATOM     14  O   UNL     1      27.883  38.079  25.674  1.00  0.00    -0.550 OA
ENDBRANCH  11  12
ENDBRANCH  10  11
ENDBRANCH   9  10
ENDBRANCH   8   9
ENDBRANCH   1   8
TORSDOF 9
ENDMDL
MODEL 5
REMARK VINA RESULT:    -3.335      1.127      5.431
REMARK INTER + INTRA:          -5.826
REMARK INTER:                  -5.180
REMARK INTRA:                  -0.646
REMARK UNBOUND:                -0.736
REMARK SMILES O=C([O-])CCCCCCCCC(=O)[O-]
REMARK SMILES IDX 7 1 6 2 5 3 4 4 2 5 1 6 3 7 8 8 9 9 10 10 11 11 12 12 13 13
REMARK SMILES IDX 14 14
REMARK H PARENT
REMARK Flexibility Score: inf
ROOT
ATOM      1  C   UNL     1      30.222  51.107  38.403  1.00  0.00     0.000 C 
ENDROOT
BRANCH   1   2
ATOM      2  C   UNL     1      30.007  52.587  38.754  1.00  0.00     0.000 C 
BRANCH   2   3
ATOM      3  C   UNL     1      28.597  53.082  38.394  1.00  0.00     0.006 C 
BRANCH   3   4
ATOM      4  C   UNL     1      27.493  52.168  38.938  1.00  0.00     0.053 C 
BRANCH   4   5
ATOM      5  C   UNL     1      27.310  52.387  40.407  1.00  0.00     0.041 C 
ATOM      6  O   UNL     1      26.687  51.542  41.102  1.00  0.00    -0.550 OA
ATOM      7  O   UNL     1      27.787  53.549  41.001  1.00  0.00    -0.550 OA
ENDBRANCH   4   5
ENDBRANCH   3   4
ENDBRANCH   2   3
ENDBRANCH   1   2
BRANCH   1   8
ATOM      8  C   UNL     1      31.002  50.389  39.515  1.00  0.00     0.000 C 
BRANCH   8   9
ATOM      9  C   UNL     1      30.264  50.403  40.863  1.00  0.00     0.000 C 
BRANCH   9  10
ATOM     10  C   UNL     1      29.605  49.055  41.191  1.00  0.00     0.006 C 
BRANCH  10  11
ATOM     11  C   UNL     1      30.632  48.062  41.742  1.00  0.00     0.053 C 
BRANCH  11  12
ATOM     12  C   UNL     1      30.597  46.784  40.964  1.00  0.00     0.041 C 
ATOM     13  O   UNL     1      29.656  46.558  40.159  1.00  0.00    -0.550 OA
ATOM     14  O   UNL     1      31.630  45.865  41.093  1.00  0.00    -0.550 OA
ENDBRANCH  11  12
ENDBRANCH  10  11
ENDBRANCH   9  10
ENDBRANCH   8   9
ENDBRANCH   1   8
TORSDOF 9
ENDMDL
MODEL 6
REMARK VINA RESULT:    -3.309      1.750      5.103
REMARK INTER + INTRA:          -5.786
REMARK INTER:                  -4.975
REMARK INTRA:                  -0.810
REMARK UNBOUND:                -0.736
REMARK SMILES O=C([O-])CCCCCCCCC(=O)[O-]
REMARK SMILES IDX 7 1 6 2 5 3 4 4 2 5 1 6 3 7 8 8 9 9 10 10 11 11 12 12 13 13
REMARK SMILES IDX 14 14
REMARK H PARENT
REMARK Flexibility Score: inf
ROOT
ATOM      1  C   UNL     1      27.853  52.070  38.437  1.00  0.00     0.000 C 
ENDROOT
BRANCH   1   2
ATOM      2  C   UNL     1      27.074  52.883  39.482  1.00  0.00     0.000 C 
BRANCH   2   3
ATOM      3  C   UNL     1      27.081  52.224  40.870  1.00  0.00     0.006 C 
BRANCH   3   4
ATOM      4  C   UNL     1      27.418  53.214  41.992  1.00  0.00     0.053 C 
BRANCH   4   5
ATOM      5  C   UNL     1      28.760  53.834  41.755  1.00  0.00     0.041 C 
ATOM      6  O   UNL     1      28.855  55.067  41.513  1.00  0.00    -0.550 OA
ATOM      7  O   UNL     1      29.901  53.042  41.753  1.00  0.00    -0.550 OA
ENDBRANCH   4   5
ENDBRANCH   3   4
ENDBRANCH   2   3
ENDBRANCH   1   2
BRANCH   1   8
ATOM      8  C   UNL     1      29.304  52.565  38.329  1.00  0.00     0.000 C 
BRANCH   8   9
ATOM      9  C   UNL     1      30.332  51.462  38.627  1.00  0.00     0.000 C 
BRANCH   9  10
ATOM     10  C   UNL     1      29.712  50.254  39.344  1.00  0.00     0.006 C 
BRANCH  10  11
ATOM     11  C   UNL     1      30.703  49.639  40.337  1.00  0.00     0.053 C 
BRANCH  11  12
ATOM     12  C   UNL     1      30.132  48.399  40.949  1.00  0.00     0.041 C 
ATOM     13  O   UNL     1      30.761  47.311  40.879  1.00  0.00    -0.550 OA
ATOM     14  O   UNL     1      28.928  48.455  41.638  1.00  0.00    -0.550 OA
ENDBRANCH  11  12
ENDBRANCH  10  11
ENDBRANCH   9  10
ENDBRANCH   8   9
ENDBRANCH   1   8
TORSDOF 9
ENDMDL
MODEL 7
REMARK VINA RESULT:    -3.188     14.992     16.054
REMARK INTER + INTRA:          -5.602
REMARK INTER:                  -5.281
REMARK INTRA:                  -0.320
REMARK UNBOUND:                -0.736
REMARK SMILES O=C([O-])CCCCCCCCC(=O)[O-]
REMARK SMILES IDX 7 1 6 2 5 3 4 4 2 5 1 6 3 7 8 8 9 9 10 10 11 11 12 12 13 13
REMARK SMILES IDX 14 14
REMARK H PARENT
REMARK Flexibility Score: inf
ROOT
ATOM      1  C   UNL     1      25.593  40.268  28.243  1.00  0.00     0.000 C 
ENDROOT
BRANCH   1   2
ATOM      2  C   UNL     1      25.139  38.820  28.006  1.00  0.00     0.000 C 
BRANCH   2   3
ATOM      3  C   UNL     1      25.794  37.828  28.980  1.00  0.00     0.006 C 
BRANCH   3   4
ATOM      4  C   UNL     1      25.146  37.848  30.370  1.00  0.00     0.053 C 
BRANCH   4   5
ATOM      5  C   UNL     1      26.161  38.194  31.414  1.00  0.00     0.041 C 
ATOM      6  O   UNL     1      27.383  38.258  31.114  1.00  0.00    -0.550 OA
ATOM      7  O   UNL     1      25.763  38.397  32.729  1.00  0.00    -0.550 OA
ENDBRANCH   4   5
ENDBRANCH   3   4
ENDBRANCH   2   3
ENDBRANCH   1   2
BRANCH   1   8
ATOM      8  C   UNL     1      25.758  41.015  26.910  1.00  0.00     0.000 C 
BRANCH   8   9
ATOM      9  C   UNL     1      26.336  42.428  27.089  1.00  0.00     0.000 C 
BRANCH   9  10
ATOM     10  C   UNL     1      27.871  42.437  27.148  1.00  0.00     0.006 C 
BRANCH  10  11
ATOM     11  C   UNL     1      28.460  43.229  25.978  1.00  0.00     0.053 C 
BRANCH  11  12
ATOM     12  C   UNL     1      29.948  43.319  26.100  1.00  0.00     0.041 C 
ATOM     13  O   UNL     1      30.569  44.286  25.586  1.00  0.00    -0.550 OA
ATOM     14  O   UNL     1      30.644  42.360  26.823  1.00  0.00    -0.550 OA
ENDBRANCH  11  12
ENDBRANCH  10  11
ENDBRANCH   9  10
ENDBRANCH   8   9
ENDBRANCH   1   8
TORSDOF 9
ENDMDL
MODEL 8
REMARK VINA RESULT:    -3.157      1.837      2.284
REMARK INTER + INTRA:          -5.553
REMARK INTER:                  -4.794
REMARK INTRA:                  -0.760
REMARK UNBOUND:                -0.736
REMARK SMILES O=C([O-])CCCCCCCCC(=O)[O-]
REMARK SMILES IDX 7 1 6 2 5 3 4 4 2 5 1 6 3 7 8 8 9 9 10 10 11 11 12 12 13 13
REMARK SMILES IDX 14 14
REMARK H PARENT
REMARK Flexibility Score: inf
ROOT
ATOM      1  C   UNL     1      30.181  50.247  39.610  1.00  0.00     0.000 C 
ENDROOT
BRANCH   1   2
ATOM      2  C   UNL     1      30.688  50.194  41.059  1.00  0.00     0.000 C 
BRANCH   2   3
ATOM      3  C   UNL     1      30.100  49.015  41.850  1.00  0.00     0.006 C 
BRANCH   3   4
ATOM      4  C   UNL     1      31.112  47.884  42.065  1.00  0.00     0.053 C 
BRANCH   4   5
ATOM      5  C   UNL     1      30.835  46.750  41.128  1.00  0.00     0.041 C 
ATOM      6  O   UNL     1      31.616  45.764  41.076  1.00  0.00    -0.550 OA
ATOM      7  O   UNL     1      29.739  46.806  40.275  1.00  0.00    -0.550 OA
ENDBRANCH   4   5
ENDBRANCH   3   4
ENDBRANCH   2   3
ENDBRANCH   1   2
BRANCH   1   8
ATOM      8  C   UNL     1      28.654  50.406  39.570  1.00  0.00     0.000 C 
BRANCH   8   9
ATOM      9  C   UNL     1      28.216  51.823  39.168  1.00  0.00     0.000 C 
BRANCH   9  10
ATOM     10  C   UNL     1      27.129  52.392  40.093  1.00  0.00     0.006 C 
BRANCH  10  11
ATOM     11  C   UNL     1      27.714  52.770  41.457  1.00  0.00     0.053 C 
BRANCH  11  12
ATOM     12  C   UNL     1      28.819  53.767  41.296  1.00  0.00     0.041 C 
ATOM     13  O   UNL     1      28.616  54.841  40.672  1.00  0.00    -0.550 OA
ATOM     14  O   UNL     1      30.056  53.532  41.879  1.00  0.00    -0.550 OA
ENDBRANCH  11  12
ENDBRANCH  10  11
ENDBRANCH   9  10
ENDBRANCH   8   9
ENDBRANCH   1   8
TORSDOF 9
ENDMDL
MODEL 9
REMARK VINA RESULT:    -3.143      2.091      5.847
REMARK INTER + INTRA:          -5.532
REMARK INTER:                  -4.813
REMARK INTRA:                  -0.719
REMARK UNBOUND:                -0.736
REMARK SMILES O=C([O-])CCCCCCCCC(=O)[O-]
REMARK SMILES IDX 7 1 6 2 5 3 4 4 2 5 1 6 3 7 8 8 9 9 10 10 11 11 12 12 13 13
REMARK SMILES IDX 14 14
REMARK H PARENT
REMARK Flexibility Score: inf
ROOT
ATOM      1  C   UNL     1      27.250  50.802  41.697  1.00  0.00     0.000 C 
ENDROOT
BRANCH   1   2
ATOM      2  C   UNL     1      27.865  52.068  41.080  1.00  0.00     0.000 C 
BRANCH   2   3
ATOM      3  C   UNL     1      27.051  52.602  39.891  1.00  0.00     0.006 C 
BRANCH   3   4
ATOM      4  C   UNL     1      27.685  52.255  38.538  1.00  0.00     0.053 C 
BRANCH   4   5
ATOM      5  C   UNL     1      29.057  52.845  38.437  1.00  0.00     0.041 C 
ATOM      6  O   UNL     1      29.205  54.091  38.339  1.00  0.00    -0.550 OA
ATOM      7  O   UNL     1      30.170  52.014  38.402  1.00  0.00    -0.550 OA
ENDBRANCH   4   5
ENDBRANCH   3   4
ENDBRANCH   2   3
ENDBRANCH   1   2
BRANCH   1   8
ATOM      8  C   UNL     1      28.260  49.644  41.690  1.00  0.00     0.000 C 
BRANCH   8   9
ATOM      9  C   UNL     1      28.844  49.374  40.294  1.00  0.00     0.000 C 
BRANCH   9  10
ATOM     10  C   UNL     1      30.289  48.858  40.346  1.00  0.00     0.006 C 
BRANCH  10  11
ATOM     11  C   UNL     1      30.536  48.046  41.620  1.00  0.00     0.053 C 
BRANCH  11  12
ATOM     12  C   UNL     1      30.549  46.581  41.315  1.00  0.00     0.041 C 
ATOM     13  O   UNL     1      29.471  45.933  41.274  1.00  0.00    -0.550 OA
ATOM     14  O   UNL     1      31.748  45.943  41.026  1.00  0.00    -0.550 OA
ENDBRANCH  11  12
ENDBRANCH  10  11
ENDBRANCH   9  10
ENDBRANCH   8   9
ENDBRANCH   1   8
TORSDOF 9
ENDMDL
