MODEL 1
REMARK VINA RESULT:    -4.272      0.000      0.000
REMARK INTER + INTRA:          -6.490
REMARK INTER:                  -5.771
REMARK INTRA:                  -0.719
REMARK UNBOUND:                -0.719
REMARK SMILES O=C[C@H](O)[C@@H](O)[C@@H](O)CO
REMARK SMILES IDX 7 1 9 2 10 3 5 5 3 6 2 7 1 8 4 9 6 11 8 13
REMARK H PARENT 10 4 4 10 6 12 8 14
REMARK Flexibility Score: inf
ROOT
ATOM      1  C   UNL     1     -21.594  -0.808 -12.495  1.00  0.00     0.171 C 
ENDROOT
BRANCH   1   2
ATOM      2  C   UNL     1     -22.643  -1.059 -11.398  1.00  0.00     0.190 C 
BRANCH   2   3
ATOM      3  O   UNL     1     -22.021  -1.476 -10.213  1.00  0.00    -0.394 OA
ATOM      4  H   UNL     1     -22.743  -1.558  -9.537  1.00  0.00     0.210 HD
ENDBRANCH   2   3
ENDBRANCH   1   2
BRANCH   1   5
ATOM      5  C   UNL     1     -20.975  -2.118 -13.062  1.00  0.00     0.181 C 
BRANCH   5   6
ATOM      6  C   UNL     1     -19.533  -2.420 -12.564  1.00  0.00     0.209 C 
BRANCH   6   7
ATOM      7  C   UNL     1     -18.876  -3.491 -13.397  1.00  0.00     0.258 C 
ATOM      8  O   UNL     1     -19.416  -4.576 -13.548  1.00  0.00    -0.300 OA
ENDBRANCH   6   7
BRANCH   6   9
ATOM      9  O   UNL     1     -19.507  -2.765 -11.200  1.00  0.00    -0.383 OA
ATOM     10  H   UNL     1     -19.133  -3.681 -11.122  1.00  0.00     0.211 HD
ENDBRANCH   6   9
ENDBRANCH   5   6
BRANCH   5  11
ATOM     11  O   UNL     1     -21.833  -3.210 -12.833  1.00  0.00    -0.387 OA
ATOM     12  H   UNL     1     -21.804  -3.800 -13.629  1.00  0.00     0.211 HD
ENDBRANCH   5  11
ENDBRANCH   1   5
BRANCH   1  13
ATOM     13  O   UNL     1     -22.169  -0.051 -13.530  1.00  0.00    -0.388 OA
ATOM     14  H   UNL     1     -21.452   0.125 -14.193  1.00  0.00     0.211 HD
ENDBRANCH   1  13
TORSDOF 8
ENDMDL
MODEL 2
REMARK VINA RESULT:    -4.003      1.643      3.999
REMARK INTER + INTRA:          -6.126
REMARK INTER:                  -5.442
REMARK INTRA:                  -0.684
REMARK UNBOUND:                -0.719
REMARK SMILES O=C[C@H](O)[C@@H](O)[C@@H](O)CO
REMARK SMILES IDX 7 1 9 2 10 3 5 5 3 6 2 7 1 8 4 9 6 11 8 13
REMARK H PARENT 10 4 4 10 6 12 8 14
REMARK Flexibility Score: inf
ROOT
ATOM      1  C   UNL     1     -22.105  -1.488 -13.012  1.00  0.00     0.171 C 
ENDROOT
BRANCH   1   2
ATOM      2  C   UNL     1     -20.678  -2.049 -12.888  1.00  0.00     0.190 C 
BRANCH   2   3
ATOM      3  O   UNL     1     -20.703  -3.335 -12.333  1.00  0.00    -0.394 OA
ATOM      4  H   UNL     1     -21.060  -3.231 -11.413  1.00  0.00     0.210 HD
ENDBRANCH   2   3
ENDBRANCH   1   2
BRANCH   1   5
ATOM      5  C   UNL     1     -22.655  -0.911 -11.677  1.00  0.00     0.181 C 
BRANCH   5   6
ATOM      6  C   UNL     1     -24.144  -1.257 -11.387  1.00  0.00     0.209 C 
BRANCH   6   7
ATOM      7  C   UNL     1     -24.313  -2.715 -11.040  1.00  0.00     0.258 C 
ATOM      8  O   UNL     1     -23.697  -3.204 -10.106  1.00  0.00    -0.300 OA
ENDBRANCH   6   7
BRANCH   6   9
ATOM      9  O   UNL     1     -24.987  -0.900 -12.455  1.00  0.00    -0.383 OA
ATOM     10  H   UNL     1     -25.452  -0.058 -12.212  1.00  0.00     0.211 HD
ENDBRANCH   6   9
ENDBRANCH   5   6
BRANCH   5  11
ATOM     11  O   UNL     1     -21.828  -1.281 -10.600  1.00  0.00    -0.387 OA
ATOM     12  H   UNL     1     -21.371  -0.468 -10.265  1.00  0.00     0.211 HD
ENDBRANCH   5  11
ENDBRANCH   1   5
BRANCH   1  13
ATOM     13  O   UNL     1     -22.140  -0.509 -14.019  1.00  0.00    -0.388 OA
ATOM     14  H   UNL     1     -21.380  -0.694 -14.630  1.00  0.00     0.211 HD
ENDBRANCH   1  13
TORSDOF 8
ENDMDL
MODEL 3
REMARK VINA RESULT:    -3.971      1.902      4.161
REMARK INTER + INTRA:          -6.083
REMARK INTER:                  -5.558
REMARK INTRA:                  -0.525
REMARK UNBOUND:                -0.719
REMARK SMILES O=C[C@H](O)[C@@H](O)[C@@H](O)CO
REMARK SMILES IDX 7 1 9 2 10 3 5 5 3 6 2 7 1 8 4 9 6 11 8 13
REMARK H PARENT 10 4 4 10 6 12 8 14
REMARK Flexibility Score: inf
ROOT
ATOM      1  C   UNL     1     -17.736  -3.594 -11.574  1.00  0.00     0.171 C 
ENDROOT
BRANCH   1   2
ATOM      2  C   UNL     1     -16.788  -2.476 -11.108  1.00  0.00     0.190 C 
BRANCH   2   3
ATOM      3  O   UNL     1     -17.009  -1.306 -11.847  1.00  0.00    -0.394 OA
ATOM      4  H   UNL     1     -17.276  -0.612 -11.190  1.00  0.00     0.210 HD
ENDBRANCH   2   3
ENDBRANCH   1   2
BRANCH   1   5
ATOM      5  C   UNL     1     -19.239  -3.206 -11.470  1.00  0.00     0.181 C 
BRANCH   5   6
ATOM      6  C   UNL     1     -19.962  -3.048 -12.837  1.00  0.00     0.209 C 
BRANCH   6   7
ATOM      7  C   UNL     1     -21.178  -2.163 -12.718  1.00  0.00     0.258 C 
ATOM      8  O   UNL     1     -21.844  -2.163 -11.695  1.00  0.00    -0.300 OA
ENDBRANCH   6   7
BRANCH   6   9
ATOM      9  O   UNL     1     -20.305  -4.290 -13.401  1.00  0.00    -0.383 OA
ATOM     10  H   UNL     1     -20.151  -4.991 -12.717  1.00  0.00     0.211 HD
ENDBRANCH   6   9
ENDBRANCH   5   6
BRANCH   5  11
ATOM     11  O   UNL     1     -19.925  -4.105 -10.632  1.00  0.00    -0.387 OA
ATOM     12  H   UNL     1     -19.556  -4.020  -9.716  1.00  0.00     0.211 HD
ENDBRANCH   5  11
ENDBRANCH   1   5
BRANCH   1  13
ATOM     13  O   UNL     1     -17.417  -3.962 -12.891  1.00  0.00    -0.388 OA
ATOM     14  H   UNL     1     -18.143  -4.560 -13.210  1.00  0.00     0.211 HD
ENDBRANCH   1  13
TORSDOF 8
ENDMDL
MODEL 4
REMARK VINA RESULT:    -3.915      2.009      2.860
REMARK INTER + INTRA:          -6.007
REMARK INTER:                  -5.326
REMARK INTRA:                  -0.682
REMARK UNBOUND:                -0.719
REMARK SMILES O=C[C@H](O)[C@@H](O)[C@@H](O)CO
REMARK SMILES IDX 7 1 9 2 10 3 5 5 3 6 2 7 1 8 4 9 6 11 8 13
REMARK H PARENT 10 4 4 10 6 12 8 14
REMARK Flexibility Score: inf
ROOT
ATOM      1  C   UNL     1     -24.088  -1.008 -11.540  1.00  0.00     0.171 C 
ENDROOT
BRANCH   1   2
ATOM      2  C   UNL     1     -24.700  -1.619 -10.267  1.00  0.00     0.190 C 
BRANCH   2   3
ATOM      3  O   UNL     1     -25.411  -2.786 -10.577  1.00  0.00    -0.394 OA
ATOM      4  H   UNL     1     -25.744  -3.144  -9.714  1.00  0.00     0.210 HD
ENDBRANCH   2   3
ENDBRANCH   1   2
BRANCH   1   5
ATOM      5  C   UNL     1     -23.168  -1.997 -12.312  1.00  0.00     0.181 C 
BRANCH   5   6
ATOM      6  C   UNL     1     -22.056  -1.317 -13.160  1.00  0.00     0.209 C 
BRANCH   6   7
ATOM      7  C   UNL     1     -20.683  -1.779 -12.739  1.00  0.00     0.258 C 
ATOM      8  O   UNL     1     -20.233  -2.835 -13.155  1.00  0.00    -0.300 OA
ENDBRANCH   6   7
BRANCH   6   9
ATOM      9  O   UNL     1     -22.142   0.087 -13.116  1.00  0.00    -0.383 OA
ATOM     10  H   UNL     1     -21.789   0.443 -13.972  1.00  0.00     0.211 HD
ENDBRANCH   6   9
ENDBRANCH   5   6
BRANCH   5  11
ATOM     11  O   UNL     1     -22.627  -2.956 -11.437  1.00  0.00    -0.387 OA
ATOM     12  H   UNL     1     -22.390  -2.503 -10.587  1.00  0.00     0.211 HD
ENDBRANCH   5  11
ENDBRANCH   1   5
BRANCH   1  13
ATOM     13  O   UNL     1     -25.114  -0.540 -12.377  1.00  0.00    -0.388 OA
ATOM     14  H   UNL     1     -25.710  -1.312 -12.565  1.00  0.00     0.211 HD
ENDBRANCH   1  13
TORSDOF 8
ENDMDL
MODEL 5
REMARK VINA RESULT:    -3.863      1.150      1.940
REMARK INTER + INTRA:          -5.938
REMARK INTER:                  -5.671
REMARK INTRA:                  -0.267
REMARK UNBOUND:                -0.719
REMARK SMILES O=C[C@H](O)[C@@H](O)[C@@H](O)CO
REMARK SMILES IDX 7 1 9 2 10 3 5 5 3 6 2 7 1 8 4 9 6 11 8 13
REMARK H PARENT 10 4 4 10 6 12 8 14
REMARK Flexibility Score: inf
ROOT
ATOM      1  C   UNL     1     -21.921  -1.712 -11.878  1.00  0.00     0.171 C 
ENDROOT
BRANCH   1   2
ATOM      2  C   UNL     1     -21.723  -0.601 -12.924  1.00  0.00     0.190 C 
BRANCH   2   3
ATOM      3  O   UNL     1     -22.875   0.192 -13.019  1.00  0.00    -0.394 OA
ATOM      4  H   UNL     1     -22.606   1.104 -12.739  1.00  0.00     0.210 HD
ENDBRANCH   2   3
ENDBRANCH   1   2
BRANCH   1   5
ATOM      5  C   UNL     1     -20.824  -2.814 -11.941  1.00  0.00     0.181 C 
BRANCH   5   6
ATOM      6  C   UNL     1     -19.581  -2.440 -12.798  1.00  0.00     0.209 C 
BRANCH   6   7
ATOM      7  C   UNL     1     -19.069  -3.629 -13.572  1.00  0.00     0.258 C 
ATOM      8  O   UNL     1     -18.785  -4.667 -12.995  1.00  0.00    -0.300 OA
ENDBRANCH   6   7
BRANCH   6   9
ATOM      9  O   UNL     1     -18.554  -1.874 -12.021  1.00  0.00    -0.383 OA
ATOM     10  H   UNL     1     -18.669  -2.183 -11.085  1.00  0.00     0.211 HD
ENDBRANCH   6   9
ENDBRANCH   5   6
BRANCH   5  11
ATOM     11  O   UNL     1     -20.448  -3.212 -10.644  1.00  0.00    -0.387 OA
ATOM     12  H   UNL     1     -20.912  -4.062 -10.433  1.00  0.00     0.211 HD
ENDBRANCH   5  11
ENDBRANCH   1   5
BRANCH   1  13
ATOM     13  O   UNL     1     -21.972  -1.146 -10.594  1.00  0.00    -0.388 OA
ATOM     14  H   UNL     1     -21.035  -1.061 -10.277  1.00  0.00     0.211 HD
ENDBRANCH   1  13
TORSDOF 8
ENDMDL
MODEL 6
REMARK VINA RESULT:    -3.840      1.046      1.850
REMARK INTER + INTRA:          -5.907
REMARK INTER:                  -5.243
REMARK INTRA:                  -0.664
REMARK UNBOUND:                -0.719
REMARK SMILES O=C[C@H](O)[C@@H](O)[C@@H](O)CO
REMARK SMILES IDX 7 1 9 2 10 3 5 5 3 6 2 7 1 8 4 9 6 11 8 13
REMARK H PARENT 10 4 4 10 6 12 8 14
REMARK Flexibility Score: inf
ROOT
ATOM      1  C   UNL     1     -22.236  -1.716 -11.613  1.00  0.00     0.171 C 
ENDROOT
BRANCH   1   2
ATOM      2  C   UNL     1     -23.343  -0.846 -12.233  1.00  0.00     0.190 C 
BRANCH   2   3
ATOM      3  O   UNL     1     -22.784   0.216 -12.957  1.00  0.00    -0.394 OA
ATOM      4  H   UNL     1     -21.801   0.103 -12.896  1.00  0.00     0.210 HD
ENDBRANCH   2   3
ENDBRANCH   1   2
BRANCH   1   5
ATOM      5  C   UNL     1     -20.934  -1.748 -12.464  1.00  0.00     0.181 C 
BRANCH   5   6
ATOM      6  C   UNL     1     -19.920  -2.853 -12.052  1.00  0.00     0.209 C 
BRANCH   6   7
ATOM      7  C   UNL     1     -19.660  -3.812 -13.187  1.00  0.00     0.258 C 
ATOM      8  O   UNL     1     -18.800  -3.569 -14.018  1.00  0.00    -0.300 OA
ENDBRANCH   6   7
BRANCH   6   9
ATOM      9  O   UNL     1     -20.332  -3.546 -10.900  1.00  0.00    -0.383 OA
ATOM     10  H   UNL     1     -19.521  -3.867 -10.427  1.00  0.00     0.211 HD
ENDBRANCH   6   9
ENDBRANCH   5   6
BRANCH   5  11
ATOM     11  O   UNL     1     -21.241  -1.824 -13.836  1.00  0.00    -0.387 OA
ATOM     12  H   UNL     1     -20.688  -2.541 -14.239  1.00  0.00     0.211 HD
ENDBRANCH   5  11
ENDBRANCH   1   5
BRANCH   1  13
ATOM     13  O   UNL     1     -21.958  -1.266 -10.312  1.00  0.00    -0.388 OA
ATOM     14  H   UNL     1     -22.830  -1.162  -9.849  1.00  0.00     0.211 HD
ENDBRANCH   1  13
TORSDOF 8
ENDMDL
MODEL 7
REMARK VINA RESULT:    -3.774      1.490      4.370
REMARK INTER + INTRA:          -5.817
REMARK INTER:                  -5.487
REMARK INTRA:                  -0.330
REMARK UNBOUND:                -0.719
REMARK SMILES O=C[C@H](O)[C@@H](O)[C@@H](O)CO
REMARK SMILES IDX 7 1 9 2 10 3 5 5 3 6 2 7 1 8 4 9 6 11 8 13
REMARK H PARENT 10 4 4 10 6 12 8 14
REMARK Flexibility Score: inf
ROOT
ATOM      1  C   UNL     1     -18.647  -4.054 -12.550  1.00  0.00     0.171 C 
ENDROOT
BRANCH   1   2
ATOM      2  C   UNL     1     -18.550  -4.868 -13.853  1.00  0.00     0.190 C 
BRANCH   2   3
ATOM      3  O   UNL     1     -18.006  -4.084 -14.880  1.00  0.00    -0.394 OA
ATOM      4  H   UNL     1     -17.095  -4.442 -15.046  1.00  0.00     0.210 HD
ENDBRANCH   2   3
ENDBRANCH   1   2
BRANCH   1   5
ATOM      5  C   UNL     1     -19.241  -2.632 -12.759  1.00  0.00     0.181 C 
BRANCH   5   6
ATOM      6  C   UNL     1     -20.753  -2.507 -12.420  1.00  0.00     0.209 C 
BRANCH   6   7
ATOM      7  C   UNL     1     -21.412  -1.421 -13.234  1.00  0.00     0.258 C 
ATOM      8  O   UNL     1     -21.893  -0.443 -12.685  1.00  0.00    -0.300 OA
ENDBRANCH   6   7
BRANCH   6   9
ATOM      9  O   UNL     1     -20.973  -2.300 -11.047  1.00  0.00    -0.383 OA
ATOM     10  H   UNL     1     -21.952  -2.285 -10.890  1.00  0.00     0.211 HD
ENDBRANCH   6   9
ENDBRANCH   5   6
BRANCH   5  11
ATOM     11  O   UNL     1     -18.482  -1.672 -12.063  1.00  0.00    -0.387 OA
ATOM     12  H   UNL     1     -18.576  -1.846 -11.091  1.00  0.00     0.211 HD
ENDBRANCH   5  11
ENDBRANCH   1   5
BRANCH   1  13
ATOM     13  O   UNL     1     -19.404  -4.767 -11.607  1.00  0.00    -0.388 OA
ATOM     14  H   UNL     1     -20.098  -5.267 -12.110  1.00  0.00     0.211 HD
ENDBRANCH   1  13
TORSDOF 8
ENDMDL
MODEL 8
REMARK VINA RESULT:    -3.693      1.201      4.026
REMARK INTER + INTRA:          -5.708
REMARK INTER:                  -4.974
REMARK INTRA:                  -0.734
REMARK UNBOUND:                -0.719
REMARK SMILES O=C[C@H](O)[C@@H](O)[C@@H](O)CO
REMARK SMILES IDX 7 1 9 2 10 3 5 5 3 6 2 7 1 8 4 9 6 11 8 13
REMARK H PARENT 10 4 4 10 6 12 8 14
REMARK Flexibility Score: inf
ROOT
ATOM      1  C   UNL     1     -18.732  -2.575 -12.604  1.00  0.00     0.171 C 
ENDROOT
BRANCH   1   2
ATOM      2  C   UNL     1     -18.419  -4.080 -12.660  1.00  0.00     0.190 C 
BRANCH   2   3
ATOM      3  O   UNL     1     -19.477  -4.778 -13.260  1.00  0.00    -0.394 OA
ATOM      4  H   UNL     1     -20.310  -4.355 -12.927  1.00  0.00     0.210 HD
ENDBRANCH   2   3
ENDBRANCH   1   2
BRANCH   1   5
ATOM      5  C   UNL     1     -20.016  -2.246 -11.789  1.00  0.00     0.181 C 
BRANCH   5   6
ATOM      6  C   UNL     1     -21.269  -1.933 -12.656  1.00  0.00     0.209 C 
BRANCH   6   7
ATOM      7  C   UNL     1     -22.253  -1.067 -11.908  1.00  0.00     0.258 C 
ATOM      8  O   UNL     1     -22.452  -1.246 -10.717  1.00  0.00    -0.300 OA
ENDBRANCH   6   7
BRANCH   6   9
ATOM      9  O   UNL     1     -21.893  -3.102 -13.125  1.00  0.00    -0.383 OA
ATOM     10  H   UNL     1     -22.843  -3.079 -12.841  1.00  0.00     0.211 HD
ENDBRANCH   6   9
ENDBRANCH   5   6
BRANCH   5  11
ATOM     11  O   UNL     1     -20.284  -3.265 -10.856  1.00  0.00    -0.387 OA
ATOM     12  H   UNL     1     -21.200  -3.128 -10.501  1.00  0.00     0.211 HD
ENDBRANCH   5  11
ENDBRANCH   1   5
BRANCH   1  13
ATOM     13  O   UNL     1     -17.629  -1.885 -12.076  1.00  0.00    -0.388 OA
ATOM     14  H   UNL     1     -17.540  -2.161 -11.127  1.00  0.00     0.211 HD
ENDBRANCH   1  13
TORSDOF 8
ENDMDL
MODEL 9
REMARK VINA RESULT:    -3.611      2.552      4.749
REMARK INTER + INTRA:          -5.597
REMARK INTER:                  -5.289
REMARK INTRA:                  -0.309
REMARK UNBOUND:                -0.719
REMARK SMILES O=C[C@H](O)[C@@H](O)[C@@H](O)CO
REMARK SMILES IDX 7 1 9 2 10 3 5 5 3 6 2 7 1 8 4 9 6 11 8 13
REMARK H PARENT 10 4 4 10 6 12 8 14
REMARK Flexibility Score: inf
ROOT
ATOM      1  C   UNL     1     -22.557  -0.976 -11.687  1.00  0.00     0.171 C 
ENDROOT
BRANCH   1   2
ATOM      2  C   UNL     1     -21.753  -1.071 -12.996  1.00  0.00     0.190 C 
BRANCH   2   3
ATOM      3  O   UNL     1     -22.360  -0.304 -14.000  1.00  0.00    -0.394 OA
ATOM      4  H   UNL     1     -22.981  -0.915 -14.475  1.00  0.00     0.210 HD
ENDBRANCH   2   3
ENDBRANCH   1   2
BRANCH   1   5
ATOM      5  C   UNL     1     -23.872  -1.806 -11.715  1.00  0.00     0.181 C 
BRANCH   5   6
ATOM      6  C   UNL     1     -24.433  -2.177 -10.313  1.00  0.00     0.209 C 
BRANCH   6   7
ATOM      7  C   UNL     1     -24.842  -3.627 -10.249  1.00  0.00     0.258 C 
ATOM      8  O   UNL     1     -25.996  -3.933  -9.991  1.00  0.00    -0.300 OA
ENDBRANCH   6   7
BRANCH   6   9
ATOM      9  O   UNL     1     -25.500  -1.342  -9.933  1.00  0.00    -0.383 OA
ATOM     10  H   UNL     1     -26.271  -1.919  -9.694  1.00  0.00     0.211 HD
ENDBRANCH   6   9
ENDBRANCH   5   6
BRANCH   5  11
ATOM     11  O   UNL     1     -24.848  -1.163 -12.500  1.00  0.00    -0.387 OA
ATOM     12  H   UNL     1     -25.326  -1.852 -13.028  1.00  0.00     0.211 HD
ENDBRANCH   5  11
ENDBRANCH   1   5
BRANCH   1  13
ATOM     13  O   UNL     1     -21.750  -1.375 -10.609  1.00  0.00    -0.388 OA
ATOM     14  H   UNL     1     -21.036  -0.693 -10.514  1.00  0.00     0.211 HD
ENDBRANCH   1  13
TORSDOF 8
ENDMDL
