MODEL 1
REMARK VINA RESULT:    -2.923      0.000      0.000
REMARK INTER + INTRA:          -7.618
REMARK INTER:                  -5.315
REMARK INTRA:                  -2.303
REMARK UNBOUND:                -2.303
REMARK SMILES CCCCCCCCCCCCCCCC(=O)[O-]
REMARK SMILES IDX 9 1 10 2 11 3 12 4 13 5 14 6 15 7 16 8 17 9 18 10 8 11 7 12
REMARK SMILES IDX 6 13 5 14 4 15 3 16 2 17 1 18
REMARK H PARENT
REMARK Flexibility Score: inf
ROOT
ATOM      1  C   UNL     1      23.234  66.899  17.123  1.00  0.00     0.000 C 
ENDROOT
BRANCH   1   2
ATOM      2  C   UNL     1      22.606  66.890  18.528  1.00  0.00     0.000 C 
BRANCH   2   3
ATOM      3  C   UNL     1      21.856  68.178  18.913  1.00  0.00     0.000 C 
BRANCH   3   4
ATOM      4  C   UNL     1      22.542  69.449  18.391  1.00  0.00     0.000 C 
BRANCH   4   5
ATOM      5  C   UNL     1      21.561  70.314  17.587  1.00  0.00     0.000 C 
BRANCH   5   6
ATOM      6  C   UNL     1      21.773  70.215  16.065  1.00  0.00     0.006 C 
BRANCH   6   7
ATOM      7  C   UNL     1      21.576  71.546  15.319  1.00  0.00     0.053 C 
BRANCH   7   8
ATOM      8  C   UNL     1      22.860  72.108  14.788  1.00  0.00     0.041 C 
ATOM      9  O   UNL     1      23.351  71.669  13.715  1.00  0.00    -0.550 OA
ATOM     10  O   UNL     1      23.497  73.144  15.461  1.00  0.00    -0.550 OA
ENDBRANCH   7   8
ENDBRANCH   6   7
ENDBRANCH   5   6
ENDBRANCH   4   5
ENDBRANCH   3   4
ENDBRANCH   2   3
ENDBRANCH   1   2
BRANCH   1  11
ATOM     11  C   UNL     1      22.620  65.850  16.185  1.00  0.00     0.000 C 
BRANCH  11  12
ATOM     12  C   UNL     1      21.867  66.520  15.029  1.00  0.00    -0.000 C 
BRANCH  12  13
ATOM     13  C   UNL     1      20.374  66.164  15.062  1.00  0.00    -0.000 C 
BRANCH  13  14
ATOM     14  C   UNL     1      19.480  67.357  15.444  1.00  0.00    -0.000 C 
BRANCH  14  15
ATOM     15  C   UNL     1      19.064  67.408  16.926  1.00  0.00    -0.000 C 
BRANCH  15  16
ATOM     16  C   UNL     1      19.159  66.040  17.621  1.00  0.00    -0.000 C 
BRANCH  16  17
ATOM     17  C   UNL     1      18.556  66.054  19.034  1.00  0.00    -0.003 C 
ATOM     18  C   UNL     1      18.109  67.450  19.470  1.00  0.00     0.004 C 
ENDBRANCH  16  17
ENDBRANCH  15  16
ENDBRANCH  14  15
ENDBRANCH  13  14
ENDBRANCH  12  13
ENDBRANCH  11  12
ENDBRANCH   1  11
TORSDOF 14
ENDMDL
MODEL 2
REMARK VINA RESULT:    -2.882      1.025      2.681
REMARK INTER + INTRA:          -7.544
REMARK INTER:                  -4.980
REMARK INTRA:                  -2.564
REMARK UNBOUND:                -2.303
REMARK SMILES CCCCCCCCCCCCCCCC(=O)[O-]
REMARK SMILES IDX 9 1 10 2 11 3 12 4 13 5 14 6 15 7 16 8 17 9 18 10 8 11 7 12
REMARK SMILES IDX 6 13 5 14 4 15 3 16 2 17 1 18
REMARK H PARENT
REMARK Flexibility Score: inf
ROOT
ATOM      1  C   UNL     1      21.700  66.446  15.117  1.00  0.00     0.000 C 
ENDROOT
BRANCH   1   2
ATOM      2  C   UNL     1      20.196  66.216  15.353  1.00  0.00     0.000 C 
BRANCH   2   3
ATOM      3  C   UNL     1      19.360  67.499  15.512  1.00  0.00     0.000 C 
BRANCH   3   4
ATOM      4  C   UNL     1      20.212  68.776  15.487  1.00  0.00     0.000 C 
BRANCH   4   5
ATOM      5  C   UNL     1      19.767  69.757  16.581  1.00  0.00     0.000 C 
BRANCH   5   6
ATOM      6  C   UNL     1      20.823  70.831  16.897  1.00  0.00     0.006 C 
BRANCH   6   7
ATOM      7  C   UNL     1      20.997  71.882  15.786  1.00  0.00     0.053 C 
BRANCH   7   8
ATOM      8  C   UNL     1      22.363  71.854  15.171  1.00  0.00     0.041 C 
ATOM      9  O   UNL     1      23.346  72.351  15.780  1.00  0.00    -0.550 OA
ATOM     10  O   UNL     1      22.557  71.247  13.936  1.00  0.00    -0.550 OA
ENDBRANCH   7   8
ENDBRANCH   6   7
ENDBRANCH   5   6
ENDBRANCH   4   5
ENDBRANCH   3   4
ENDBRANCH   2   3
ENDBRANCH   1   2
BRANCH   1  11
ATOM     11  C   UNL     1      22.586  65.466  15.899  1.00  0.00     0.000 C 
BRANCH  11  12
ATOM     12  C   UNL     1      23.635  66.216  16.730  1.00  0.00    -0.000 C 
BRANCH  12  13
ATOM     13  C   UNL     1      23.071  67.540  17.265  1.00  0.00    -0.000 C 
BRANCH  13  14
ATOM     14  C   UNL     1      22.659  67.464  18.746  1.00  0.00    -0.000 C 
BRANCH  14  15
ATOM     15  C   UNL     1      21.141  67.407  18.994  1.00  0.00    -0.000 C 
BRANCH  15  16
ATOM     16  C   UNL     1      20.597  65.970  19.056  1.00  0.00    -0.000 C 
BRANCH  16  17
ATOM     17  C   UNL     1      19.074  65.908  18.865  1.00  0.00    -0.003 C 
ATOM     18  C   UNL     1      18.392  67.250  19.128  1.00  0.00     0.004 C 
ENDBRANCH  16  17
ENDBRANCH  15  16
ENDBRANCH  14  15
ENDBRANCH  13  14
ENDBRANCH  12  13
ENDBRANCH  11  12
ENDBRANCH   1  11
TORSDOF 14
ENDMDL
MODEL 3
REMARK VINA RESULT:    -2.855      1.077      3.129
REMARK INTER + INTRA:          -7.495
REMARK INTER:                  -5.248
REMARK INTRA:                  -2.247
REMARK UNBOUND:                -2.303
REMARK SMILES CCCCCCCCCCCCCCCC(=O)[O-]
REMARK SMILES IDX 9 1 10 2 11 3 12 4 13 5 14 6 15 7 16 8 17 9 18 10 8 11 7 12
REMARK SMILES IDX 6 13 5 14 4 15 3 16 2 17 1 18
REMARK H PARENT
REMARK Flexibility Score: inf
ROOT
ATOM      1  C   UNL     1      22.513  68.343  18.464  1.00  0.00     0.000 C 
ENDROOT
BRANCH   1   2
ATOM      2  C   UNL     1      22.380  69.873  18.368  1.00  0.00     0.000 C 
BRANCH   2   3
ATOM      3  C   UNL     1      22.175  70.419  16.943  1.00  0.00     0.000 C 
BRANCH   3   4
ATOM      4  C   UNL     1      20.797  71.068  16.742  1.00  0.00     0.000 C 
BRANCH   4   5
ATOM      5  C   UNL     1      20.639  71.593  15.308  1.00  0.00     0.000 C 
BRANCH   5   6
ATOM      6  C   UNL     1      20.846  73.115  15.194  1.00  0.00     0.006 C 
BRANCH   6   7
ATOM      7  C   UNL     1      21.928  73.523  14.180  1.00  0.00     0.053 C 
BRANCH   7   8
ATOM      8  C   UNL     1      23.216  72.783  14.378  1.00  0.00     0.041 C 
ATOM      9  O   UNL     1      23.930  73.007  15.391  1.00  0.00    -0.550 OA
ATOM     10  O   UNL     1      23.613  71.819  13.459  1.00  0.00    -0.550 OA
ENDBRANCH   7   8
ENDBRANCH   6   7
ENDBRANCH   5   6
ENDBRANCH   4   5
ENDBRANCH   3   4
ENDBRANCH   2   3
ENDBRANCH   1   2
BRANCH   1  11
ATOM     11  C   UNL     1      21.512  67.714  19.443  1.00  0.00     0.000 C 
BRANCH  11  12
ATOM     12  C   UNL     1      21.162  66.280  19.028  1.00  0.00    -0.000 C 
BRANCH  12  13
ATOM     13  C   UNL     1      19.695  66.176  18.585  1.00  0.00    -0.000 C 
BRANCH  13  14
ATOM     14  C   UNL     1      19.004  67.546  18.471  1.00  0.00    -0.000 C 
BRANCH  14  15
ATOM     15  C   UNL     1      18.837  68.071  17.034  1.00  0.00    -0.000 C 
BRANCH  15  16
ATOM     16  C   UNL     1      19.347  67.081  15.972  1.00  0.00    -0.000 C 
BRANCH  16  17
ATOM     17  C   UNL     1      20.593  67.597  15.237  1.00  0.00    -0.003 C 
ATOM     18  C   UNL     1      21.760  66.611  15.291  1.00  0.00     0.004 C 
ENDBRANCH  16  17
ENDBRANCH  15  16
ENDBRANCH  14  15
ENDBRANCH  13  14
ENDBRANCH  12  13
ENDBRANCH  11  12
ENDBRANCH   1  11
TORSDOF 14
ENDMDL
MODEL 4
REMARK VINA RESULT:    -2.795      3.145      5.912
REMARK INTER + INTRA:          -7.385
REMARK INTER:                  -5.317
REMARK INTRA:                  -2.068
REMARK UNBOUND:                -2.303
REMARK SMILES CCCCCCCCCCCCCCCC(=O)[O-]
REMARK SMILES IDX 9 1 10 2 11 3 12 4 13 5 14 6 15 7 16 8 17 9 18 10 8 11 7 12
REMARK SMILES IDX 6 13 5 14 4 15 3 16 2 17 1 18
REMARK H PARENT
REMARK Flexibility Score: inf
ROOT
ATOM      1  C   UNL     1      23.366  67.125  17.031  1.00  0.00     0.000 C 
ENDROOT
BRANCH   1   2
ATOM      2  C   UNL     1      23.122  65.651  16.661  1.00  0.00     0.000 C 
BRANCH   2   3
ATOM      3  C   UNL     1      21.761  65.364  15.999  1.00  0.00     0.000 C 
BRANCH   3   4
ATOM      4  C   UNL     1      21.350  66.441  14.984  1.00  0.00     0.000 C 
BRANCH   4   5
ATOM      5  C   UNL     1      19.956  66.999  15.308  1.00  0.00     0.000 C 
BRANCH   5   6
ATOM      6  C   UNL     1      19.373  66.447  16.622  1.00  0.00     0.006 C 
BRANCH   6   7
ATOM      7  C   UNL     1      19.000  67.534  17.644  1.00  0.00     0.053 C 
BRANCH   7   8
ATOM      8  C   UNL     1      18.521  66.966  18.946  1.00  0.00     0.041 C 
ATOM      9  O   UNL     1      18.141  67.728  19.872  1.00  0.00    -0.550 OA
ATOM     10  O   UNL     1      18.462  65.589  19.123  1.00  0.00    -0.550 OA
ENDBRANCH   7   8
ENDBRANCH   6   7
ENDBRANCH   5   6
ENDBRANCH   4   5
ENDBRANCH   3   4
ENDBRANCH   2   3
ENDBRANCH   1   2
BRANCH   1  11
ATOM     11  C   UNL     1      22.732  67.519  18.373  1.00  0.00     0.000 C 
BRANCH  11  12
ATOM     12  C   UNL     1      22.375  69.009  18.397  1.00  0.00    -0.000 C 
BRANCH  12  13
ATOM     13  C   UNL     1      22.003  69.510  16.993  1.00  0.00    -0.000 C 
BRANCH  13  14
ATOM     14  C   UNL     1      21.083  70.744  17.019  1.00  0.00    -0.000 C 
BRANCH  14  15
ATOM     15  C   UNL     1      21.066  71.567  15.719  1.00  0.00    -0.000 C 
BRANCH  15  16
ATOM     16  C   UNL     1      21.999  70.997  14.637  1.00  0.00    -0.000 C 
BRANCH  16  17
ATOM     17  C   UNL     1      23.076  72.001  14.200  1.00  0.00    -0.003 C 
ATOM     18  C   UNL     1      23.667  72.781  15.374  1.00  0.00     0.004 C 
ENDBRANCH  16  17
ENDBRANCH  15  16
ENDBRANCH  14  15
ENDBRANCH  13  14
ENDBRANCH  12  13
ENDBRANCH  11  12
ENDBRANCH   1  11
TORSDOF 14
ENDMDL
MODEL 5
REMARK VINA RESULT:    -2.792      1.288      3.753
REMARK INTER + INTRA:          -7.380
REMARK INTER:                  -5.173
REMARK INTRA:                  -2.207
REMARK UNBOUND:                -2.303
REMARK SMILES CCCCCCCCCCCCCCCC(=O)[O-]
REMARK SMILES IDX 9 1 10 2 11 3 12 4 13 5 14 6 15 7 16 8 17 9 18 10 8 11 7 12
REMARK SMILES IDX 6 13 5 14 4 15 3 16 2 17 1 18
REMARK H PARENT
REMARK Flexibility Score: inf
ROOT
ATOM      1  C   UNL     1      18.619  68.216  18.039  1.00  0.00     0.000 C 
ENDROOT
BRANCH   1   2
ATOM      2  C   UNL     1      19.080  67.966  16.592  1.00  0.00     0.000 C 
BRANCH   2   3
ATOM      3  C   UNL     1      18.831  69.133  15.619  1.00  0.00     0.000 C 
BRANCH   3   4
ATOM      4  C   UNL     1      20.099  69.947  15.323  1.00  0.00     0.000 C 
BRANCH   4   5
ATOM      5  C   UNL     1      19.990  71.366  15.900  1.00  0.00     0.000 C 
BRANCH   5   6
ATOM      6  C   UNL     1      21.102  72.308  15.403  1.00  0.00     0.006 C 
BRANCH   6   7
ATOM      7  C   UNL     1      22.214  71.598  14.612  1.00  0.00     0.053 C 
BRANCH   7   8
ATOM      8  C   UNL     1      23.518  72.334  14.658  1.00  0.00     0.041 C 
ATOM      9  O   UNL     1      23.826  73.020  15.668  1.00  0.00    -0.550 OA
ATOM     10  O   UNL     1      24.412  72.233  13.599  1.00  0.00    -0.550 OA
ENDBRANCH   7   8
ENDBRANCH   6   7
ENDBRANCH   5   6
ENDBRANCH   4   5
ENDBRANCH   3   4
ENDBRANCH   2   3
ENDBRANCH   1   2
BRANCH   1  11
ATOM     11  C   UNL     1      19.009  67.082  18.997  1.00  0.00     0.000 C 
BRANCH  11  12
ATOM     12  C   UNL     1      19.706  65.942  18.245  1.00  0.00    -0.000 C 
BRANCH  12  13
ATOM     13  C   UNL     1      20.863  65.362  19.073  1.00  0.00    -0.000 C 
BRANCH  13  14
ATOM     14  C   UNL     1      22.248  65.757  18.528  1.00  0.00    -0.000 C 
BRANCH  14  15
ATOM     15  C   UNL     1      22.238  66.373  17.118  1.00  0.00    -0.000 C 
BRANCH  15  16
ATOM     16  C   UNL     1      22.748  67.824  17.095  1.00  0.00    -0.000 C 
BRANCH  16  17
ATOM     17  C   UNL     1      22.442  68.576  18.399  1.00  0.00    -0.003 C 
ATOM     18  C   UNL     1      22.490  70.095  18.229  1.00  0.00     0.004 C 
ENDBRANCH  16  17
ENDBRANCH  15  16
ENDBRANCH  14  15
ENDBRANCH  13  14
ENDBRANCH  12  13
ENDBRANCH  11  12
ENDBRANCH   1  11
TORSDOF 14
ENDMDL
MODEL 6
REMARK VINA RESULT:    -2.779      1.161      3.727
REMARK INTER + INTRA:          -7.356
REMARK INTER:                  -5.096
REMARK INTRA:                  -2.260
REMARK UNBOUND:                -2.303
REMARK SMILES CCCCCCCCCCCCCCCC(=O)[O-]
REMARK SMILES IDX 9 1 10 2 11 3 12 4 13 5 14 6 15 7 16 8 17 9 18 10 8 11 7 12
REMARK SMILES IDX 6 13 5 14 4 15 3 16 2 17 1 18
REMARK H PARENT
REMARK Flexibility Score: inf
ROOT
ATOM      1  C   UNL     1      19.402  66.994  16.212  1.00  0.00     0.000 C 
ENDROOT
BRANCH   1   2
ATOM      2  C   UNL     1      18.796  68.242  16.880  1.00  0.00     0.000 C 
BRANCH   2   3
ATOM      3  C   UNL     1      19.339  69.585  16.360  1.00  0.00     0.000 C 
BRANCH   3   4
ATOM      4  C   UNL     1      20.782  69.489  15.843  1.00  0.00     0.000 C 
BRANCH   4   5
ATOM      5  C   UNL     1      21.674  70.553  16.497  1.00  0.00     0.000 C 
BRANCH   5   6
ATOM      6  C   UNL     1      21.896  71.789  15.605  1.00  0.00     0.006 C 
BRANCH   6   7
ATOM      7  C   UNL     1      22.437  71.457  14.203  1.00  0.00     0.053 C 
BRANCH   7   8
ATOM      8  C   UNL     1      23.785  72.060  13.945  1.00  0.00     0.041 C 
ATOM      9  O   UNL     1      24.325  72.803  14.805  1.00  0.00    -0.550 OA
ATOM     10  O   UNL     1      24.461  71.772  12.766  1.00  0.00    -0.550 OA
ENDBRANCH   7   8
ENDBRANCH   6   7
ENDBRANCH   5   6
ENDBRANCH   4   5
ENDBRANCH   3   4
ENDBRANCH   2   3
ENDBRANCH   1   2
BRANCH   1  11
ATOM     11  C   UNL     1      19.330  65.744  17.101  1.00  0.00     0.000 C 
BRANCH  11  12
ATOM     12  C   UNL     1      19.362  66.122  18.586  1.00  0.00    -0.000 C 
BRANCH  12  13
ATOM     13  C   UNL     1      20.793  66.057  19.142  1.00  0.00    -0.000 C 
BRANCH  13  14
ATOM     14  C   UNL     1      21.433  67.446  19.317  1.00  0.00    -0.000 C 
BRANCH  14  15
ATOM     15  C   UNL     1      22.724  67.672  18.510  1.00  0.00    -0.000 C 
BRANCH  15  16
ATOM     16  C   UNL     1      23.167  66.423  17.728  1.00  0.00    -0.000 C 
BRANCH  16  17
ATOM     17  C   UNL     1      23.145  66.642  16.208  1.00  0.00    -0.003 C 
ATOM     18  C   UNL     1      22.742  65.386  15.436  1.00  0.00     0.004 C 
ENDBRANCH  16  17
ENDBRANCH  15  16
ENDBRANCH  14  15
ENDBRANCH  13  14
ENDBRANCH  12  13
ENDBRANCH  11  12
ENDBRANCH   1  11
TORSDOF 14
ENDMDL
MODEL 7
REMARK VINA RESULT:    -2.757      3.056      6.213
REMARK INTER + INTRA:          -7.315
REMARK INTER:                  -4.960
REMARK INTRA:                  -2.356
REMARK UNBOUND:                -2.303
REMARK SMILES CCCCCCCCCCCCCCCC(=O)[O-]
REMARK SMILES IDX 9 1 10 2 11 3 12 4 13 5 14 6 15 7 16 8 17 9 18 10 8 11 7 12
REMARK SMILES IDX 6 13 5 14 4 15 3 16 2 17 1 18
REMARK H PARENT
REMARK Flexibility Score: inf
ROOT
ATOM      1  C   UNL     1      20.156  70.240  16.031  1.00  0.00     0.000 C 
ENDROOT
BRANCH   1   2
ATOM      2  C   UNL     1      20.858  70.897  17.233  1.00  0.00     0.000 C 
BRANCH   2   3
ATOM      3  C   UNL     1      22.314  70.451  17.458  1.00  0.00     0.000 C 
BRANCH   3   4
ATOM      4  C   UNL     1      22.445  69.351  18.523  1.00  0.00     0.000 C 
BRANCH   4   5
ATOM      5  C   UNL     1      22.748  67.992  17.876  1.00  0.00     0.000 C 
BRANCH   5   6
ATOM      6  C   UNL     1      21.684  66.923  18.188  1.00  0.00     0.006 C 
BRANCH   6   7
ATOM      7  C   UNL     1      20.503  67.445  19.025  1.00  0.00     0.053 C 
BRANCH   7   8
ATOM      8  C   UNL     1      19.208  67.432  18.270  1.00  0.00     0.041 C 
ATOM      9  O   UNL     1      19.162  66.993  17.092  1.00  0.00    -0.550 OA
ATOM     10  O   UNL     1      18.042  67.875  18.883  1.00  0.00    -0.550 OA
ENDBRANCH   7   8
ENDBRANCH   6   7
ENDBRANCH   5   6
ENDBRANCH   4   5
ENDBRANCH   3   4
ENDBRANCH   2   3
ENDBRANCH   1   2
BRANCH   1  11
ATOM     11  C   UNL     1      21.130  69.838  14.913  1.00  0.00     0.000 C 
BRANCH  11  12
ATOM     12  C   UNL     1      20.804  70.575  13.609  1.00  0.00    -0.000 C 
BRANCH  12  13
ATOM     13  C   UNL     1      19.823  71.731  13.858  1.00  0.00    -0.000 C 
BRANCH  13  14
ATOM     14  C   UNL     1      20.463  73.116  13.656  1.00  0.00    -0.000 C 
BRANCH  14  15
ATOM     15  C   UNL     1      21.112  73.720  14.914  1.00  0.00    -0.000 C 
BRANCH  15  16
ATOM     16  C   UNL     1      22.585  74.110  14.699  1.00  0.00    -0.000 C 
BRANCH  16  17
ATOM     17  C   UNL     1      23.553  72.969  15.045  1.00  0.00    -0.003 C 
ATOM     18  C   UNL     1      24.130  72.288  13.804  1.00  0.00     0.004 C 
ENDBRANCH  16  17
ENDBRANCH  15  16
ENDBRANCH  14  15
ENDBRANCH  13  14
ENDBRANCH  12  13
ENDBRANCH  11  12
ENDBRANCH   1  11
TORSDOF 14
ENDMDL
MODEL 8
REMARK VINA RESULT:    -2.755      1.491      2.930
REMARK INTER + INTRA:          -7.312
REMARK INTER:                  -5.419
REMARK INTRA:                  -1.893
REMARK UNBOUND:                -2.303
REMARK SMILES CCCCCCCCCCCCCCCC(=O)[O-]
REMARK SMILES IDX 9 1 10 2 11 3 12 4 13 5 14 6 15 7 16 8 17 9 18 10 8 11 7 12
REMARK SMILES IDX 6 13 5 14 4 15 3 16 2 17 1 18
REMARK H PARENT
REMARK Flexibility Score: inf
ROOT
ATOM      1  C   UNL     1      22.339  68.971  18.517  1.00  0.00     0.000 C 
ENDROOT
BRANCH   1   2
ATOM      2  C   UNL     1      22.462  70.366  17.878  1.00  0.00     0.000 C 
BRANCH   2   3
ATOM      3  C   UNL     1      21.167  70.907  17.244  1.00  0.00     0.000 C 
BRANCH   3   4
ATOM      4  C   UNL     1      21.071  70.619  15.739  1.00  0.00     0.000 C 
BRANCH   4   5
ATOM      5  C   UNL     1      20.986  71.924  14.933  1.00  0.00     0.000 C 
BRANCH   5   6
ATOM      6  C   UNL     1      22.221  72.827  15.111  1.00  0.00     0.006 C 
BRANCH   6   7
ATOM      7  C   UNL     1      23.551  72.143  14.749  1.00  0.00     0.053 C 
BRANCH   7   8
ATOM      8  C   UNL     1      24.013  72.472  13.362  1.00  0.00     0.041 C 
ATOM      9  O   UNL     1      25.086  71.988  12.917  1.00  0.00    -0.550 OA
ATOM     10  O   UNL     1      23.238  73.288  12.546  1.00  0.00    -0.550 OA
ENDBRANCH   7   8
ENDBRANCH   6   7
ENDBRANCH   5   6
ENDBRANCH   4   5
ENDBRANCH   3   4
ENDBRANCH   2   3
ENDBRANCH   1   2
BRANCH   1  11
ATOM     11  C   UNL     1      22.718  67.835  17.555  1.00  0.00     0.000 C 
BRANCH  11  12
ATOM     12  C   UNL     1      23.061  66.554  18.325  1.00  0.00    -0.000 C 
BRANCH  12  13
ATOM     13  C   UNL     1      22.028  65.451  18.048  1.00  0.00    -0.000 C 
BRANCH  13  14
ATOM     14  C   UNL     1      20.919  65.386  19.114  1.00  0.00    -0.000 C 
BRANCH  14  15
ATOM     15  C   UNL     1      19.516  65.775  18.614  1.00  0.00    -0.000 C 
BRANCH  15  16
ATOM     16  C   UNL     1      19.154  67.237  18.925  1.00  0.00    -0.000 C 
BRANCH  16  17
ATOM     17  C   UNL     1      18.844  68.049  17.659  1.00  0.00    -0.003 C 
ATOM     18  C   UNL     1      19.259  67.325  16.378  1.00  0.00     0.004 C 
ENDBRANCH  16  17
ENDBRANCH  15  16
ENDBRANCH  14  15
ENDBRANCH  13  14
ENDBRANCH  12  13
ENDBRANCH  11  12
ENDBRANCH   1  11
TORSDOF 14
ENDMDL
MODEL 9
REMARK VINA RESULT:    -2.734      1.046      2.067
REMARK INTER + INTRA:          -7.274
REMARK INTER:                  -5.088
REMARK INTRA:                  -2.186
REMARK UNBOUND:                -2.303
REMARK SMILES CCCCCCCCCCCCCCCC(=O)[O-]
REMARK SMILES IDX 9 1 10 2 11 3 12 4 13 5 14 6 15 7 16 8 17 9 18 10 8 11 7 12
REMARK SMILES IDX 6 13 5 14 4 15 3 16 2 17 1 18
REMARK H PARENT
REMARK Flexibility Score: inf
ROOT
ATOM      1  C   UNL     1      23.125  67.690  17.993  1.00  0.00     0.000 C 
ENDROOT
BRANCH   1   2
ATOM      2  C   UNL     1      22.244  68.783  18.624  1.00  0.00     0.000 C 
BRANCH   2   3
ATOM      3  C   UNL     1      22.388  70.179  17.992  1.00  0.00     0.000 C 
BRANCH   3   4
ATOM      4  C   UNL     1      21.278  70.495  16.978  1.00  0.00     0.000 C 
BRANCH   4   5
ATOM      5  C   UNL     1      21.715  70.130  15.552  1.00  0.00     0.000 C 
BRANCH   5   6
ATOM      6  C   UNL     1      21.623  71.313  14.570  1.00  0.00     0.006 C 
BRANCH   6   7
ATOM      7  C   UNL     1      21.673  72.693  15.248  1.00  0.00     0.053 C 
BRANCH   7   8
ATOM      8  C   UNL     1      23.030  73.324  15.179  1.00  0.00     0.041 C 
ATOM      9  O   UNL     1      24.019  72.770  15.727  1.00  0.00    -0.550 OA
ATOM     10  O   UNL     1      23.210  74.510  14.478  1.00  0.00    -0.550 OA
ENDBRANCH   7   8
ENDBRANCH   6   7
ENDBRANCH   5   6
ENDBRANCH   4   5
ENDBRANCH   3   4
ENDBRANCH   2   3
ENDBRANCH   1   2
BRANCH   1  11
ATOM     11  C   UNL     1      22.673  66.269  18.360  1.00  0.00     0.000 C 
BRANCH  11  12
ATOM     12  C   UNL     1      22.991  65.281  17.231  1.00  0.00    -0.000 C 
BRANCH  12  13
ATOM     13  C   UNL     1      22.976  65.982  15.865  1.00  0.00    -0.000 C 
BRANCH  13  14
ATOM     14  C   UNL     1      21.674  65.740  15.080  1.00  0.00    -0.000 C 
BRANCH  14  15
ATOM     15  C   UNL     1      20.601  66.830  15.252  1.00  0.00    -0.000 C 
BRANCH  15  16
ATOM     16  C   UNL     1      19.438  66.387  16.156  1.00  0.00    -0.000 C 
BRANCH  16  17
ATOM     17  C   UNL     1      19.163  67.384  17.292  1.00  0.00    -0.003 C 
ATOM     18  C   UNL     1      19.059  66.708  18.659  1.00  0.00     0.004 C 
ENDBRANCH  16  17
ENDBRANCH  15  16
ENDBRANCH  14  15
ENDBRANCH  13  14
ENDBRANCH  12  13
ENDBRANCH  11  12
ENDBRANCH   1  11
TORSDOF 14
ENDMDL
