MODEL 1
REMARK VINA RESULT:    -2.856      0.000      0.000
REMARK INTER + INTRA:          -7.764
REMARK INTER:                  -5.277
REMARK INTRA:                  -2.487
REMARK UNBOUND:                -2.487
REMARK SMILES CCCCCCCCCCCCCCCCO
REMARK SMILES IDX 9 1 8 2 7 3 6 4 5 5 4 6 3 7 2 8 1 9 10 10 11 11 12 12 13 13
REMARK SMILES IDX 14 14 15 15 16 16 17 17
REMARK H PARENT 17 18
REMARK Flexibility Score: inf
ROOT
ATOM      1  C   UNL     1     107.425 111.870 104.556  1.00  0.00     0.000 C 
ENDROOT
BRANCH   1   2
ATOM      2  C   UNL     1     107.552 112.342 106.016  1.00  0.00    -0.000 C 
BRANCH   2   3
ATOM      3  C   UNL     1     107.537 111.219 107.072  1.00  0.00    -0.000 C 
BRANCH   3   4
ATOM      4  C   UNL     1     108.915 110.820 107.630  1.00  0.00    -0.000 C 
BRANCH   4   5
ATOM      5  C   UNL     1     109.360 109.419 107.182  1.00  0.00    -0.000 C 
BRANCH   5   6
ATOM      6  C   UNL     1     108.238 108.640 106.475  1.00  0.00    -0.000 C 
BRANCH   6   7
ATOM      7  C   UNL     1     108.747 107.432 105.656  1.00  0.00    -0.000 C 
BRANCH   7   8
ATOM      8  C   UNL     1     108.453 107.554 104.151  1.00  0.00    -0.003 C 
ATOM      9  C   UNL     1     107.109 108.229 103.875  1.00  0.00     0.004 C 
ENDBRANCH   7   8
ENDBRANCH   6   7
ENDBRANCH   5   6
ENDBRANCH   4   5
ENDBRANCH   3   4
ENDBRANCH   2   3
ENDBRANCH   1   2
BRANCH   1  10
ATOM     10  C   UNL     1     108.761 111.398 103.964  1.00  0.00     0.000 C 
BRANCH  10  11
ATOM     11  C   UNL     1     109.917 112.291 104.438  1.00  0.00     0.000 C 
BRANCH  11  12
ATOM     12  C   UNL     1     111.295 111.654 104.201  1.00  0.00     0.000 C 
BRANCH  12  13
ATOM     13  C   UNL     1     111.225 110.124 104.071  1.00  0.00     0.000 C 
BRANCH  13  14
ATOM     14  C   UNL     1     112.518 109.472 104.575  1.00  0.00     0.002 C 
BRANCH  14  15
ATOM     15  C   UNL     1     112.259 108.040 105.061  1.00  0.00     0.028 C 
BRANCH  15  16
ATOM     16  C   UNL     1     112.963 107.774 106.393  1.00  0.00     0.156 C 
BRANCH  16  17
ATOM     17  O   UNL     1     114.164 107.084 106.176  1.00  0.00    -0.396 OA
ATOM     18  H   UNL     1     114.020 106.504 105.385  1.00  0.00     0.210 HD
ENDBRANCH  16  17
ENDBRANCH  15  16
ENDBRANCH  14  15
ENDBRANCH  13  14
ENDBRANCH  12  13
ENDBRANCH  11  12
ENDBRANCH  10  11
ENDBRANCH   1  10
TORSDOF 15
ENDMDL
MODEL 2
REMARK VINA RESULT:    -2.831      2.522      4.735
REMARK INTER + INTRA:          -7.718
REMARK INTER:                  -5.377
REMARK INTRA:                  -2.342
REMARK UNBOUND:                -2.487
REMARK SMILES CCCCCCCCCCCCCCCCO
REMARK SMILES IDX 9 1 8 2 7 3 6 4 5 5 4 6 3 7 2 8 1 9 10 10 11 11 12 12 13 13
REMARK SMILES IDX 14 14 15 15 16 16 17 17
REMARK H PARENT 17 18
REMARK Flexibility Score: inf
ROOT
ATOM      1  C   UNL     1     111.365 111.553 107.914  1.00  0.00     0.000 C 
ENDROOT
BRANCH   1   2
ATOM      2  C   UNL     1     112.023 112.945 107.897  1.00  0.00    -0.000 C 
BRANCH   2   3
ATOM      3  C   UNL     1     112.929 113.226 106.681  1.00  0.00    -0.000 C 
BRANCH   3   4
ATOM      4  C   UNL     1     112.196 113.401 105.339  1.00  0.00    -0.000 C 
BRANCH   4   5
ATOM      5  C   UNL     1     112.386 112.204 104.393  1.00  0.00    -0.000 C 
BRANCH   5   6
ATOM      6  C   UNL     1     111.052 111.642 103.875  1.00  0.00    -0.000 C 
BRANCH   6   7
ATOM      7  C   UNL     1     109.830 112.081 104.713  1.00  0.00    -0.000 C 
BRANCH   7   8
ATOM      8  C   UNL     1     108.501 111.511 104.191  1.00  0.00    -0.003 C 
ATOM      9  C   UNL     1     107.358 111.692 105.190  1.00  0.00     0.004 C 
ENDBRANCH   7   8
ENDBRANCH   6   7
ENDBRANCH   5   6
ENDBRANCH   4   5
ENDBRANCH   3   4
ENDBRANCH   2   3
ENDBRANCH   1   2
BRANCH   1  10
ATOM     10  C   UNL     1     112.378 110.417 108.117  1.00  0.00     0.000 C 
BRANCH  10  11
ATOM     11  C   UNL     1     112.286 109.391 106.977  1.00  0.00     0.000 C 
BRANCH  11  12
ATOM     12  C   UNL     1     110.836 109.080 106.576  1.00  0.00     0.000 C 
BRANCH  12  13
ATOM     13  C   UNL     1     110.743 108.306 105.251  1.00  0.00     0.000 C 
BRANCH  13  14
ATOM     14  C   UNL     1     109.300 107.868 104.973  1.00  0.00     0.002 C 
BRANCH  14  15
ATOM     15  C   UNL     1     108.378 108.236 106.142  1.00  0.00     0.028 C 
BRANCH  15  16
ATOM     16  C   UNL     1     107.700 106.993 106.723  1.00  0.00     0.156 C 
BRANCH  16  17
ATOM     17  O   UNL     1     107.484 106.044 105.714  1.00  0.00    -0.396 OA
ATOM     18  H   UNL     1     106.775 106.412 105.124  1.00  0.00     0.210 HD
ENDBRANCH  16  17
ENDBRANCH  15  16
ENDBRANCH  14  15
ENDBRANCH  13  14
ENDBRANCH  12  13
ENDBRANCH  11  12
ENDBRANCH  10  11
ENDBRANCH   1  10
TORSDOF 15
ENDMDL
MODEL 3
REMARK VINA RESULT:    -2.813      1.400      2.434
REMARK INTER + INTRA:          -7.685
REMARK INTER:                  -5.551
REMARK INTRA:                  -2.134
REMARK UNBOUND:                -2.487
REMARK SMILES CCCCCCCCCCCCCCCCO
REMARK SMILES IDX 9 1 8 2 7 3 6 4 5 5 4 6 3 7 2 8 1 9 10 10 11 11 12 12 13 13
REMARK SMILES IDX 14 14 15 15 16 16 17 17
REMARK H PARENT 17 18
REMARK Flexibility Score: inf
ROOT
ATOM      1  C   UNL     1     108.156 112.457 104.364  1.00  0.00     0.000 C 
ENDROOT
BRANCH   1   2
ATOM      2  C   UNL     1     107.466 111.168 103.882  1.00  0.00    -0.000 C 
BRANCH   2   3
ATOM      3  C   UNL     1     107.712 109.925 104.761  1.00  0.00    -0.000 C 
BRANCH   3   4
ATOM      4  C   UNL     1     107.651 108.575 104.025  1.00  0.00    -0.000 C 
BRANCH   4   5
ATOM      5  C   UNL     1     108.260 107.422 104.839  1.00  0.00    -0.000 C 
BRANCH   5   6
ATOM      6  C   UNL     1     107.333 106.939 105.967  1.00  0.00    -0.000 C 
BRANCH   6   7
ATOM      7  C   UNL     1     107.906 107.179 107.382  1.00  0.00    -0.000 C 
BRANCH   7   8
ATOM      8  C   UNL     1     109.330 107.757 107.369  1.00  0.00    -0.003 C 
ATOM      9  C   UNL     1     109.398 109.152 107.993  1.00  0.00     0.004 C 
ENDBRANCH   7   8
ENDBRANCH   6   7
ENDBRANCH   5   6
ENDBRANCH   4   5
ENDBRANCH   3   4
ENDBRANCH   2   3
ENDBRANCH   1   2
BRANCH   1  10
ATOM     10  C   UNL     1     109.505 112.192 105.047  1.00  0.00     0.000 C 
BRANCH  10  11
ATOM     11  C   UNL     1     110.665 112.367 104.055  1.00  0.00     0.000 C 
BRANCH  11  12
ATOM     12  C   UNL     1     111.792 111.347 104.275  1.00  0.00     0.000 C 
BRANCH  12  13
ATOM     13  C   UNL     1     111.334 110.124 105.086  1.00  0.00     0.000 C 
BRANCH  13  14
ATOM     14  C   UNL     1     111.427 108.844 104.246  1.00  0.00     0.002 C 
BRANCH  14  15
ATOM     15  C   UNL     1     112.127 107.724 105.025  1.00  0.00     0.028 C 
BRANCH  15  16
ATOM     16  C   UNL     1     113.628 107.993 105.149  1.00  0.00     0.156 C 
BRANCH  16  17
ATOM     17  O   UNL     1     114.211 108.077 103.877  1.00  0.00    -0.396 OA
ATOM     18  H   UNL     1     115.113 107.669 103.950  1.00  0.00     0.210 HD
ENDBRANCH  16  17
ENDBRANCH  15  16
ENDBRANCH  14  15
ENDBRANCH  13  14
ENDBRANCH  12  13
ENDBRANCH  11  12
ENDBRANCH  10  11
ENDBRANCH   1  10
TORSDOF 15
ENDMDL
MODEL 4
REMARK VINA RESULT:    -2.785      2.792      5.184
REMARK INTER + INTRA:          -7.632
REMARK INTER:                  -5.298
REMARK INTRA:                  -2.335
REMARK UNBOUND:                -2.487
REMARK SMILES CCCCCCCCCCCCCCCCO
REMARK SMILES IDX 9 1 8 2 7 3 6 4 5 5 4 6 3 7 2 8 1 9 10 10 11 11 12 12 13 13
REMARK SMILES IDX 14 14 15 15 16 16 17 17
REMARK H PARENT 17 18
REMARK Flexibility Score: inf
ROOT
ATOM      1  C   UNL     1     111.387 107.966 104.357  1.00  0.00     0.000 C 
ENDROOT
BRANCH   1   2
ATOM      2  C   UNL     1     112.922 108.050 104.434  1.00  0.00    -0.000 C 
BRANCH   2   3
ATOM      3  C   UNL     1     113.527 107.724 105.814  1.00  0.00    -0.000 C 
BRANCH   3   4
ATOM      4  C   UNL     1     112.507 107.484 106.941  1.00  0.00    -0.000 C 
BRANCH   4   5
ATOM      5  C   UNL     1     112.327 108.707 107.856  1.00  0.00    -0.000 C 
BRANCH   5   6
ATOM      6  C   UNL     1     110.855 108.962 108.220  1.00  0.00    -0.000 C 
BRANCH   6   7
ATOM      7  C   UNL     1     109.906 107.820 107.791  1.00  0.00    -0.000 C 
BRANCH   7   8
ATOM      8  C   UNL     1     108.720 108.305 106.942  1.00  0.00    -0.003 C 
ATOM      9  C   UNL     1     108.158 107.201 106.045  1.00  0.00     0.004 C 
ENDBRANCH   7   8
ENDBRANCH   6   7
ENDBRANCH   5   6
ENDBRANCH   4   5
ENDBRANCH   3   4
ENDBRANCH   2   3
ENDBRANCH   1   2
BRANCH   1  10
ATOM     10  C   UNL     1     110.739 109.282 103.902  1.00  0.00     0.000 C 
BRANCH  10  11
ATOM     11  C   UNL     1     111.220 110.457 104.767  1.00  0.00     0.000 C 
BRANCH  11  12
ATOM     12  C   UNL     1     110.199 111.603 104.831  1.00  0.00     0.000 C 
BRANCH  12  13
ATOM     13  C   UNL     1     108.774 111.146 104.484  1.00  0.00     0.000 C 
BRANCH  13  14
ATOM     14  C   UNL     1     107.730 112.037 105.169  1.00  0.00     0.002 C 
BRANCH  14  15
ATOM     15  C   UNL     1     107.919 112.035 106.691  1.00  0.00     0.028 C 
BRANCH  15  16
ATOM     16  C   UNL     1     106.803 112.818 107.386  1.00  0.00     0.156 C 
BRANCH  16  17
ATOM     17  O   UNL     1     105.775 113.104 106.477  1.00  0.00    -0.396 OA
ATOM     18  H   UNL     1     106.174 113.667 105.764  1.00  0.00     0.210 HD
ENDBRANCH  16  17
ENDBRANCH  15  16
ENDBRANCH  14  15
ENDBRANCH  13  14
ENDBRANCH  12  13
ENDBRANCH  11  12
ENDBRANCH  10  11
ENDBRANCH   1  10
TORSDOF 15
ENDMDL
MODEL 5
REMARK VINA RESULT:    -2.782      2.802      5.207
REMARK INTER + INTRA:          -7.627
REMARK INTER:                  -5.427
REMARK INTRA:                  -2.200
REMARK UNBOUND:                -2.487
REMARK SMILES CCCCCCCCCCCCCCCCO
REMARK SMILES IDX 9 1 8 2 7 3 6 4 5 5 4 6 3 7 2 8 1 9 10 10 11 11 12 12 13 13
REMARK SMILES IDX 14 14 15 15 16 16 17 17
REMARK H PARENT 17 18
REMARK Flexibility Score: inf
ROOT
ATOM      1  C   UNL     1     112.609 111.798 104.217  1.00  0.00     0.000 C 
ENDROOT
BRANCH   1   2
ATOM      2  C   UNL     1     111.979 110.421 103.942  1.00  0.00    -0.000 C 
BRANCH   2   3
ATOM      3  C   UNL     1     112.972 109.243 103.895  1.00  0.00    -0.000 C 
BRANCH   3   4
ATOM      4  C   UNL     1     112.869 108.247 105.064  1.00  0.00    -0.000 C 
BRANCH   4   5
ATOM      5  C   UNL     1     112.301 108.883 106.343  1.00  0.00    -0.000 C 
BRANCH   5   6
ATOM      6  C   UNL     1     111.108 108.098 106.914  1.00  0.00    -0.000 C 
BRANCH   6   7
ATOM      7  C   UNL     1     109.741 108.761 106.631  1.00  0.00    -0.000 C 
BRANCH   7   8
ATOM      8  C   UNL     1     109.098 108.286 105.317  1.00  0.00    -0.003 C 
ATOM      9  C   UNL     1     108.452 109.433 104.538  1.00  0.00     0.004 C 
ENDBRANCH   7   8
ENDBRANCH   6   7
ENDBRANCH   5   6
ENDBRANCH   4   5
ENDBRANCH   3   4
ENDBRANCH   2   3
ENDBRANCH   1   2
BRANCH   1  10
ATOM     10  C   UNL     1     111.577 112.852 104.643  1.00  0.00     0.000 C 
BRANCH  10  11
ATOM     11  C   UNL     1     110.550 112.253 105.615  1.00  0.00     0.000 C 
BRANCH  11  12
ATOM     12  C   UNL     1     110.979 112.383 107.084  1.00  0.00     0.000 C 
BRANCH  12  13
ATOM     13  C   UNL     1     109.813 112.165 108.062  1.00  0.00     0.000 C 
BRANCH  13  14
ATOM     14  C   UNL     1     108.465 112.255 107.337  1.00  0.00     0.002 C 
BRANCH  14  15
ATOM     15  C   UNL     1     107.490 113.160 108.098  1.00  0.00     0.028 C 
BRANCH  15  16
ATOM     16  C   UNL     1     106.268 113.500 107.241  1.00  0.00     0.156 C 
BRANCH  16  17
ATOM     17  O   UNL     1     106.200 112.641 106.135  1.00  0.00    -0.396 OA
ATOM     18  H   UNL     1     106.426 111.733 106.466  1.00  0.00     0.210 HD
ENDBRANCH  16  17
ENDBRANCH  15  16
ENDBRANCH  14  15
ENDBRANCH  13  14
ENDBRANCH  12  13
ENDBRANCH  11  12
ENDBRANCH  10  11
ENDBRANCH   1  10
TORSDOF 15
ENDMDL
MODEL 6
REMARK VINA RESULT:    -2.757      3.077      5.985
REMARK INTER + INTRA:          -7.581
REMARK INTER:                  -5.329
REMARK INTRA:                  -2.252
REMARK UNBOUND:                -2.487
REMARK SMILES CCCCCCCCCCCCCCCCO
REMARK SMILES IDX 9 1 8 2 7 3 6 4 5 5 4 6 3 7 2 8 1 9 10 10 11 11 12 12 13 13
REMARK SMILES IDX 14 14 15 15 16 16 17 17
REMARK H PARENT 17 18
REMARK Flexibility Score: inf
ROOT
ATOM      1  C   UNL     1     110.113 108.590 107.652  1.00  0.00     0.000 C 
ENDROOT
BRANCH   1   2
ATOM      2  C   UNL     1     111.382 107.787 107.991  1.00  0.00    -0.000 C 
BRANCH   2   3
ATOM      3  C   UNL     1     112.679 108.307 107.341  1.00  0.00    -0.000 C 
BRANCH   3   4
ATOM      4  C   UNL     1     113.223 107.454 106.182  1.00  0.00    -0.000 C 
BRANCH   4   5
ATOM      5  C   UNL     1     113.184 108.186 104.830  1.00  0.00    -0.000 C 
BRANCH   5   6
ATOM      6  C   UNL     1     111.766 108.264 104.241  1.00  0.00    -0.000 C 
BRANCH   6   7
ATOM      7  C   UNL     1     111.292 109.709 103.962  1.00  0.00    -0.000 C 
BRANCH   7   8
ATOM      8  C   UNL     1     112.219 110.777 104.565  1.00  0.00    -0.003 C 
ATOM      9  C   UNL     1     111.577 111.501 105.749  1.00  0.00     0.004 C 
ENDBRANCH   7   8
ENDBRANCH   6   7
ENDBRANCH   5   6
ENDBRANCH   4   5
ENDBRANCH   3   4
ENDBRANCH   2   3
ENDBRANCH   1   2
BRANCH   1  10
ATOM     10  C   UNL     1     109.052 107.750 106.925  1.00  0.00     0.000 C 
BRANCH  10  11
ATOM     11  C   UNL     1     108.356 108.574 105.832  1.00  0.00     0.000 C 
BRANCH  11  12
ATOM     12  C   UNL     1     108.186 110.051 106.219  1.00  0.00     0.000 C 
BRANCH  12  13
ATOM     13  C   UNL     1     107.875 110.948 105.010  1.00  0.00     0.000 C 
BRANCH  13  14
ATOM     14  C   UNL     1     107.634 112.396 105.451  1.00  0.00     0.002 C 
BRANCH  14  15
ATOM     15  C   UNL     1     106.694 112.455 106.661  1.00  0.00     0.028 C 
BRANCH  15  16
ATOM     16  C   UNL     1     106.662 113.860 107.268  1.00  0.00     0.156 C 
BRANCH  16  17
ATOM     17  O   UNL     1     105.393 114.128 107.800  1.00  0.00    -0.396 OA
ATOM     18  H   UNL     1     104.777 113.448 107.421  1.00  0.00     0.210 HD
ENDBRANCH  16  17
ENDBRANCH  15  16
ENDBRANCH  14  15
ENDBRANCH  13  14
ENDBRANCH  12  13
ENDBRANCH  11  12
ENDBRANCH  10  11
ENDBRANCH   1  10
TORSDOF 15
ENDMDL
MODEL 7
REMARK VINA RESULT:    -2.735      2.231      4.927
REMARK INTER + INTRA:          -7.541
REMARK INTER:                  -5.699
REMARK INTRA:                  -1.842
REMARK UNBOUND:                -2.487
REMARK SMILES CCCCCCCCCCCCCCCCO
REMARK SMILES IDX 9 1 8 2 7 3 6 4 5 5 4 6 3 7 2 8 1 9 10 10 11 11 12 12 13 13
REMARK SMILES IDX 14 14 15 15 16 16 17 17
REMARK H PARENT 17 18
REMARK Flexibility Score: inf
ROOT
ATOM      1  C   UNL     1     112.283 109.468 105.822  1.00  0.00     0.000 C 
ENDROOT
BRANCH   1   2
ATOM      2  C   UNL     1     111.531 110.800 105.990  1.00  0.00    -0.000 C 
BRANCH   2   3
ATOM      3  C   UNL     1     111.781 111.839 104.879  1.00  0.00    -0.000 C 
BRANCH   3   4
ATOM      4  C   UNL     1     110.535 112.266 104.082  1.00  0.00    -0.000 C 
BRANCH   4   5
ATOM      5  C   UNL     1     109.242 111.615 104.601  1.00  0.00    -0.000 C 
BRANCH   5   6
ATOM      6  C   UNL     1     108.024 112.548 104.488  1.00  0.00    -0.000 C 
BRANCH   6   7
ATOM      7  C   UNL     1     106.872 112.177 105.448  1.00  0.00    -0.000 C 
BRANCH   7   8
ATOM      8  C   UNL     1     107.362 111.661 106.811  1.00  0.00    -0.003 C 
ATOM      9  C   UNL     1     106.864 112.523 107.972  1.00  0.00     0.004 C 
ENDBRANCH   7   8
ENDBRANCH   6   7
ENDBRANCH   5   6
ENDBRANCH   4   5
ENDBRANCH   3   4
ENDBRANCH   2   3
ENDBRANCH   1   2
BRANCH   1  10
ATOM     10  C   UNL     1     112.264 108.950 104.376  1.00  0.00     0.000 C 
BRANCH  10  11
ATOM     11  C   UNL     1     111.322 107.744 104.238  1.00  0.00     0.000 C 
BRANCH  11  12
ATOM     12  C   UNL     1     109.886 108.152 103.875  1.00  0.00     0.000 C 
BRANCH  12  13
ATOM     13  C   UNL     1     108.835 107.482 104.774  1.00  0.00     0.000 C 
BRANCH  13  14
ATOM     14  C   UNL     1     108.690 108.234 106.102  1.00  0.00     0.002 C 
BRANCH  14  15
ATOM     15  C   UNL     1     108.311 107.277 107.239  1.00  0.00     0.028 C 
BRANCH  15  16
ATOM     16  C   UNL     1     106.830 106.898 107.170  1.00  0.00     0.156 C 
BRANCH  16  17
ATOM     17  O   UNL     1     106.692 105.536 106.867  1.00  0.00    -0.396 OA
ATOM     18  H   UNL     1     105.726 105.377 106.708  1.00  0.00     0.210 HD
ENDBRANCH  16  17
ENDBRANCH  15  16
ENDBRANCH  14  15
ENDBRANCH  13  14
ENDBRANCH  12  13
ENDBRANCH  11  12
ENDBRANCH  10  11
ENDBRANCH   1  10
TORSDOF 15
ENDMDL
MODEL 8
REMARK VINA RESULT:    -2.728      3.224      5.999
REMARK INTER + INTRA:          -7.528
REMARK INTER:                  -5.515
REMARK INTRA:                  -2.013
REMARK UNBOUND:                -2.487
REMARK SMILES CCCCCCCCCCCCCCCCO
REMARK SMILES IDX 9 1 8 2 7 3 6 4 5 5 4 6 3 7 2 8 1 9 10 10 11 11 12 12 13 13
REMARK SMILES IDX 14 14 15 15 16 16 17 17
REMARK H PARENT 17 18
REMARK Flexibility Score: inf
ROOT
ATOM      1  C   UNL     1     109.043 107.458 107.571  1.00  0.00     0.000 C 
ENDROOT
BRANCH   1   2
ATOM      2  C   UNL     1     107.744 107.039 106.858  1.00  0.00    -0.000 C 
BRANCH   2   3
ATOM      3  C   UNL     1     107.849 106.912 105.326  1.00  0.00    -0.000 C 
BRANCH   3   4
ATOM      4  C   UNL     1     108.741 107.961 104.638  1.00  0.00    -0.000 C 
BRANCH   4   5
ATOM      5  C   UNL     1     109.921 107.336 103.875  1.00  0.00    -0.000 C 
BRANCH   5   6
ATOM      6  C   UNL     1     111.249 108.065 104.138  1.00  0.00    -0.000 C 
BRANCH   6   7
ATOM      7  C   UNL     1     111.119 109.246 105.126  1.00  0.00    -0.000 C 
BRANCH   7   8
ATOM      8  C   UNL     1     112.116 109.170 106.295  1.00  0.00    -0.003 C 
ATOM      9  C   UNL     1     112.770 107.793 106.411  1.00  0.00     0.004 C 
ENDBRANCH   7   8
ENDBRANCH   6   7
ENDBRANCH   5   6
ENDBRANCH   4   5
ENDBRANCH   3   4
ENDBRANCH   2   3
ENDBRANCH   1   2
BRANCH   1  10
ATOM     10  C   UNL     1     108.848 108.658 108.510  1.00  0.00     0.000 C 
BRANCH  10  11
ATOM     11  C   UNL     1     107.804 109.632 107.944  1.00  0.00     0.000 C 
BRANCH  11  12
ATOM     12  C   UNL     1     108.441 110.820 107.207  1.00  0.00     0.000 C 
BRANCH  12  13
ATOM     13  C   UNL     1     107.675 111.205 105.931  1.00  0.00     0.000 C 
BRANCH  13  14
ATOM     14  C   UNL     1     106.972 112.557 106.101  1.00  0.00     0.002 C 
BRANCH  14  15
ATOM     15  C   UNL     1     107.069 113.050 107.550  1.00  0.00     0.028 C 
BRANCH  15  16
ATOM     16  C   UNL     1     106.145 114.247 107.789  1.00  0.00     0.156 C 
BRANCH  16  17
ATOM     17  O   UNL     1     104.836 113.807 108.031  1.00  0.00    -0.396 OA
ATOM     18  H   UNL     1     104.755 112.911 107.611  1.00  0.00     0.210 HD
ENDBRANCH  16  17
ENDBRANCH  15  16
ENDBRANCH  14  15
ENDBRANCH  13  14
ENDBRANCH  12  13
ENDBRANCH  11  12
ENDBRANCH  10  11
ENDBRANCH   1  10
TORSDOF 15
ENDMDL
MODEL 9
REMARK VINA RESULT:    -2.722      2.419      2.926
REMARK INTER + INTRA:          -7.516
REMARK INTER:                  -5.203
REMARK INTRA:                  -2.314
REMARK UNBOUND:                -2.487
REMARK SMILES CCCCCCCCCCCCCCCCO
REMARK SMILES IDX 9 1 8 2 7 3 6 4 5 5 4 6 3 7 2 8 1 9 10 10 11 11 12 12 13 13
REMARK SMILES IDX 14 14 15 15 16 16 17 17
REMARK H PARENT 17 18
REMARK Flexibility Score: inf
ROOT
ATOM      1  C   UNL     1     107.469 111.416 104.741  1.00  0.00     0.000 C 
ENDROOT
BRANCH   1   2
ATOM      2  C   UNL     1     107.668 112.293 105.991  1.00  0.00    -0.000 C 
BRANCH   2   3
ATOM      3  C   UNL     1     107.983 111.521 107.288  1.00  0.00    -0.000 C 
BRANCH   3   4
ATOM      4  C   UNL     1     107.769 109.999 107.218  1.00  0.00    -0.000 C 
BRANCH   4   5
ATOM      5  C   UNL     1     109.081 109.204 107.318  1.00  0.00    -0.000 C 
BRANCH   5   6
ATOM      6  C   UNL     1     109.058 107.914 106.481  1.00  0.00    -0.000 C 
BRANCH   6   7
ATOM      7  C   UNL     1     109.780 108.047 105.122  1.00  0.00    -0.000 C 
BRANCH   7   8
ATOM      8  C   UNL     1     109.005 107.405 103.959  1.00  0.00    -0.003 C 
ATOM      9  C   UNL     1     107.520 107.769 103.980  1.00  0.00     0.004 C 
ENDBRANCH   7   8
ENDBRANCH   6   7
ENDBRANCH   5   6
ENDBRANCH   4   5
ENDBRANCH   3   4
ENDBRANCH   2   3
ENDBRANCH   1   2
BRANCH   1  10
ATOM     10  C   UNL     1     108.733 111.315 103.875  1.00  0.00     0.000 C 
BRANCH  10  11
ATOM     11  C   UNL     1     109.561 112.606 103.962  1.00  0.00     0.000 C 
BRANCH  11  12
ATOM     12  C   UNL     1     111.064 112.336 104.130  1.00  0.00     0.000 C 
BRANCH  12  13
ATOM     13  C   UNL     1     111.359 111.294 105.220  1.00  0.00     0.000 C 
BRANCH  13  14
ATOM     14  C   UNL     1     111.872 111.969 106.499  1.00  0.00     0.002 C 
BRANCH  14  15
ATOM     15  C   UNL     1     112.571 113.295 106.179  1.00  0.00     0.028 C 
BRANCH  15  16
ATOM     16  C   UNL     1     113.384 113.793 107.376  1.00  0.00     0.156 C 
BRANCH  16  17
ATOM     17  O   UNL     1     112.526 114.218 108.400  1.00  0.00    -0.396 OA
ATOM     18  H   UNL     1     111.782 113.561 108.439  1.00  0.00     0.210 HD
ENDBRANCH  16  17
ENDBRANCH  15  16
ENDBRANCH  14  15
ENDBRANCH  13  14
ENDBRANCH  12  13
ENDBRANCH  11  12
ENDBRANCH  10  11
ENDBRANCH   1  10
TORSDOF 15
ENDMDL
