MODEL 1
REMARK VINA RESULT:    -4.409      0.000      0.000
REMARK INTER + INTRA:          -6.366
REMARK INTER:                  -5.956
REMARK INTRA:                  -0.410
REMARK UNBOUND:                -0.410
REMARK SMILES CCCCCCCC(=O)[O-]
REMARK SMILES IDX 5 1 6 2 7 3 8 4 9 5 10 6 4 7 3 8 2 9 1 10
REMARK H PARENT
REMARK Flexibility Score: inf
ROOT
ATOM      1  C   UNL     1      21.768  22.764   9.483  1.00  0.00     0.000 C 
ENDROOT
BRANCH   1   2
ATOM      2  C   UNL     1      20.901  23.446  10.552  1.00  0.00     0.006 C 
BRANCH   2   3
ATOM      3  C   UNL     1      19.404  23.191  10.334  1.00  0.00     0.053 C 
BRANCH   3   4
ATOM      4  C   UNL     1      18.636  24.472  10.208  1.00  0.00     0.041 C 
ATOM      5  O   UNL     1      19.245  25.571  10.126  1.00  0.00    -0.550 OA
ATOM      6  O   UNL     1      17.249  24.447  10.146  1.00  0.00    -0.550 OA
ENDBRANCH   3   4
ENDBRANCH   2   3
ENDBRANCH   1   2
BRANCH   1   7
ATOM      7  C   UNL     1      21.341  23.196   8.072  1.00  0.00     0.000 C 
BRANCH   7   8
ATOM      8  C   UNL     1      21.615  22.115   7.014  1.00  0.00    -0.000 C 
BRANCH   8   9
ATOM      9  C   UNL     1      20.463  21.964   6.010  1.00  0.00    -0.003 C 
ATOM     10  C   UNL     1      19.284  22.856   6.388  1.00  0.00     0.004 C 
ENDBRANCH   8   9
ENDBRANCH   7   8
ENDBRANCH   1   7
TORSDOF 6
ENDMDL
MODEL 2
REMARK VINA RESULT:    -4.349      1.319      2.838
REMARK INTER + INTRA:          -6.284
REMARK INTER:                  -5.866
REMARK INTRA:                  -0.418
REMARK UNBOUND:                -0.410
REMARK SMILES CCCCCCCC(=O)[O-]
REMARK SMILES IDX 5 1 6 2 7 3 8 4 9 5 10 6 4 7 3 8 2 9 1 10
REMARK H PARENT
REMARK Flexibility Score: inf
ROOT
ATOM      1  C   UNL     1      18.000  23.493   6.450  1.00  0.00     0.000 C 
ENDROOT
BRANCH   1   2
ATOM      2  C   UNL     1      17.195  24.284   7.491  1.00  0.00     0.006 C 
BRANCH   2   3
ATOM      3  C   UNL     1      18.037  25.369   8.175  1.00  0.00     0.053 C 
BRANCH   3   4
ATOM      4  C   UNL     1      18.130  25.150   9.654  1.00  0.00     0.041 C 
ATOM      5  O   UNL     1      19.211  25.375  10.261  1.00  0.00    -0.550 OA
ATOM      6  O   UNL     1      17.015  24.730  10.367  1.00  0.00    -0.550 OA
ENDBRANCH   3   4
ENDBRANCH   2   3
ENDBRANCH   1   2
BRANCH   1   7
ATOM      7  C   UNL     1      19.015  22.563   7.131  1.00  0.00     0.000 C 
BRANCH   7   8
ATOM      8  C   UNL     1      20.286  22.356   6.292  1.00  0.00    -0.000 C 
BRANCH   8   9
ATOM      9  C   UNL     1      21.564  22.352   7.142  1.00  0.00    -0.003 C 
ATOM     10  C   UNL     1      21.377  23.168   8.418  1.00  0.00     0.004 C 
ENDBRANCH   8   9
ENDBRANCH   7   8
ENDBRANCH   1   7
TORSDOF 6
ENDMDL
MODEL 3
REMARK VINA RESULT:    -4.344      1.954      2.922
REMARK INTER + INTRA:          -6.277
REMARK INTER:                  -5.947
REMARK INTRA:                  -0.330
REMARK UNBOUND:                -0.410
REMARK SMILES CCCCCCCC(=O)[O-]
REMARK SMILES IDX 5 1 6 2 7 3 8 4 9 5 10 6 4 7 3 8 2 9 1 10
REMARK H PARENT
REMARK Flexibility Score: inf
ROOT
ATOM      1  C   UNL     1      18.019  23.460   6.481  1.00  0.00     0.000 C 
ENDROOT
BRANCH   1   2
ATOM      2  C   UNL     1      17.960  23.765   7.985  1.00  0.00     0.006 C 
BRANCH   2   3
ATOM      3  C   UNL     1      17.759  25.258   8.268  1.00  0.00     0.053 C 
BRANCH   3   4
ATOM      4  C   UNL     1      18.795  25.790   9.211  1.00  0.00     0.041 C 
ATOM      5  O   UNL     1      19.394  25.011   9.999  1.00  0.00    -0.550 OA
ATOM      6  O   UNL     1      19.123  27.139   9.195  1.00  0.00    -0.550 OA
ENDBRANCH   3   4
ENDBRANCH   2   3
ENDBRANCH   1   2
BRANCH   1   7
ATOM      7  C   UNL     1      19.332  22.752   6.115  1.00  0.00     0.000 C 
BRANCH   7   8
ATOM      8  C   UNL     1      20.352  22.764   7.265  1.00  0.00    -0.000 C 
BRANCH   8   9
ATOM      9  C   UNL     1      21.653  22.030   6.911  1.00  0.00    -0.003 C 
ATOM     10  C   UNL     1      21.554  21.367   5.540  1.00  0.00     0.004 C 
ENDBRANCH   8   9
ENDBRANCH   7   8
ENDBRANCH   1   7
TORSDOF 6
ENDMDL
MODEL 4
REMARK VINA RESULT:    -4.330      1.283      1.875
REMARK INTER + INTRA:          -6.259
REMARK INTER:                  -5.843
REMARK INTRA:                  -0.416
REMARK UNBOUND:                -0.410
REMARK SMILES CCCCCCCC(=O)[O-]
REMARK SMILES IDX 5 1 6 2 7 3 8 4 9 5 10 6 4 7 3 8 2 9 1 10
REMARK H PARENT
REMARK Flexibility Score: inf
ROOT
ATOM      1  C   UNL     1      20.698  23.117  10.012  1.00  0.00     0.000 C 
ENDROOT
BRANCH   1   2
ATOM      2  C   UNL     1      19.317  23.759   9.811  1.00  0.00     0.006 C 
BRANCH   2   3
ATOM      3  C   UNL     1      19.316  24.793   8.678  1.00  0.00     0.053 C 
BRANCH   3   4
ATOM      4  C   UNL     1      18.497  25.998   9.027  1.00  0.00     0.041 C 
ATOM      5  O   UNL     1      17.256  25.890   9.211  1.00  0.00    -0.550 OA
ATOM      6  O   UNL     1      19.111  27.234   9.181  1.00  0.00    -0.550 OA
ENDBRANCH   3   4
ENDBRANCH   2   3
ENDBRANCH   1   2
BRANCH   1   7
ATOM      7  C   UNL     1      21.540  23.215   8.731  1.00  0.00     0.000 C 
BRANCH   7   8
ATOM      8  C   UNL     1      21.748  21.850   8.054  1.00  0.00    -0.000 C 
BRANCH   8   9
ATOM      9  C   UNL     1      21.596  21.917   6.527  1.00  0.00    -0.003 C 
ATOM     10  C   UNL     1      20.178  22.321   6.133  1.00  0.00     0.004 C 
ENDBRANCH   8   9
ENDBRANCH   7   8
ENDBRANCH   1   7
TORSDOF 6
ENDMDL
MODEL 5
REMARK VINA RESULT:    -4.292      1.495      3.059
REMARK INTER + INTRA:          -6.207
REMARK INTER:                  -5.745
REMARK INTRA:                  -0.462
REMARK UNBOUND:                -0.410
REMARK SMILES CCCCCCCC(=O)[O-]
REMARK SMILES IDX 5 1 6 2 7 3 8 4 9 5 10 6 4 7 3 8 2 9 1 10
REMARK H PARENT
REMARK Flexibility Score: inf
ROOT
ATOM      1  C   UNL     1      18.197  23.502   6.410  1.00  0.00     0.000 C 
ENDROOT
BRANCH   1   2
ATOM      2  C   UNL     1      17.790  23.818   7.857  1.00  0.00     0.006 C 
BRANCH   2   3
ATOM      3  C   UNL     1      17.673  25.326   8.111  1.00  0.00     0.053 C 
BRANCH   3   4
ATOM      4  C   UNL     1      18.698  25.806   9.093  1.00  0.00     0.041 C 
ATOM      5  O   UNL     1      19.198  26.956   8.976  1.00  0.00    -0.550 OA
ATOM      6  O   UNL     1      19.075  24.996  10.156  1.00  0.00    -0.550 OA
ENDBRANCH   3   4
ENDBRANCH   2   3
ENDBRANCH   1   2
BRANCH   1   7
ATOM      7  C   UNL     1      19.462  22.631   6.373  1.00  0.00     0.000 C 
BRANCH   7   8
ATOM      8  C   UNL     1      20.032  22.354   7.774  1.00  0.00    -0.000 C 
BRANCH   8   9
ATOM      9  C   UNL     1      21.444  22.925   7.963  1.00  0.00    -0.003 C 
ATOM     10  C   UNL     1      21.818  22.989   9.440  1.00  0.00     0.004 C 
ENDBRANCH   8   9
ENDBRANCH   7   8
ENDBRANCH   1   7
TORSDOF 6
ENDMDL
MODEL 6
REMARK VINA RESULT:    -4.285      2.781      4.663
REMARK INTER + INTRA:          -6.199
REMARK INTER:                  -5.869
REMARK INTRA:                  -0.330
REMARK UNBOUND:                -0.410
REMARK SMILES CCCCCCCC(=O)[O-]
REMARK SMILES IDX 5 1 6 2 7 3 8 4 9 5 10 6 4 7 3 8 2 9 1 10
REMARK H PARENT
REMARK Flexibility Score: inf
ROOT
ATOM      1  C   UNL     1      18.551  23.483   6.709  1.00  0.00     0.000 C 
ENDROOT
BRANCH   1   2
ATOM      2  C   UNL     1      19.626  23.267   7.785  1.00  0.00     0.006 C 
BRANCH   2   3
ATOM      3  C   UNL     1      20.850  22.520   7.242  1.00  0.00     0.053 C 
BRANCH   3   4
ATOM      4  C   UNL     1      21.794  22.130   8.339  1.00  0.00     0.041 C 
ATOM      5  O   UNL     1      22.534  21.119   8.208  1.00  0.00    -0.550 OA
ATOM      6  O   UNL     1      21.879  22.901   9.490  1.00  0.00    -0.550 OA
ENDBRANCH   3   4
ENDBRANCH   2   3
ENDBRANCH   1   2
BRANCH   1   7
ATOM      7  C   UNL     1      17.372  24.295   7.264  1.00  0.00     0.000 C 
BRANCH   7   8
ATOM      8  C   UNL     1      17.579  24.715   8.728  1.00  0.00    -0.000 C 
BRANCH   8   9
ATOM      9  C   UNL     1      17.601  26.239   8.910  1.00  0.00    -0.003 C 
ATOM     10  C   UNL     1      19.026  26.780   8.843  1.00  0.00     0.004 C 
ENDBRANCH   8   9
ENDBRANCH   7   8
ENDBRANCH   1   7
TORSDOF 6
ENDMDL
MODEL 7
REMARK VINA RESULT:    -4.256      2.219      4.130
REMARK INTER + INTRA:          -6.159
REMARK INTER:                  -5.611
REMARK INTRA:                  -0.548
REMARK UNBOUND:                -0.410
REMARK SMILES CCCCCCCC(=O)[O-]
REMARK SMILES IDX 5 1 6 2 7 3 8 4 9 5 10 6 4 7 3 8 2 9 1 10
REMARK H PARENT
REMARK Flexibility Score: inf
ROOT
ATOM      1  C   UNL     1      18.439  23.505   6.718  1.00  0.00     0.000 C 
ENDROOT
BRANCH   1   2
ATOM      2  C   UNL     1      19.059  22.663   7.843  1.00  0.00     0.006 C 
BRANCH   2   3
ATOM      3  C   UNL     1      20.557  22.939   8.018  1.00  0.00     0.053 C 
BRANCH   3   4
ATOM      4  C   UNL     1      20.947  22.990   9.464  1.00  0.00     0.041 C 
ATOM      5  O   UNL     1      22.162  23.058   9.790  1.00  0.00    -0.550 OA
ATOM      6  O   UNL     1      19.969  22.997  10.449  1.00  0.00    -0.550 OA
ENDBRANCH   3   4
ENDBRANCH   2   3
ENDBRANCH   1   2
BRANCH   1   7
ATOM      7  C   UNL     1      17.236  24.309   7.232  1.00  0.00     0.000 C 
BRANCH   7   8
ATOM      8  C   UNL     1      17.349  24.655   8.726  1.00  0.00    -0.000 C 
BRANCH   8   9
ATOM      9  C   UNL     1      17.591  26.151   8.971  1.00  0.00    -0.003 C 
ATOM     10  C   UNL     1      19.081  26.478   8.941  1.00  0.00     0.004 C 
ENDBRANCH   8   9
ENDBRANCH   7   8
ENDBRANCH   1   7
TORSDOF 6
ENDMDL
MODEL 8
REMARK VINA RESULT:    -4.231      1.876      3.366
REMARK INTER + INTRA:          -6.125
REMARK INTER:                  -5.508
REMARK INTRA:                  -0.617
REMARK UNBOUND:                -0.410
REMARK SMILES CCCCCCCC(=O)[O-]
REMARK SMILES IDX 5 1 6 2 7 3 8 4 9 5 10 6 4 7 3 8 2 9 1 10
REMARK H PARENT
REMARK Flexibility Score: inf
ROOT
ATOM      1  C   UNL     1      19.973  22.615   6.464  1.00  0.00     0.000 C 
ENDROOT
BRANCH   1   2
ATOM      2  C   UNL     1      20.623  23.004   7.800  1.00  0.00     0.006 C 
BRANCH   2   3
ATOM      3  C   UNL     1      20.156  22.110   8.955  1.00  0.00     0.053 C 
BRANCH   3   4
ATOM      4  C   UNL     1      19.951  22.894  10.216  1.00  0.00     0.041 C 
ATOM      5  O   UNL     1      18.810  22.956  10.745  1.00  0.00    -0.550 OA
ATOM      6  O   UNL     1      21.027  23.526  10.825  1.00  0.00    -0.550 OA
ENDBRANCH   3   4
ENDBRANCH   2   3
ENDBRANCH   1   2
BRANCH   1   7
ATOM      7  C   UNL     1      18.452  22.462   6.617  1.00  0.00     0.000 C 
BRANCH   7   8
ATOM      8  C   UNL     1      17.706  23.799   6.484  1.00  0.00    -0.000 C 
BRANCH   8   9
ATOM      9  C   UNL     1      17.075  24.259   7.806  1.00  0.00    -0.003 C 
ATOM     10  C   UNL     1      17.827  25.453   8.388  1.00  0.00     0.004 C 
ENDBRANCH   8   9
ENDBRANCH   7   8
ENDBRANCH   1   7
TORSDOF 6
ENDMDL
MODEL 9
REMARK VINA RESULT:    -4.202      2.024      3.306
REMARK INTER + INTRA:          -6.086
REMARK INTER:                  -5.486
REMARK INTRA:                  -0.600
REMARK UNBOUND:                -0.410
REMARK SMILES CCCCCCCC(=O)[O-]
REMARK SMILES IDX 5 1 6 2 7 3 8 4 9 5 10 6 4 7 3 8 2 9 1 10
REMARK H PARENT
REMARK Flexibility Score: inf
ROOT
ATOM      1  C   UNL     1      17.817  25.419   8.368  1.00  0.00     0.000 C 
ENDROOT
BRANCH   1   2
ATOM      2  C   UNL     1      18.907  25.137   9.413  1.00  0.00     0.006 C 
BRANCH   2   3
ATOM      3  C   UNL     1      18.637  23.849  10.200  1.00  0.00     0.053 C 
BRANCH   3   4
ATOM      4  C   UNL     1      19.828  22.940  10.205  1.00  0.00     0.041 C 
ATOM      5  O   UNL     1      19.721  21.753   9.798  1.00  0.00    -0.550 OA
ATOM      6  O   UNL     1      21.063  23.414  10.628  1.00  0.00    -0.550 OA
ENDBRANCH   3   4
ENDBRANCH   2   3
ENDBRANCH   1   2
BRANCH   1   7
ATOM      7  C   UNL     1      17.187  24.112   7.864  1.00  0.00     0.000 C 
BRANCH   7   8
ATOM      8  C   UNL     1      17.654  23.736   6.449  1.00  0.00    -0.000 C 
BRANCH   8   9
ATOM      9  C   UNL     1      18.444  22.420   6.416  1.00  0.00    -0.003 C 
ATOM     10  C   UNL     1      19.947  22.681   6.401  1.00  0.00     0.004 C 
ENDBRANCH   8   9
ENDBRANCH   7   8
ENDBRANCH   1   7
TORSDOF 6
ENDMDL
