MODEL 1
REMARK VINA RESULT:    -8.175      0.000      0.000
REMARK INTER + INTRA:          -8.892
REMARK INTER:                  -8.892
REMARK INTRA:                   0.000
REMARK UNBOUND:                 0.000
REMARK SMILES C[C@H]1CC[C@H]2[N@H+](C1)C[C@H]1[C@H]3C[C@@H]4[C@@H](C[C@H](O)[C@@H]5C[C@H](O)CC[C@]45C)[C@@H]3CC[C@@H]1[C@@]2(C)O
REMARK SMILES IDX 5 1 6 2 8 3 7 4 4 5 29 6 3 7 28 8 30 9 2 10 27 11 9 12 1 13
REMARK SMILES IDX 26 14 10 15 25 16 11 17 13 18 12 19 14 20 23 21 15 22 17 23
REMARK SMILES IDX 22 24 24 25 18 26 21 27 19 28 31 30 16 32 20 34
REMARK H PARENT 6 29 31 31 16 33 20 35
REMARK Flexibility Score: inf
ROOT
ATOM      1  C   UNL     1      10.968  18.558   5.768  1.00  0.00     0.216 C 
ATOM      2  N   UNL     1      11.854  17.389   6.062  1.00  0.00    -0.330 N 
ATOM      3  C   UNL     1      13.099  17.792   6.783  1.00  0.00     0.266 C 
ATOM      4  C   UNL     1      11.133  16.355   6.831  1.00  0.00     0.265 C 
ATOM      5  C   UNL     1       9.524  18.139   5.357  1.00  0.00     0.069 C 
ATOM      6  C   UNL     1      11.659  19.542   4.731  1.00  0.00     0.117 C 
ATOM      7  C   UNL     1       9.447  16.677   4.911  1.00  0.00     0.015 C 
ATOM      8  C   UNL     1      13.216  19.434   4.874  1.00  0.00     0.036 C 
ATOM      9  C   UNL     1      11.163  20.980   4.999  1.00  0.00     0.049 C 
ATOM     10  C   UNL     1       9.994  15.718   5.991  1.00  0.00     0.041 C 
ATOM     11  C   UNL     1      14.060  20.559   4.212  1.00  0.00     0.007 C 
ATOM     12  C   UNL     1      13.601  19.200   6.363  1.00  0.00     0.054 C 
ATOM     13  C   UNL     1       8.868  15.209   6.906  1.00  0.00     0.013 C 
ATOM     14  C   UNL     1      15.591  20.260   4.272  1.00  0.00     0.004 C 
ATOM     15  C   UNL     1      15.109  19.504   6.603  1.00  0.00     0.002 C 
ATOM     16  C   UNL     1      15.935  19.216   5.360  1.00  0.00    -0.004 C 
ATOM     17  C   UNL     1      15.866  18.828   7.733  1.00  0.00     0.009 C 
ATOM     18  C   UNL     1      17.406  19.159   5.844  1.00  0.00    -0.001 C 
ATOM     19  C   UNL     1      17.330  19.167   7.392  1.00  0.00    -0.001 C 
ATOM     20  C   UNL     1      18.093  17.900   5.326  1.00  0.00     0.036 C 
ATOM     21  C   UNL     1      18.452  18.381   8.190  1.00  0.00    -0.024 C 
ATOM     22  C   UNL     1      19.533  17.747   5.838  1.00  0.00     0.118 C 
ATOM     23  C   UNL     1      19.749  18.239   7.317  1.00  0.00     0.026 C 
ATOM     24  C   UNL     1      18.002  16.965   8.647  1.00  0.00     0.010 C 
ATOM     25  C   UNL     1      18.759  19.236   9.459  1.00  0.00     0.012 C 
ATOM     26  C   UNL     1      20.869  17.447   8.052  1.00  0.00     0.038 C 
ATOM     27  C   UNL     1      19.075  16.218   9.450  1.00  0.00     0.032 C 
ATOM     28  C   UNL     1      20.424  16.118   8.721  1.00  0.00     0.114 C 
ATOM     29  H   UNL     1      12.146  16.944   5.163  1.00  0.00     0.348 HD
ENDROOT
BRANCH   6  30
ATOM     30  O   UNL     1      11.302  19.229   3.404  1.00  0.00    -0.384 OA
ATOM     31  H   UNL     1      11.997  18.636   3.023  1.00  0.00     0.211 HD
ENDBRANCH   6  30
BRANCH  22  32
ATOM     32  O   UNL     1      19.907  16.405   5.675  1.00  0.00    -0.393 OA
ATOM     33  H   UNL     1      19.658  15.925   6.510  1.00  0.00     0.210 HD
ENDBRANCH  22  32
BRANCH  28  34
ATOM     34  O   UNL     1      20.359  15.065   7.798  1.00  0.00    -0.393 OA
ATOM     35  H   UNL     1      20.565  14.233   8.297  1.00  0.00     0.210 HD
ENDBRANCH  28  34
TORSDOF 3
ENDMDL
MODEL 2
REMARK VINA RESULT:    -8.060      2.801      8.532
REMARK INTER + INTRA:          -8.767
REMARK INTER:                  -8.767
REMARK INTRA:                   0.000
REMARK UNBOUND:                 0.000
REMARK SMILES C[C@H]1CC[C@H]2[N@H+](C1)C[C@H]1[C@H]3C[C@@H]4[C@@H](C[C@H](O)[C@@H]5C[C@H](O)CC[C@]45C)[C@@H]3CC[C@@H]1[C@@]2(C)O
REMARK SMILES IDX 5 1 6 2 8 3 7 4 4 5 29 6 3 7 28 8 30 9 2 10 27 11 9 12 1 13
REMARK SMILES IDX 26 14 10 15 25 16 11 17 13 18 12 19 14 20 23 21 15 22 17 23
REMARK SMILES IDX 22 24 24 25 18 26 21 27 19 28 31 30 16 32 20 34
REMARK H PARENT 6 29 31 31 16 33 20 35
REMARK Flexibility Score: inf
ROOT
ATOM      1  C   UNL     1      21.831  17.018   7.414  1.00  0.00     0.216 C 
ATOM      2  N   UNL     1      20.730  17.468   8.320  1.00  0.00    -0.330 N 
ATOM      3  C   UNL     1      19.399  16.937   7.899  1.00  0.00     0.266 C 
ATOM      4  C   UNL     1      21.006  17.093   9.722  1.00  0.00     0.265 C 
ATOM      5  C   UNL     1      23.250  17.242   8.021  1.00  0.00     0.069 C 
ATOM      6  C   UNL     1      21.659  17.641   5.964  1.00  0.00     0.117 C 
ATOM      7  C   UNL     1      23.238  18.254   9.168  1.00  0.00     0.015 C 
ATOM      8  C   UNL     1      20.139  17.905   5.692  1.00  0.00     0.036 C 
ATOM      9  C   UNL     1      22.260  16.667   4.926  1.00  0.00     0.049 C 
ATOM     10  C   UNL     1      22.240  17.855  10.277  1.00  0.00     0.041 C 
ATOM     11  C   UNL     1      19.727  18.174   4.218  1.00  0.00     0.007 C 
ATOM     12  C   UNL     1      19.276  16.795   6.357  1.00  0.00     0.054 C 
ATOM     13  C   UNL     1      22.931  17.034  11.378  1.00  0.00     0.013 C 
ATOM     14  C   UNL     1      18.228  18.589   4.090  1.00  0.00     0.004 C 
ATOM     15  C   UNL     1      17.833  16.784   5.771  1.00  0.00     0.002 C 
ATOM     16  C   UNL     1      17.405  18.174   5.333  1.00  0.00    -0.004 C 
ATOM     17  C   UNL     1      16.667  16.262   6.591  1.00  0.00     0.009 C 
ATOM     18  C   UNL     1      15.866  18.101   5.168  1.00  0.00    -0.001 C 
ATOM     19  C   UNL     1      15.453  16.731   5.765  1.00  0.00    -0.001 C 
ATOM     20  C   UNL     1      15.191  19.255   5.900  1.00  0.00     0.036 C 
ATOM     21  C   UNL     1      14.031  16.628   6.459  1.00  0.00    -0.024 C 
ATOM     22  C   UNL     1      13.658  19.193   5.839  1.00  0.00     0.118 C 
ATOM     23  C   UNL     1      13.068  17.735   5.903  1.00  0.00     0.026 C 
ATOM     24  C   UNL     1      14.093  16.751   8.007  1.00  0.00     0.010 C 
ATOM     25  C   UNL     1      13.477  15.214   6.098  1.00  0.00     0.012 C 
ATOM     26  C   UNL     1      11.666  17.688   6.579  1.00  0.00     0.038 C 
ATOM     27  C   UNL     1      12.721  16.616   8.681  1.00  0.00     0.032 C 
ATOM     28  C   UNL     1      11.671  17.591   8.129  1.00  0.00     0.114 C 
ATOM     29  H   UNL     1      20.670  18.511   8.296  1.00  0.00     0.348 HD
ENDROOT
BRANCH   6  30
ATOM     30  O   UNL     1      22.362  18.856   5.837  1.00  0.00    -0.384 OA
ATOM     31  H   UNL     1      22.893  18.827   5.003  1.00  0.00     0.211 HD
ENDBRANCH   6  30
BRANCH  22  32
ATOM     32  O   UNL     1      13.153  20.005   6.864  1.00  0.00    -0.393 OA
ATOM     33  H   UNL     1      13.613  19.740   7.707  1.00  0.00     0.210 HD
ENDBRANCH  22  32
BRANCH  28  34
ATOM     34  O   UNL     1      11.859  18.842   8.730  1.00  0.00    -0.393 OA
ATOM     35  H   UNL     1      12.837  19.007   8.749  1.00  0.00     0.210 HD
ENDBRANCH  28  34
TORSDOF 3
ENDMDL
MODEL 3
REMARK VINA RESULT:    -7.873      4.044      9.216
REMARK INTER + INTRA:          -8.563
REMARK INTER:                  -8.563
REMARK INTRA:                   0.000
REMARK UNBOUND:                 0.000
REMARK SMILES C[C@H]1CC[C@H]2[N@H+](C1)C[C@H]1[C@H]3C[C@@H]4[C@@H](C[C@H](O)[C@@H]5C[C@H](O)CC[C@]45C)[C@@H]3CC[C@@H]1[C@@]2(C)O
REMARK SMILES IDX 5 1 6 2 8 3 7 4 4 5 29 6 3 7 28 8 30 9 2 10 27 11 9 12 1 13
REMARK SMILES IDX 26 14 10 15 25 16 11 17 13 18 12 19 14 20 23 21 15 22 17 23
REMARK SMILES IDX 22 24 24 25 18 26 21 27 19 28 31 30 16 32 20 34
REMARK H PARENT 6 29 31 31 16 33 20 35
REMARK Flexibility Score: inf
ROOT
ATOM      1  C   UNL     1      20.424  12.850  12.096  1.00  0.00     0.216 C 
ATOM      2  N   UNL     1      19.184  13.649  12.345  1.00  0.00    -0.330 N 
ATOM      3  C   UNL     1      18.560  14.132  11.076  1.00  0.00     0.266 C 
ATOM      4  C   UNL     1      18.202  12.877  13.133  1.00  0.00     0.265 C 
ATOM      5  C   UNL     1      20.885  12.037  13.344  1.00  0.00     0.069 C 
ATOM      6  C   UNL     1      21.568  13.762  11.479  1.00  0.00     0.117 C 
ATOM      7  C   UNL     1      20.266  12.562  14.641  1.00  0.00     0.015 C 
ATOM      8  C   UNL     1      20.915  14.936  10.672  1.00  0.00     0.036 C 
ATOM      9  C   UNL     1      22.473  12.891  10.580  1.00  0.00     0.049 C 
ATOM     10  C   UNL     1      18.724  12.599  14.568  1.00  0.00     0.041 C 
ATOM     11  C   UNL     1      21.843  15.724   9.707  1.00  0.00     0.007 C 
ATOM     12  C   UNL     1      19.612  14.448   9.978  1.00  0.00     0.054 C 
ATOM     13  C   UNL     1      18.109  11.304  15.125  1.00  0.00     0.013 C 
ATOM     14  C   UNL     1      21.131  16.969   9.088  1.00  0.00     0.004 C 
ATOM     15  C   UNL     1      19.174  15.434   8.856  1.00  0.00     0.002 C 
ATOM     16  C   UNL     1      19.591  16.859   9.180  1.00  0.00    -0.004 C 
ATOM     17  C   UNL     1      17.716  15.544   8.445  1.00  0.00     0.009 C 
ATOM     18  C   UNL     1      18.761  17.759   8.231  1.00  0.00    -0.001 C 
ATOM     19  C   UNL     1      17.718  16.817   7.578  1.00  0.00    -0.001 C 
ATOM     20  C   UNL     1      18.087  18.884   9.009  1.00  0.00     0.036 C 
ATOM     21  C   UNL     1      16.305  17.430   7.201  1.00  0.00    -0.024 C 
ATOM     22  C   UNL     1      17.185  19.766   8.134  1.00  0.00     0.118 C 
ATOM     23  C   UNL     1      16.414  18.984   7.007  1.00  0.00     0.026 C 
ATOM     24  C   UNL     1      15.206  17.136   8.260  1.00  0.00     0.010 C 
ATOM     25  C   UNL     1      15.887  16.757   5.856  1.00  0.00     0.012 C 
ATOM     26  C   UNL     1      15.041  19.631   6.663  1.00  0.00     0.038 C 
ATOM     27  C   UNL     1      13.831  17.699   7.879  1.00  0.00     0.032 C 
ATOM     28  C   UNL     1      13.852  19.202   7.564  1.00  0.00     0.114 C 
ATOM     29  H   UNL     1      19.426  14.492  12.913  1.00  0.00     0.348 HD
ENDROOT
BRANCH   6  30
ATOM     30  O   UNL     1      22.394  14.306  12.484  1.00  0.00    -0.384 OA
ATOM     31  H   UNL     1      21.849  14.913  13.044  1.00  0.00     0.211 HD
ENDBRANCH   6  30
BRANCH  22  32
ATOM     32  O   UNL     1      16.309  20.459   8.980  1.00  0.00    -0.393 OA
ATOM     33  H   UNL     1      16.470  21.432   8.841  1.00  0.00     0.210 HD
ENDBRANCH  22  32
BRANCH  28  34
ATOM     34  O   UNL     1      13.825  19.914   8.770  1.00  0.00    -0.393 OA
ATOM     35  H   UNL     1      13.569  20.847   8.547  1.00  0.00     0.210 HD
ENDBRANCH  28  34
TORSDOF 3
ENDMDL
MODEL 4
REMARK VINA RESULT:    -7.815      1.468      1.716
REMARK INTER + INTRA:          -8.501
REMARK INTER:                  -8.501
REMARK INTRA:                   0.000
REMARK UNBOUND:                 0.000
REMARK SMILES C[C@H]1CC[C@H]2[N@H+](C1)C[C@H]1[C@H]3C[C@@H]4[C@@H](C[C@H](O)[C@@H]5C[C@H](O)CC[C@]45C)[C@@H]3CC[C@@H]1[C@@]2(C)O
REMARK SMILES IDX 5 1 6 2 8 3 7 4 4 5 29 6 3 7 28 8 30 9 2 10 27 11 9 12 1 13
REMARK SMILES IDX 26 14 10 15 25 16 11 17 13 18 12 19 14 20 23 21 15 22 17 23
REMARK SMILES IDX 22 24 24 25 18 26 21 27 19 28 31 30 16 32 20 34
REMARK H PARENT 6 29 31 31 16 33 20 35
REMARK Flexibility Score: inf
ROOT
ATOM      1  C   UNL     1      11.597  18.022   7.863  1.00  0.00     0.216 C 
ATOM      2  N   UNL     1      12.578  16.908   8.042  1.00  0.00    -0.330 N 
ATOM      3  C   UNL     1      13.958  17.409   8.317  1.00  0.00     0.266 C 
ATOM      4  C   UNL     1      12.149  15.987   9.114  1.00  0.00     0.265 C 
ATOM      5  C   UNL     1      10.114  17.547   7.943  1.00  0.00     0.069 C 
ATOM      6  C   UNL     1      11.923  18.857   6.552  1.00  0.00     0.117 C 
ATOM      7  C   UNL     1       9.976  16.038   7.734  1.00  0.00     0.015 C 
ATOM      8  C   UNL     1      13.460  18.773   6.256  1.00  0.00     0.036 C 
ATOM      9  C   UNL     1      11.464  20.317   6.761  1.00  0.00     0.049 C 
ATOM     10  C   UNL     1      10.846  15.238   8.727  1.00  0.00     0.041 C 
ATOM     11  C   UNL     1      14.034  19.798   5.238  1.00  0.00     0.007 C 
ATOM     12  C   UNL     1      14.261  18.748   7.589  1.00  0.00     0.054 C 
ATOM     13  C   UNL     1      10.048  14.856   9.985  1.00  0.00     0.013 C 
ATOM     14  C   UNL     1      15.530  19.515   4.895  1.00  0.00     0.004 C 
ATOM     15  C   UNL     1      15.761  19.085   7.345  1.00  0.00     0.002 C 
ATOM     16  C   UNL     1      16.212  18.631   5.966  1.00  0.00    -0.004 C 
ATOM     17  C   UNL     1      16.835  18.573   8.289  1.00  0.00     0.009 C 
ATOM     18  C   UNL     1      17.760  18.645   6.011  1.00  0.00    -0.001 C 
ATOM     19  C   UNL     1      18.127  18.866   7.501  1.00  0.00    -0.001 C 
ATOM     20  C   UNL     1      18.325  17.329   5.488  1.00  0.00     0.036 C 
ATOM     21  C   UNL     1      19.461  18.200   8.039  1.00  0.00    -0.024 C 
ATOM     22  C   UNL     1      19.856  17.251   5.580  1.00  0.00     0.118 C 
ATOM     23  C   UNL     1      20.462  17.943   6.857  1.00  0.00     0.026 C 
ATOM     24  C   UNL     1      19.219  16.860   8.788  1.00  0.00     0.010 C 
ATOM     25  C   UNL     1      20.080  19.223   9.043  1.00  0.00     0.012 C 
ATOM     26  C   UNL     1      21.777  17.263   7.338  1.00  0.00     0.038 C 
ATOM     27  C   UNL     1      20.507  16.233   9.340  1.00  0.00     0.032 C 
ATOM     28  C   UNL     1      21.596  16.037   8.274  1.00  0.00     0.114 C 
ATOM     29  H   UNL     1      12.621  16.344   7.163  1.00  0.00     0.348 HD
ENDROOT
BRANCH   6  30
ATOM     30  O   UNL     1      11.218  18.362   5.436  1.00  0.00    -0.384 OA
ATOM     31  H   UNL     1      11.835  18.332   4.664  1.00  0.00     0.211 HD
ENDBRANCH   6  30
BRANCH  22  32
ATOM     32  O   UNL     1      20.224  15.902   5.494  1.00  0.00    -0.393 OA
ATOM     33  H   UNL     1      21.123  15.812   5.913  1.00  0.00     0.210 HD
ENDBRANCH  22  32
BRANCH  28  34
ATOM     34  O   UNL     1      21.316  14.868   7.555  1.00  0.00    -0.393 OA
ATOM     35  H   UNL     1      21.157  15.140   6.615  1.00  0.00     0.210 HD
ENDBRANCH  28  34
TORSDOF 3
ENDMDL
MODEL 5
REMARK VINA RESULT:    -7.659      2.313      3.955
REMARK INTER + INTRA:          -8.330
REMARK INTER:                  -8.330
REMARK INTRA:                   0.000
REMARK UNBOUND:                 0.000
REMARK SMILES C[C@H]1CC[C@H]2[N@H+](C1)C[C@H]1[C@H]3C[C@@H]4[C@@H](C[C@H](O)[C@@H]5C[C@H](O)CC[C@]45C)[C@@H]3CC[C@@H]1[C@@]2(C)O
REMARK SMILES IDX 5 1 6 2 8 3 7 4 4 5 29 6 3 7 28 8 30 9 2 10 27 11 9 12 1 13
REMARK SMILES IDX 26 14 10 15 25 16 11 17 13 18 12 19 14 20 23 21 15 22 17 23
REMARK SMILES IDX 22 24 24 25 18 26 21 27 19 28 31 30 16 32 20 34
REMARK H PARENT 6 29 31 31 16 33 20 35
REMARK Flexibility Score: inf
ROOT
ATOM      1  C   UNL     1      11.551  17.536   5.983  1.00  0.00     0.216 C 
ATOM      2  N   UNL     1      12.449  18.259   6.936  1.00  0.00    -0.330 N 
ATOM      3  C   UNL     1      13.894  18.038   6.629  1.00  0.00     0.266 C 
ATOM      4  C   UNL     1      12.149  19.705   6.958  1.00  0.00     0.265 C 
ATOM      5  C   UNL     1      10.074  18.031   6.044  1.00  0.00     0.069 C 
ATOM      6  C   UNL     1      11.698  15.964   6.151  1.00  0.00     0.117 C 
ATOM      7  C   UNL     1       9.769  18.795   7.334  1.00  0.00     0.015 C 
ATOM      8  C   UNL     1      13.140  15.632   6.668  1.00  0.00     0.036 C 
ATOM      9  C   UNL     1      11.412  15.287   4.793  1.00  0.00     0.049 C 
ATOM     10  C   UNL     1      10.738  19.981   7.542  1.00  0.00     0.041 C 
ATOM     11  C   UNL     1      13.600  14.152   6.558  1.00  0.00     0.007 C 
ATOM     12  C   UNL     1      14.170  16.622   6.052  1.00  0.00     0.054 C 
ATOM     13  C   UNL     1      10.157  21.281   6.962  1.00  0.00     0.013 C 
ATOM     14  C   UNL     1      14.976  13.909   7.253  1.00  0.00     0.004 C 
ATOM     15  C   UNL     1      15.621  16.080   6.199  1.00  0.00     0.002 C 
ATOM     16  C   UNL     1      15.767  15.225   7.447  1.00  0.00    -0.004 C 
ATOM     17  C   UNL     1      16.804  17.031   6.245  1.00  0.00     0.009 C 
ATOM     18  C   UNL     1      17.293  15.102   7.689  1.00  0.00    -0.001 C 
ATOM     19  C   UNL     1      17.947  16.107   6.707  1.00  0.00    -0.001 C 
ATOM     20  C   UNL     1      17.635  15.433   9.137  1.00  0.00     0.036 C 
ATOM     21  C   UNL     1      19.296  16.807   7.159  1.00  0.00    -0.024 C 
ATOM     22  C   UNL     1      19.144  15.405   9.421  1.00  0.00     0.118 C 
ATOM     23  C   UNL     1      20.034  15.934   8.235  1.00  0.00     0.026 C 
ATOM     24  C   UNL     1      19.084  18.235   7.736  1.00  0.00     0.010 C 
ATOM     25  C   UNL     1      20.176  16.919   5.875  1.00  0.00     0.012 C 
ATOM     26  C   UNL     1      21.352  16.599   8.729  1.00  0.00     0.038 C 
ATOM     27  C   UNL     1      20.392  18.926   8.141  1.00  0.00     0.032 C 
ATOM     28  C   UNL     1      21.243  18.099   9.116  1.00  0.00     0.114 C 
ATOM     29  H   UNL     1      12.279  17.904   7.904  1.00  0.00     0.348 HD
ENDROOT
BRANCH   6  30
ATOM     30  O   UNL     1      10.757  15.452   7.068  1.00  0.00    -0.384 OA
ATOM     31  H   UNL     1      10.136  14.857   6.580  1.00  0.00     0.211 HD
ENDBRANCH   6  30
BRANCH  22  32
ATOM     32  O   UNL     1      19.373  16.121  10.604  1.00  0.00    -0.393 OA
ATOM     33  H   UNL     1      18.975  17.026  10.485  1.00  0.00     0.210 HD
ENDBRANCH  22  32
BRANCH  28  34
ATOM     34  O   UNL     1      20.736  18.269  10.411  1.00  0.00    -0.393 OA
ATOM     35  H   UNL     1      20.121  19.047  10.378  1.00  0.00     0.210 HD
ENDBRANCH  28  34
TORSDOF 3
ENDMDL
MODEL 6
REMARK VINA RESULT:    -7.559      2.498      4.807
REMARK INTER + INTRA:          -8.222
REMARK INTER:                  -8.222
REMARK INTRA:                   0.000
REMARK UNBOUND:                 0.000
REMARK SMILES C[C@H]1CC[C@H]2[N@H+](C1)C[C@H]1[C@H]3C[C@@H]4[C@@H](C[C@H](O)[C@@H]5C[C@H](O)CC[C@]45C)[C@@H]3CC[C@@H]1[C@@]2(C)O
REMARK SMILES IDX 5 1 6 2 8 3 7 4 4 5 29 6 3 7 28 8 30 9 2 10 27 11 9 12 1 13
REMARK SMILES IDX 26 14 10 15 25 16 11 17 13 18 12 19 14 20 23 21 15 22 17 23
REMARK SMILES IDX 22 24 24 25 18 26 21 27 19 28 31 30 16 32 20 34
REMARK H PARENT 6 29 31 31 16 33 20 35
REMARK Flexibility Score: inf
ROOT
ATOM      1  C   UNL     1      13.886  21.008   3.794  1.00  0.00     0.216 C 
ATOM      2  N   UNL     1      15.264  21.383   4.241  1.00  0.00    -0.330 N 
ATOM      3  C   UNL     1      16.104  20.186   4.545  1.00  0.00     0.266 C 
ATOM      4  C   UNL     1      15.936  22.233   3.237  1.00  0.00     0.265 C 
ATOM      5  C   UNL     1      13.119  22.190   3.128  1.00  0.00     0.069 C 
ATOM      6  C   UNL     1      13.079  20.317   4.975  1.00  0.00     0.117 C 
ATOM      7  C   UNL     1      13.734  23.548   3.470  1.00  0.00     0.015 C 
ATOM      8  C   UNL     1      14.086  19.600   5.938  1.00  0.00     0.036 C 
ATOM      9  C   UNL     1      12.064  19.321   4.371  1.00  0.00     0.049 C 
ATOM     10  C   UNL     1      15.233  23.610   3.103  1.00  0.00     0.041 C 
ATOM     11  C   UNL     1      13.486  18.577   6.943  1.00  0.00     0.007 C 
ATOM     12  C   UNL     1      15.274  19.008   5.127  1.00  0.00     0.054 C 
ATOM     13  C   UNL     1      15.436  24.186   1.692  1.00  0.00     0.013 C 
ATOM     14  C   UNL     1      14.549  18.054   7.959  1.00  0.00     0.004 C 
ATOM     15  C   UNL     1      16.053  17.954   5.967  1.00  0.00     0.002 C 
ATOM     16  C   UNL     1      15.993  18.277   7.450  1.00  0.00    -0.004 C 
ATOM     17  C   UNL     1      17.520  17.673   5.692  1.00  0.00     0.009 C 
ATOM     18  C   UNL     1      17.111  17.425   8.104  1.00  0.00    -0.001 C 
ATOM     19  C   UNL     1      17.928  16.842   6.924  1.00  0.00    -0.001 C 
ATOM     20  C   UNL     1      17.981  18.288   9.012  1.00  0.00     0.036 C 
ATOM     21  C   UNL     1      19.479  16.605   7.146  1.00  0.00    -0.024 C 
ATOM     22  C   UNL     1      19.157  17.516   9.630  1.00  0.00     0.118 C 
ATOM     23  C   UNL     1      19.796  16.441   8.675  1.00  0.00     0.026 C 
ATOM     24  C   UNL     1      20.364  17.748   6.574  1.00  0.00     0.010 C 
ATOM     25  C   UNL     1      19.827  15.284   6.390  1.00  0.00     0.012 C 
ATOM     26  C   UNL     1      21.316  16.234   8.942  1.00  0.00     0.038 C 
ATOM     27  C   UNL     1      21.867  17.501   6.758  1.00  0.00     0.032 C 
ATOM     28  C   UNL     1      22.266  17.223   8.215  1.00  0.00     0.114 C 
ATOM     29  H   UNL     1      15.199  21.948   5.117  1.00  0.00     0.348 HD
ENDROOT
BRANCH   6  30
ATOM     30  O   UNL     1      12.336  21.259   5.713  1.00  0.00    -0.384 OA
ATOM     31  H   UNL     1      11.693  21.699   5.103  1.00  0.00     0.211 HD
ENDBRANCH   6  30
BRANCH  22  32
ATOM     32  O   UNL     1      20.103  18.453  10.068  1.00  0.00    -0.393 OA
ATOM     33  H   UNL     1      20.635  18.020  10.791  1.00  0.00     0.210 HD
ENDBRANCH  22  32
BRANCH  28  34
ATOM     34  O   UNL     1      22.368  18.445   8.894  1.00  0.00    -0.393 OA
ATOM     35  H   UNL     1      21.458  18.841   8.909  1.00  0.00     0.210 HD
ENDBRANCH  28  34
TORSDOF 3
ENDMDL
MODEL 7
REMARK VINA RESULT:    -7.523      6.028     10.232
REMARK INTER + INTRA:          -8.182
REMARK INTER:                  -8.182
REMARK INTRA:                   0.000
REMARK UNBOUND:                 0.000
REMARK SMILES C[C@H]1CC[C@H]2[N@H+](C1)C[C@H]1[C@H]3C[C@@H]4[C@@H](C[C@H](O)[C@@H]5C[C@H](O)CC[C@]45C)[C@@H]3CC[C@@H]1[C@@]2(C)O
REMARK SMILES IDX 5 1 6 2 8 3 7 4 4 5 29 6 3 7 28 8 30 9 2 10 27 11 9 12 1 13
REMARK SMILES IDX 26 14 10 15 25 16 11 17 13 18 12 19 14 20 23 21 15 22 17 23
REMARK SMILES IDX 22 24 24 25 18 26 21 27 19 28 31 30 16 32 20 34
REMARK H PARENT 6 29 31 31 16 33 20 35
REMARK Flexibility Score: inf
ROOT
ATOM      1  C   UNL     1      22.326   9.670   4.689  1.00  0.00     0.216 C 
ATOM      2  N   UNL     1      22.129  11.104   4.314  1.00  0.00    -0.330 N 
ATOM      3  C   UNL     1      22.087  12.000   5.509  1.00  0.00     0.266 C 
ATOM      4  C   UNL     1      23.176  11.557   3.376  1.00  0.00     0.265 C 
ATOM      5  C   UNL     1      22.737   8.775   3.481  1.00  0.00     0.069 C 
ATOM      6  C   UNL     1      21.067   9.117   5.485  1.00  0.00     0.117 C 
ATOM      7  C   UNL     1      22.418   9.431   2.137  1.00  0.00     0.015 C 
ATOM      8  C   UNL     1      20.377  10.300   6.246  1.00  0.00     0.036 C 
ATOM      9  C   UNL     1      21.536   8.014   6.459  1.00  0.00     0.049 C 
ATOM     10  C   UNL     1      23.064  10.828   2.011  1.00  0.00     0.041 C 
ATOM     11  C   UNL     1      19.355   9.920   7.354  1.00  0.00     0.007 C 
ATOM     12  C   UNL     1      21.447  11.312   6.746  1.00  0.00     0.054 C 
ATOM     13  C   UNL     1      24.440  10.744   1.328  1.00  0.00     0.013 C 
ATOM     14  C   UNL     1      18.609  11.168   7.923  1.00  0.00     0.004 C 
ATOM     15  C   UNL     1      20.858  12.251   7.840  1.00  0.00     0.002 C 
ATOM     16  C   UNL     1      19.372  12.481   7.628  1.00  0.00    -0.004 C 
ATOM     17  C   UNL     1      21.435  13.639   8.062  1.00  0.00     0.009 C 
ATOM     18  C   UNL     1      19.015  13.714   8.496  1.00  0.00    -0.001 C 
ATOM     19  C   UNL     1      20.374  14.289   8.971  1.00  0.00    -0.001 C 
ATOM     20  C   UNL     1      18.232  14.737   7.681  1.00  0.00     0.036 C 
ATOM     21  C   UNL     1      20.477  15.856   9.186  1.00  0.00    -0.024 C 
ATOM     22  C   UNL     1      17.916  16.019   8.467  1.00  0.00     0.118 C 
ATOM     23  C   UNL     1      19.057  16.469   9.453  1.00  0.00     0.026 C 
ATOM     24  C   UNL     1      21.122  16.599   7.982  1.00  0.00     0.010 C 
ATOM     25  C   UNL     1      21.386  16.062  10.438  1.00  0.00     0.012 C 
ATOM     26  C   UNL     1      19.109  18.013   9.641  1.00  0.00     0.038 C 
ATOM     27  C   UNL     1      21.254  18.112   8.203  1.00  0.00     0.032 C 
ATOM     28  C   UNL     1      19.929  18.792   8.577  1.00  0.00     0.114 C 
ATOM     29  H   UNL     1      21.216  11.207   3.816  1.00  0.00     0.348 HD
ENDROOT
BRANCH   6  30
ATOM     30  O   UNL     1      20.128   8.524   4.618  1.00  0.00    -0.384 OA
ATOM     31  H   UNL     1      19.588   9.241   4.202  1.00  0.00     0.211 HD
ENDBRANCH   6  30
BRANCH  22  32
ATOM     32  O   UNL     1      17.600  17.023   7.542  1.00  0.00    -0.393 OA
ATOM     33  H   UNL     1      18.459  17.379   7.185  1.00  0.00     0.210 HD
ENDBRANCH  22  32
BRANCH  28  34
ATOM     34  O   UNL     1      19.191  19.013   7.407  1.00  0.00    -0.393 OA
ATOM     35  H   UNL     1      19.329  18.220   6.827  1.00  0.00     0.210 HD
ENDBRANCH  28  34
TORSDOF 3
ENDMDL
MODEL 8
REMARK VINA RESULT:    -7.499      4.830      8.141
REMARK INTER + INTRA:          -8.157
REMARK INTER:                  -8.157
REMARK INTRA:                   0.000
REMARK UNBOUND:                 0.000
REMARK SMILES C[C@H]1CC[C@H]2[N@H+](C1)C[C@H]1[C@H]3C[C@@H]4[C@@H](C[C@H](O)[C@@H]5C[C@H](O)CC[C@]45C)[C@@H]3CC[C@@H]1[C@@]2(C)O
REMARK SMILES IDX 5 1 6 2 8 3 7 4 4 5 29 6 3 7 28 8 30 9 2 10 27 11 9 12 1 13
REMARK SMILES IDX 26 14 10 15 25 16 11 17 13 18 12 19 14 20 23 21 15 22 17 23
REMARK SMILES IDX 22 24 24 25 18 26 21 27 19 28 31 30 16 32 20 34
REMARK H PARENT 6 29 31 31 16 33 20 35
REMARK Flexibility Score: inf
ROOT
ATOM      1  C   UNL     1      18.337  17.538   7.905  1.00  0.00     0.216 C 
ATOM      2  N   UNL     1      18.394  17.120   6.470  1.00  0.00    -0.330 N 
ATOM      3  C   UNL     1      19.246  15.909   6.268  1.00  0.00     0.266 C 
ATOM      4  C   UNL     1      17.040  16.885   5.929  1.00  0.00     0.265 C 
ATOM      5  C   UNL     1      17.188  18.550   8.199  1.00  0.00     0.069 C 
ATOM      6  C   UNL     1      19.760  18.035   8.405  1.00  0.00     0.117 C 
ATOM      7  C   UNL     1      16.673  19.230   6.929  1.00  0.00     0.015 C 
ATOM      8  C   UNL     1      20.879  17.309   7.583  1.00  0.00     0.036 C 
ATOM      9  C   UNL     1      19.887  17.745   9.917  1.00  0.00     0.049 C 
ATOM     10  C   UNL     1      16.220  18.202   5.869  1.00  0.00     0.041 C 
ATOM     11  C   UNL     1      22.324  17.384   8.150  1.00  0.00     0.007 C 
ATOM     12  C   UNL     1      20.443  15.852   7.256  1.00  0.00     0.054 C 
ATOM     13  C   UNL     1      14.716  17.907   5.988  1.00  0.00     0.013 C 
ATOM     14  C   UNL     1      23.375  16.775   7.169  1.00  0.00     0.004 C 
ATOM     15  C   UNL     1      21.664  14.989   6.824  1.00  0.00     0.002 C 
ATOM     16  C   UNL     1      22.720  15.834   6.131  1.00  0.00    -0.004 C 
ATOM     17  C   UNL     1      21.479  13.784   5.918  1.00  0.00     0.009 C 
ATOM     18  C   UNL     1      23.648  14.825   5.409  1.00  0.00    -0.001 C 
ATOM     19  C   UNL     1      22.930  13.456   5.515  1.00  0.00    -0.001 C 
ATOM     20  C   UNL     1      23.857  15.234   3.955  1.00  0.00     0.036 C 
ATOM     21  C   UNL     1      23.128  12.425   4.326  1.00  0.00    -0.024 C 
ATOM     22  C   UNL     1      24.707  14.230   3.162  1.00  0.00     0.118 C 
ATOM     23  C   UNL     1      24.462  12.726   3.555  1.00  0.00     0.026 C 
ATOM     24  C   UNL     1      21.953  12.429   3.308  1.00  0.00     0.010 C 
ATOM     25  C   UNL     1      23.205  11.013   4.986  1.00  0.00     0.012 C 
ATOM     26  C   UNL     1      24.682  11.753   2.360  1.00  0.00     0.038 C 
ATOM     27  C   UNL     1      22.127  11.407   2.177  1.00  0.00     0.032 C 
ATOM     28  C   UNL     1      23.459  11.550   1.425  1.00  0.00     0.114 C 
ATOM     29  H   UNL     1      18.813  17.892   5.904  1.00  0.00     0.348 HD
ENDROOT
BRANCH   6  30
ATOM     30  O   UNL     1      19.907  19.428   8.243  1.00  0.00    -0.384 OA
ATOM     31  H   UNL     1      20.754  19.600   7.762  1.00  0.00     0.211 HD
ENDBRANCH   6  30
BRANCH  22  32
ATOM     32  O   UNL     1      24.480  14.456   1.798  1.00  0.00    -0.393 OA
ATOM     33  H   UNL     1      23.876  13.734   1.474  1.00  0.00     0.210 HD
ENDBRANCH  22  32
BRANCH  28  34
ATOM     34  O   UNL     1      23.338  12.587   0.490  1.00  0.00    -0.393 OA
ATOM     35  H   UNL     1      22.792  13.296   0.918  1.00  0.00     0.210 HD
ENDBRANCH  28  34
TORSDOF 3
ENDMDL
MODEL 9
REMARK VINA RESULT:    -7.435      6.850      9.929
REMARK INTER + INTRA:          -8.087
REMARK INTER:                  -8.087
REMARK INTRA:                   0.000
REMARK UNBOUND:                 0.000
REMARK SMILES C[C@H]1CC[C@H]2[N@H+](C1)C[C@H]1[C@H]3C[C@@H]4[C@@H](C[C@H](O)[C@@H]5C[C@H](O)CC[C@]45C)[C@@H]3CC[C@@H]1[C@@]2(C)O
REMARK SMILES IDX 5 1 6 2 8 3 7 4 4 5 29 6 3 7 28 8 30 9 2 10 27 11 9 12 1 13
REMARK SMILES IDX 26 14 10 15 25 16 11 17 13 18 12 19 14 20 23 21 15 22 17 23
REMARK SMILES IDX 22 24 24 25 18 26 21 27 19 28 31 30 16 32 20 34
REMARK H PARENT 6 29 31 31 16 33 20 35
REMARK Flexibility Score: inf
ROOT
ATOM      1  C   UNL     1      23.028  13.528   1.121  1.00  0.00     0.216 C 
ATOM      2  N   UNL     1      21.870  14.329   1.625  1.00  0.00    -0.330 N 
ATOM      3  C   UNL     1      22.203  15.079   2.873  1.00  0.00     0.266 C 
ATOM      4  C   UNL     1      21.376  15.260   0.589  1.00  0.00     0.265 C 
ATOM      5  C   UNL     1      22.838  13.038  -0.347  1.00  0.00     0.069 C 
ATOM      6  C   UNL     1      23.389  12.359   2.135  1.00  0.00     0.117 C 
ATOM      7  C   UNL     1      21.374  13.084  -0.789  1.00  0.00     0.015 C 
ATOM      8  C   UNL     1      22.981  12.790   3.585  1.00  0.00     0.036 C 
ATOM      9  C   UNL     1      24.901  12.060   2.035  1.00  0.00     0.049 C 
ATOM     10  C   UNL     1      20.764  14.492  -0.613  1.00  0.00     0.041 C 
ATOM     11  C   UNL     1      23.567  11.951   4.755  1.00  0.00     0.007 C 
ATOM     12  C   UNL     1      23.211  14.316   3.775  1.00  0.00     0.054 C 
ATOM     13  C   UNL     1      20.891  15.319  -1.903  1.00  0.00     0.013 C 
ATOM     14  C   UNL     1      22.963  12.361   6.135  1.00  0.00     0.004 C 
ATOM     15  C   UNL     1      23.222  14.695   5.285  1.00  0.00     0.002 C 
ATOM     16  C   UNL     1      22.326  13.770   6.092  1.00  0.00    -0.004 C 
ATOM     17  C   UNL     1      22.838  16.093   5.737  1.00  0.00     0.009 C 
ATOM     18  C   UNL     1      22.106  14.486   7.449  1.00  0.00    -0.001 C 
ATOM     19  C   UNL     1      22.684  15.912   7.259  1.00  0.00    -0.001 C 
ATOM     20  C   UNL     1      20.623  14.528   7.800  1.00  0.00     0.036 C 
ATOM     21  C   UNL     1      21.997  17.098   8.056  1.00  0.00    -0.024 C 
ATOM     22  C   UNL     1      20.333  15.296   9.098  1.00  0.00     0.118 C 
ATOM     23  C   UNL     1      21.256  16.549   9.327  1.00  0.00     0.026 C 
ATOM     24  C   UNL     1      20.983  17.907   7.199  1.00  0.00     0.010 C 
ATOM     25  C   UNL     1      23.152  18.054   8.489  1.00  0.00     0.012 C 
ATOM     26  C   UNL     1      20.542  17.679  10.125  1.00  0.00     0.038 C 
ATOM     27  C   UNL     1      20.344  19.077   7.960  1.00  0.00     0.032 C 
ATOM     28  C   UNL     1      19.681  18.657   9.280  1.00  0.00     0.114 C 
ATOM     29  H   UNL     1      21.079  13.686   1.851  1.00  0.00     0.348 HD
ENDROOT
BRANCH   6  30
ATOM     30  O   UNL     1      22.714  11.165   1.808  1.00  0.00    -0.384 OA
ATOM     31  H   UNL     1      22.245  10.840   2.615  1.00  0.00     0.211 HD
ENDBRANCH   6  30
BRANCH  22  32
ATOM     32  O   UNL     1      18.974  15.641   9.099  1.00  0.00    -0.393 OA
ATOM     33  H   UNL     1      18.652  15.574  10.038  1.00  0.00     0.210 HD
ENDBRANCH  22  32
BRANCH  28  34
ATOM     34  O   UNL     1      18.414  18.128   8.998  1.00  0.00    -0.393 OA
ATOM     35  H   UNL     1      17.815  18.411   9.737  1.00  0.00     0.210 HD
ENDBRANCH  28  34
TORSDOF 3
ENDMDL
