MODEL 1
REMARK VINA RESULT:    -2.812      0.000      0.000
REMARK INTER + INTRA:          -3.190
REMARK INTER:                  -3.141
REMARK INTRA:                  -0.049
REMARK UNBOUND:                -0.049
REMARK SMILES CCCC(=O)[O-]
REMARK SMILES IDX 3 1 4 2 5 3 6 4 2 5 1 6
REMARK H PARENT
REMARK Flexibility Score: inf
ROOT
ATOM      1  C   UNL     1      44.898  28.185   2.289  1.00  0.00     0.052 C 
ENDROOT
BRANCH   1   2
ATOM      2  C   UNL     1      45.741  27.627   1.187  1.00  0.00     0.041 C 
ATOM      3  O   UNL     1      46.981  27.480   1.351  1.00  0.00    -0.550 OA
ATOM      4  O   UNL     1      45.152  27.224  -0.004  1.00  0.00    -0.550 OA
ENDBRANCH   1   2
BRANCH   1   5
ATOM      5  C   UNL     1      44.035  27.085   2.912  1.00  0.00     0.003 C 
ATOM      6  C   UNL     1      44.858  26.202   3.847  1.00  0.00     0.004 C 
ENDBRANCH   1   5
TORSDOF 2
ENDMDL
MODEL 2
REMARK VINA RESULT:    -2.805     23.400     24.116
REMARK INTER + INTRA:          -3.182
REMARK INTER:                  -3.153
REMARK INTRA:                  -0.028
REMARK UNBOUND:                -0.049
REMARK SMILES CCCC(=O)[O-]
REMARK SMILES IDX 3 1 4 2 5 3 6 4 2 5 1 6
REMARK H PARENT
REMARK Flexibility Score: inf
ROOT
ATOM      1  C   UNL     1      29.159  10.202  -4.791  1.00  0.00     0.052 C 
ENDROOT
BRANCH   1   2
ATOM      2  C   UNL     1      28.252  11.013  -3.921  1.00  0.00     0.041 C 
ATOM      3  O   UNL     1      28.453  12.248  -3.775  1.00  0.00    -0.550 OA
ATOM      4  O   UNL     1      27.156  10.417  -3.311  1.00  0.00    -0.550 OA
ENDBRANCH   1   2
BRANCH   1   5
ATOM      5  C   UNL     1      29.948  11.110  -5.738  1.00  0.00     0.003 C 
ATOM      6  C   UNL     1      31.421  10.714  -5.781  1.00  0.00     0.004 C 
ENDBRANCH   1   5
TORSDOF 2
ENDMDL
MODEL 3
REMARK VINA RESULT:    -2.680      6.662      7.558
REMARK INTER + INTRA:          -3.043
REMARK INTER:                  -3.032
REMARK INTRA:                  -0.010
REMARK UNBOUND:                -0.049
REMARK SMILES CCCC(=O)[O-]
REMARK SMILES IDX 3 1 4 2 5 3 6 4 2 5 1 6
REMARK H PARENT
REMARK Flexibility Score: inf
ROOT
ATOM      1  C   UNL     1      45.241  28.316   8.705  1.00  0.00     0.052 C 
ENDROOT
BRANCH   1   2
ATOM      2  C   UNL     1      45.653  26.884   8.575  1.00  0.00     0.041 C 
ATOM      3  O   UNL     1      46.061  26.441   7.469  1.00  0.00    -0.550 OA
ATOM      4  O   UNL     1      45.635  26.052   9.686  1.00  0.00    -0.550 OA
ENDBRANCH   1   2
BRANCH   1   5
ATOM      5  C   UNL     1      44.661  28.583  10.097  1.00  0.00     0.003 C 
ATOM      6  C   UNL     1      44.441  30.076  10.325  1.00  0.00     0.004 C 
ENDBRANCH   1   5
TORSDOF 2
ENDMDL
MODEL 4
REMARK VINA RESULT:    -2.661      1.262      1.826
REMARK INTER + INTRA:          -3.021
REMARK INTER:                  -2.967
REMARK INTRA:                  -0.053
REMARK UNBOUND:                -0.049
REMARK SMILES CCCC(=O)[O-]
REMARK SMILES IDX 3 1 4 2 5 3 6 4 2 5 1 6
REMARK H PARENT
REMARK Flexibility Score: inf
ROOT
ATOM      1  C   UNL     1      44.091  27.082   2.991  1.00  0.00     0.052 C 
ENDROOT
BRANCH   1   2
ATOM      2  C   UNL     1      44.930  27.784   1.970  1.00  0.00     0.041 C 
ATOM      3  O   UNL     1      45.265  27.193   0.911  1.00  0.00    -0.550 OA
ATOM      4  O   UNL     1      45.300  29.108   2.166  1.00  0.00    -0.550 OA
ENDBRANCH   1   2
BRANCH   1   5
ATOM      5  C   UNL     1      44.943  26.106   3.806  1.00  0.00     0.003 C 
ATOM      6  C   UNL     1      45.789  26.843   4.840  1.00  0.00     0.004 C 
ENDBRANCH   1   5
TORSDOF 2
ENDMDL
MODEL 5
REMARK VINA RESULT:    -2.615      2.742      3.283
REMARK INTER + INTRA:          -2.970
REMARK INTER:                  -2.936
REMARK INTRA:                  -0.034
REMARK UNBOUND:                -0.049
REMARK SMILES CCCC(=O)[O-]
REMARK SMILES IDX 3 1 4 2 5 3 6 4 2 5 1 6
REMARK H PARENT
REMARK Flexibility Score: inf
ROOT
ATOM      1  C   UNL     1      45.604  27.428   4.578  1.00  0.00     0.052 C 
ENDROOT
BRANCH   1   2
ATOM      2  C   UNL     1      45.006  26.360   3.718  1.00  0.00     0.041 C 
ATOM      3  O   UNL     1      45.305  25.152   3.909  1.00  0.00    -0.550 OA
ATOM      4  O   UNL     1      44.079  26.693   2.739  1.00  0.00    -0.550 OA
ENDBRANCH   1   2
BRANCH   1   5
ATOM      5  C   UNL     1      46.470  26.808   5.678  1.00  0.00     0.003 C 
ATOM      6  C   UNL     1      45.928  27.148   7.064  1.00  0.00     0.004 C 
ENDBRANCH   1   5
TORSDOF 2
ENDMDL
MODEL 6
REMARK VINA RESULT:    -2.585      1.868      2.825
REMARK INTER + INTRA:          -2.937
REMARK INTER:                  -2.900
REMARK INTRA:                  -0.037
REMARK UNBOUND:                -0.049
REMARK SMILES CCCC(=O)[O-]
REMARK SMILES IDX 3 1 4 2 5 3 6 4 2 5 1 6
REMARK H PARENT
REMARK Flexibility Score: inf
ROOT
ATOM      1  C   UNL     1      44.857  26.187   3.961  1.00  0.00     0.052 C 
ENDROOT
BRANCH   1   2
ATOM      2  C   UNL     1      46.341  26.080   3.807  1.00  0.00     0.041 C 
ATOM      3  O   UNL     1      47.071  25.909   4.818  1.00  0.00    -0.550 OA
ATOM      4  O   UNL     1      46.913  26.119   2.542  1.00  0.00    -0.550 OA
ENDBRANCH   1   2
BRANCH   1   5
ATOM      5  C   UNL     1      44.251  26.962   2.787  1.00  0.00     0.003 C 
ATOM      6  C   UNL     1      44.370  28.469   3.001  1.00  0.00     0.004 C 
ENDBRANCH   1   5
TORSDOF 2
ENDMDL
MODEL 7
REMARK VINA RESULT:    -2.472      6.163      7.131
REMARK INTER + INTRA:          -2.811
REMARK INTER:                  -2.794
REMARK INTRA:                  -0.016
REMARK UNBOUND:                -0.049
REMARK SMILES CCCC(=O)[O-]
REMARK SMILES IDX 3 1 4 2 5 3 6 4 2 5 1 6
REMARK H PARENT
REMARK Flexibility Score: inf
ROOT
ATOM      1  C   UNL     1      45.593  27.951   7.944  1.00  0.00     0.052 C 
ENDROOT
BRANCH   1   2
ATOM      2  C   UNL     1      45.121  27.506   9.292  1.00  0.00     0.041 C 
ATOM      3  O   UNL     1      45.283  26.312   9.657  1.00  0.00    -0.550 OA
ATOM      4  O   UNL     1      44.549  28.422  10.166  1.00  0.00    -0.550 OA
ENDBRANCH   1   2
BRANCH   1   5
ATOM      5  C   UNL     1      46.186  26.773   7.168  1.00  0.00     0.003 C 
ATOM      6  C   UNL     1      46.016  26.963   5.662  1.00  0.00     0.004 C 
ENDBRANCH   1   5
TORSDOF 2
ENDMDL
MODEL 8
REMARK VINA RESULT:    -2.426      5.996      6.868
REMARK INTER + INTRA:          -2.759
REMARK INTER:                  -2.726
REMARK INTRA:                  -0.033
REMARK UNBOUND:                -0.049
REMARK SMILES CCCC(=O)[O-]
REMARK SMILES IDX 3 1 4 2 5 3 6 4 2 5 1 6
REMARK H PARENT
REMARK Flexibility Score: inf
ROOT
ATOM      1  C   UNL     1      43.180  27.198  -4.134  1.00  0.00     0.052 C 
ENDROOT
BRANCH   1   2
ATOM      2  C   UNL     1      42.369  28.448  -4.276  1.00  0.00     0.041 C 
ATOM      3  O   UNL     1      42.462  29.363  -3.416  1.00  0.00    -0.550 OA
ATOM      4  O   UNL     1      41.549  28.623  -5.383  1.00  0.00    -0.550 OA
ENDBRANCH   1   2
BRANCH   1   5
ATOM      5  C   UNL     1      44.435  27.465  -3.300  1.00  0.00     0.003 C 
ATOM      6  C   UNL     1      45.689  27.447  -4.171  1.00  0.00     0.004 C 
ENDBRANCH   1   5
TORSDOF 2
ENDMDL
MODEL 9
REMARK VINA RESULT:    -2.406      4.213      5.365
REMARK INTER + INTRA:          -2.736
REMARK INTER:                  -2.729
REMARK INTRA:                  -0.007
REMARK UNBOUND:                -0.049
REMARK SMILES CCCC(=O)[O-]
REMARK SMILES IDX 3 1 4 2 5 3 6 4 2 5 1 6
REMARK H PARENT
REMARK Flexibility Score: inf
ROOT
ATOM      1  C   UNL     1      44.666  28.260  -2.958  1.00  0.00     0.052 C 
ENDROOT
BRANCH   1   2
ATOM      2  C   UNL     1      45.591  27.558  -2.015  1.00  0.00     0.041 C 
ATOM      3  O   UNL     1      45.208  27.270  -0.850  1.00  0.00    -0.550 OA
ATOM      4  O   UNL     1      46.857  27.175  -2.438  1.00  0.00    -0.550 OA
ENDBRANCH   1   2
BRANCH   1   5
ATOM      5  C   UNL     1      43.796  27.249  -3.709  1.00  0.00     0.003 C 
ATOM      6  C   UNL     1      42.535  27.908  -4.261  1.00  0.00     0.004 C 
ENDBRANCH   1   5
TORSDOF 2
ENDMDL
