MODEL 1
REMARK VINA RESULT:     3.289      0.000      0.000
REMARK INTER + INTRA:           4.300
REMARK INTER:                   3.674
REMARK INTRA:                   0.626
REMARK UNBOUND:                 0.626
REMARK SMILES C=C(C)[C@H]1CC[C@@]2(C(=O)[O-])CC[C@@]3(C)[C@H](CC[C@H]4[C@]5(C)CCC(=O)C(C)(C)[C@@H]5CC[C@@]43C)[C@H]12
REMARK SMILES IDX 7 1 6 2 33 3 11 4 5 5 15 6 4 7 12 8 16 9 13 10 17 11 31 12
REMARK SMILES IDX 14 13 18 14 30 15 32 16 19 17 29 18 21 19 20 20 28 21 22 22
REMARK SMILES IDX 25 23 23 24 26 25 27 26 24 27 8 28 9 29 10 30 2 31 3 32 1 33
REMARK H PARENT
REMARK Flexibility Score: inf
ROOT
ATOM      1  C   UNL     1     -12.192  15.678 -33.131  1.00  0.00     0.014 C 
ATOM      2  C   UNL     1     -11.969  17.008 -33.874  1.00  0.00     0.014 C 
ATOM      3  C   UNL     1     -12.744  16.178 -31.794  1.00  0.00     0.012 C 
ATOM      4  C   UNL     1     -10.885  14.913 -32.818  1.00  0.00     0.014 C 
ATOM      5  C   UNL     1     -13.109  17.942 -33.410  1.00  0.00     0.009 C 
ATOM      6  C   UNL     1     -13.115  15.074 -30.761  1.00  0.00     0.000 C 
ATOM      7  C   UNL     1     -13.730  17.299 -32.146  1.00  0.00     0.018 C 
ATOM      8  C   UNL     1     -11.141  13.719 -31.866  1.00  0.00     0.008 C 
ATOM      9  C   UNL     1     -14.470  14.396 -31.011  1.00  0.00     0.005 C 
ATOM     10  C   UNL     1     -11.919  14.037 -30.520  1.00  0.00    -0.024 C 
ATOM     11  C   UNL     1     -14.900  13.497 -29.830  1.00  0.00     0.005 C 
ATOM     12  C   UNL     1     -12.462  12.664 -29.788  1.00  0.00    -0.024 C 
ATOM     13  C   UNL     1     -10.884  14.785 -29.610  1.00  0.00     0.012 C 
ATOM     14  C   UNL     1     -13.729  13.011 -28.915  1.00  0.00     0.002 C 
ATOM     15  C   UNL     1     -11.380  12.055 -28.845  1.00  0.00     0.008 C 
ATOM     16  C   UNL     1     -12.816  11.557 -30.841  1.00  0.00     0.012 C 
ATOM     17  C   UNL     1     -14.189  12.003 -27.740  1.00  0.00    -0.025 C 
ATOM     18  C   UNL     1     -11.877  10.877 -28.004  1.00  0.00     0.006 C 
ATOM     19  C   UNL     1     -15.044  12.803 -26.701  1.00  0.00     0.015 C 
ATOM     20  C   UNL     1     -15.141  10.875 -28.247  1.00  0.00     0.012 C 
ATOM     21  C   UNL     1     -12.966  11.303 -26.988  1.00  0.00     0.008 C 
ATOM     22  C   UNL     1     -14.271  13.888 -25.935  1.00  0.00     0.077 C 
ATOM     23  C   UNL     1     -12.440  12.028 -25.660  1.00  0.00     0.027 C 
ATOM     24  C   UNL     1     -12.842  13.496 -25.676  1.00  0.00     0.138 C 
ATOM     25  C   UNL     1     -10.909  11.892 -25.410  1.00  0.00     0.020 C 
ATOM     26  C   UNL     1     -13.093  11.379 -24.405  1.00  0.00     0.020 C 
ATOM     27  O   UNL     1     -12.032  14.376 -25.416  1.00  0.00    -0.299 OA
ENDROOT
BRANCH   1  28
ATOM     28  C   UNL     1     -13.171  14.832 -33.959  1.00  0.00     0.048 C 
ATOM     29  O   UNL     1     -12.744  13.944 -34.746  1.00  0.00    -0.550 OA
ATOM     30  O   UNL     1     -14.549  14.948 -33.795  1.00  0.00    -0.550 OA
ENDBRANCH   1  28
BRANCH   7  31
ATOM     31  C   UNL     1     -13.941  18.283 -30.999  1.00  0.00    -0.077 C 
ATOM     32  C   UNL     1     -13.793  19.774 -31.190  1.00  0.00     0.039 C 
ATOM     33  C   UNL     1     -14.209  17.819 -29.765  1.00  0.00     0.008 C 
ENDBRANCH   7  31
TORSDOF 2
ENDMDL
