MODEL 1
REMARK VINA RESULT:    -3.912      0.000      0.000
REMARK INTER + INTRA:          -6.630
REMARK INTER:                  -5.971
REMARK INTRA:                  -0.659
REMARK UNBOUND:                -0.659
REMARK SMILES OC[C@@H]1O[C@](CO)(O[C@@H]2O[C@H](CO)[C@@H](O)[C@@H](O)[C@@H]2O)[C@@H](O)[C@H]1O
REMARK SMILES IDX 8 1 9 2 11 3 14 4 10 5 16 6 18 7 12 8 13 9 15 11 17 13 19 15
REMARK SMILES IDX 5 17 20 18 4 19 22 20 3 21 6 22 7 23 21 25 23 27 2 29 1 30
REMARK H PARENT 13 10 15 12 17 14 19 16 7 24 21 26 23 28 1 31
REMARK Flexibility Score: inf
ROOT
ATOM      1  O   UNL     1     148.853 153.228 129.098  1.00  0.00    -0.313 OA
ENDROOT
BRANCH   1   2
ATOM      2  C   UNL     1     148.763 151.802 129.114  1.00  0.00     0.285 C 
ATOM      3  C   UNL     1     148.723 149.827 130.345  1.00  0.00     0.178 C 
ATOM      4  C   UNL     1     149.584 149.041 129.310  1.00  0.00     0.177 C 
ATOM      5  O   UNL     1     149.067 151.207 130.371  1.00  0.00    -0.341 OA
ATOM      6  C   UNL     1     150.459 150.000 128.474  1.00  0.00     0.179 C 
ATOM      7  C   UNL     1     149.632 151.194 127.970  1.00  0.00     0.202 C 
BRANCH   3   8
ATOM      8  C   UNL     1     148.873 149.247 131.755  1.00  0.00     0.191 C 
BRANCH   8   9
ATOM      9  O   UNL     1     147.812 149.669 132.564  1.00  0.00    -0.394 OA
ATOM     10  H   UNL     1     148.077 149.460 133.497  1.00  0.00     0.210 HD
ENDBRANCH   8   9
ENDBRANCH   3   8
BRANCH   4  11
ATOM     11  O   UNL     1     148.731 148.307 128.466  1.00  0.00    -0.387 OA
ATOM     12  H   UNL     1     148.848 148.663 127.547  1.00  0.00     0.211 HD
ENDBRANCH   4  11
BRANCH   6  13
ATOM     13  O   UNL     1     151.032 149.330 127.382  1.00  0.00    -0.387 OA
ATOM     14  H   UNL     1     150.303 148.815 126.947  1.00  0.00     0.211 HD
ENDBRANCH   6  13
BRANCH   7  15
ATOM     15  O   UNL     1     150.508 152.152 127.428  1.00  0.00    -0.385 OA
ATOM     16  H   UNL     1     149.975 152.710 126.802  1.00  0.00     0.211 HD
ENDBRANCH   7  15
ENDBRANCH   1   2
BRANCH   1  17
ATOM     17  C   UNL     1     147.652 153.997 129.113  1.00  0.00     0.224 C 
ATOM     18  C   UNL     1     147.943 155.511 129.131  1.00  0.00     0.208 C 
ATOM     19  O   UNL     1     146.859 153.696 130.244  1.00  0.00    -0.337 OA
ATOM     20  C   UNL     1     146.787 156.090 129.932  1.00  0.00     0.180 C 
ATOM     21  C   UNL     1     146.106 154.855 130.550  1.00  0.00     0.179 C 
BRANCH  17  22
ATOM     22  C   UNL     1     146.877 153.552 127.844  1.00  0.00     0.225 C 
BRANCH  22  23
ATOM     23  O   UNL     1     145.883 154.472 127.473  1.00  0.00    -0.391 OA
ATOM     24  H   UNL     1     146.339 155.245 127.051  1.00  0.00     0.210 HD
ENDBRANCH  22  23
ENDBRANCH  17  22
BRANCH  18  25
ATOM     25  O   UNL     1     148.040 156.055 127.838  1.00  0.00    -0.385 OA
ATOM     26  H   UNL     1     148.781 155.576 127.381  1.00  0.00     0.211 HD
ENDBRANCH  18  25
BRANCH  20  27
ATOM     27  O   UNL     1     145.875 156.781 129.116  1.00  0.00    -0.387 OA
ATOM     28  H   UNL     1     146.057 156.500 128.182  1.00  0.00     0.211 HD
ENDBRANCH  20  27
BRANCH  21  29
ATOM     29  C   UNL     1     145.943 154.995 132.066  1.00  0.00     0.191 C 
BRANCH  29  30
ATOM     30  O   UNL     1     146.107 156.334 132.442  1.00  0.00    -0.394 OA
ATOM     31  H   UNL     1     146.206 156.331 133.430  1.00  0.00     0.210 HD
ENDBRANCH  29  30
ENDBRANCH  21  29
ENDBRANCH   1  17
TORSDOF 13
ENDMDL
MODEL 2
REMARK VINA RESULT:    -3.911      2.109      3.315
REMARK INTER + INTRA:          -6.629
REMARK INTER:                  -5.532
REMARK INTRA:                  -1.097
REMARK UNBOUND:                -0.659
REMARK SMILES OC[C@@H]1O[C@](CO)(O[C@@H]2O[C@H](CO)[C@@H](O)[C@@H](O)[C@@H]2O)[C@@H](O)[C@H]1O
REMARK SMILES IDX 8 1 9 2 11 3 14 4 10 5 16 6 18 7 12 8 13 9 15 11 17 13 19 15
REMARK SMILES IDX 5 17 20 18 4 19 22 20 3 21 6 22 7 23 21 25 23 27 2 29 1 30
REMARK H PARENT 13 10 15 12 17 14 19 16 7 24 21 26 23 28 1 31
REMARK Flexibility Score: inf
ROOT
ATOM      1  O   UNL     1     149.927 151.740 128.791  1.00  0.00    -0.313 OA
ENDROOT
BRANCH   1   2
ATOM      2  C   UNL     1     149.632 150.394 129.165  1.00  0.00     0.285 C 
ATOM      3  C   UNL     1     149.037 148.879 130.829  1.00  0.00     0.178 C 
ATOM      4  C   UNL     1     149.984 147.761 130.296  1.00  0.00     0.177 C 
ATOM      5  O   UNL     1     149.562 150.175 130.570  1.00  0.00    -0.341 OA
ATOM      6  C   UNL     1     151.151 148.363 129.484  1.00  0.00     0.179 C 
ATOM      7  C   UNL     1     150.637 149.413 128.486  1.00  0.00     0.202 C 
BRANCH   3   8
ATOM      8  C   UNL     1     148.787 148.731 132.333  1.00  0.00     0.191 C 
BRANCH   8   9
ATOM      9  O   UNL     1     148.094 149.848 132.817  1.00  0.00    -0.394 OA
ATOM     10  H   UNL     1     147.643 150.253 132.032  1.00  0.00     0.210 HD
ENDBRANCH   8   9
ENDBRANCH   3   8
BRANCH   4  11
ATOM     11  O   UNL     1     149.243 146.875 129.493  1.00  0.00    -0.387 OA
ATOM     12  H   UNL     1     148.762 147.423 128.819  1.00  0.00     0.211 HD
ENDBRANCH   4  11
BRANCH   6  13
ATOM     13  O   UNL     1     151.849 147.360 128.794  1.00  0.00    -0.387 OA
ATOM     14  H   UNL     1     152.724 147.749 128.530  1.00  0.00     0.211 HD
ENDBRANCH   6  13
BRANCH   7  15
ATOM     15  O   UNL     1     151.739 150.099 127.946  1.00  0.00    -0.385 OA
ATOM     16  H   UNL     1     152.519 149.488 128.005  1.00  0.00     0.211 HD
ENDBRANCH   7  15
ENDBRANCH   1   2
BRANCH   1  17
ATOM     17  C   UNL     1     149.026 152.432 127.927  1.00  0.00     0.224 C 
ATOM     18  C   UNL     1     148.062 153.339 128.716  1.00  0.00     0.208 C 
ATOM     19  O   UNL     1     148.248 151.531 127.165  1.00  0.00    -0.337 OA
ATOM     20  C   UNL     1     146.786 153.312 127.888  1.00  0.00     0.180 C 
ATOM     21  C   UNL     1     147.022 152.177 126.875  1.00  0.00     0.179 C 
BRANCH  17  22
ATOM     22  C   UNL     1     149.938 153.229 126.956  1.00  0.00     0.225 C 
BRANCH  22  23
ATOM     23  O   UNL     1     151.303 152.989 127.183  1.00  0.00    -0.391 OA
ATOM     24  H   UNL     1     151.560 152.206 126.632  1.00  0.00     0.210 HD
ENDBRANCH  22  23
ENDBRANCH  17  22
BRANCH  18  25
ATOM     25  O   UNL     1     148.571 154.637 128.896  1.00  0.00    -0.385 OA
ATOM     26  H   UNL     1     148.390 155.135 128.055  1.00  0.00     0.211 HD
ENDBRANCH  18  25
BRANCH  20  27
ATOM     27  O   UNL     1     146.576 154.524 127.207  1.00  0.00    -0.387 OA
ATOM     28  H   UNL     1     147.318 154.620 126.556  1.00  0.00     0.211 HD
ENDBRANCH  20  27
BRANCH  21  29
ATOM     29  C   UNL     1     145.875 151.163 126.882  1.00  0.00     0.191 C 
BRANCH  29  30
ATOM     30  O   UNL     1     146.137 150.152 127.814  1.00  0.00    -0.394 OA
ATOM     31  H   UNL     1     146.381 150.614 128.659  1.00  0.00     0.210 HD
ENDBRANCH  29  30
ENDBRANCH  21  29
ENDBRANCH   1  17
TORSDOF 13
ENDMDL
MODEL 3
REMARK VINA RESULT:    -3.671      2.216      3.196
REMARK INTER + INTRA:          -6.261
REMARK INTER:                  -6.581
REMARK INTRA:                   0.320
REMARK UNBOUND:                -0.659
REMARK SMILES OC[C@@H]1O[C@](CO)(O[C@@H]2O[C@H](CO)[C@@H](O)[C@@H](O)[C@@H]2O)[C@@H](O)[C@H]1O
REMARK SMILES IDX 8 1 9 2 11 3 14 4 10 5 16 6 18 7 12 8 13 9 15 11 17 13 19 15
REMARK SMILES IDX 5 17 20 18 4 19 22 20 3 21 6 22 7 23 21 25 23 27 2 29 1 30
REMARK H PARENT 13 10 15 12 17 14 19 16 7 24 21 26 23 28 1 31
REMARK Flexibility Score: inf
ROOT
ATOM      1  O   UNL     1     148.789 150.465 127.285  1.00  0.00    -0.313 OA
ENDROOT
BRANCH   1   2
ATOM      2  C   UNL     1     149.546 149.388 127.840  1.00  0.00     0.285 C 
ATOM      3  C   UNL     1     149.934 147.943 129.623  1.00  0.00     0.178 C 
ATOM      4  C   UNL     1     151.484 148.001 129.469  1.00  0.00     0.177 C 
ATOM      5  O   UNL     1     149.324 149.166 129.229  1.00  0.00    -0.341 OA
ATOM      6  C   UNL     1     151.924 149.306 128.772  1.00  0.00     0.179 C 
ATOM      7  C   UNL     1     151.063 149.579 127.529  1.00  0.00     0.202 C 
BRANCH   3   8
ATOM      8  C   UNL     1     149.526 147.622 131.065  1.00  0.00     0.191 C 
BRANCH   8   9
ATOM      9  O   UNL     1     150.626 147.130 131.778  1.00  0.00    -0.394 OA
ATOM     10  H   UNL     1     151.316 147.843 131.746  1.00  0.00     0.210 HD
ENDBRANCH   8   9
ENDBRANCH   3   8
BRANCH   4  11
ATOM     11  O   UNL     1     151.913 146.887 128.724  1.00  0.00    -0.387 OA
ATOM     12  H   UNL     1     152.185 146.186 129.373  1.00  0.00     0.211 HD
ENDBRANCH   4  11
BRANCH   6  13
ATOM     13  O   UNL     1     153.277 149.244 128.403  1.00  0.00    -0.387 OA
ATOM     14  H   UNL     1     153.464 148.300 128.157  1.00  0.00     0.211 HD
ENDBRANCH   6  13
BRANCH   7  15
ATOM     15  O   UNL     1     151.332 150.880 127.070  1.00  0.00    -0.385 OA
ATOM     16  H   UNL     1     152.311 150.935 126.911  1.00  0.00     0.211 HD
ENDBRANCH   7  15
ENDBRANCH   1   2
BRANCH   1  17
ATOM     17  C   UNL     1     148.164 151.397 128.166  1.00  0.00     0.224 C 
ATOM     18  C   UNL     1     147.263 152.388 127.403  1.00  0.00     0.208 C 
ATOM     19  O   UNL     1     149.121 152.148 128.886  1.00  0.00    -0.337 OA
ATOM     20  C   UNL     1     147.367 153.668 128.217  1.00  0.00     0.180 C 
ATOM     21  C   UNL     1     148.530 153.400 129.188  1.00  0.00     0.179 C 
BRANCH  17  22
ATOM     22  C   UNL     1     147.371 150.523 129.175  1.00  0.00     0.225 C 
BRANCH  22  23
ATOM     23  O   UNL     1     146.325 149.814 128.563  1.00  0.00    -0.391 OA
ATOM     24  H   UNL     1     145.948 150.397 127.855  1.00  0.00     0.210 HD
ENDBRANCH  22  23
ENDBRANCH  17  22
BRANCH  18  25
ATOM     25  O   UNL     1     145.941 151.925 127.276  1.00  0.00    -0.385 OA
ATOM     26  H   UNL     1     145.371 152.725 127.127  1.00  0.00     0.211 HD
ENDBRANCH  18  25
BRANCH  20  27
ATOM     27  O   UNL     1     146.190 153.928 128.941  1.00  0.00    -0.387 OA
ATOM     28  H   UNL     1     146.385 154.695 129.539  1.00  0.00     0.211 HD
ENDBRANCH  20  27
BRANCH  21  29
ATOM     29  C   UNL     1     149.584 154.509 129.133  1.00  0.00     0.191 C 
BRANCH  29  30
ATOM     30  O   UNL     1     149.011 155.731 129.504  1.00  0.00    -0.394 OA
ATOM     31  H   UNL     1     148.192 155.829 128.952  1.00  0.00     0.210 HD
ENDBRANCH  29  30
ENDBRANCH  21  29
ENDBRANCH   1  17
TORSDOF 13
ENDMDL
MODEL 4
REMARK VINA RESULT:    -3.666      1.907      4.176
REMARK INTER + INTRA:          -6.253
REMARK INTER:                  -5.762
REMARK INTRA:                  -0.491
REMARK UNBOUND:                -0.659
REMARK SMILES OC[C@@H]1O[C@](CO)(O[C@@H]2O[C@H](CO)[C@@H](O)[C@@H](O)[C@@H]2O)[C@@H](O)[C@H]1O
REMARK SMILES IDX 8 1 9 2 11 3 14 4 10 5 16 6 18 7 12 8 13 9 15 11 17 13 19 15
REMARK SMILES IDX 5 17 20 18 4 19 22 20 3 21 6 22 7 23 21 25 23 27 2 29 1 30
REMARK H PARENT 13 10 15 12 17 14 19 16 7 24 21 26 23 28 1 31
REMARK Flexibility Score: inf
ROOT
ATOM      1  O   UNL     1     148.183 150.620 130.444  1.00  0.00    -0.313 OA
ENDROOT
BRANCH   1   2
ATOM      2  C   UNL     1     149.186 149.604 130.486  1.00  0.00     0.285 C 
ATOM      3  C   UNL     1     150.238 147.805 129.450  1.00  0.00     0.178 C 
ATOM      4  C   UNL     1     150.381 146.991 130.772  1.00  0.00     0.177 C 
ATOM      5  O   UNL     1     149.073 148.622 129.463  1.00  0.00    -0.341 OA
ATOM      6  C   UNL     1     149.315 147.418 131.804  1.00  0.00     0.179 C 
ATOM      7  C   UNL     1     149.231 148.949 131.902  1.00  0.00     0.202 C 
BRANCH   3   8
ATOM      8  C   UNL     1     150.189 146.883 128.227  1.00  0.00     0.191 C 
BRANCH   8   9
ATOM      9  O   UNL     1     149.885 147.624 127.078  1.00  0.00    -0.394 OA
ATOM     10  H   UNL     1     150.755 147.863 126.667  1.00  0.00     0.210 HD
ENDBRANCH   8   9
ENDBRANCH   3   8
BRANCH   4  11
ATOM     11  O   UNL     1     151.671 147.194 131.297  1.00  0.00    -0.387 OA
ATOM     12  H   UNL     1     152.290 147.290 130.527  1.00  0.00     0.211 HD
ENDBRANCH   4  11
BRANCH   6  13
ATOM     13  O   UNL     1     149.601 146.880 133.069  1.00  0.00    -0.387 OA
ATOM     14  H   UNL     1     149.299 147.547 133.739  1.00  0.00     0.211 HD
ENDBRANCH   6  13
BRANCH   7  15
ATOM     15  O   UNL     1     148.099 149.291 132.662  1.00  0.00    -0.385 OA
ATOM     16  H   UNL     1     147.752 148.451 133.060  1.00  0.00     0.211 HD
ENDBRANCH   7  15
ENDBRANCH   1   2
BRANCH   1  17
ATOM     17  C   UNL     1     148.110 151.474 129.304  1.00  0.00     0.224 C 
ATOM     18  C   UNL     1     149.507 151.929 128.841  1.00  0.00     0.208 C 
ATOM     19  O   UNL     1     147.344 152.631 129.574  1.00  0.00    -0.337 OA
ATOM     20  C   UNL     1     149.263 153.323 128.281  1.00  0.00     0.180 C 
ATOM     21  C   UNL     1     147.832 153.662 128.734  1.00  0.00     0.179 C 
BRANCH  17  22
ATOM     22  C   UNL     1     147.366 150.638 128.227  1.00  0.00     0.225 C 
BRANCH  22  23
ATOM     23  O   UNL     1     146.271 149.935 128.756  1.00  0.00    -0.391 OA
ATOM     24  H   UNL     1     146.006 150.391 129.596  1.00  0.00     0.210 HD
ENDBRANCH  22  23
ENDBRANCH  17  22
BRANCH  18  25
ATOM     25  O   UNL     1     150.074 151.052 127.899  1.00  0.00    -0.385 OA
ATOM     26  H   UNL     1     149.938 150.132 128.248  1.00  0.00     0.211 HD
ENDBRANCH  18  25
BRANCH  20  27
ATOM     27  O   UNL     1     149.338 153.346 126.878  1.00  0.00    -0.387 OA
ATOM     28  H   UNL     1     150.301 153.312 126.641  1.00  0.00     0.211 HD
ENDBRANCH  20  27
BRANCH  21  29
ATOM     29  C   UNL     1     147.770 155.008 129.460  1.00  0.00     0.191 C 
BRANCH  29  30
ATOM     30  O   UNL     1     148.999 155.670 129.345  1.00  0.00    -0.394 OA
ATOM     31  H   UNL     1     148.783 156.608 129.100  1.00  0.00     0.210 HD
ENDBRANCH  29  30
ENDBRANCH  21  29
ENDBRANCH   1  17
TORSDOF 13
ENDMDL
MODEL 5
REMARK VINA RESULT:    -3.327      1.770      3.845
REMARK INTER + INTRA:          -5.736
REMARK INTER:                  -5.515
REMARK INTRA:                  -0.222
REMARK UNBOUND:                -0.659
REMARK SMILES OC[C@@H]1O[C@](CO)(O[C@@H]2O[C@H](CO)[C@@H](O)[C@@H](O)[C@@H]2O)[C@@H](O)[C@H]1O
REMARK SMILES IDX 8 1 9 2 11 3 14 4 10 5 16 6 18 7 12 8 13 9 15 11 17 13 19 15
REMARK SMILES IDX 5 17 20 18 4 19 22 20 3 21 6 22 7 23 21 25 23 27 2 29 1 30
REMARK H PARENT 13 10 15 12 17 14 19 16 7 24 21 26 23 28 1 31
REMARK Flexibility Score: inf
ROOT
ATOM      1  O   UNL     1     148.691 152.171 130.375  1.00  0.00    -0.313 OA
ENDROOT
BRANCH   1   2
ATOM      2  C   UNL     1     149.351 150.912 130.231  1.00  0.00     0.285 C 
ATOM      3  C   UNL     1     149.867 149.080 128.890  1.00  0.00     0.178 C 
ATOM      4  C   UNL     1     149.718 148.054 130.054  1.00  0.00     0.177 C 
ATOM      5  O   UNL     1     148.993 150.190 129.057  1.00  0.00    -0.341 OA
ATOM      6  C   UNL     1     148.786 148.599 131.158  1.00  0.00     0.179 C 
ATOM      7  C   UNL     1     149.151 150.048 131.514  1.00  0.00     0.202 C 
BRANCH   3   8
ATOM      8  C   UNL     1     149.594 148.429 127.530  1.00  0.00     0.191 C 
BRANCH   8   9
ATOM      9  O   UNL     1     148.385 148.902 127.006  1.00  0.00    -0.394 OA
ATOM     10  H   UNL     1     147.667 148.482 127.547  1.00  0.00     0.210 HD
ENDBRANCH   8   9
ENDBRANCH   3   8
BRANCH   4  11
ATOM     11  O   UNL     1     150.990 147.777 130.587  1.00  0.00    -0.387 OA
ATOM     12  H   UNL     1     151.091 146.790 130.608  1.00  0.00     0.211 HD
ENDBRANCH   4  11
BRANCH   6  13
ATOM     13  O   UNL     1     148.856 147.799 132.310  1.00  0.00    -0.387 OA
ATOM     14  H   UNL     1     149.794 147.844 132.634  1.00  0.00     0.211 HD
ENDBRANCH   6  13
BRANCH   7  15
ATOM     15  O   UNL     1     148.142 150.579 132.337  1.00  0.00    -0.385 OA
ATOM     16  H   UNL     1     147.677 151.281 131.811  1.00  0.00     0.211 HD
ENDBRANCH   7  15
ENDBRANCH   1   2
BRANCH   1  17
ATOM     17  C   UNL     1     148.270 152.870 129.205  1.00  0.00     0.224 C 
ATOM     18  C   UNL     1     147.066 153.789 129.491  1.00  0.00     0.208 C 
ATOM     19  O   UNL     1     147.897 151.975 128.176  1.00  0.00    -0.337 OA
ATOM     20  C   UNL     1     146.285 153.774 128.186  1.00  0.00     0.180 C 
ATOM     21  C   UNL     1     146.930 152.634 127.377  1.00  0.00     0.179 C 
BRANCH  17  22
ATOM     22  C   UNL     1     149.524 153.655 128.736  1.00  0.00     0.225 C 
BRANCH  22  23
ATOM     23  O   UNL     1     150.332 152.904 127.867  1.00  0.00    -0.391 OA
ATOM     24  H   UNL     1     151.014 152.445 128.422  1.00  0.00     0.210 HD
ENDBRANCH  22  23
ENDBRANCH  17  22
BRANCH  18  25
ATOM     25  O   UNL     1     147.458 155.082 129.880  1.00  0.00    -0.385 OA
ATOM     26  H   UNL     1     146.907 155.718 129.351  1.00  0.00     0.211 HD
ENDBRANCH  18  25
BRANCH  20  27
ATOM     27  O   UNL     1     146.408 154.986 127.485  1.00  0.00    -0.387 OA
ATOM     28  H   UNL     1     146.928 154.791 126.663  1.00  0.00     0.211 HD
ENDBRANCH  20  27
BRANCH  21  29
ATOM     29  C   UNL     1     145.887 151.632 126.876  1.00  0.00     0.191 C 
BRANCH  29  30
ATOM     30  O   UNL     1     145.966 150.448 127.619  1.00  0.00    -0.394 OA
ATOM     31  H   UNL     1     145.183 150.454 128.230  1.00  0.00     0.210 HD
ENDBRANCH  29  30
ENDBRANCH  21  29
ENDBRANCH   1  17
TORSDOF 13
ENDMDL
MODEL 6
REMARK VINA RESULT:    -3.184      1.699      2.961
REMARK INTER + INTRA:          -5.518
REMARK INTER:                  -5.416
REMARK INTRA:                  -0.102
REMARK UNBOUND:                -0.659
REMARK SMILES OC[C@@H]1O[C@](CO)(O[C@@H]2O[C@H](CO)[C@@H](O)[C@@H](O)[C@@H]2O)[C@@H](O)[C@H]1O
REMARK SMILES IDX 8 1 9 2 11 3 14 4 10 5 16 6 18 7 12 8 13 9 15 11 17 13 19 15
REMARK SMILES IDX 5 17 20 18 4 19 22 20 3 21 6 22 7 23 21 25 23 27 2 29 1 30
REMARK H PARENT 13 10 15 12 17 14 19 16 7 24 21 26 23 28 1 31
REMARK Flexibility Score: inf
ROOT
ATOM      1  O   UNL     1     147.564 151.927 129.538  1.00  0.00    -0.313 OA
ENDROOT
BRANCH   1   2
ATOM      2  C   UNL     1     148.550 150.957 129.177  1.00  0.00     0.285 C 
ATOM      3  C   UNL     1     150.462 150.424 127.963  1.00  0.00     0.178 C 
ATOM      4  C   UNL     1     149.963 148.992 127.605  1.00  0.00     0.177 C 
ATOM      5  O   UNL     1     149.380 151.339 128.086  1.00  0.00    -0.341 OA
ATOM      6  C   UNL     1     148.422 148.915 127.647  1.00  0.00     0.179 C 
ATOM      7  C   UNL     1     147.877 149.573 128.925  1.00  0.00     0.202 C 
BRANCH   3   8
ATOM      8  C   UNL     1     151.447 150.953 126.915  1.00  0.00     0.191 C 
BRANCH   8   9
ATOM      9  O   UNL     1     151.477 152.353 126.946  1.00  0.00    -0.394 OA
ATOM     10  H   UNL     1     150.864 152.657 126.227  1.00  0.00     0.210 HD
ENDBRANCH   8   9
ENDBRANCH   3   8
BRANCH   4  11
ATOM     11  O   UNL     1     150.518 148.072 128.514  1.00  0.00    -0.387 OA
ATOM     12  H   UNL     1     151.068 148.591 129.158  1.00  0.00     0.211 HD
ENDBRANCH   4  11
BRANCH   6  13
ATOM     13  O   UNL     1     147.986 147.581 127.582  1.00  0.00    -0.387 OA
ATOM     14  H   UNL     1     148.028 147.312 126.627  1.00  0.00     0.211 HD
ENDBRANCH   6  13
BRANCH   7  15
ATOM     15  O   UNL     1     146.481 149.695 128.809  1.00  0.00    -0.385 OA
ATOM     16  H   UNL     1     146.292 150.636 128.553  1.00  0.00     0.211 HD
ENDBRANCH   7  15
ENDBRANCH   1   2
BRANCH   1  17
ATOM     17  C   UNL     1     147.620 153.224 128.945  1.00  0.00     0.224 C 
ATOM     18  C   UNL     1     148.795 154.054 129.498  1.00  0.00     0.208 C 
ATOM     19  O   UNL     1     146.429 153.949 129.179  1.00  0.00    -0.337 OA
ATOM     20  C   UNL     1     148.274 155.483 129.460  1.00  0.00     0.180 C 
ATOM     21  C   UNL     1     146.769 155.324 129.179  1.00  0.00     0.179 C 
BRANCH  17  22
ATOM     22  C   UNL     1     147.738 152.961 127.420  1.00  0.00     0.225 C 
BRANCH  22  23
ATOM     23  O   UNL     1     146.626 152.272 126.908  1.00  0.00    -0.391 OA
ATOM     24  H   UNL     1     145.990 152.952 126.566  1.00  0.00     0.210 HD
ENDBRANCH  22  23
ENDBRANCH  17  22
BRANCH  18  25
ATOM     25  O   UNL     1     149.974 153.880 128.750  1.00  0.00    -0.385 OA
ATOM     26  H   UNL     1     150.646 154.507 129.128  1.00  0.00     0.211 HD
ENDBRANCH  18  25
BRANCH  20  27
ATOM     27  O   UNL     1     148.876 156.235 128.436  1.00  0.00    -0.387 OA
ATOM     28  H   UNL     1     148.277 157.005 128.256  1.00  0.00     0.211 HD
ENDBRANCH  20  27
BRANCH  21  29
ATOM     29  C   UNL     1     145.917 156.079 130.202  1.00  0.00     0.191 C 
BRANCH  29  30
ATOM     30  O   UNL     1     146.400 155.840 131.495  1.00  0.00    -0.394 OA
ATOM     31  H   UNL     1     145.789 156.324 132.110  1.00  0.00     0.210 HD
ENDBRANCH  29  30
ENDBRANCH  21  29
ENDBRANCH   1  17
TORSDOF 13
ENDMDL
MODEL 7
REMARK VINA RESULT:    -3.092      1.574      3.145
REMARK INTER + INTRA:          -5.379
REMARK INTER:                  -5.413
REMARK INTRA:                   0.034
REMARK UNBOUND:                -0.659
REMARK SMILES OC[C@@H]1O[C@](CO)(O[C@@H]2O[C@H](CO)[C@@H](O)[C@@H](O)[C@@H]2O)[C@@H](O)[C@H]1O
REMARK SMILES IDX 8 1 9 2 11 3 14 4 10 5 16 6 18 7 12 8 13 9 15 11 17 13 19 15
REMARK SMILES IDX 5 17 20 18 4 19 22 20 3 21 6 22 7 23 21 25 23 27 2 29 1 30
REMARK H PARENT 13 10 15 12 17 14 19 16 7 24 21 26 23 28 1 31
REMARK Flexibility Score: inf
ROOT
ATOM      1  O   UNL     1     147.379 151.477 128.984  1.00  0.00    -0.313 OA
ENDROOT
BRANCH   1   2
ATOM      2  C   UNL     1     148.461 150.544 128.987  1.00  0.00     0.285 C 
ATOM      3  C   UNL     1     149.457 148.652 128.068  1.00  0.00     0.178 C 
ATOM      4  C   UNL     1     149.922 148.097 129.448  1.00  0.00     0.177 C 
ATOM      5  O   UNL     1     148.246 149.390 128.182  1.00  0.00    -0.341 OA
ATOM      6  C   UNL     1     149.036 148.639 130.591  1.00  0.00     0.179 C 
ATOM      7  C   UNL     1     148.833 150.156 130.452  1.00  0.00     0.202 C 
BRANCH   3   8
ATOM      8  C   UNL     1     149.262 147.526 127.048  1.00  0.00     0.191 C 
BRANCH   8   9
ATOM      9  O   UNL     1     147.898 147.241 126.902  1.00  0.00    -0.394 OA
ATOM     10  H   UNL     1     147.430 147.776 127.593  1.00  0.00     0.210 HD
ENDBRANCH   8   9
ENDBRANCH   3   8
BRANCH   4  11
ATOM     11  O   UNL     1     151.263 148.463 129.662  1.00  0.00    -0.387 OA
ATOM     12  H   UNL     1     151.309 149.453 129.610  1.00  0.00     0.211 HD
ENDBRANCH   4  11
BRANCH   6  13
ATOM     13  O   UNL     1     149.604 148.352 131.842  1.00  0.00    -0.387 OA
ATOM     14  H   UNL     1     150.096 147.496 131.744  1.00  0.00     0.211 HD
ENDBRANCH   6  13
BRANCH   7  15
ATOM     15  O   UNL     1     147.838 150.563 131.359  1.00  0.00    -0.385 OA
ATOM     16  H   UNL     1     148.231 150.499 132.269  1.00  0.00     0.211 HD
ENDBRANCH   7  15
ENDBRANCH   1   2
BRANCH   1  17
ATOM     17  C   UNL     1     147.627 152.822 128.579  1.00  0.00     0.224 C 
ATOM     18  C   UNL     1     148.727 153.483 129.433  1.00  0.00     0.208 C 
ATOM     19  O   UNL     1     146.462 153.616 128.685  1.00  0.00    -0.337 OA
ATOM     20  C   UNL     1     148.313 154.946 129.483  1.00  0.00     0.180 C 
ATOM     21  C   UNL     1     146.882 154.949 128.918  1.00  0.00     0.179 C 
BRANCH  17  22
ATOM     22  C   UNL     1     148.013 152.723 127.079  1.00  0.00     0.225 C 
BRANCH  22  23
ATOM     23  O   UNL     1     149.180 151.969 126.875  1.00  0.00    -0.391 OA
ATOM     24  H   UNL     1     149.624 151.868 127.757  1.00  0.00     0.210 HD
ENDBRANCH  22  23
ENDBRANCH  17  22
BRANCH  18  25
ATOM     25  O   UNL     1     150.012 153.294 128.894  1.00  0.00    -0.385 OA
ATOM     26  H   UNL     1     150.445 154.188 128.869  1.00  0.00     0.211 HD
ENDBRANCH  18  25
BRANCH  20  27
ATOM     27  O   UNL     1     149.143 155.754 128.686  1.00  0.00    -0.387 OA
ATOM     28  H   UNL     1     148.729 156.655 128.662  1.00  0.00     0.211 HD
ENDBRANCH  20  27
BRANCH  21  29
ATOM     29  C   UNL     1     145.901 155.654 129.858  1.00  0.00     0.191 C 
BRANCH  29  30
ATOM     30  O   UNL     1     146.508 155.878 131.100  1.00  0.00    -0.394 OA
ATOM     31  H   UNL     1     147.487 155.817 130.943  1.00  0.00     0.210 HD
ENDBRANCH  29  30
ENDBRANCH  21  29
ENDBRANCH   1  17
TORSDOF 13
ENDMDL
MODEL 8
REMARK VINA RESULT:    -2.620      1.585      2.618
REMARK INTER + INTRA:          -4.658
REMARK INTER:                  -5.545
REMARK INTRA:                   0.887
REMARK UNBOUND:                -0.659
REMARK SMILES OC[C@@H]1O[C@](CO)(O[C@@H]2O[C@H](CO)[C@@H](O)[C@@H](O)[C@@H]2O)[C@@H](O)[C@H]1O
REMARK SMILES IDX 8 1 9 2 11 3 14 4 10 5 16 6 18 7 12 8 13 9 15 11 17 13 19 15
REMARK SMILES IDX 5 17 20 18 4 19 22 20 3 21 6 22 7 23 21 25 23 27 2 29 1 30
REMARK H PARENT 13 10 15 12 17 14 19 16 7 24 21 26 23 28 1 31
REMARK Flexibility Score: inf
ROOT
ATOM      1  O   UNL     1     147.111 150.941 128.430  1.00  0.00    -0.313 OA
ENDROOT
BRANCH   1   2
ATOM      2  C   UNL     1     147.546 150.165 129.548  1.00  0.00     0.285 C 
ATOM      3  C   UNL     1     148.119 150.074 131.802  1.00  0.00     0.178 C 
ATOM      4  C   UNL     1     149.296 149.078 131.571  1.00  0.00     0.177 C 
ATOM      5  O   UNL     1     147.933 150.932 130.683  1.00  0.00    -0.341 OA
ATOM      6  C   UNL     1     149.831 149.178 130.126  1.00  0.00     0.179 C 
ATOM      7  C   UNL     1     148.675 149.179 129.114  1.00  0.00     0.202 C 
BRANCH   3   8
ATOM      8  C   UNL     1     148.346 150.927 133.054  1.00  0.00     0.191 C 
BRANCH   8   9
ATOM      9  O   UNL     1     149.251 150.290 133.913  1.00  0.00    -0.394 OA
ATOM     10  H   UNL     1     149.012 150.582 134.830  1.00  0.00     0.210 HD
ENDBRANCH   8   9
ENDBRANCH   3   8
BRANCH   4  11
ATOM     11  O   UNL     1     148.847 147.770 131.831  1.00  0.00    -0.387 OA
ATOM     12  H   UNL     1     149.581 147.296 132.303  1.00  0.00     0.211 HD
ENDBRANCH   4  11
BRANCH   6  13
ATOM     13  O   UNL     1     150.704 148.115 129.842  1.00  0.00    -0.387 OA
ATOM     14  H   UNL     1     150.343 147.316 130.308  1.00  0.00     0.211 HD
ENDBRANCH   6  13
BRANCH   7  15
ATOM     15  O   UNL     1     149.185 149.511 127.846  1.00  0.00    -0.385 OA
ATOM     16  H   UNL     1     149.242 150.502 127.806  1.00  0.00     0.211 HD
ENDBRANCH   7  15
ENDBRANCH   1   2
BRANCH   1  17
ATOM     17  C   UNL     1     147.549 152.294 128.315  1.00  0.00     0.224 C 
ATOM     18  C   UNL     1     148.581 152.655 129.401  1.00  0.00     0.208 C 
ATOM     19  O   UNL     1     146.468 153.198 128.426  1.00  0.00    -0.337 OA
ATOM     20  C   UNL     1     148.317 154.128 129.672  1.00  0.00     0.180 C 
ATOM     21  C   UNL     1     146.986 154.407 128.951  1.00  0.00     0.179 C 
BRANCH  17  22
ATOM     22  C   UNL     1     148.129 152.403 126.879  1.00  0.00     0.225 C 
BRANCH  22  23
ATOM     23  O   UNL     1     149.524 152.561 126.875  1.00  0.00    -0.391 OA
ATOM     24  H   UNL     1     149.765 153.078 127.687  1.00  0.00     0.210 HD
ENDBRANCH  22  23
ENDBRANCH  17  22
BRANCH  18  25
ATOM     25  O   UNL     1     149.903 152.401 128.993  1.00  0.00    -0.385 OA
ATOM     26  H   UNL     1     150.157 151.522 129.378  1.00  0.00     0.211 HD
ENDBRANCH  18  25
BRANCH  20  27
ATOM     27  O   UNL     1     149.328 154.949 129.143  1.00  0.00    -0.387 OA
ATOM     28  H   UNL     1     149.945 155.162 129.890  1.00  0.00     0.211 HD
ENDBRANCH  20  27
BRANCH  21  29
ATOM     29  C   UNL     1     145.961 155.060 129.883  1.00  0.00     0.191 C 
BRANCH  29  30
ATOM     30  O   UNL     1     146.614 155.881 130.811  1.00  0.00    -0.394 OA
ATOM     31  H   UNL     1     145.913 156.199 131.437  1.00  0.00     0.210 HD
ENDBRANCH  29  30
ENDBRANCH  21  29
ENDBRANCH   1  17
TORSDOF 13
ENDMDL
MODEL 9
REMARK VINA RESULT:    -2.373      3.227      6.214
REMARK INTER + INTRA:          -4.280
REMARK INTER:                  -3.232
REMARK INTRA:                  -1.048
REMARK UNBOUND:                -0.659
REMARK SMILES OC[C@@H]1O[C@](CO)(O[C@@H]2O[C@H](CO)[C@@H](O)[C@@H](O)[C@@H]2O)[C@@H](O)[C@H]1O
REMARK SMILES IDX 8 1 9 2 11 3 14 4 10 5 16 6 18 7 12 8 13 9 15 11 17 13 19 15
REMARK SMILES IDX 5 17 20 18 4 19 22 20 3 21 6 22 7 23 21 25 23 27 2 29 1 30
REMARK H PARENT 13 10 15 12 17 14 19 16 7 24 21 26 23 28 1 31
REMARK Flexibility Score: inf
ROOT
ATOM      1  O   UNL     1     149.037 148.029 131.032  1.00  0.00    -0.313 OA
ENDROOT
BRANCH   1   2
ATOM      2  C   UNL     1     149.603 148.823 132.076  1.00  0.00     0.285 C 
ATOM      3  C   UNL     1     150.685 148.921 134.134  1.00  0.00     0.178 C 
ATOM      4  C   UNL     1     149.864 150.151 134.626  1.00  0.00     0.177 C 
ATOM      5  O   UNL     1     149.922 148.099 133.259  1.00  0.00    -0.341 OA
ATOM      6  C   UNL     1     148.504 150.236 133.900  1.00  0.00     0.179 C 
ATOM      7  C   UNL     1     148.681 150.043 132.385  1.00  0.00     0.202 C 
BRANCH   3   8
ATOM      8  C   UNL     1     151.183 148.073 135.310  1.00  0.00     0.191 C 
BRANCH   8   9
ATOM      9  O   UNL     1     151.389 148.884 136.433  1.00  0.00    -0.394 OA
ATOM     10  H   UNL     1     151.254 148.298 137.223  1.00  0.00     0.210 HD
ENDBRANCH   8   9
ENDBRANCH   3   8
BRANCH   4  11
ATOM     11  O   UNL     1     150.609 151.322 134.396  1.00  0.00    -0.387 OA
ATOM     12  H   UNL     1     151.178 151.156 133.599  1.00  0.00     0.211 HD
ENDBRANCH   4  11
BRANCH   6  13
ATOM     13  O   UNL     1     147.882 151.471 134.147  1.00  0.00    -0.387 OA
ATOM     14  H   UNL     1     148.452 152.168 133.728  1.00  0.00     0.211 HD
ENDBRANCH   6  13
BRANCH   7  15
ATOM     15  O   UNL     1     147.412 149.888 131.800  1.00  0.00    -0.385 OA
ATOM     16  H   UNL     1     147.335 150.576 131.088  1.00  0.00     0.211 HD
ENDBRANCH   7  15
ENDBRANCH   1   2
BRANCH   1  17
ATOM     17  C   UNL     1     149.284 148.394 129.675  1.00  0.00     0.224 C 
ATOM     18  C   UNL     1     150.619 149.146 129.519  1.00  0.00     0.208 C 
ATOM     19  O   UNL     1     148.257 149.223 129.168  1.00  0.00    -0.337 OA
ATOM     20  C   UNL     1     150.358 150.108 128.369  1.00  0.00     0.180 C 
ATOM     21  C   UNL     1     148.834 150.039 128.164  1.00  0.00     0.179 C 
BRANCH  17  22
ATOM     22  C   UNL     1     149.257 147.054 128.891  1.00  0.00     0.225 C 
BRANCH  22  23
ATOM     23  O   UNL     1     148.117 146.929 128.081  1.00  0.00    -0.391 OA
ATOM     24  H   UNL     1     148.125 147.687 127.441  1.00  0.00     0.210 HD
ENDBRANCH  22  23
ENDBRANCH  17  22
BRANCH  18  25
ATOM     25  O   UNL     1     151.700 148.280 129.273  1.00  0.00    -0.385 OA
ATOM     26  H   UNL     1     151.963 147.896 130.151  1.00  0.00     0.211 HD
ENDBRANCH  18  25
BRANCH  20  27
ATOM     27  O   UNL     1     151.017 149.711 127.192  1.00  0.00    -0.387 OA
ATOM     28  H   UNL     1     151.545 148.902 127.418  1.00  0.00     0.211 HD
ENDBRANCH  20  27
BRANCH  21  29
ATOM     29  C   UNL     1     148.195 151.430 128.181  1.00  0.00     0.191 C 
BRANCH  29  30
ATOM     30  O   UNL     1     147.374 151.564 129.308  1.00  0.00    -0.394 OA
ATOM     31  H   UNL     1     146.454 151.346 129.004  1.00  0.00     0.210 HD
ENDBRANCH  29  30
ENDBRANCH  21  29
ENDBRANCH   1  17
TORSDOF 13
ENDMDL
