MODEL 1
REMARK VINA RESULT:    -3.848      0.000      0.000
REMARK INTER + INTRA:          -5.011
REMARK INTER:                  -4.523
REMARK INTRA:                  -0.487
REMARK UNBOUND:                -0.487
REMARK SMILES C=CC(C)=CCC=C(C)C
REMARK SMILES IDX 5 1 3 2 4 3 6 4 7 5 9 6 8 7 10 8 2 9 1 10
REMARK H PARENT
REMARK Flexibility Score: inf
ROOT
ATOM      1  C   UNL     1       1.156  13.812  18.265  1.00  0.00    -0.020 C 
ATOM      2  C   UNL     1       0.286  12.896  17.792  1.00  0.00    -0.055 C 
ATOM      3  C   UNL     1       0.111  12.645  16.310  1.00  0.00     0.044 C 
ENDROOT
BRANCH   1   4
ATOM      4  C   UNL     1       2.066  14.660  17.416  1.00  0.00     0.055 C 
BRANCH   4   5
ATOM      5  C   UNL     1       1.436  15.989  17.075  1.00  0.00    -0.024 C 
ATOM      6  C   UNL     1       1.589  15.617  14.604  1.00  0.00     0.039 C 
ATOM      7  C   UNL     1       1.218  16.434  15.818  1.00  0.00    -0.080 C 
ATOM      8  C   UNL     1       0.595  17.794  15.636  1.00  0.00     0.039 C 
ENDBRANCH   4   5
ENDBRANCH   1   4
BRANCH   2   9
ATOM      9  C   UNL     1      -0.572  12.185  18.775  1.00  0.00    -0.005 C 
ATOM     10  C   UNL     1      -1.054  12.751  19.883  1.00  0.00     0.009 C 
ENDBRANCH   2   9
TORSDOF 3
ENDMDL
MODEL 2
REMARK VINA RESULT:    -3.762      2.687      4.572
REMARK INTER + INTRA:          -4.909
REMARK INTER:                  -4.427
REMARK INTRA:                  -0.482
REMARK UNBOUND:                -0.487
REMARK SMILES C=CC(C)=CCC=C(C)C
REMARK SMILES IDX 5 1 3 2 4 3 6 4 7 5 9 6 8 7 10 8 2 9 1 10
REMARK H PARENT
REMARK Flexibility Score: inf
ROOT
ATOM      1  C   UNL     1       1.998  15.507  14.183  1.00  0.00    -0.020 C 
ATOM      2  C   UNL     1       2.559  14.319  14.492  1.00  0.00    -0.055 C 
ATOM      3  C   UNL     1       2.150  13.534  15.719  1.00  0.00     0.044 C 
ENDROOT
BRANCH   1   4
ATOM      4  C   UNL     1       0.905  16.179  14.971  1.00  0.00     0.055 C 
BRANCH   4   5
ATOM      5  C   UNL     1       1.371  17.478  15.581  1.00  0.00    -0.024 C 
ATOM      6  C   UNL     1       1.829  16.455  17.821  1.00  0.00     0.039 C 
ATOM      7  C   UNL     1       1.787  17.619  16.859  1.00  0.00    -0.080 C 
ATOM      8  C   UNL     1       2.207  18.987  17.331  1.00  0.00     0.039 C 
ENDBRANCH   4   5
ENDBRANCH   1   4
BRANCH   2   9
ATOM      9  C   UNL     1       3.664  13.830  13.628  1.00  0.00    -0.005 C 
ATOM     10  C   UNL     1       4.130  14.500  12.572  1.00  0.00     0.009 C 
ENDBRANCH   2   9
TORSDOF 3
ENDMDL
MODEL 3
REMARK VINA RESULT:    -3.761      2.699      4.635
REMARK INTER + INTRA:          -4.908
REMARK INTER:                  -4.471
REMARK INTRA:                  -0.438
REMARK UNBOUND:                -0.487
REMARK SMILES C=CC(C)=CCC=C(C)C
REMARK SMILES IDX 5 1 3 2 4 3 6 4 7 5 9 6 8 7 10 8 2 9 1 10
REMARK H PARENT
REMARK Flexibility Score: inf
ROOT
ATOM      1  C   UNL     1       1.851  15.588  16.621  1.00  0.00    -0.020 C 
ATOM      2  C   UNL     1       1.496  16.887  16.527  1.00  0.00    -0.055 C 
ATOM      3  C   UNL     1       0.685  17.415  15.364  1.00  0.00     0.044 C 
ENDROOT
BRANCH   1   4
ATOM      4  C   UNL     1       1.475  14.515  15.633  1.00  0.00     0.055 C 
BRANCH   4   5
ATOM      5  C   UNL     1       2.688  13.934  14.949  1.00  0.00    -0.024 C 
ATOM      6  C   UNL     1       2.504  15.451  12.965  1.00  0.00     0.039 C 
ATOM      7  C   UNL     1       3.162  14.341  13.750  1.00  0.00    -0.080 C 
ATOM      8  C   UNL     1       4.376  13.651  13.185  1.00  0.00     0.039 C 
ENDBRANCH   4   5
ENDBRANCH   1   4
BRANCH   2   9
ATOM      9  C   UNL     1       2.000  17.818  17.569  1.00  0.00    -0.005 C 
ATOM     10  C   UNL     1       2.399  19.066  17.316  1.00  0.00     0.009 C 
ENDBRANCH   2   9
TORSDOF 3
ENDMDL
MODEL 4
REMARK VINA RESULT:    -3.739      2.153      4.667
REMARK INTER + INTRA:          -4.882
REMARK INTER:                  -4.616
REMARK INTRA:                  -0.266
REMARK UNBOUND:                -0.487
REMARK SMILES C=CC(C)=CCC=C(C)C
REMARK SMILES IDX 5 1 3 2 4 3 6 4 7 5 9 6 8 7 10 8 2 9 1 10
REMARK H PARENT
REMARK Flexibility Score: inf
ROOT
ATOM      1  C   UNL     1       1.162  12.748  15.732  1.00  0.00    -0.020 C 
ATOM      2  C   UNL     1       1.910  12.873  14.616  1.00  0.00    -0.055 C 
ATOM      3  C   UNL     1       3.007  13.908  14.498  1.00  0.00     0.044 C 
ENDROOT
BRANCH   1   4
ATOM      4  C   UNL     1       1.328  13.571  16.982  1.00  0.00     0.055 C 
BRANCH   4   5
ATOM      5  C   UNL     1       0.647  12.932  18.168  1.00  0.00    -0.024 C 
ATOM      6  C   UNL     1      -1.121  14.698  18.317  1.00  0.00     0.039 C 
ATOM      7  C   UNL     1      -0.451  13.427  18.780  1.00  0.00    -0.080 C 
ATOM      8  C   UNL     1      -1.008  12.684  19.968  1.00  0.00     0.039 C 
ENDBRANCH   4   5
ENDBRANCH   1   4
BRANCH   2   9
ATOM      9  C   UNL     1       1.572  12.010  13.456  1.00  0.00    -0.005 C 
ATOM     10  C   UNL     1       1.064  10.782  13.570  1.00  0.00     0.009 C 
ENDBRANCH   2   9
TORSDOF 3
ENDMDL
MODEL 5
REMARK VINA RESULT:    -3.725      1.390      2.347
REMARK INTER + INTRA:          -4.866
REMARK INTER:                  -4.389
REMARK INTRA:                  -0.477
REMARK UNBOUND:                -0.487
REMARK SMILES C=CC(C)=CCC=C(C)C
REMARK SMILES IDX 5 1 3 2 4 3 6 4 7 5 9 6 8 7 10 8 2 9 1 10
REMARK H PARENT
REMARK Flexibility Score: inf
ROOT
ATOM      1  C   UNL     1       0.961  15.536  17.040  1.00  0.00    -0.020 C 
ATOM      2  C   UNL     1       1.395  14.343  16.584  1.00  0.00    -0.055 C 
ATOM      3  C   UNL     1       2.365  14.230  15.428  1.00  0.00     0.044 C 
ENDROOT
BRANCH   1   4
ATOM      4  C   UNL     1       1.390  16.876  16.502  1.00  0.00     0.055 C 
BRANCH   4   5
ATOM      5  C   UNL     1       0.295  17.533  15.698  1.00  0.00    -0.024 C 
ATOM      6  C   UNL     1       1.579  17.432  13.551  1.00  0.00     0.039 C 
ATOM      7  C   UNL     1       0.365  17.792  14.374  1.00  0.00    -0.080 C 
ATOM      8  C   UNL     1      -0.806  18.473  13.712  1.00  0.00     0.039 C 
ENDBRANCH   4   5
ENDBRANCH   1   4
BRANCH   2   9
ATOM      9  C   UNL     1       0.825  13.117  17.201  1.00  0.00    -0.005 C 
ATOM     10  C   UNL     1       0.744  12.922  18.518  1.00  0.00     0.009 C 
ENDBRANCH   2   9
TORSDOF 3
ENDMDL
MODEL 6
REMARK VINA RESULT:    -3.704      1.796      2.710
REMARK INTER + INTRA:          -4.842
REMARK INTER:                  -4.586
REMARK INTRA:                  -0.256
REMARK UNBOUND:                -0.487
REMARK SMILES C=CC(C)=CCC=C(C)C
REMARK SMILES IDX 5 1 3 2 4 3 6 4 7 5 9 6 8 7 10 8 2 9 1 10
REMARK H PARENT
REMARK Flexibility Score: inf
ROOT
ATOM      1  C   UNL     1       1.584  14.040  17.052  1.00  0.00    -0.020 C 
ATOM      2  C   UNL     1       0.614  13.127  17.269  1.00  0.00    -0.055 C 
ATOM      3  C   UNL     1      -0.364  12.724  16.188  1.00  0.00     0.044 C 
ENDROOT
BRANCH   1   4
ATOM      4  C   UNL     1       1.838  14.738  15.742  1.00  0.00     0.055 C 
BRANCH   4   5
ATOM      5  C   UNL     1       2.893  14.031  14.926  1.00  0.00    -0.024 C 
ATOM      6  C   UNL     1       2.560  15.493  12.920  1.00  0.00     0.039 C 
ATOM      7  C   UNL     1       3.227  14.356  13.658  1.00  0.00    -0.080 C 
ATOM      8  C   UNL     1       4.291  13.545  12.964  1.00  0.00     0.039 C 
ENDBRANCH   4   5
ENDBRANCH   1   4
BRANCH   2   9
ATOM      9  C   UNL     1       0.476  12.577  18.642  1.00  0.00    -0.005 C 
ATOM     10  C   UNL     1      -0.697  12.393  19.251  1.00  0.00     0.009 C 
ENDBRANCH   2   9
TORSDOF 3
ENDMDL
MODEL 7
REMARK VINA RESULT:    -3.636      1.829      4.615
REMARK INTER + INTRA:          -4.762
REMARK INTER:                  -4.331
REMARK INTRA:                  -0.431
REMARK UNBOUND:                -0.487
REMARK SMILES C=CC(C)=CCC=C(C)C
REMARK SMILES IDX 5 1 3 2 4 3 6 4 7 5 9 6 8 7 10 8 2 9 1 10
REMARK H PARENT
REMARK Flexibility Score: inf
ROOT
ATOM      1  C   UNL     1       1.891  16.001  17.227  1.00  0.00    -0.020 C 
ATOM      2  C   UNL     1       1.069  16.885  16.625  1.00  0.00    -0.055 C 
ATOM      3  C   UNL     1      -0.308  16.495  16.132  1.00  0.00     0.044 C 
ENDROOT
BRANCH   1   4
ATOM      4  C   UNL     1       1.553  14.561  17.511  1.00  0.00     0.055 C 
BRANCH   4   5
ATOM      5  C   UNL     1       1.815  13.678  16.315  1.00  0.00    -0.024 C 
ATOM      6  C   UNL     1      -0.508  12.744  16.285  1.00  0.00     0.039 C 
ATOM      7  C   UNL     1       0.902  12.855  15.754  1.00  0.00    -0.080 C 
ATOM      8  C   UNL     1       1.318  12.018  14.572  1.00  0.00     0.039 C 
ENDBRANCH   4   5
ENDBRANCH   1   4
BRANCH   2   9
ATOM      9  C   UNL     1       1.588  18.255  16.378  1.00  0.00    -0.005 C 
ATOM     10  C   UNL     1       2.340  18.929  17.250  1.00  0.00     0.009 C 
ENDBRANCH   2   9
TORSDOF 3
ENDMDL
MODEL 8
REMARK VINA RESULT:    -3.608      2.238      5.317
REMARK INTER + INTRA:          -4.729
REMARK INTER:                  -4.532
REMARK INTRA:                  -0.196
REMARK UNBOUND:                -0.487
REMARK SMILES C=CC(C)=CCC=C(C)C
REMARK SMILES IDX 5 1 3 2 4 3 6 4 7 5 9 6 8 7 10 8 2 9 1 10
REMARK H PARENT
REMARK Flexibility Score: inf
ROOT
ATOM      1  C   UNL     1       2.838  13.910  15.262  1.00  0.00    -0.020 C 
ATOM      2  C   UNL     1       3.088  14.343  14.008  1.00  0.00    -0.055 C 
ATOM      3  C   UNL     1       2.192  15.344  13.312  1.00  0.00     0.044 C 
ENDROOT
BRANCH   1   4
ATOM      4  C   UNL     1       1.692  14.370  16.124  1.00  0.00     0.055 C 
BRANCH   4   5
ATOM      5  C   UNL     1       1.179  13.263  17.011  1.00  0.00    -0.024 C 
ATOM      6  C   UNL     1      -0.570  14.701  18.078  1.00  0.00     0.039 C 
ATOM      7  C   UNL     1       0.166  13.396  17.896  1.00  0.00    -0.080 C 
ATOM      8  C   UNL     1      -0.223  12.201  18.728  1.00  0.00     0.039 C 
ENDBRANCH   4   5
ENDBRANCH   1   4
BRANCH   2   9
ATOM      9  C   UNL     1       4.237  13.740  13.284  1.00  0.00    -0.005 C 
ATOM     10  C   UNL     1       4.123  13.098  12.120  1.00  0.00     0.009 C 
ENDBRANCH   2   9
TORSDOF 3
ENDMDL
MODEL 9
REMARK VINA RESULT:    -3.535      0.975      4.848
REMARK INTER + INTRA:          -4.642
REMARK INTER:                  -4.247
REMARK INTRA:                  -0.395
REMARK UNBOUND:                -0.487
REMARK SMILES C=CC(C)=CCC=C(C)C
REMARK SMILES IDX 5 1 3 2 4 3 6 4 7 5 9 6 8 7 10 8 2 9 1 10
REMARK H PARENT
REMARK Flexibility Score: inf
ROOT
ATOM      1  C   UNL     1       0.904  16.375  16.576  1.00  0.00    -0.020 C 
ATOM      2  C   UNL     1       0.711  16.830  15.320  1.00  0.00    -0.055 C 
ATOM      3  C   UNL     1       1.446  16.247  14.133  1.00  0.00     0.044 C 
ENDROOT
BRANCH   1   4
ATOM      4  C   UNL     1       1.824  15.244  16.954  1.00  0.00     0.055 C 
BRANCH   4   5
ATOM      5  C   UNL     1       1.157  14.272  17.896  1.00  0.00    -0.024 C 
ATOM      6  C   UNL     1       0.593  12.641  16.082  1.00  0.00     0.039 C 
ATOM      7  C   UNL     1       0.598  13.101  17.520  1.00  0.00    -0.080 C 
ATOM      8  C   UNL     1      -0.048  12.241  18.576  1.00  0.00     0.039 C 
ENDBRANCH   4   5
ENDBRANCH   1   4
BRANCH   2   9
ATOM      9  C   UNL     1      -0.197  17.992  15.137  1.00  0.00    -0.005 C 
ATOM     10  C   UNL     1      -0.715  18.348  13.960  1.00  0.00     0.009 C 
ENDBRANCH   2   9
TORSDOF 3
ENDMDL
