MODEL 1
REMARK VINA RESULT:    -4.322      0.000      0.000
REMARK INTER + INTRA:          -5.107
REMARK INTER:                  -5.206
REMARK INTRA:                   0.099
REMARK UNBOUND:                 0.099
REMARK SMILES CC[C@H](C)[C@@H]([NH3+])C(=O)[O-]
REMARK SMILES IDX 3 1 4 2 5 3 6 4 7 8 8 9 9 10 2 11 1 12
REMARK H PARENT 6 5 6 6 6 7
REMARK Flexibility Score: inf
ROOT
ATOM      1  C   UNL     1      22.864   6.526  14.806  1.00  0.00     0.050 C 
ATOM      2  C   UNL     1      21.873   6.133  15.918  1.00  0.00     0.014 C 
ENDROOT
BRANCH   1   3
ATOM      3  C   UNL     1      23.870   5.382  14.456  1.00  0.00     0.230 C 
BRANCH   3   4
ATOM      4  N   UNL     1      24.683   5.676  13.266  1.00  0.00    -0.350 N 
ATOM      5  H   UNL     1      24.521   6.667  12.969  1.00  0.00     0.345 HD
ATOM      6  H   UNL     1      24.437   5.047  12.469  1.00  0.00     0.345 HD
ATOM      7  H   UNL     1      25.699   5.581  13.486  1.00  0.00     0.345 HD
ENDBRANCH   3   4
BRANCH   3   8
ATOM      8  C   UNL     1      24.750   5.053  15.637  1.00  0.00     0.099 C 
ATOM      9  O   UNL     1      25.934   5.481  15.676  1.00  0.00    -0.544 OA
ATOM     10  O   UNL     1      24.284   4.241  16.665  1.00  0.00    -0.544 OA
ENDBRANCH   3   8
ENDBRANCH   1   3
BRANCH   1  11
ATOM     11  C   UNL     1      23.548   7.866  15.181  1.00  0.00     0.006 C 
ATOM     12  C   UNL     1      22.560   9.010  15.415  1.00  0.00     0.004 C 
ENDBRANCH   1  11
TORSDOF 4
ENDMDL
MODEL 2
REMARK VINA RESULT:    -4.133      2.670      3.742
REMARK INTER + INTRA:          -4.880
REMARK INTER:                  -4.816
REMARK INTRA:                  -0.064
REMARK UNBOUND:                 0.099
REMARK SMILES CC[C@H](C)[C@@H]([NH3+])C(=O)[O-]
REMARK SMILES IDX 3 1 4 2 5 3 6 4 7 8 8 9 9 10 2 11 1 12
REMARK H PARENT 6 5 6 6 6 7
REMARK Flexibility Score: inf
ROOT
ATOM      1  C   UNL     1      22.957   6.583  15.457  1.00  0.00     0.050 C 
ATOM      2  C   UNL     1      21.628   5.847  15.711  1.00  0.00     0.014 C 
ENDROOT
BRANCH   1   3
ATOM      3  C   UNL     1      22.755   8.009  14.850  1.00  0.00     0.230 C 
BRANCH   3   4
ATOM      4  N   UNL     1      21.382   8.512  15.009  1.00  0.00    -0.350 N 
ATOM      5  H   UNL     1      20.821   7.826  15.566  1.00  0.00     0.345 HD
ATOM      6  H   UNL     1      20.915   8.648  14.084  1.00  0.00     0.345 HD
ATOM      7  H   UNL     1      21.381   9.413  15.537  1.00  0.00     0.345 HD
ENDBRANCH   3   4
BRANCH   3   8
ATOM      8  C   UNL     1      23.752   8.987  15.423  1.00  0.00     0.099 C 
ATOM      9  O   UNL     1      23.348   9.981  16.083  1.00  0.00    -0.544 OA
ATOM     10  O   UNL     1      25.114   8.832  15.190  1.00  0.00    -0.544 OA
ENDBRANCH   3   8
ENDBRANCH   1   3
BRANCH   1  11
ATOM     11  C   UNL     1      23.893   5.675  14.620  1.00  0.00     0.006 C 
ATOM     12  C   UNL     1      24.919   4.916  15.463  1.00  0.00     0.004 C 
ENDBRANCH   1  11
TORSDOF 4
ENDMDL
MODEL 3
REMARK VINA RESULT:    -4.118      1.302      2.219
REMARK INTER + INTRA:          -4.861
REMARK INTER:                  -4.802
REMARK INTRA:                  -0.059
REMARK UNBOUND:                 0.099
REMARK SMILES CC[C@H](C)[C@@H]([NH3+])C(=O)[O-]
REMARK SMILES IDX 3 1 4 2 5 3 6 4 7 8 8 9 9 10 2 11 1 12
REMARK H PARENT 6 5 6 6 6 7
REMARK Flexibility Score: inf
ROOT
ATOM      1  C   UNL     1      23.869   7.815  15.222  1.00  0.00     0.050 C 
ATOM      2  C   UNL     1      25.252   8.378  14.843  1.00  0.00     0.014 C 
ENDROOT
BRANCH   1   3
ATOM      3  C   UNL     1      23.476   6.554  14.386  1.00  0.00     0.230 C 
BRANCH   3   4
ATOM      4  N   UNL     1      24.453   6.235  13.333  1.00  0.00    -0.350 N 
ATOM      5  H   UNL     1      24.416   5.210  13.123  1.00  0.00     0.345 HD
ATOM      6  H   UNL     1      25.426   6.478  13.628  1.00  0.00     0.345 HD
ATOM      7  H   UNL     1      24.218   6.741  12.451  1.00  0.00     0.345 HD
ENDBRANCH   3   4
BRANCH   3   8
ATOM      8  C   UNL     1      23.243   5.361  15.280  1.00  0.00     0.099 C 
ATOM      9  O   UNL     1      22.246   5.338  16.050  1.00  0.00    -0.544 OA
ATOM     10  O   UNL     1      24.144   4.302  15.299  1.00  0.00    -0.544 OA
ENDBRANCH   3   8
ENDBRANCH   1   3
BRANCH   1  11
ATOM     11  C   UNL     1      22.820   8.954  15.168  1.00  0.00     0.006 C 
ATOM     12  C   UNL     1      23.199  10.172  16.010  1.00  0.00     0.004 C 
ENDBRANCH   1  11
TORSDOF 4
ENDMDL
MODEL 4
REMARK VINA RESULT:    -4.088      2.975      3.878
REMARK INTER + INTRA:          -4.826
REMARK INTER:                  -4.705
REMARK INTRA:                  -0.121
REMARK UNBOUND:                 0.099
REMARK SMILES CC[C@H](C)[C@@H]([NH3+])C(=O)[O-]
REMARK SMILES IDX 3 1 4 2 5 3 6 4 7 8 8 9 9 10 2 11 1 12
REMARK H PARENT 6 5 6 6 6 7
REMARK Flexibility Score: inf
ROOT
ATOM      1  C   UNL     1      23.303   6.780  14.661  1.00  0.00     0.050 C 
ATOM      2  C   UNL     1      24.236   6.115  13.631  1.00  0.00     0.014 C 
ENDROOT
BRANCH   1   3
ATOM      3  C   UNL     1      23.947   8.028  15.346  1.00  0.00     0.230 C 
BRANCH   3   4
ATOM      4  N   UNL     1      25.182   8.475  14.683  1.00  0.00    -0.350 N 
ATOM      5  H   UNL     1      25.415   9.446  14.997  1.00  0.00     0.345 HD
ATOM      6  H   UNL     1      25.078   8.479  13.644  1.00  0.00     0.345 HD
ATOM      7  H   UNL     1      25.983   7.862  14.953  1.00  0.00     0.345 HD
ENDBRANCH   3   4
BRANCH   3   8
ATOM      8  C   UNL     1      22.955   9.162  15.450  1.00  0.00     0.099 C 
ATOM      9  O   UNL     1      21.838   9.072  14.875  1.00  0.00    -0.544 OA
ATOM     10  O   UNL     1      23.278  10.327  16.135  1.00  0.00    -0.544 OA
ENDBRANCH   3   8
ENDBRANCH   1   3
BRANCH   1  11
ATOM     11  C   UNL     1      22.797   5.710  15.660  1.00  0.00     0.006 C 
ATOM     12  C   UNL     1      21.300   5.812  15.957  1.00  0.00     0.004 C 
ENDBRANCH   1  11
TORSDOF 4
ENDMDL
MODEL 5
REMARK VINA RESULT:    -4.007      1.424      2.308
REMARK INTER + INTRA:          -4.728
REMARK INTER:                  -4.610
REMARK INTRA:                  -0.117
REMARK UNBOUND:                 0.099
REMARK SMILES CC[C@H](C)[C@@H]([NH3+])C(=O)[O-]
REMARK SMILES IDX 3 1 4 2 5 3 6 4 7 8 8 9 9 10 2 11 1 12
REMARK H PARENT 6 5 6 6 6 7
REMARK Flexibility Score: inf
ROOT
ATOM      1  C   UNL     1      23.938   6.129  15.000  1.00  0.00     0.050 C 
ATOM      2  C   UNL     1      24.279   6.080  13.499  1.00  0.00     0.014 C 
ENDROOT
BRANCH   1   3
ATOM      3  C   UNL     1      24.032   4.730  15.691  1.00  0.00     0.230 C 
BRANCH   3   4
ATOM      4  N   UNL     1      24.001   3.613  14.734  1.00  0.00    -0.350 N 
ATOM      5  H   UNL     1      23.987   3.991  13.758  1.00  0.00     0.345 HD
ATOM      6  H   UNL     1      23.155   3.016  14.870  1.00  0.00     0.345 HD
ATOM      7  H   UNL     1      24.861   3.028  14.828  1.00  0.00     0.345 HD
ENDBRANCH   3   4
BRANCH   3   8
ATOM      8  C   UNL     1      25.252   4.643  16.575  1.00  0.00     0.099 C 
ATOM      9  O   UNL     1      25.140   4.233  17.761  1.00  0.00    -0.544 OA
ATOM     10  O   UNL     1      26.496   5.055  16.112  1.00  0.00    -0.544 OA
ENDBRANCH   3   8
ENDBRANCH   1   3
BRANCH   1  11
ATOM     11  C   UNL     1      22.570   6.830  15.192  1.00  0.00     0.006 C 
ATOM     12  C   UNL     1      21.565   5.999  15.990  1.00  0.00     0.004 C 
ENDBRANCH   1  11
TORSDOF 4
ENDMDL
MODEL 6
REMARK VINA RESULT:    -3.950      0.883      2.207
REMARK INTER + INTRA:          -4.659
REMARK INTER:                  -4.553
REMARK INTRA:                  -0.106
REMARK UNBOUND:                 0.099
REMARK SMILES CC[C@H](C)[C@@H]([NH3+])C(=O)[O-]
REMARK SMILES IDX 3 1 4 2 5 3 6 4 7 8 8 9 9 10 2 11 1 12
REMARK H PARENT 6 5 6 6 6 7
REMARK Flexibility Score: inf
ROOT
ATOM      1  C   UNL     1      22.758   6.595  15.589  1.00  0.00     0.050 C 
ATOM      2  C   UNL     1      22.513   8.040  15.118  1.00  0.00     0.014 C 
ENDROOT
BRANCH   1   3
ATOM      3  C   UNL     1      23.716   5.801  14.643  1.00  0.00     0.230 C 
BRANCH   3   4
ATOM      4  N   UNL     1      24.404   6.661  13.668  1.00  0.00    -0.350 N 
ATOM      5  H   UNL     1      25.419   6.727  13.916  1.00  0.00     0.345 HD
ATOM      6  H   UNL     1      24.002   7.626  13.658  1.00  0.00     0.345 HD
ATOM      7  H   UNL     1      24.345   6.248  12.711  1.00  0.00     0.345 HD
ENDBRANCH   3   4
BRANCH   3   8
ATOM      8  C   UNL     1      24.711   4.989  15.436  1.00  0.00     0.099 C 
ATOM      9  O   UNL     1      24.387   3.854  15.875  1.00  0.00    -0.544 OA
ATOM     10  O   UNL     1      25.971   5.499  15.729  1.00  0.00    -0.544 OA
ENDBRANCH   3   8
ENDBRANCH   1   3
BRANCH   1  11
ATOM     11  C   UNL     1      21.396   5.896  15.829  1.00  0.00     0.006 C 
ATOM     12  C   UNL     1      21.156   5.513  17.290  1.00  0.00     0.004 C 
ENDBRANCH   1  11
TORSDOF 4
ENDMDL
MODEL 7
REMARK VINA RESULT:    -3.816      2.294      3.285
REMARK INTER + INTRA:          -4.497
REMARK INTER:                  -4.406
REMARK INTRA:                  -0.091
REMARK UNBOUND:                 0.099
REMARK SMILES CC[C@H](C)[C@@H]([NH3+])C(=O)[O-]
REMARK SMILES IDX 3 1 4 2 5 3 6 4 7 8 8 9 9 10 2 11 1 12
REMARK H PARENT 6 5 6 6 6 7
REMARK Flexibility Score: inf
ROOT
ATOM      1  C   UNL     1      23.989   5.775  15.621  1.00  0.00     0.050 C 
ATOM      2  C   UNL     1      22.530   5.418  15.280  1.00  0.00     0.014 C 
ENDROOT
BRANCH   1   3
ATOM      3  C   UNL     1      24.688   6.612  14.500  1.00  0.00     0.230 C 
BRANCH   3   4
ATOM      4  N   UNL     1      24.093   6.403  13.171  1.00  0.00    -0.350 N 
ATOM      5  H   UNL     1      24.435   7.143  12.515  1.00  0.00     0.345 HD
ATOM      6  H   UNL     1      23.049   6.450  13.207  1.00  0.00     0.345 HD
ATOM      7  H   UNL     1      24.388   5.481  12.780  1.00  0.00     0.345 HD
ENDBRANCH   3   4
BRANCH   3   8
ATOM      8  C   UNL     1      24.707   8.079  14.853  1.00  0.00     0.099 C 
ATOM      9  O   UNL     1      25.807   8.682  14.971  1.00  0.00    -0.544 OA
ATOM     10  O   UNL     1      23.524   8.767  15.096  1.00  0.00    -0.544 OA
ENDBRANCH   3   8
ENDBRANCH   1   3
BRANCH   1  11
ATOM     11  C   UNL     1      24.755   4.484  16.005  1.00  0.00     0.006 C 
ATOM     12  C   UNL     1      26.208   4.734  16.411  1.00  0.00     0.004 C 
ENDBRANCH   1  11
TORSDOF 4
ENDMDL
MODEL 8
REMARK VINA RESULT:    -3.534      1.737      1.981
REMARK INTER + INTRA:          -4.158
REMARK INTER:                  -4.104
REMARK INTRA:                  -0.053
REMARK UNBOUND:                 0.099
REMARK SMILES CC[C@H](C)[C@@H]([NH3+])C(=O)[O-]
REMARK SMILES IDX 3 1 4 2 5 3 6 4 7 8 8 9 9 10 2 11 1 12
REMARK H PARENT 6 5 6 6 6 7
REMARK Flexibility Score: inf
ROOT
ATOM      1  C   UNL     1      22.724   7.700  14.773  1.00  0.00     0.050 C 
ATOM      2  C   UNL     1      21.334   8.259  15.125  1.00  0.00     0.014 C 
ENDROOT
BRANCH   1   3
ATOM      3  C   UNL     1      22.986   6.288  15.391  1.00  0.00     0.230 C 
BRANCH   3   4
ATOM      4  N   UNL     1      21.809   5.408  15.332  1.00  0.00    -0.350 N 
ATOM      5  H   UNL     1      21.204   5.577  16.170  1.00  0.00     0.345 HD
ATOM      6  H   UNL     1      22.084   4.400  15.321  1.00  0.00     0.345 HD
ATOM      7  H   UNL     1      21.234   5.623  14.487  1.00  0.00     0.345 HD
ENDBRANCH   3   4
BRANCH   3   8
ATOM      8  C   UNL     1      24.181   5.627  14.748  1.00  0.00     0.099 C 
ATOM      9  O   UNL     1      24.374   5.750  13.509  1.00  0.00    -0.544 OA
ATOM     10  O   UNL     1      25.048   4.842  15.498  1.00  0.00    -0.544 OA
ENDBRANCH   3   8
ENDBRANCH   1   3
BRANCH   1  11
ATOM     11  C   UNL     1      23.805   8.750  15.134  1.00  0.00     0.006 C 
ATOM     12  C   UNL     1      23.250   9.967  15.875  1.00  0.00     0.004 C 
ENDBRANCH   1  11
TORSDOF 4
ENDMDL
MODEL 9
REMARK VINA RESULT:    -3.531      2.629      3.753
REMARK INTER + INTRA:          -4.155
REMARK INTER:                  -4.054
REMARK INTRA:                  -0.101
REMARK UNBOUND:                 0.099
REMARK SMILES CC[C@H](C)[C@@H]([NH3+])C(=O)[O-]
REMARK SMILES IDX 3 1 4 2 5 3 6 4 7 8 8 9 9 10 2 11 1 12
REMARK H PARENT 6 5 6 6 6 7
REMARK Flexibility Score: inf
ROOT
ATOM      1  C   UNL     1      23.671   5.961  14.538  1.00  0.00     0.050 C 
ATOM      2  C   UNL     1      24.440   5.921  13.205  1.00  0.00     0.014 C 
ENDROOT
BRANCH   1   3
ATOM      3  C   UNL     1      23.694   7.373  15.210  1.00  0.00     0.230 C 
BRANCH   3   4
ATOM      4  N   UNL     1      24.649   8.295  14.577  1.00  0.00    -0.350 N 
ATOM      5  H   UNL     1      25.621   8.052  14.877  1.00  0.00     0.345 HD
ATOM      6  H   UNL     1      24.458   9.287  14.845  1.00  0.00     0.345 HD
ATOM      7  H   UNL     1      24.613   8.201  13.537  1.00  0.00     0.345 HD
ENDBRANCH   3   4
BRANCH   3   8
ATOM      8  C   UNL     1      22.312   7.977  15.249  1.00  0.00     0.099 C 
ATOM      9  O   UNL     1      22.175   9.228  15.293  1.00  0.00    -0.544 OA
ATOM     10  O   UNL     1      21.183   7.166  15.285  1.00  0.00    -0.544 OA
ENDBRANCH   3   8
ENDBRANCH   1   3
BRANCH   1  11
ATOM     11  C   UNL     1      24.180   4.823  15.458  1.00  0.00     0.006 C 
ATOM     12  C   UNL     1      25.635   4.996  15.895  1.00  0.00     0.004 C 
ENDBRANCH   1  11
TORSDOF 4
ENDMDL
