MODEL 1
REMARK VINA RESULT:    -3.957      0.000      0.000
REMARK INTER + INTRA:          -5.989
REMARK INTER:                  -5.345
REMARK INTRA:                  -0.644
REMARK UNBOUND:                -0.644
REMARK SMILES CCCCCCC=CC(=O)[O-]
REMARK SMILES IDX 5 1 6 2 7 3 8 4 9 5 10 6 11 7 4 8 3 9 2 10 1 11
REMARK H PARENT
REMARK Flexibility Score: inf
ROOT
ATOM      1  C   UNL     1      59.116  35.737  80.882  1.00  0.00     0.004 C 
ENDROOT
BRANCH   1   2
ATOM      2  C   UNL     1      58.633  34.284  80.724  1.00  0.00     0.027 C 
BRANCH   2   3
ATOM      3  C   UNL     1      58.818  33.760  79.328  1.00  0.00    -0.025 C 
ATOM      4  C   UNL     1      57.847  33.091  78.699  1.00  0.00     0.020 C 
BRANCH   4   5
ATOM      5  C   UNL     1      58.014  32.577  77.331  1.00  0.00     0.064 C 
ATOM      6  O   UNL     1      58.500  31.430  77.153  1.00  0.00    -0.545 OA
ATOM      7  O   UNL     1      57.645  33.340  76.229  1.00  0.00    -0.545 OA
ENDBRANCH   4   5
ENDBRANCH   2   3
ENDBRANCH   1   2
BRANCH   1   8
ATOM      8  C   UNL     1      57.999  36.791  80.759  1.00  0.00     0.000 C 
BRANCH   8   9
ATOM      9  C   UNL     1      57.961  37.461  79.378  1.00  0.00    -0.000 C 
BRANCH   9  10
ATOM     10  C   UNL     1      56.555  37.386  78.772  1.00  0.00    -0.003 C 
ATOM     11  C   UNL     1      56.528  36.461  77.557  1.00  0.00     0.004 C 
ENDBRANCH   9  10
ENDBRANCH   8   9
ENDBRANCH   1   8
TORSDOF 6
ENDMDL
MODEL 2
REMARK VINA RESULT:    -3.865      1.052      1.660
REMARK INTER + INTRA:          -5.864
REMARK INTER:                  -5.256
REMARK INTRA:                  -0.608
REMARK UNBOUND:                -0.644
REMARK SMILES CCCCCCC=CC(=O)[O-]
REMARK SMILES IDX 5 1 6 2 7 3 8 4 9 5 10 6 11 7 4 8 3 9 2 10 1 11
REMARK H PARENT
REMARK Flexibility Score: inf
ROOT
ATOM      1  C   UNL     1      59.106  34.342  80.397  1.00  0.00     0.004 C 
ENDROOT
BRANCH   1   2
ATOM      2  C   UNL     1      57.844  33.578  79.958  1.00  0.00     0.027 C 
BRANCH   2   3
ATOM      3  C   UNL     1      57.941  33.059  78.552  1.00  0.00    -0.025 C 
ATOM      4  C   UNL     1      57.700  33.846  77.498  1.00  0.00     0.020 C 
BRANCH   4   5
ATOM      5  C   UNL     1      57.796  33.352  76.117  1.00  0.00     0.064 C 
ATOM      6  O   UNL     1      58.048  34.157  75.184  1.00  0.00    -0.545 OA
ATOM      7  O   UNL     1      57.610  32.005  75.824  1.00  0.00    -0.545 OA
ENDBRANCH   4   5
ENDBRANCH   2   3
ENDBRANCH   1   2
BRANCH   1   8
ATOM      8  C   UNL     1      58.820  35.678  81.109  1.00  0.00     0.000 C 
BRANCH   8   9
ATOM      9  C   UNL     1      58.556  36.830  80.129  1.00  0.00    -0.000 C 
BRANCH   9  10
ATOM     10  C   UNL     1      57.059  37.149  80.049  1.00  0.00    -0.003 C 
ATOM     11  C   UNL     1      56.586  37.215  78.599  1.00  0.00     0.004 C 
ENDBRANCH   9  10
ENDBRANCH   8   9
ENDBRANCH   1   8
TORSDOF 6
ENDMDL
MODEL 3
REMARK VINA RESULT:    -3.756      1.304      3.349
REMARK INTER + INTRA:          -5.717
REMARK INTER:                  -5.035
REMARK INTRA:                  -0.682
REMARK UNBOUND:                -0.644
REMARK SMILES CCCCCCC=CC(=O)[O-]
REMARK SMILES IDX 5 1 6 2 7 3 8 4 9 5 10 6 11 7 4 8 3 9 2 10 1 11
REMARK H PARENT
REMARK Flexibility Score: inf
ROOT
ATOM      1  C   UNL     1      56.743  37.233  79.999  1.00  0.00     0.004 C 
ENDROOT
BRANCH   1   2
ATOM      2  C   UNL     1      56.910  37.614  78.517  1.00  0.00     0.027 C 
BRANCH   2   3
ATOM      3  C   UNL     1      56.469  36.521  77.584  1.00  0.00    -0.025 C 
ATOM      4  C   UNL     1      57.325  35.932  76.743  1.00  0.00     0.020 C 
BRANCH   4   5
ATOM      5  C   UNL     1      56.907  34.859  75.830  1.00  0.00     0.064 C 
ATOM      6  O   UNL     1      56.086  35.110  74.910  1.00  0.00    -0.545 OA
ATOM      7  O   UNL     1      57.405  33.568  75.966  1.00  0.00    -0.545 OA
ENDBRANCH   4   5
ENDBRANCH   2   3
ENDBRANCH   1   2
BRANCH   1   8
ATOM      8  C   UNL     1      58.071  37.068  80.761  1.00  0.00     0.000 C 
BRANCH   8   9
ATOM      9  C   UNL     1      59.011  36.045  80.107  1.00  0.00    -0.000 C 
BRANCH   9  10
ATOM     10  C   UNL     1      58.768  34.640  80.668  1.00  0.00    -0.003 C 
ATOM     11  C   UNL     1      58.178  33.716  79.605  1.00  0.00     0.004 C 
ENDBRANCH   9  10
ENDBRANCH   8   9
ENDBRANCH   1   8
TORSDOF 6
ENDMDL
MODEL 4
REMARK VINA RESULT:    -3.708      2.948      4.375
REMARK INTER + INTRA:          -5.652
REMARK INTER:                  -5.139
REMARK INTRA:                  -0.513
REMARK UNBOUND:                -0.644
REMARK SMILES CCCCCCC=CC(=O)[O-]
REMARK SMILES IDX 5 1 6 2 7 3 8 4 9 5 10 6 11 7 4 8 3 9 2 10 1 11
REMARK H PARENT
REMARK Flexibility Score: inf
ROOT
ATOM      1  C   UNL     1      59.162  34.227  80.466  1.00  0.00     0.004 C 
ENDROOT
BRANCH   1   2
ATOM      2  C   UNL     1      58.977  35.536  81.254  1.00  0.00     0.027 C 
BRANCH   2   3
ATOM      3  C   UNL     1      58.330  36.618  80.437  1.00  0.00    -0.025 C 
ATOM      4  C   UNL     1      58.947  37.161  79.382  1.00  0.00     0.020 C 
BRANCH   4   5
ATOM      5  C   UNL     1      58.322  38.217  78.572  1.00  0.00     0.064 C 
ATOM      6  O   UNL     1      57.068  38.266  78.474  1.00  0.00    -0.545 OA
ATOM      7  O   UNL     1      59.096  39.163  77.909  1.00  0.00    -0.545 OA
ENDBRANCH   4   5
ENDBRANCH   2   3
ENDBRANCH   1   2
BRANCH   1   8
ATOM      8  C   UNL     1      57.845  33.571  80.013  1.00  0.00     0.000 C 
BRANCH   8   9
ATOM      9  C   UNL     1      57.906  33.045  78.572  1.00  0.00    -0.000 C 
BRANCH   9  10
ATOM     10  C   UNL     1      57.668  34.178  77.566  1.00  0.00    -0.003 C 
ATOM     11  C   UNL     1      57.784  33.672  76.130  1.00  0.00     0.004 C 
ENDBRANCH   9  10
ENDBRANCH   8   9
ENDBRANCH   1   8
TORSDOF 6
ENDMDL
MODEL 5
REMARK VINA RESULT:    -3.702      3.209      5.945
REMARK INTER + INTRA:          -5.644
REMARK INTER:                  -5.434
REMARK INTRA:                  -0.210
REMARK UNBOUND:                -0.644
REMARK SMILES CCCCCCC=CC(=O)[O-]
REMARK SMILES IDX 5 1 6 2 7 3 8 4 9 5 10 6 11 7 4 8 3 9 2 10 1 11
REMARK H PARENT
REMARK Flexibility Score: inf
ROOT
ATOM      1  C   UNL     1      58.463  32.374  76.256  1.00  0.00     0.004 C 
ENDROOT
BRANCH   1   2
ATOM      2  C   UNL     1      58.274  32.274  77.780  1.00  0.00     0.027 C 
BRANCH   2   3
ATOM      3  C   UNL     1      58.198  33.620  78.445  1.00  0.00    -0.025 C 
ATOM      4  C   UNL     1      58.829  33.866  79.597  1.00  0.00     0.020 C 
BRANCH   4   5
ATOM      5  C   UNL     1      58.767  35.180  80.255  1.00  0.00     0.064 C 
ATOM      6  O   UNL     1      59.069  35.281  81.472  1.00  0.00    -0.545 OA
ATOM      7  O   UNL     1      58.378  36.315  79.552  1.00  0.00    -0.545 OA
ENDBRANCH   4   5
ENDBRANCH   2   3
ENDBRANCH   1   2
BRANCH   1   8
ATOM      8  C   UNL     1      57.585  31.402  75.445  1.00  0.00     0.000 C 
BRANCH   8   9
ATOM      9  C   UNL     1      57.765  29.938  75.874  1.00  0.00    -0.000 C 
BRANCH   9  10
ATOM     10  C   UNL     1      57.033  28.993  74.915  1.00  0.00    -0.003 C 
ATOM     11  C   UNL     1      55.815  29.673  74.293  1.00  0.00     0.004 C 
ENDBRANCH   9  10
ENDBRANCH   8   9
ENDBRANCH   1   8
TORSDOF 6
ENDMDL
MODEL 6
REMARK VINA RESULT:    -3.533      3.200      6.338
REMARK INTER + INTRA:          -5.416
REMARK INTER:                  -4.807
REMARK INTRA:                  -0.608
REMARK UNBOUND:                -0.644
REMARK SMILES CCCCCCC=CC(=O)[O-]
REMARK SMILES IDX 5 1 6 2 7 3 8 4 9 5 10 6 11 7 4 8 3 9 2 10 1 11
REMARK H PARENT
REMARK Flexibility Score: inf
ROOT
ATOM      1  C   UNL     1      59.082  29.557  75.932  1.00  0.00     0.004 C 
ENDROOT
BRANCH   1   2
ATOM      2  C   UNL     1      59.409  31.024  75.600  1.00  0.00     0.027 C 
BRANCH   2   3
ATOM      3  C   UNL     1      59.141  31.953  76.751  1.00  0.00    -0.025 C 
ATOM      4  C   UNL     1      58.014  32.668  76.824  1.00  0.00     0.020 C 
BRANCH   4   5
ATOM      5  C   UNL     1      57.738  33.576  77.947  1.00  0.00     0.064 C 
ATOM      6  O   UNL     1      57.385  34.762  77.716  1.00  0.00    -0.545 OA
ATOM      7  O   UNL     1      57.862  33.146  79.263  1.00  0.00    -0.545 OA
ENDBRANCH   4   5
ENDBRANCH   2   3
ENDBRANCH   1   2
BRANCH   1   8
ATOM      8  C   UNL     1      57.989  28.936  75.043  1.00  0.00     0.000 C 
BRANCH   8   9
ATOM      9  C   UNL     1      56.571  29.337  75.475  1.00  0.00    -0.000 C 
BRANCH   9  10
ATOM     10  C   UNL     1      55.702  29.677  74.258  1.00  0.00    -0.003 C 
ATOM     11  C   UNL     1      56.195  30.947  73.568  1.00  0.00     0.004 C 
ENDBRANCH   9  10
ENDBRANCH   8   9
ENDBRANCH   1   8
TORSDOF 6
ENDMDL
MODEL 7
REMARK VINA RESULT:    -3.475      1.203      3.011
REMARK INTER + INTRA:          -5.337
REMARK INTER:                  -4.641
REMARK INTRA:                  -0.696
REMARK UNBOUND:                -0.644
REMARK SMILES CCCCCCC=CC(=O)[O-]
REMARK SMILES IDX 5 1 6 2 7 3 8 4 9 5 10 6 11 7 4 8 3 9 2 10 1 11
REMARK H PARENT
REMARK Flexibility Score: inf
ROOT
ATOM      1  C   UNL     1      57.501  37.718  78.085  1.00  0.00     0.004 C 
ENDROOT
BRANCH   1   2
ATOM      2  C   UNL     1      56.945  37.074  76.802  1.00  0.00     0.027 C 
BRANCH   2   3
ATOM      3  C   UNL     1      56.825  35.580  76.908  1.00  0.00    -0.025 C 
ATOM      4  C   UNL     1      57.900  34.803  77.072  1.00  0.00     0.020 C 
BRANCH   4   5
ATOM      5  C   UNL     1      57.795  33.340  77.182  1.00  0.00     0.064 C 
ATOM      6  O   UNL     1      57.720  32.642  76.138  1.00  0.00    -0.545 OA
ATOM      7  O   UNL     1      57.777  32.715  78.424  1.00  0.00    -0.545 OA
ENDBRANCH   4   5
ENDBRANCH   2   3
ENDBRANCH   1   2
BRANCH   1   8
ATOM      8  C   UNL     1      56.580  37.579  79.311  1.00  0.00     0.000 C 
BRANCH   8   9
ATOM      9  C   UNL     1      57.331  37.124  80.571  1.00  0.00    -0.000 C 
BRANCH   9  10
ATOM     10  C   UNL     1      58.697  36.530  80.210  1.00  0.00    -0.003 C 
ATOM     11  C   UNL     1      58.855  35.123  80.783  1.00  0.00     0.004 C 
ENDBRANCH   9  10
ENDBRANCH   8   9
ENDBRANCH   1   8
TORSDOF 6
ENDMDL
MODEL 8
REMARK VINA RESULT:    -3.394      3.115      5.636
REMARK INTER + INTRA:          -5.228
REMARK INTER:                  -4.946
REMARK INTRA:                  -0.282
REMARK UNBOUND:                -0.644
REMARK SMILES CCCCCCC=CC(=O)[O-]
REMARK SMILES IDX 5 1 6 2 7 3 8 4 9 5 10 6 11 7 4 8 3 9 2 10 1 11
REMARK H PARENT
REMARK Flexibility Score: inf
ROOT
ATOM      1  C   UNL     1      58.001  33.024  78.199  1.00  0.00     0.004 C 
ENDROOT
BRANCH   1   2
ATOM      2  C   UNL     1      57.574  34.209  77.315  1.00  0.00     0.027 C 
BRANCH   2   3
ATOM      3  C   UNL     1      57.733  35.534  78.006  1.00  0.00    -0.025 C 
ATOM      4  C   UNL     1      58.275  35.626  79.224  1.00  0.00     0.020 C 
BRANCH   4   5
ATOM      5  C   UNL     1      58.439  36.917  79.909  1.00  0.00     0.064 C 
ATOM      6  O   UNL     1      58.963  37.884  79.296  1.00  0.00    -0.545 OA
ATOM      7  O   UNL     1      58.027  37.088  81.226  1.00  0.00    -0.545 OA
ENDBRANCH   4   5
ENDBRANCH   2   3
ENDBRANCH   1   2
BRANCH   1   8
ATOM      8  C   UNL     1      58.428  31.770  77.412  1.00  0.00     0.000 C 
BRANCH   8   9
ATOM      9  C   UNL     1      57.924  31.778  75.961  1.00  0.00    -0.000 C 
BRANCH   9  10
ATOM     10  C   UNL     1      58.123  30.407  75.305  1.00  0.00    -0.003 C 
ATOM     11  C   UNL     1      56.963  29.468  75.628  1.00  0.00     0.004 C 
ENDBRANCH   9  10
ENDBRANCH   8   9
ENDBRANCH   1   8
TORSDOF 6
ENDMDL
MODEL 9
REMARK VINA RESULT:    -3.390      1.900      3.011
REMARK INTER + INTRA:          -5.222
REMARK INTER:                  -5.041
REMARK INTRA:                  -0.181
REMARK UNBOUND:                -0.644
REMARK SMILES CCCCCCC=CC(=O)[O-]
REMARK SMILES IDX 5 1 6 2 7 3 8 4 9 5 10 6 11 7 4 8 3 9 2 10 1 11
REMARK H PARENT
REMARK Flexibility Score: inf
ROOT
ATOM      1  C   UNL     1      58.517  33.514  79.088  1.00  0.00     0.004 C 
ENDROOT
BRANCH   1   2
ATOM      2  C   UNL     1      57.992  33.105  77.700  1.00  0.00     0.027 C 
BRANCH   2   3
ATOM      3  C   UNL     1      58.307  31.676  77.359  1.00  0.00    -0.025 C 
ATOM      4  C   UNL     1      57.971  31.150  76.177  1.00  0.00     0.020 C 
BRANCH   4   5
ATOM      5  C   UNL     1      58.278  29.754  75.829  1.00  0.00     0.064 C 
ATOM      6  O   UNL     1      59.475  29.366  75.813  1.00  0.00    -0.545 OA
ATOM      7  O   UNL     1      57.265  28.855  75.517  1.00  0.00    -0.545 OA
ENDBRANCH   4   5
ENDBRANCH   2   3
ENDBRANCH   1   2
BRANCH   1   8
ATOM      8  C   UNL     1      57.796  34.728  79.703  1.00  0.00     0.000 C 
BRANCH   8   9
ATOM      9  C   UNL     1      58.725  35.603  80.557  1.00  0.00    -0.000 C 
BRANCH   9  10
ATOM     10  C   UNL     1      58.235  37.056  80.587  1.00  0.00    -0.003 C 
ATOM     11  C   UNL     1      56.840  37.179  79.980  1.00  0.00     0.004 C 
ENDBRANCH   9  10
ENDBRANCH   8   9
ENDBRANCH   1   8
TORSDOF 6
ENDMDL
