MODEL 1
REMARK VINA RESULT:    -4.302      0.000      0.000
REMARK INTER + INTRA:          -5.962
REMARK INTER:                  -5.559
REMARK INTRA:                  -0.403
REMARK UNBOUND:                -0.403
REMARK SMILES CCO[C@@H]1O[C@@H](CO)[C@H](O)[C@H](O)[C@@H]1O
REMARK SMILES IDX 4 1 13 2 11 3 9 4 6 5 5 6 3 7 2 8 1 9 14 10 12 12 7 14 8 15
REMARK SMILES IDX 10 17
REMARK H PARENT 14 11 12 13 8 16 10 18
REMARK Flexibility Score: inf
ROOT
ATOM      1  C   UNL     1       6.888  -4.940  -3.000  1.00  0.00     0.281 C 
ATOM      2  C   UNL     1       6.475  -3.554  -2.458  1.00  0.00     0.202 C 
ATOM      3  C   UNL     1       7.002  -3.301  -1.028  1.00  0.00     0.179 C 
ATOM      4  C   UNL     1       8.483  -3.719  -0.910  1.00  0.00     0.177 C 
ATOM      5  C   UNL     1       8.725  -5.116  -1.537  1.00  0.00     0.178 C 
ATOM      6  O   UNL     1       8.292  -5.134  -2.889  1.00  0.00    -0.341 OA
ENDROOT
BRANCH   1   7
ATOM      7  O   UNL     1       6.164  -5.972  -2.341  1.00  0.00    -0.350 OA
BRANCH   7   8
ATOM      8  C   UNL     1       6.109  -7.160  -3.111  1.00  0.00     0.160 C 
ATOM      9  C   UNL     1       6.600  -8.364  -2.311  1.00  0.00     0.035 C 
ENDBRANCH   7   8
ENDBRANCH   1   7
BRANCH   2  10
ATOM     10  O   UNL     1       5.077  -3.426  -2.502  1.00  0.00    -0.385 OA
ATOM     11  H   UNL     1       4.873  -2.466  -2.350  1.00  0.00     0.211 HD
ENDBRANCH   2  10
BRANCH   3  12
ATOM     12  O   UNL     1       6.187  -3.912  -0.055  1.00  0.00    -0.387 OA
ATOM     13  H   UNL     1       6.612  -4.760   0.225  1.00  0.00     0.211 HD
ENDBRANCH   3  12
BRANCH   5  14
ATOM     14  C   UNL     1      10.220  -5.466  -1.505  1.00  0.00     0.191 C 
BRANCH  14  15
ATOM     15  O   UNL     1      10.598  -5.893  -0.224  1.00  0.00    -0.394 OA
ATOM     16  H   UNL     1      10.007  -6.657   0.007  1.00  0.00     0.210 HD
ENDBRANCH  14  15
ENDBRANCH   5  14
BRANCH   4  17
ATOM     17  O   UNL     1       8.917  -3.656   0.427  1.00  0.00    -0.387 OA
ATOM     18  H   UNL     1       8.349  -4.271   0.962  1.00  0.00     0.211 HD
ENDBRANCH   4  17
TORSDOF 7
ENDMDL
MODEL 2
REMARK VINA RESULT:    -3.865      1.779      4.032
REMARK INTER + INTRA:          -5.397
REMARK INTER:                  -4.967
REMARK INTRA:                  -0.430
REMARK UNBOUND:                -0.403
REMARK SMILES CCO[C@@H]1O[C@@H](CO)[C@H](O)[C@H](O)[C@@H]1O
REMARK SMILES IDX 4 1 13 2 11 3 9 4 6 5 5 6 3 7 2 8 1 9 14 10 12 12 7 14 8 15
REMARK SMILES IDX 10 17
REMARK H PARENT 14 11 12 13 8 16 10 18
REMARK Flexibility Score: inf
ROOT
ATOM      1  C   UNL     1       8.217  -4.489  -2.884  1.00  0.00     0.281 C 
ATOM      2  C   UNL     1       9.724  -4.789  -2.730  1.00  0.00     0.202 C 
ATOM      3  C   UNL     1      10.009  -5.811  -1.608  1.00  0.00     0.179 C 
ATOM      4  C   UNL     1       9.031  -7.003  -1.695  1.00  0.00     0.177 C 
ATOM      5  C   UNL     1       7.571  -6.521  -1.886  1.00  0.00     0.178 C 
ATOM      6  O   UNL     1       7.470  -5.688  -3.031  1.00  0.00    -0.341 OA
ENDROOT
BRANCH   1   7
ATOM      7  O   UNL     1       7.748  -3.711  -1.789  1.00  0.00    -0.350 OA
BRANCH   7   8
ATOM      8  C   UNL     1       6.774  -2.762  -2.187  1.00  0.00     0.160 C 
ATOM      9  C   UNL     1       7.416  -1.569  -2.891  1.00  0.00     0.035 C 
ENDBRANCH   7   8
ENDBRANCH   1   7
BRANCH   2  10
ATOM     10  O   UNL     1      10.425  -3.593  -2.502  1.00  0.00    -0.385 OA
ATOM     11  H   UNL     1      11.172  -3.570  -3.156  1.00  0.00     0.211 HD
ENDBRANCH   2  10
BRANCH   3  12
ATOM     12  O   UNL     1      10.013  -5.205  -0.337  1.00  0.00    -0.387 OA
ATOM     13  H   UNL     1       9.351  -5.668   0.235  1.00  0.00     0.211 HD
ENDBRANCH   3  12
BRANCH   5  14
ATOM     14  C   UNL     1       6.631  -7.720  -2.077  1.00  0.00     0.191 C 
BRANCH  14  15
ATOM     15  O   UNL     1       6.438  -8.392  -0.860  1.00  0.00    -0.394 OA
ATOM     16  H   UNL     1       5.458  -8.414  -0.700  1.00  0.00     0.210 HD
ENDBRANCH  14  15
ENDBRANCH   5  14
BRANCH   4  17
ATOM     17  O   UNL     1       9.169  -7.847  -0.578  1.00  0.00    -0.387 OA
ATOM     18  H   UNL     1       9.440  -8.745  -0.904  1.00  0.00     0.211 HD
ENDBRANCH   4  17
TORSDOF 7
ENDMDL
MODEL 3
REMARK VINA RESULT:    -3.432      1.533      3.748
REMARK INTER + INTRA:          -4.838
REMARK INTER:                  -4.483
REMARK INTRA:                  -0.355
REMARK UNBOUND:                -0.403
REMARK SMILES CCO[C@@H]1O[C@@H](CO)[C@H](O)[C@H](O)[C@@H]1O
REMARK SMILES IDX 4 1 13 2 11 3 9 4 6 5 5 6 3 7 2 8 1 9 14 10 12 12 7 14 8 15
REMARK SMILES IDX 10 17
REMARK H PARENT 14 11 12 13 8 16 10 18
REMARK Flexibility Score: inf
ROOT
ATOM      1  C   UNL     1       7.658  -5.584  -1.682  1.00  0.00     0.281 C 
ATOM      2  C   UNL     1       8.352  -4.416  -0.949  1.00  0.00     0.202 C 
ATOM      3  C   UNL     1       8.160  -3.067  -1.677  1.00  0.00     0.179 C 
ATOM      4  C   UNL     1       6.690  -2.887  -2.112  1.00  0.00     0.177 C 
ATOM      5  C   UNL     1       6.144  -4.166  -2.796  1.00  0.00     0.178 C 
ATOM      6  O   UNL     1       6.292  -5.287  -1.938  1.00  0.00    -0.341 OA
ENDROOT
BRANCH   1   7
ATOM      7  O   UNL     1       8.355  -5.909  -2.879  1.00  0.00    -0.350 OA
BRANCH   7   8
ATOM      8  C   UNL     1       8.481  -7.309  -3.060  1.00  0.00     0.160 C 
ATOM      9  C   UNL     1       8.367  -8.053  -1.733  1.00  0.00     0.035 C 
ENDBRANCH   7   8
ENDBRANCH   1   7
BRANCH   2  10
ATOM     10  O   UNL     1       9.717  -4.703  -0.787  1.00  0.00    -0.385 OA
ATOM     11  H   UNL     1      10.084  -4.871  -1.695  1.00  0.00     0.211 HD
ENDBRANCH   2  10
BRANCH   3  12
ATOM     12  O   UNL     1       9.065  -2.918  -2.747  1.00  0.00    -0.387 OA
ATOM     13  H   UNL     1       8.923  -2.029  -3.157  1.00  0.00     0.211 HD
ENDBRANCH   3  12
BRANCH   5  14
ATOM     14  C   UNL     1       4.652  -4.003  -3.124  1.00  0.00     0.191 C 
BRANCH  14  15
ATOM     15  O   UNL     1       3.951  -3.533  -2.004  1.00  0.00    -0.394 OA
ATOM     16  H   UNL     1       3.179  -3.013  -2.349  1.00  0.00     0.210 HD
ENDBRANCH  14  15
ENDBRANCH   5  14
BRANCH   4  17
ATOM     17  O   UNL     1       6.545  -1.748  -2.926  1.00  0.00    -0.387 OA
ATOM     18  H   UNL     1       5.577  -1.530  -2.978  1.00  0.00     0.211 HD
ENDBRANCH   4  17
TORSDOF 7
ENDMDL
MODEL 4
REMARK VINA RESULT:    -3.402      1.893      3.731
REMARK INTER + INTRA:          -4.799
REMARK INTER:                  -4.492
REMARK INTRA:                  -0.308
REMARK UNBOUND:                -0.403
REMARK SMILES CCO[C@@H]1O[C@@H](CO)[C@H](O)[C@H](O)[C@@H]1O
REMARK SMILES IDX 4 1 13 2 11 3 9 4 6 5 5 6 3 7 2 8 1 9 14 10 12 12 7 14 8 15
REMARK SMILES IDX 10 17
REMARK H PARENT 14 11 12 13 8 16 10 18
REMARK Flexibility Score: inf
ROOT
ATOM      1  C   UNL     1       7.564  -2.531  -1.455  1.00  0.00     0.281 C 
ATOM      2  C   UNL     1       6.651  -3.603  -0.823  1.00  0.00     0.202 C 
ATOM      3  C   UNL     1       6.703  -4.945  -1.585  1.00  0.00     0.179 C 
ATOM      4  C   UNL     1       8.162  -5.330  -1.912  1.00  0.00     0.177 C 
ATOM      5  C   UNL     1       8.942  -4.128  -2.502  1.00  0.00     0.178 C 
ATOM      6  O   UNL     1       8.889  -3.020  -1.616  1.00  0.00    -0.341 OA
ENDROOT
BRANCH   1   7
ATOM      7  O   UNL     1       7.022  -2.075  -2.688  1.00  0.00    -0.350 OA
BRANCH   7   8
ATOM      8  C   UNL     1       7.628  -0.871  -3.125  1.00  0.00     0.160 C 
ATOM      9  C   UNL     1       6.632   0.286  -3.121  1.00  0.00     0.035 C 
ENDBRANCH   7   8
ENDBRANCH   1   7
BRANCH   2  10
ATOM     10  O   UNL     1       5.332  -3.122  -0.755  1.00  0.00    -0.385 OA
ATOM     11  H   UNL     1       5.037  -3.227   0.188  1.00  0.00     0.211 HD
ENDBRANCH   2  10
BRANCH   3  12
ATOM     12  O   UNL     1       5.877  -4.931  -2.726  1.00  0.00    -0.387 OA
ATOM     13  H   UNL     1       6.306  -4.371  -3.419  1.00  0.00     0.211 HD
ENDBRANCH   3  12
BRANCH   5  14
ATOM     14  C   UNL     1      10.416  -4.500  -2.720  1.00  0.00     0.191 C 
BRANCH  14  15
ATOM     15  O   UNL     1      10.880  -5.307  -1.671  1.00  0.00    -0.394 OA
ATOM     16  H   UNL     1      10.226  -6.047  -1.571  1.00  0.00     0.210 HD
ENDBRANCH  14  15
ENDBRANCH   5  14
BRANCH   4  17
ATOM     17  O   UNL     1       8.206  -6.455  -2.755  1.00  0.00    -0.387 OA
ATOM     18  H   UNL     1       7.289  -6.831  -2.813  1.00  0.00     0.211 HD
ENDBRANCH   4  17
TORSDOF 7
ENDMDL
MODEL 5
REMARK VINA RESULT:    -3.216      1.794      4.032
REMARK INTER + INTRA:          -4.558
REMARK INTER:                  -4.206
REMARK INTRA:                  -0.353
REMARK UNBOUND:                -0.403
REMARK SMILES CCO[C@@H]1O[C@@H](CO)[C@H](O)[C@H](O)[C@@H]1O
REMARK SMILES IDX 4 1 13 2 11 3 9 4 6 5 5 6 3 7 2 8 1 9 14 10 12 12 7 14 8 15
REMARK SMILES IDX 10 17
REMARK H PARENT 14 11 12 13 8 16 10 18
REMARK Flexibility Score: inf
ROOT
ATOM      1  C   UNL     1       9.593  -5.036  -1.586  1.00  0.00     0.281 C 
ATOM      2  C   UNL     1       8.454  -4.115  -1.095  1.00  0.00     0.202 C 
ATOM      3  C   UNL     1       7.156  -4.300  -1.910  1.00  0.00     0.179 C 
ATOM      4  C   UNL     1       6.847  -5.799  -2.112  1.00  0.00     0.177 C 
ATOM      5  C   UNL     1       8.108  -6.577  -2.567  1.00  0.00     0.178 C 
ATOM      6  O   UNL     1       9.167  -6.390  -1.640  1.00  0.00    -0.341 OA
ENDROOT
BRANCH   1   7
ATOM      7  O   UNL     1      10.089  -4.593  -2.843  1.00  0.00    -0.350 OA
BRANCH   7   8
ATOM      8  C   UNL     1      11.405  -5.057  -3.091  1.00  0.00     0.160 C 
ATOM      9  C   UNL     1      12.403  -3.903  -3.125  1.00  0.00     0.035 C 
ENDBRANCH   7   8
ENDBRANCH   1   7
BRANCH   2  10
ATOM     10  O   UNL     1       8.879  -2.776  -1.134  1.00  0.00    -0.385 OA
ATOM     11  H   UNL     1       9.400  -2.665  -1.973  1.00  0.00     0.211 HD
ENDBRANCH   2  10
BRANCH   3  12
ATOM     12  O   UNL     1       7.194  -3.586  -3.125  1.00  0.00    -0.387 OA
ATOM     13  H   UNL     1       6.500  -2.883  -3.099  1.00  0.00     0.211 HD
ENDBRANCH   3  12
BRANCH   5  14
ATOM     14  C   UNL     1       7.806  -8.080  -2.658  1.00  0.00     0.191 C 
BRANCH  14  15
ATOM     15  O   UNL     1       6.950  -8.474  -1.619  1.00  0.00    -0.394 OA
ATOM     16  H   UNL     1       6.220  -7.802  -1.582  1.00  0.00     0.210 HD
ENDBRANCH  14  15
ENDBRANCH   5  14
BRANCH   4  17
ATOM     17  O   UNL     1       5.768  -5.974  -2.998  1.00  0.00    -0.387 OA
ATOM     18  H   UNL     1       6.139  -6.196  -3.892  1.00  0.00     0.211 HD
ENDBRANCH   4  17
TORSDOF 7
ENDMDL
MODEL 6
REMARK VINA RESULT:    -3.109      1.769      3.281
REMARK INTER + INTRA:          -4.421
REMARK INTER:                  -4.105
REMARK INTRA:                  -0.316
REMARK UNBOUND:                -0.403
REMARK SMILES CCO[C@@H]1O[C@@H](CO)[C@H](O)[C@H](O)[C@@H]1O
REMARK SMILES IDX 4 1 13 2 11 3 9 4 6 5 5 6 3 7 2 8 1 9 14 10 12 12 7 14 8 15
REMARK SMILES IDX 10 17
REMARK H PARENT 14 11 12 13 8 16 10 18
REMARK Flexibility Score: inf
ROOT
ATOM      1  C   UNL     1       7.371  -4.636  -2.872  1.00  0.00     0.281 C 
ATOM      2  C   UNL     1       8.854  -4.254  -2.675  1.00  0.00     0.202 C 
ATOM      3  C   UNL     1       9.529  -5.073  -1.552  1.00  0.00     0.179 C 
ATOM      4  C   UNL     1       9.169  -6.569  -1.678  1.00  0.00     0.177 C 
ATOM      5  C   UNL     1       7.650  -6.767  -1.909  1.00  0.00     0.178 C 
ATOM      6  O   UNL     1       7.224  -6.038  -3.051  1.00  0.00    -0.341 OA
ENDROOT
BRANCH   1   7
ATOM      7  O   UNL     1       6.583  -4.162  -1.786  1.00  0.00    -0.350 OA
BRANCH   7   8
ATOM      8  C   UNL     1       5.504  -3.354  -2.223  1.00  0.00     0.160 C 
ATOM      9  C   UNL     1       4.554  -4.136  -3.125  1.00  0.00     0.035 C 
ENDBRANCH   7   8
ENDBRANCH   1   7
BRANCH   2  10
ATOM     10  O   UNL     1       8.959  -2.877  -2.416  1.00  0.00    -0.385 OA
ATOM     11  H   UNL     1       8.048  -2.562  -2.174  1.00  0.00     0.211 HD
ENDBRANCH   2  10
BRANCH   3  12
ATOM     12  O   UNL     1       9.237  -4.551  -0.276  1.00  0.00    -0.387 OA
ATOM     13  H   UNL     1       8.530  -5.107   0.137  1.00  0.00     0.211 HD
ENDBRANCH   3  12
BRANCH   5  14
ATOM     14  C   UNL     1       7.330  -8.251  -2.138  1.00  0.00     0.191 C 
BRANCH  14  15
ATOM     15  O   UNL     1       8.370  -8.875  -2.843  1.00  0.00    -0.394 OA
ATOM     16  H   UNL     1       9.146  -8.256  -2.812  1.00  0.00     0.210 HD
ENDBRANCH  14  15
ENDBRANCH   5  14
BRANCH   4  17
ATOM     17  O   UNL     1       9.633  -7.292  -0.563  1.00  0.00    -0.387 OA
ATOM     18  H   UNL     1       9.227  -8.197  -0.595  1.00  0.00     0.211 HD
ENDBRANCH   4  17
TORSDOF 7
ENDMDL
MODEL 7
REMARK VINA RESULT:    -3.109      1.649      2.077
REMARK INTER + INTRA:          -4.420
REMARK INTER:                  -4.218
REMARK INTRA:                  -0.202
REMARK UNBOUND:                -0.403
REMARK SMILES CCO[C@@H]1O[C@@H](CO)[C@H](O)[C@H](O)[C@@H]1O
REMARK SMILES IDX 4 1 13 2 11 3 9 4 6 5 5 6 3 7 2 8 1 9 14 10 12 12 7 14 8 15
REMARK SMILES IDX 10 17
REMARK H PARENT 14 11 12 13 8 16 10 18
REMARK Flexibility Score: inf
ROOT
ATOM      1  C   UNL     1       8.243  -6.828  -2.818  1.00  0.00     0.281 C 
ATOM      2  C   UNL     1       7.220  -5.713  -3.125  1.00  0.00     0.202 C 
ATOM      3  C   UNL     1       7.531  -4.404  -2.368  1.00  0.00     0.179 C 
ATOM      4  C   UNL     1       9.034  -4.063  -2.464  1.00  0.00     0.177 C 
ATOM      5  C   UNL     1       9.913  -5.302  -2.163  1.00  0.00     0.178 C 
ATOM      6  O   UNL     1       9.573  -6.374  -3.030  1.00  0.00    -0.341 OA
ENDROOT
BRANCH   1   7
ATOM      7  O   UNL     1       8.065  -7.321  -1.495  1.00  0.00    -0.350 OA
BRANCH   7   8
ATOM      8  C   UNL     1       7.821  -8.717  -1.474  1.00  0.00     0.160 C 
ATOM      9  C   UNL     1       6.464  -9.035  -0.854  1.00  0.00     0.035 C 
ENDBRANCH   7   8
ENDBRANCH   1   7
BRANCH   2  10
ATOM     10  O   UNL     1       5.924  -6.165  -2.825  1.00  0.00    -0.385 OA
ATOM     11  H   UNL     1       5.296  -5.460  -3.135  1.00  0.00     0.211 HD
ENDBRANCH   2  10
BRANCH   3  12
ATOM     12  O   UNL     1       7.068  -4.446  -1.038  1.00  0.00    -0.387 OA
ATOM     13  H   UNL     1       6.983  -3.518  -0.705  1.00  0.00     0.211 HD
ENDBRANCH   3  12
BRANCH   5  14
ATOM     14  C   UNL     1      11.398  -4.969  -2.367  1.00  0.00     0.191 C 
BRANCH  14  15
ATOM     15  O   UNL     1      12.150  -5.373  -1.254  1.00  0.00    -0.394 OA
ATOM     16  H   UNL     1      11.502  -5.575  -0.531  1.00  0.00     0.210 HD
ENDBRANCH  14  15
ENDBRANCH   5  14
BRANCH   4  17
ATOM     17  O   UNL     1       9.354  -2.972  -1.634  1.00  0.00    -0.387 OA
ATOM     18  H   UNL     1       8.593  -2.335  -1.659  1.00  0.00     0.211 HD
ENDBRANCH   4  17
TORSDOF 7
ENDMDL
MODEL 8
REMARK VINA RESULT:    -2.934      1.845      4.040
REMARK INTER + INTRA:          -4.195
REMARK INTER:                  -3.869
REMARK INTRA:                  -0.326
REMARK UNBOUND:                -0.403
REMARK SMILES CCO[C@@H]1O[C@@H](CO)[C@H](O)[C@H](O)[C@@H]1O
REMARK SMILES IDX 4 1 13 2 11 3 9 4 6 5 5 6 3 7 2 8 1 9 14 10 12 12 7 14 8 15
REMARK SMILES IDX 10 17
REMARK H PARENT 14 11 12 13 8 16 10 18
REMARK Flexibility Score: inf
ROOT
ATOM      1  C   UNL     1       9.167  -4.654  -3.048  1.00  0.00     0.281 C 
ATOM      2  C   UNL     1       7.897  -5.530  -3.125  1.00  0.00     0.202 C 
ATOM      3  C   UNL     1       6.830  -5.111  -2.091  1.00  0.00     0.179 C 
ATOM      4  C   UNL     1       6.659  -3.577  -2.075  1.00  0.00     0.177 C 
ATOM      5  C   UNL     1       8.031  -2.858  -2.035  1.00  0.00     0.178 C 
ATOM      6  O   UNL     1       8.840  -3.274  -3.125  1.00  0.00    -0.341 OA
ENDROOT
BRANCH   1   7
ATOM      7  O   UNL     1       9.910  -4.951  -1.872  1.00  0.00    -0.350 OA
BRANCH   7   8
ATOM      8  C   UNL     1      11.226  -5.383  -2.167  1.00  0.00     0.160 C 
ATOM      9  C   UNL     1      11.954  -4.379  -3.057  1.00  0.00     0.035 C 
ENDBRANCH   7   8
ENDBRANCH   1   7
BRANCH   2  10
ATOM     10  O   UNL     1       8.244  -6.882  -2.961  1.00  0.00    -0.385 OA
ATOM     11  H   UNL     1       8.139  -7.089  -1.995  1.00  0.00     0.211 HD
ENDBRANCH   2  10
BRANCH   3  12
ATOM     12  O   UNL     1       7.103  -5.640  -0.814  1.00  0.00    -0.387 OA
ATOM     13  H   UNL     1       6.965  -4.927  -0.142  1.00  0.00     0.211 HD
ENDBRANCH   3  12
BRANCH   5  14
ATOM     14  C   UNL     1       7.842  -1.336  -2.127  1.00  0.00     0.191 C 
BRANCH  14  15
ATOM     15  O   UNL     1       6.623  -1.030  -2.749  1.00  0.00    -0.394 OA
ATOM     16  H   UNL     1       6.057  -0.588  -2.064  1.00  0.00     0.210 HD
ENDBRANCH  14  15
ENDBRANCH   5  14
BRANCH   4  17
ATOM     17  O   UNL     1       5.821  -3.177  -1.018  1.00  0.00    -0.387 OA
ATOM     18  H   UNL     1       4.999  -2.783  -1.411  1.00  0.00     0.211 HD
ENDBRANCH   4  17
TORSDOF 7
ENDMDL
MODEL 9
REMARK VINA RESULT:    -2.684      1.463      3.331
REMARK INTER + INTRA:          -3.872
REMARK INTER:                  -3.896
REMARK INTRA:                   0.024
REMARK UNBOUND:                -0.403
REMARK SMILES CCO[C@@H]1O[C@@H](CO)[C@H](O)[C@H](O)[C@@H]1O
REMARK SMILES IDX 4 1 13 2 11 3 9 4 6 5 5 6 3 7 2 8 1 9 14 10 12 12 7 14 8 15
REMARK SMILES IDX 10 17
REMARK H PARENT 14 11 12 13 8 16 10 18
REMARK Flexibility Score: inf
ROOT
ATOM      1  C   UNL     1       6.581  -5.730  -1.672  1.00  0.00     0.281 C 
ATOM      2  C   UNL     1       7.431  -7.016  -1.580  1.00  0.00     0.202 C 
ATOM      3  C   UNL     1       8.939  -6.739  -1.763  1.00  0.00     0.179 C 
ATOM      4  C   UNL     1       9.373  -5.514  -0.929  1.00  0.00     0.177 C 
ATOM      5  C   UNL     1       8.390  -4.331  -1.111  1.00  0.00     0.178 C 
ATOM      6  O   UNL     1       7.067  -4.732  -0.786  1.00  0.00    -0.341 OA
ENDROOT
BRANCH   1   7
ATOM      7  O   UNL     1       6.530  -5.258  -3.013  1.00  0.00    -0.350 OA
BRANCH   7   8
ATOM      8  C   UNL     1       5.860  -4.014  -3.116  1.00  0.00     0.160 C 
ATOM      9  C   UNL     1       4.345  -4.196  -3.122  1.00  0.00     0.035 C 
ENDBRANCH   7   8
ENDBRANCH   1   7
BRANCH   2  10
ATOM     10  O   UNL     1       6.980  -7.951  -2.527  1.00  0.00    -0.385 OA
ATOM     11  H   UNL     1       7.785  -8.413  -2.879  1.00  0.00     0.211 HD
ENDBRANCH   2  10
BRANCH   3  12
ATOM     12  O   UNL     1       9.288  -6.619  -3.123  1.00  0.00    -0.387 OA
ATOM     13  H   UNL     1       9.984  -7.291  -3.330  1.00  0.00     0.211 HD
ENDBRANCH   3  12
BRANCH   5  14
ATOM     14  C   UNL     1       8.779  -3.163  -0.193  1.00  0.00     0.191 C 
BRANCH  14  15
ATOM     15  O   UNL     1       8.858  -3.592   1.141  1.00  0.00    -0.394 OA
ATOM     16  H   UNL     1       9.529  -3.013   1.587  1.00  0.00     0.210 HD
ENDBRANCH  14  15
ENDBRANCH   5  14
BRANCH   4  17
ATOM     17  O   UNL     1      10.700  -5.151  -1.226  1.00  0.00    -0.387 OA
ATOM     18  H   UNL     1      10.941  -4.378  -0.651  1.00  0.00     0.211 HD
ENDBRANCH   4  17
TORSDOF 7
ENDMDL
