MODEL 1
REMARK VINA RESULT:    -3.723      0.000      0.000
REMARK INTER + INTRA:          -4.791
REMARK INTER:                  -4.594
REMARK INTRA:                  -0.197
REMARK UNBOUND:                -0.197
REMARK SMILES CCCCCC(=O)[O-]
REMARK SMILES IDX 4 1 5 2 6 3 7 4 8 5 3 6 2 7 1 8
REMARK H PARENT
REMARK Flexibility Score: inf
ROOT
ATOM      1  C   UNL     1       1.903  -1.821  -6.021  1.00  0.00     0.006 C 
ENDROOT
BRANCH   1   2
ATOM      2  C   UNL     1       2.570  -3.008  -6.728  1.00  0.00     0.053 C 
BRANCH   2   3
ATOM      3  C   UNL     1       1.980  -4.315  -6.292  1.00  0.00     0.041 C 
ATOM      4  O   UNL     1       2.723  -5.231  -5.853  1.00  0.00    -0.550 OA
ATOM      5  O   UNL     1       0.605  -4.507  -6.341  1.00  0.00    -0.550 OA
ENDBRANCH   2   3
ENDBRANCH   1   2
BRANCH   1   6
ATOM      6  C   UNL     1       0.872  -1.117  -6.920  1.00  0.00     0.000 C 
BRANCH   6   7
ATOM      7  C   UNL     1       1.068  -1.443  -8.408  1.00  0.00    -0.003 C 
ATOM      8  C   UNL     1      -0.205  -1.971  -9.070  1.00  0.00     0.004 C 
ENDBRANCH   6   7
ENDBRANCH   1   6
TORSDOF 4
ENDMDL
MODEL 2
REMARK VINA RESULT:    -3.718      0.247      1.162
REMARK INTER + INTRA:          -4.784
REMARK INTER:                  -4.623
REMARK INTRA:                  -0.162
REMARK UNBOUND:                -0.197
REMARK SMILES CCCCCC(=O)[O-]
REMARK SMILES IDX 4 1 5 2 6 3 7 4 8 5 3 6 2 7 1 8
REMARK H PARENT
REMARK Flexibility Score: inf
ROOT
ATOM      1  C   UNL     1       1.769  -1.646  -6.049  1.00  0.00     0.006 C 
ENDROOT
BRANCH   1   2
ATOM      2  C   UNL     1       2.564  -2.818  -6.639  1.00  0.00     0.053 C 
BRANCH   2   3
ATOM      3  C   UNL     1       2.023  -4.140  -6.185  1.00  0.00     0.041 C 
ATOM      4  O   UNL     1       0.782  -4.305  -6.052  1.00  0.00    -0.550 OA
ATOM      5  O   UNL     1       2.888  -5.198  -5.939  1.00  0.00    -0.550 OA
ENDBRANCH   2   3
ENDBRANCH   1   2
BRANCH   1   6
ATOM      6  C   UNL     1       0.760  -1.066  -7.053  1.00  0.00     0.000 C 
BRANCH   6   7
ATOM      7  C   UNL     1       1.027  -1.532  -8.493  1.00  0.00    -0.003 C 
ATOM      8  C   UNL     1      -0.153  -2.294  -9.096  1.00  0.00     0.004 C 
ENDBRANCH   6   7
ENDBRANCH   1   6
TORSDOF 4
ENDMDL
MODEL 3
REMARK VINA RESULT:    -3.704      2.509      3.611
REMARK INTER + INTRA:          -4.767
REMARK INTER:                  -4.540
REMARK INTRA:                  -0.226
REMARK UNBOUND:                -0.197
REMARK SMILES CCCCCC(=O)[O-]
REMARK SMILES IDX 4 1 5 2 6 3 7 4 8 5 3 6 2 7 1 8
REMARK H PARENT
REMARK Flexibility Score: inf
ROOT
ATOM      1  C   UNL     1       1.177  -3.382  -5.894  1.00  0.00     0.006 C 
ENDROOT
BRANCH   1   2
ATOM      2  C   UNL     1       1.900  -2.029  -5.929  1.00  0.00     0.053 C 
BRANCH   2   3
ATOM      3  C   UNL     1       1.514  -1.226  -7.134  1.00  0.00     0.041 C 
ATOM      4  O   UNL     1       0.462  -0.536  -7.126  1.00  0.00    -0.550 OA
ATOM      5  O   UNL     1       2.336  -1.215  -8.254  1.00  0.00    -0.550 OA
ENDBRANCH   2   3
ENDBRANCH   1   2
BRANCH   1   6
ATOM      6  C   UNL     1       2.159  -4.565  -5.945  1.00  0.00     0.000 C 
BRANCH   6   7
ATOM      7  C   UNL     1       2.750  -4.780  -7.347  1.00  0.00    -0.003 C 
ATOM      8  C   UNL     1       1.676  -4.976  -8.417  1.00  0.00     0.004 C 
ENDBRANCH   6   7
ENDBRANCH   1   6
TORSDOF 4
ENDMDL
MODEL 4
REMARK VINA RESULT:    -3.625      1.247      1.588
REMARK INTER + INTRA:          -4.669
REMARK INTER:                  -4.427
REMARK INTRA:                  -0.242
REMARK UNBOUND:                -0.197
REMARK SMILES CCCCCC(=O)[O-]
REMARK SMILES IDX 4 1 5 2 6 3 7 4 8 5 3 6 2 7 1 8
REMARK H PARENT
REMARK Flexibility Score: inf
ROOT
ATOM      1  C   UNL     1       1.313  -3.205  -5.718  1.00  0.00     0.006 C 
ENDROOT
BRANCH   1   2
ATOM      2  C   UNL     1       2.204  -4.407  -6.057  1.00  0.00     0.053 C 
BRANCH   2   3
ATOM      3  C   UNL     1       1.988  -4.878  -7.463  1.00  0.00     0.041 C 
ATOM      4  O   UNL     1       2.961  -5.267  -8.159  1.00  0.00    -0.550 OA
ATOM      5  O   UNL     1       0.704  -4.917  -7.993  1.00  0.00    -0.550 OA
ENDBRANCH   2   3
ENDBRANCH   1   2
BRANCH   1   6
ATOM      6  C   UNL     1       1.831  -1.902  -6.349  1.00  0.00     0.000 C 
BRANCH   6   7
ATOM      7  C   UNL     1       0.722  -1.107  -7.053  1.00  0.00    -0.003 C 
ATOM      8  C   UNL     1       0.663  -1.378  -8.556  1.00  0.00     0.004 C 
ENDBRANCH   6   7
ENDBRANCH   1   6
TORSDOF 4
ENDMDL
MODEL 5
REMARK VINA RESULT:    -3.478      2.513      3.732
REMARK INTER + INTRA:          -4.488
REMARK INTER:                  -4.289
REMARK INTRA:                  -0.199
REMARK UNBOUND:                -0.197
REMARK SMILES CCCCCC(=O)[O-]
REMARK SMILES IDX 4 1 5 2 6 3 7 4 8 5 3 6 2 7 1 8
REMARK H PARENT
REMARK Flexibility Score: inf
ROOT
ATOM      1  C   UNL     1       2.311  -2.029  -6.382  1.00  0.00     0.006 C 
ENDROOT
BRANCH   1   2
ATOM      2  C   UNL     1       2.488  -1.866  -7.897  1.00  0.00     0.053 C 
BRANCH   2   3
ATOM      3  C   UNL     1       1.254  -1.315  -8.543  1.00  0.00     0.041 C 
ATOM      4  O   UNL     1       0.896  -0.130  -8.318  1.00  0.00    -0.550 OA
ATOM      5  O   UNL     1       0.518  -2.102  -9.421  1.00  0.00    -0.550 OA
ENDBRANCH   2   3
ENDBRANCH   1   2
BRANCH   1   6
ATOM      6  C   UNL     1       1.044  -2.825  -6.029  1.00  0.00     0.000 C 
BRANCH   6   7
ATOM      7  C   UNL     1       1.181  -4.322  -6.348  1.00  0.00    -0.003 C 
ATOM      8  C   UNL     1       2.447  -4.939  -5.755  1.00  0.00     0.004 C 
ENDBRANCH   6   7
ENDBRANCH   1   6
TORSDOF 4
ENDMDL
MODEL 6
REMARK VINA RESULT:    -3.416     15.886     17.049
REMARK INTER + INTRA:          -4.411
REMARK INTER:                  -4.276
REMARK INTRA:                  -0.135
REMARK UNBOUND:                -0.197
REMARK SMILES CCCCCC(=O)[O-]
REMARK SMILES IDX 4 1 5 2 6 3 7 4 8 5 3 6 2 7 1 8
REMARK H PARENT
REMARK Flexibility Score: inf
ROOT
ATOM      1  C   UNL     1       9.117   9.886   2.607  1.00  0.00     0.006 C 
ENDROOT
BRANCH   1   2
ATOM      2  C   UNL     1       8.834   9.999   1.103  1.00  0.00     0.053 C 
BRANCH   2   3
ATOM      3  C   UNL     1       8.631   8.654   0.475  1.00  0.00     0.041 C 
ATOM      4  O   UNL     1       7.760   8.497  -0.420  1.00  0.00    -0.550 OA
ATOM      5  O   UNL     1       9.427   7.581   0.856  1.00  0.00    -0.550 OA
ENDBRANCH   2   3
ENDBRANCH   1   2
BRANCH   1   6
ATOM      6  C   UNL     1       7.826   9.744   3.431  1.00  0.00     0.000 C 
BRANCH   6   7
ATOM      7  C   UNL     1       8.001   8.816   4.643  1.00  0.00    -0.003 C 
ATOM      8  C   UNL     1       9.374   8.953   5.299  1.00  0.00     0.004 C 
ENDBRANCH   6   7
ENDBRANCH   1   6
TORSDOF 4
ENDMDL
MODEL 7
REMARK VINA RESULT:    -3.371      1.245      2.095
REMARK INTER + INTRA:          -4.356
REMARK INTER:                  -4.136
REMARK INTRA:                  -0.220
REMARK UNBOUND:                -0.197
REMARK SMILES CCCCCC(=O)[O-]
REMARK SMILES IDX 4 1 5 2 6 3 7 4 8 5 3 6 2 7 1 8
REMARK H PARENT
REMARK Flexibility Score: inf
ROOT
ATOM      1  C   UNL     1       1.193  -3.714  -8.492  1.00  0.00     0.006 C 
ENDROOT
BRANCH   1   2
ATOM      2  C   UNL     1       1.017  -4.509  -7.192  1.00  0.00     0.053 C 
BRANCH   2   3
ATOM      3  C   UNL     1       2.224  -4.405  -6.310  1.00  0.00     0.041 C 
ATOM      4  O   UNL     1       2.585  -5.386  -5.610  1.00  0.00    -0.550 OA
ATOM      5  O   UNL     1       2.970  -3.233  -6.289  1.00  0.00    -0.550 OA
ENDBRANCH   2   3
ENDBRANCH   1   2
BRANCH   1   6
ATOM      6  C   UNL     1       0.167  -2.576  -8.619  1.00  0.00     0.000 C 
BRANCH   6   7
ATOM      7  C   UNL     1       0.775  -1.198  -8.314  1.00  0.00    -0.003 C 
ATOM      8  C   UNL     1       0.615  -0.792  -6.849  1.00  0.00     0.004 C 
ENDBRANCH   6   7
ENDBRANCH   1   6
TORSDOF 4
ENDMDL
MODEL 8
REMARK VINA RESULT:    -3.367      2.667      4.020
REMARK INTER + INTRA:          -4.351
REMARK INTER:                  -4.236
REMARK INTRA:                  -0.115
REMARK UNBOUND:                -0.197
REMARK SMILES CCCCCC(=O)[O-]
REMARK SMILES IDX 4 1 5 2 6 3 7 4 8 5 3 6 2 7 1 8
REMARK H PARENT
REMARK Flexibility Score: inf
ROOT
ATOM      1  C   UNL     1       0.390  -3.374  -8.651  1.00  0.00     0.006 C 
ENDROOT
BRANCH   1   2
ATOM      2  C   UNL     1       1.274  -2.164  -8.318  1.00  0.00     0.053 C 
BRANCH   2   3
ATOM      3  C   UNL     1       0.480  -1.050  -7.707  1.00  0.00     0.041 C 
ATOM      4  O   UNL     1       0.894  -0.472  -6.669  1.00  0.00    -0.550 OA
ATOM      5  O   UNL     1      -0.700  -0.628  -8.306  1.00  0.00    -0.550 OA
ENDBRANCH   2   3
ENDBRANCH   1   2
BRANCH   1   6
ATOM      6  C   UNL     1       0.795  -4.624  -7.852  1.00  0.00     0.000 C 
BRANCH   6   7
ATOM      7  C   UNL     1       0.988  -4.331  -6.356  1.00  0.00    -0.003 C 
ATOM      8  C   UNL     1       2.360  -4.765  -5.841  1.00  0.00     0.004 C 
ENDBRANCH   6   7
ENDBRANCH   1   6
TORSDOF 4
ENDMDL
MODEL 9
REMARK VINA RESULT:    -3.343      2.894      3.662
REMARK INTER + INTRA:          -4.322
REMARK INTER:                  -4.223
REMARK INTRA:                  -0.099
REMARK UNBOUND:                -0.197
REMARK SMILES CCCCCC(=O)[O-]
REMARK SMILES IDX 4 1 5 2 6 3 7 4 8 5 3 6 2 7 1 8
REMARK H PARENT
REMARK Flexibility Score: inf
ROOT
ATOM      1  C   UNL     1       0.759  -4.439  -8.176  1.00  0.00     0.006 C 
ENDROOT
BRANCH   1   2
ATOM      2  C   UNL     1       0.885  -4.311  -6.652  1.00  0.00     0.053 C 
BRANCH   2   3
ATOM      3  C   UNL     1       2.318  -4.267  -6.217  1.00  0.00     0.041 C 
ATOM      4  O   UNL     1       2.935  -5.333  -5.955  1.00  0.00    -0.550 OA
ATOM      5  O   UNL     1       2.983  -3.050  -6.133  1.00  0.00    -0.550 OA
ENDBRANCH   2   3
ENDBRANCH   1   2
BRANCH   1   6
ATOM      6  C   UNL     1       0.510  -5.891  -8.617  1.00  0.00     0.000 C 
BRANCH   6   7
ATOM      7  C   UNL     1      -0.836  -6.066  -9.338  1.00  0.00    -0.003 C 
ATOM      8  C   UNL     1      -1.618  -7.282  -8.842  1.00  0.00     0.004 C 
ENDBRANCH   6   7
ENDBRANCH   1   6
TORSDOF 4
ENDMDL
