MODEL 1
REMARK VINA RESULT:    -4.644      0.000      0.000
REMARK INTER + INTRA:         -11.413
REMARK INTER:                  -8.989
REMARK INTRA:                  -2.425
REMARK UNBOUND:                -2.425
REMARK SMILES CCCCCCCCCCCCCCCCCC(=O)[O-]
REMARK SMILES IDX 10 1 11 2 12 3 13 4 14 5 15 6 16 7 17 8 18 9 19 10 20 11
REMARK SMILES IDX 9 12 8 13 7 14 6 15 5 16 4 17 3 18 2 19 1 20
REMARK H PARENT
REMARK Flexibility Score: inf
ROOT
ATOM      1  C   UNL     1      55.972  -4.606  30.631  1.00  0.00     0.000 C 
ENDROOT
BRANCH   1   2
ATOM      2  C   UNL     1      57.438  -4.239  30.325  1.00  0.00     0.000 C 
BRANCH   2   3
ATOM      3  C   UNL     1      58.176  -3.516  31.465  1.00  0.00     0.000 C 
BRANCH   3   4
ATOM      4  C   UNL     1      59.389  -2.708  30.973  1.00  0.00     0.000 C 
BRANCH   4   5
ATOM      5  C   UNL     1      59.377  -2.511  29.442  1.00  0.00     0.000 C 
BRANCH   5   6
ATOM      6  C   UNL     1      60.351  -1.423  28.950  1.00  0.00     0.000 C 
BRANCH   6   7
ATOM      7  C   UNL     1      61.493  -1.934  28.051  1.00  0.00     0.006 C 
BRANCH   7   8
ATOM      8  C   UNL     1      61.724  -3.453  28.126  1.00  0.00     0.053 C 
BRANCH   8   9
ATOM      9  C   UNL     1      62.555  -3.949  26.983  1.00  0.00     0.041 C 
ATOM     10  O   UNL     1      63.217  -5.014  27.097  1.00  0.00    -0.550 OA
ATOM     11  O   UNL     1      62.570  -3.254  25.780  1.00  0.00    -0.550 OA
ENDBRANCH   8   9
ENDBRANCH   7   8
ENDBRANCH   6   7
ENDBRANCH   5   6
ENDBRANCH   4   5
ENDBRANCH   3   4
ENDBRANCH   2   3
ENDBRANCH   1   2
BRANCH   1  12
ATOM     12  C   UNL     1      55.446  -4.124  31.998  1.00  0.00     0.000 C 
BRANCH  12  13
ATOM     13  C   UNL     1      54.289  -3.111  31.929  1.00  0.00    -0.000 C 
BRANCH  13  14
ATOM     14  C   UNL     1      54.698  -1.781  31.280  1.00  0.00    -0.000 C 
BRANCH  14  15
ATOM     15  C   UNL     1      53.757  -1.424  30.123  1.00  0.00    -0.000 C 
BRANCH  15  16
ATOM     16  C   UNL     1      54.530  -1.288  28.806  1.00  0.00    -0.000 C 
BRANCH  16  17
ATOM     17  C   UNL     1      56.021  -1.029  29.068  1.00  0.00    -0.000 C 
BRANCH  17  18
ATOM     18  C   UNL     1      56.526   0.275  28.425  1.00  0.00    -0.000 C 
BRANCH  18  19
ATOM     19  C   UNL     1      57.190   1.263  29.401  1.00  0.00    -0.003 C 
ATOM     20  C   UNL     1      57.696   0.594  30.678  1.00  0.00     0.004 C 
ENDBRANCH  18  19
ENDBRANCH  17  18
ENDBRANCH  16  17
ENDBRANCH  15  16
ENDBRANCH  14  15
ENDBRANCH  13  14
ENDBRANCH  12  13
ENDBRANCH   1  12
TORSDOF 16
ENDMDL
MODEL 2
REMARK VINA RESULT:    -4.561      0.934      3.514
REMARK INTER + INTRA:         -11.252
REMARK INTER:                  -8.823
REMARK INTRA:                  -2.429
REMARK UNBOUND:                -2.425
REMARK SMILES CCCCCCCCCCCCCCCCCC(=O)[O-]
REMARK SMILES IDX 10 1 11 2 12 3 13 4 14 5 15 6 16 7 17 8 18 9 19 10 20 11
REMARK SMILES IDX 9 12 8 13 7 14 6 15 5 16 4 17 3 18 2 19 1 20
REMARK H PARENT
REMARK Flexibility Score: inf
ROOT
ATOM      1  C   UNL     1      55.924   0.178  28.133  1.00  0.00     0.000 C 
ENDROOT
BRANCH   1   2
ATOM      2  C   UNL     1      57.053   0.967  28.826  1.00  0.00     0.000 C 
BRANCH   2   3
ATOM      3  C   UNL     1      57.147   0.762  30.348  1.00  0.00     0.000 C 
BRANCH   3   4
ATOM      4  C   UNL     1      58.412  -0.005  30.770  1.00  0.00     0.000 C 
BRANCH   4   5
ATOM      5  C   UNL     1      59.210  -0.528  29.556  1.00  0.00     0.000 C 
BRANCH   5   6
ATOM      6  C   UNL     1      60.416  -1.406  29.940  1.00  0.00     0.000 C 
BRANCH   6   7
ATOM      7  C   UNL     1      61.371  -1.741  28.778  1.00  0.00     0.006 C 
BRANCH   7   8
ATOM      8  C   UNL     1      61.095  -3.096  28.106  1.00  0.00     0.053 C 
BRANCH   8   9
ATOM      9  C   UNL     1      62.355  -3.749  27.626  1.00  0.00     0.041 C 
ATOM     10  O   UNL     1      63.098  -3.161  26.798  1.00  0.00    -0.550 OA
ATOM     11  O   UNL     1      62.726  -4.993  28.122  1.00  0.00    -0.550 OA
ENDBRANCH   8   9
ENDBRANCH   7   8
ENDBRANCH   6   7
ENDBRANCH   5   6
ENDBRANCH   4   5
ENDBRANCH   3   4
ENDBRANCH   2   3
ENDBRANCH   1   2
BRANCH   1  12
ATOM     12  C   UNL     1      55.613  -1.202  28.749  1.00  0.00     0.000 C 
BRANCH  12  13
ATOM     13  C   UNL     1      54.117  -1.557  28.826  1.00  0.00    -0.000 C 
BRANCH  13  14
ATOM     14  C   UNL     1      53.488  -1.200  30.181  1.00  0.00    -0.000 C 
BRANCH  14  15
ATOM     15  C   UNL     1      54.415  -1.596  31.337  1.00  0.00    -0.000 C 
BRANCH  15  16
ATOM     16  C   UNL     1      54.072  -2.995  31.863  1.00  0.00    -0.000 C 
BRANCH  16  17
ATOM     17  C   UNL     1      55.333  -3.866  31.971  1.00  0.00    -0.000 C 
BRANCH  17  18
ATOM     18  C   UNL     1      56.632  -3.069  31.758  1.00  0.00    -0.000 C 
BRANCH  18  19
ATOM     19  C   UNL     1      57.833  -3.904  31.278  1.00  0.00    -0.003 C 
ATOM     20  C   UNL     1      57.901  -4.034  29.757  1.00  0.00     0.004 C 
ENDBRANCH  18  19
ENDBRANCH  17  18
ENDBRANCH  16  17
ENDBRANCH  15  16
ENDBRANCH  14  15
ENDBRANCH  13  14
ENDBRANCH  12  13
ENDBRANCH   1  12
TORSDOF 16
ENDMDL
MODEL 3
REMARK VINA RESULT:    -4.415      0.968      3.390
REMARK INTER + INTRA:         -10.969
REMARK INTER:                  -8.763
REMARK INTRA:                  -2.206
REMARK UNBOUND:                -2.425
REMARK SMILES CCCCCCCCCCCCCCCCCC(=O)[O-]
REMARK SMILES IDX 10 1 11 2 12 3 13 4 14 5 15 6 16 7 17 8 18 9 19 10 20 11
REMARK SMILES IDX 9 12 8 13 7 14 6 15 5 16 4 17 3 18 2 19 1 20
REMARK H PARENT
REMARK Flexibility Score: inf
ROOT
ATOM      1  C   UNL     1      57.827  -0.499  29.491  1.00  0.00     0.000 C 
ENDROOT
BRANCH   1   2
ATOM      2  C   UNL     1      58.212  -0.175  30.948  1.00  0.00     0.000 C 
BRANCH   2   3
ATOM      3  C   UNL     1      59.159  -1.192  31.610  1.00  0.00     0.000 C 
BRANCH   3   4
ATOM      4  C   UNL     1      60.331  -1.595  30.701  1.00  0.00     0.000 C 
BRANCH   4   5
ATOM      5  C   UNL     1      60.396  -3.121  30.472  1.00  0.00     0.000 C 
BRANCH   5   6
ATOM      6  C   UNL     1      60.209  -3.536  29.001  1.00  0.00     0.000 C 
BRANCH   6   7
ATOM      7  C   UNL     1      61.230  -2.927  28.021  1.00  0.00     0.006 C 
BRANCH   7   8
ATOM      8  C   UNL     1      62.585  -3.653  27.989  1.00  0.00     0.053 C 
BRANCH   8   9
ATOM      9  C   UNL     1      62.891  -4.206  26.631  1.00  0.00     0.041 C 
ATOM     10  O   UNL     1      63.335  -5.378  26.509  1.00  0.00    -0.550 OA
ATOM     11  O   UNL     1      62.653  -3.439  25.497  1.00  0.00    -0.550 OA
ENDBRANCH   8   9
ENDBRANCH   7   8
ENDBRANCH   6   7
ENDBRANCH   5   6
ENDBRANCH   4   5
ENDBRANCH   3   4
ENDBRANCH   2   3
ENDBRANCH   1   2
BRANCH   1  12
ATOM     12  C   UNL     1      56.840   0.490  28.838  1.00  0.00     0.000 C 
BRANCH  12  13
ATOM     13  C   UNL     1      55.644  -0.163  28.121  1.00  0.00    -0.000 C 
BRANCH  13  14
ATOM     14  C   UNL     1      55.264  -1.526  28.717  1.00  0.00    -0.000 C 
BRANCH  14  15
ATOM     15  C   UNL     1      54.089  -1.389  29.693  1.00  0.00    -0.000 C 
BRANCH  15  16
ATOM     16  C   UNL     1      54.573  -1.447  31.148  1.00  0.00    -0.000 C 
BRANCH  16  17
ATOM     17  C   UNL     1      53.929  -2.625  31.894  1.00  0.00    -0.000 C 
BRANCH  17  18
ATOM     18  C   UNL     1      54.825  -3.875  31.928  1.00  0.00    -0.000 C 
BRANCH  18  19
ATOM     19  C   UNL     1      56.334  -3.594  31.814  1.00  0.00    -0.003 C 
ATOM     20  C   UNL     1      56.972  -4.238  30.585  1.00  0.00     0.004 C 
ENDBRANCH  18  19
ENDBRANCH  17  18
ENDBRANCH  16  17
ENDBRANCH  15  16
ENDBRANCH  14  15
ENDBRANCH  13  14
ENDBRANCH  12  13
ENDBRANCH   1  12
TORSDOF 16
ENDMDL
MODEL 4
REMARK VINA RESULT:    -4.273      2.226      5.586
REMARK INTER + INTRA:         -10.694
REMARK INTER:                  -8.627
REMARK INTRA:                  -2.067
REMARK UNBOUND:                -2.425
REMARK SMILES CCCCCCCCCCCCCCCCCC(=O)[O-]
REMARK SMILES IDX 10 1 11 2 12 3 13 4 14 5 15 6 16 7 17 8 18 9 19 10 20 11
REMARK SMILES IDX 9 12 8 13 7 14 6 15 5 16 4 17 3 18 2 19 1 20
REMARK H PARENT
REMARK Flexibility Score: inf
ROOT
ATOM      1  C   UNL     1      55.700  -4.114  31.816  1.00  0.00     0.000 C 
ENDROOT
BRANCH   1   2
ATOM      2  C   UNL     1      54.353  -3.367  31.744  1.00  0.00     0.000 C 
BRANCH   2   3
ATOM      3  C   UNL     1      54.459  -1.873  31.391  1.00  0.00     0.000 C 
BRANCH   3   4
ATOM      4  C   UNL     1      54.065  -1.574  29.935  1.00  0.00     0.000 C 
BRANCH   4   5
ATOM      5  C   UNL     1      55.278  -1.622  28.980  1.00  0.00     0.000 C 
BRANCH   5   6
ATOM      6  C   UNL     1      55.566  -0.282  28.277  1.00  0.00     0.000 C 
BRANCH   6   7
ATOM      7  C   UNL     1      56.789   0.484  28.817  1.00  0.00     0.006 C 
BRANCH   7   8
ATOM      8  C   UNL     1      57.210   0.078  30.239  1.00  0.00     0.053 C 
BRANCH   8   9
ATOM      9  C   UNL     1      58.687  -0.151  30.341  1.00  0.00     0.041 C 
ATOM     10  O   UNL     1      59.230  -0.293  31.468  1.00  0.00    -0.550 OA
ATOM     11  O   UNL     1      59.458  -0.241  29.189  1.00  0.00    -0.550 OA
ENDBRANCH   8   9
ENDBRANCH   7   8
ENDBRANCH   6   7
ENDBRANCH   5   6
ENDBRANCH   4   5
ENDBRANCH   3   4
ENDBRANCH   2   3
ENDBRANCH   1   2
BRANCH   1  12
ATOM     12  C   UNL     1      56.933  -3.222  32.068  1.00  0.00     0.000 C 
BRANCH  12  13
ATOM     13  C   UNL     1      58.218  -3.672  31.350  1.00  0.00    -0.000 C 
BRANCH  13  14
ATOM     14  C   UNL     1      58.012  -3.903  29.846  1.00  0.00    -0.000 C 
BRANCH  14  15
ATOM     15  C   UNL     1      59.326  -3.722  29.078  1.00  0.00    -0.000 C 
BRANCH  15  16
ATOM     16  C   UNL     1      60.495  -3.473  30.039  1.00  0.00    -0.000 C 
BRANCH  16  17
ATOM     17  C   UNL     1      61.837  -3.510  29.293  1.00  0.00    -0.000 C 
BRANCH  17  18
ATOM     18  C   UNL     1      61.690  -3.264  27.781  1.00  0.00    -0.000 C 
BRANCH  18  19
ATOM     19  C   UNL     1      62.945  -3.579  26.948  1.00  0.00    -0.003 C 
ATOM     20  C   UNL     1      62.768  -3.279  25.460  1.00  0.00     0.004 C 
ENDBRANCH  18  19
ENDBRANCH  17  18
ENDBRANCH  16  17
ENDBRANCH  15  16
ENDBRANCH  14  15
ENDBRANCH  13  14
ENDBRANCH  12  13
ENDBRANCH   1  12
TORSDOF 16
ENDMDL
MODEL 5
REMARK VINA RESULT:    -4.239      1.158      2.863
REMARK INTER + INTRA:         -10.629
REMARK INTER:                  -8.541
REMARK INTRA:                  -2.088
REMARK UNBOUND:                -2.425
REMARK SMILES CCCCCCCCCCCCCCCCCC(=O)[O-]
REMARK SMILES IDX 10 1 11 2 12 3 13 4 14 5 15 6 16 7 17 8 18 9 19 10 20 11
REMARK SMILES IDX 9 12 8 13 7 14 6 15 5 16 4 17 3 18 2 19 1 20
REMARK H PARENT
REMARK Flexibility Score: inf
ROOT
ATOM      1  C   UNL     1      58.870  -2.186  31.506  1.00  0.00     0.000 C 
ENDROOT
BRANCH   1   2
ATOM      2  C   UNL     1      60.166  -1.711  30.818  1.00  0.00     0.000 C 
BRANCH   2   3
ATOM      3  C   UNL     1      59.983  -1.192  29.381  1.00  0.00     0.000 C 
BRANCH   3   4
ATOM      4  C   UNL     1      60.915  -1.886  28.373  1.00  0.00     0.000 C 
BRANCH   4   5
ATOM      5  C   UNL     1      60.841  -3.425  28.472  1.00  0.00     0.000 C 
BRANCH   5   6
ATOM      6  C   UNL     1      62.192  -4.090  28.799  1.00  0.00     0.000 C 
BRANCH   6   7
ATOM      7  C   UNL     1      62.942  -4.666  27.583  1.00  0.00     0.006 C 
BRANCH   7   8
ATOM      8  C   UNL     1      64.079  -3.770  27.062  1.00  0.00     0.053 C 
BRANCH   8   9
ATOM      9  C   UNL     1      63.635  -2.915  25.915  1.00  0.00     0.041 C 
ATOM     10  O   UNL     1      64.186  -1.803  25.704  1.00  0.00    -0.550 OA
ATOM     11  O   UNL     1      62.636  -3.362  25.059  1.00  0.00    -0.550 OA
ENDBRANCH   8   9
ENDBRANCH   7   8
ENDBRANCH   6   7
ENDBRANCH   5   6
ENDBRANCH   4   5
ENDBRANCH   3   4
ENDBRANCH   2   3
ENDBRANCH   1   2
BRANCH   1  12
ATOM     12  C   UNL     1      58.475  -3.650  31.222  1.00  0.00     0.000 C 
BRANCH  12  13
ATOM     13  C   UNL     1      57.405  -3.834  30.130  1.00  0.00    -0.000 C 
BRANCH  13  14
ATOM     14  C   UNL     1      56.093  -4.416  30.674  1.00  0.00    -0.000 C 
BRANCH  14  15
ATOM     15  C   UNL     1      55.502  -3.513  31.763  1.00  0.00    -0.000 C 
BRANCH  15  16
ATOM     16  C   UNL     1      54.606  -2.428  31.152  1.00  0.00    -0.000 C 
BRANCH  16  17
ATOM     17  C   UNL     1      55.244  -1.039  31.304  1.00  0.00    -0.000 C 
BRANCH  17  18
ATOM     18  C   UNL     1      55.931  -0.550  30.017  1.00  0.00    -0.000 C 
BRANCH  18  19
ATOM     19  C   UNL     1      56.909   0.623  30.209  1.00  0.00    -0.003 C 
ATOM     20  C   UNL     1      57.180   1.394  28.918  1.00  0.00     0.004 C 
ENDBRANCH  18  19
ENDBRANCH  17  18
ENDBRANCH  16  17
ENDBRANCH  15  16
ENDBRANCH  14  15
ENDBRANCH  13  14
ENDBRANCH  12  13
ENDBRANCH   1  12
TORSDOF 16
ENDMDL
MODEL 6
REMARK VINA RESULT:    -4.187      2.949      6.332
REMARK INTER + INTRA:         -10.527
REMARK INTER:                  -8.506
REMARK INTRA:                  -2.022
REMARK UNBOUND:                -2.425
REMARK SMILES CCCCCCCCCCCCCCCCCC(=O)[O-]
REMARK SMILES IDX 10 1 11 2 12 3 13 4 14 5 15 6 16 7 17 8 18 9 19 10 20 11
REMARK SMILES IDX 9 12 8 13 7 14 6 15 5 16 4 17 3 18 2 19 1 20
REMARK H PARENT
REMARK Flexibility Score: inf
ROOT
ATOM      1  C   UNL     1      58.069  -3.947  30.180  1.00  0.00     0.000 C 
ENDROOT
BRANCH   1   2
ATOM      2  C   UNL     1      56.564  -4.282  30.197  1.00  0.00     0.000 C 
BRANCH   2   3
ATOM      3  C   UNL     1      55.951  -4.437  31.600  1.00  0.00     0.000 C 
BRANCH   3   4
ATOM      4  C   UNL     1      54.892  -3.365  31.910  1.00  0.00     0.000 C 
BRANCH   4   5
ATOM      5  C   UNL     1      54.856  -2.252  30.840  1.00  0.00     0.000 C 
BRANCH   5   6
ATOM      6  C   UNL     1      55.218  -0.857  31.384  1.00  0.00     0.000 C 
BRANCH   6   7
ATOM      7  C   UNL     1      56.608  -0.340  30.967  1.00  0.00     0.006 C 
BRANCH   7   8
ATOM      8  C   UNL     1      56.976  -0.629  29.502  1.00  0.00     0.053 C 
BRANCH   8   9
ATOM      9  C   UNL     1      56.422   0.406  28.572  1.00  0.00     0.041 C 
ATOM     10  O   UNL     1      56.842   1.591  28.620  1.00  0.00    -0.550 OA
ATOM     11  O   UNL     1      55.466   0.053  27.628  1.00  0.00    -0.550 OA
ENDBRANCH   8   9
ENDBRANCH   7   8
ENDBRANCH   6   7
ENDBRANCH   5   6
ENDBRANCH   4   5
ENDBRANCH   3   4
ENDBRANCH   2   3
ENDBRANCH   1   2
BRANCH   1  12
ATOM     12  C   UNL     1      58.658  -3.504  31.535  1.00  0.00     0.000 C 
BRANCH  12  13
ATOM     13  C   UNL     1      60.080  -2.918  31.465  1.00  0.00    -0.000 C 
BRANCH  13  14
ATOM     14  C   UNL     1      60.244  -1.884  30.342  1.00  0.00    -0.000 C 
BRANCH  14  15
ATOM     15  C   UNL     1      61.495  -2.177  29.505  1.00  0.00    -0.000 C 
BRANCH  15  16
ATOM     16  C   UNL     1      61.174  -3.131  28.349  1.00  0.00    -0.000 C 
BRANCH  16  17
ATOM     17  C   UNL     1      62.211  -4.261  28.264  1.00  0.00    -0.000 C 
BRANCH  17  18
ATOM     18  C   UNL     1      63.369  -3.941  27.303  1.00  0.00    -0.000 C 
BRANCH  18  19
ATOM     19  C   UNL     1      62.954  -3.733  25.835  1.00  0.00    -0.003 C 
ATOM     20  C   UNL     1      63.035  -2.273  25.392  1.00  0.00     0.004 C 
ENDBRANCH  18  19
ENDBRANCH  17  18
ENDBRANCH  16  17
ENDBRANCH  15  16
ENDBRANCH  14  15
ENDBRANCH  13  14
ENDBRANCH  12  13
ENDBRANCH   1  12
TORSDOF 16
ENDMDL
MODEL 7
REMARK VINA RESULT:    -4.083     16.657     19.400
REMARK INTER + INTRA:         -10.326
REMARK INTER:                  -6.986
REMARK INTRA:                  -3.340
REMARK UNBOUND:                -2.425
REMARK SMILES CCCCCCCCCCCCCCCCCC(=O)[O-]
REMARK SMILES IDX 10 1 11 2 12 3 13 4 14 5 15 6 16 7 17 8 18 9 19 10 20 11
REMARK SMILES IDX 9 12 8 13 7 14 6 15 5 16 4 17 3 18 2 19 1 20
REMARK H PARENT
REMARK Flexibility Score: inf
ROOT
ATOM      1  C   UNL     1      61.453 -11.642  15.578  1.00  0.00     0.000 C 
ENDROOT
BRANCH   1   2
ATOM      2  C   UNL     1      61.137 -13.146  15.706  1.00  0.00     0.000 C 
BRANCH   2   3
ATOM      3  C   UNL     1      61.319 -13.729  17.118  1.00  0.00     0.000 C 
BRANCH   3   4
ATOM      4  C   UNL     1      62.254 -14.950  17.144  1.00  0.00     0.000 C 
BRANCH   4   5
ATOM      5  C   UNL     1      63.455 -14.786  16.187  1.00  0.00     0.000 C 
BRANCH   5   6
ATOM      6  C   UNL     1      63.626 -15.959  15.203  1.00  0.00     0.000 C 
BRANCH   6   7
ATOM      7  C   UNL     1      62.626 -15.972  14.031  1.00  0.00     0.006 C 
BRANCH   7   8
ATOM      8  C   UNL     1      61.730 -17.220  13.980  1.00  0.00     0.053 C 
BRANCH   8   9
ATOM      9  C   UNL     1      60.525 -17.081  14.859  1.00  0.00     0.041 C 
ATOM     10  O   UNL     1      60.412 -17.785  15.896  1.00  0.00    -0.550 OA
ATOM     11  O   UNL     1      59.544 -16.147  14.551  1.00  0.00    -0.550 OA
ENDBRANCH   8   9
ENDBRANCH   7   8
ENDBRANCH   6   7
ENDBRANCH   5   6
ENDBRANCH   4   5
ENDBRANCH   3   4
ENDBRANCH   2   3
ENDBRANCH   1   2
BRANCH   1  12
ATOM     12  C   UNL     1      62.433 -11.272  14.445  1.00  0.00     0.000 C 
BRANCH  12  13
ATOM     13  C   UNL     1      62.767 -12.419  13.474  1.00  0.00    -0.000 C 
BRANCH  13  14
ATOM     14  C   UNL     1      64.277 -12.608  13.272  1.00  0.00    -0.000 C 
BRANCH  14  15
ATOM     15  C   UNL     1      65.074 -11.735  14.248  1.00  0.00    -0.000 C 
BRANCH  15  16
ATOM     16  C   UNL     1      66.124 -12.565  14.997  1.00  0.00    -0.000 C 
BRANCH  16  17
ATOM     17  C   UNL     1      66.045 -12.313  16.511  1.00  0.00    -0.000 C 
BRANCH  17  18
ATOM     18  C   UNL     1      65.265 -11.035  16.866  1.00  0.00    -0.000 C 
BRANCH  18  19
ATOM     19  C   UNL     1      64.085 -11.244  17.832  1.00  0.00    -0.003 C 
ATOM     20  C   UNL     1      64.421 -12.176  18.995  1.00  0.00     0.004 C 
ENDBRANCH  18  19
ENDBRANCH  17  18
ENDBRANCH  16  17
ENDBRANCH  15  16
ENDBRANCH  14  15
ENDBRANCH  13  14
ENDBRANCH  12  13
ENDBRANCH   1  12
TORSDOF 16
ENDMDL
MODEL 8
REMARK VINA RESULT:    -4.033      1.072      3.406
REMARK INTER + INTRA:         -10.230
REMARK INTER:                  -8.183
REMARK INTRA:                  -2.047
REMARK UNBOUND:                -2.425
REMARK SMILES CCCCCCCCCCCCCCCCCC(=O)[O-]
REMARK SMILES IDX 10 1 11 2 12 3 13 4 14 5 15 6 16 7 17 8 18 9 19 10 20 11
REMARK SMILES IDX 9 12 8 13 7 14 6 15 5 16 4 17 3 18 2 19 1 20
REMARK H PARENT
REMARK Flexibility Score: inf
ROOT
ATOM      1  C   UNL     1      58.871  -0.882  31.746  1.00  0.00     0.000 C 
ENDROOT
BRANCH   1   2
ATOM      2  C   UNL     1      58.482  -2.314  31.327  1.00  0.00     0.000 C 
BRANCH   2   3
ATOM      3  C   UNL     1      59.650  -3.183  30.828  1.00  0.00     0.000 C 
BRANCH   3   4
ATOM      4  C   UNL     1      59.682  -3.317  29.296  1.00  0.00     0.000 C 
BRANCH   4   5
ATOM      5  C   UNL     1      60.579  -2.248  28.634  1.00  0.00     0.000 C 
BRANCH   5   6
ATOM      6  C   UNL     1      61.982  -2.144  29.260  1.00  0.00     0.000 C 
BRANCH   6   7
ATOM      7  C   UNL     1      62.985  -3.212  28.785  1.00  0.00     0.006 C 
BRANCH   7   8
ATOM      8  C   UNL     1      63.857  -2.776  27.595  1.00  0.00     0.053 C 
BRANCH   8   9
ATOM      9  C   UNL     1      63.315  -3.277  26.291  1.00  0.00     0.041 C 
ATOM     10  O   UNL     1      62.845  -2.469  25.448  1.00  0.00    -0.550 OA
ATOM     11  O   UNL     1      63.362  -4.633  25.994  1.00  0.00    -0.550 OA
ENDBRANCH   8   9
ENDBRANCH   7   8
ENDBRANCH   6   7
ENDBRANCH   5   6
ENDBRANCH   4   5
ENDBRANCH   3   4
ENDBRANCH   2   3
ENDBRANCH   1   2
BRANCH   1  12
ATOM     12  C   UNL     1      58.170   0.245  30.960  1.00  0.00     0.000 C 
BRANCH  12  13
ATOM     13  C   UNL     1      57.966  -0.037  29.460  1.00  0.00    -0.000 C 
BRANCH  13  14
ATOM     14  C   UNL     1      56.832   0.795  28.846  1.00  0.00    -0.000 C 
BRANCH  14  15
ATOM     15  C   UNL     1      55.755  -0.111  28.237  1.00  0.00    -0.000 C 
BRANCH  15  16
ATOM     16  C   UNL     1      55.726  -1.477  28.935  1.00  0.00    -0.000 C 
BRANCH  16  17
ATOM     17  C   UNL     1      54.463  -1.627  29.796  1.00  0.00    -0.000 C 
BRANCH  17  18
ATOM     18  C   UNL     1      54.776  -1.818  31.291  1.00  0.00    -0.000 C 
BRANCH  18  19
ATOM     19  C   UNL     1      54.292  -3.152  31.888  1.00  0.00    -0.003 C 
ATOM     20  C   UNL     1      55.292  -4.292  31.693  1.00  0.00     0.004 C 
ENDBRANCH  18  19
ENDBRANCH  17  18
ENDBRANCH  16  17
ENDBRANCH  15  16
ENDBRANCH  14  15
ENDBRANCH  13  14
ENDBRANCH  12  13
ENDBRANCH   1  12
TORSDOF 16
ENDMDL
MODEL 9
REMARK VINA RESULT:    -4.004      3.188      7.034
REMARK INTER + INTRA:         -10.174
REMARK INTER:                  -7.523
REMARK INTRA:                  -2.651
REMARK UNBOUND:                -2.425
REMARK SMILES CCCCCCCCCCCCCCCCCC(=O)[O-]
REMARK SMILES IDX 10 1 11 2 12 3 13 4 14 5 15 6 16 7 17 8 18 9 19 10 20 11
REMARK SMILES IDX 9 12 8 13 7 14 6 15 5 16 4 17 3 18 2 19 1 20
REMARK H PARENT
REMARK Flexibility Score: inf
ROOT
ATOM      1  C   UNL     1      59.904  -3.936  29.694  1.00  0.00     0.000 C 
ENDROOT
BRANCH   1   2
ATOM      2  C   UNL     1      58.397  -3.916  30.021  1.00  0.00     0.000 C 
BRANCH   2   3
ATOM      3  C   UNL     1      58.050  -3.462  31.450  1.00  0.00     0.000 C 
BRANCH   3   4
ATOM      4  C   UNL     1      58.959  -2.327  31.953  1.00  0.00     0.000 C 
BRANCH   4   5
ATOM      5  C   UNL     1      58.263  -0.950  31.891  1.00  0.00     0.000 C 
BRANCH   5   6
ATOM      6  C   UNL     1      58.454  -0.220  30.548  1.00  0.00     0.000 C 
BRANCH   6   7
ATOM      7  C   UNL     1      57.297  -0.394  29.545  1.00  0.00     0.006 C 
BRANCH   7   8
ATOM      8  C   UNL     1      55.920  -0.592  30.200  1.00  0.00     0.053 C 
BRANCH   8   9
ATOM      9  C   UNL     1      55.041  -1.498  29.392  1.00  0.00     0.041 C 
ATOM     10  O   UNL     1      55.550  -2.391  28.666  1.00  0.00    -0.550 OA
ATOM     11  O   UNL     1      53.660  -1.376  29.469  1.00  0.00    -0.550 OA
ENDBRANCH   8   9
ENDBRANCH   7   8
ENDBRANCH   6   7
ENDBRANCH   5   6
ENDBRANCH   4   5
ENDBRANCH   3   4
ENDBRANCH   2   3
ENDBRANCH   1   2
BRANCH   1  12
ATOM     12  C   UNL     1      60.314  -3.134  28.442  1.00  0.00     0.000 C 
BRANCH  12  13
ATOM     13  C   UNL     1      61.231  -1.928  28.714  1.00  0.00    -0.000 C 
BRANCH  13  14
ATOM     14  C   UNL     1      62.024  -2.065  30.022  1.00  0.00    -0.000 C 
BRANCH  14  15
ATOM     15  C   UNL     1      63.478  -2.463  29.743  1.00  0.00    -0.000 C 
BRANCH  15  16
ATOM     16  C   UNL     1      64.005  -1.773  28.478  1.00  0.00    -0.000 C 
BRANCH  16  17
ATOM     17  C   UNL     1      64.763  -2.767  27.586  1.00  0.00    -0.000 C 
BRANCH  17  18
ATOM     18  C   UNL     1      64.218  -4.202  27.688  1.00  0.00    -0.000 C 
BRANCH  18  19
ATOM     19  C   UNL     1      63.178  -4.578  26.617  1.00  0.00    -0.003 C 
ATOM     20  C   UNL     1      63.125  -3.581  25.460  1.00  0.00     0.004 C 
ENDBRANCH  18  19
ENDBRANCH  17  18
ENDBRANCH  16  17
ENDBRANCH  15  16
ENDBRANCH  14  15
ENDBRANCH  13  14
ENDBRANCH  12  13
ENDBRANCH   1  12
TORSDOF 16
ENDMDL
