MODEL 1
REMARK VINA RESULT:    -5.931      0.000      0.000
REMARK INTER + INTRA:          -9.416
REMARK INTER:                  -8.358
REMARK INTRA:                  -1.058
REMARK UNBOUND:                -1.058
REMARK SMILES COc1c(O[C@H]2O[C@@H](C(=O)[O-])[C@@H](O)[C@H](O)[C@H]2O)cc(O)c2c(=O)cc(-c3ccccc3)oc12
REMARK SMILES IDX 5 1 6 2 8 3 12 4 7 5 14 6 16 7 9 8 10 9 11 10 13 11 15 13
REMARK SMILES IDX 17 15 4 17 3 18 18 19 33 20 19 21 21 22 32 23 22 24 25 25
REMARK SMILES IDX 24 26 23 27 2 28 1 29 20 30 26 32 27 33 31 34 28 35 30 36
REMARK SMILES IDX 29 37
REMARK H PARENT 13 12 15 14 17 16 20 31
REMARK Flexibility Score: inf
ROOT
ATOM      1  O   UNL     1      43.812  16.468  -3.938  1.00  0.00    -0.458 OA
ENDROOT
BRANCH   1   2
ATOM      2  C   UNL     1      43.620  17.547  -3.012  1.00  0.00     0.339 C 
ATOM      3  C   UNL     1      42.519  18.982  -4.565  1.00  0.00     0.199 C 
ATOM      4  C   UNL     1      41.151  18.785  -3.859  1.00  0.00     0.180 C 
ATOM      5  O   UNL     1      43.629  18.794  -3.694  1.00  0.00    -0.328 OA
ATOM      6  C   UNL     1      41.102  17.465  -3.082  1.00  0.00     0.181 C 
ATOM      7  C   UNL     1      42.332  17.371  -2.176  1.00  0.00     0.214 C 
BRANCH   3   8
ATOM      8  C   UNL     1      42.688  18.223  -5.858  1.00  0.00     0.073 C 
ATOM      9  O   UNL     1      43.625  18.494  -6.654  1.00  0.00    -0.547 OA
ATOM     10  O   UNL     1      41.795  17.207  -6.181  1.00  0.00    -0.547 OA
ENDBRANCH   3   8
BRANCH   4  11
ATOM     11  O   UNL     1      40.091  18.826  -4.782  1.00  0.00    -0.387 OA
ATOM     12  H   UNL     1      39.301  19.175  -4.294  1.00  0.00     0.211 HD
ENDBRANCH   4  11
BRANCH   6  13
ATOM     13  O   UNL     1      39.936  17.439  -2.297  1.00  0.00    -0.387 OA
ATOM     14  H   UNL     1      39.350  18.171  -2.623  1.00  0.00     0.211 HD
ENDBRANCH   6  13
BRANCH   7  15
ATOM     15  O   UNL     1      42.331  16.131  -1.516  1.00  0.00    -0.384 OA
ATOM     16  H   UNL     1      42.654  15.456  -2.169  1.00  0.00     0.211 HD
ENDBRANCH   7  15
ENDBRANCH   1   2
BRANCH   1  17
ATOM     17  C   UNL     1      44.755  15.428  -3.836  1.00  0.00     0.172 A 
ATOM     18  C   UNL     1      46.032  15.649  -4.369  1.00  0.00     0.205 A 
ATOM     19  C   UNL     1      44.458  14.199  -3.231  1.00  0.00     0.097 A 
ATOM     20  C   UNL     1      47.015  14.635  -4.283  1.00  0.00     0.188 A 
ATOM     21  C   UNL     1      45.396  13.170  -3.175  1.00  0.00     0.134 A 
ATOM     22  C   UNL     1      46.715  13.393  -3.655  1.00  0.00     0.111 A 
ATOM     23  O   UNL     1      48.234  14.853  -4.773  1.00  0.00    -0.452 OA
ATOM     24  C   UNL     1      47.775  12.466  -3.516  1.00  0.00     0.197 A 
ATOM     25  C   UNL     1      49.235  13.984  -4.691  1.00  0.00     0.138 A 
ATOM     26  C   UNL     1      49.028  12.758  -4.050  1.00  0.00     0.100 A 
ATOM     27  O   UNL     1      47.637  11.382  -2.892  1.00  0.00    -0.289 OA
BRANCH  18  28
ATOM     28  O   UNL     1      46.263  16.906  -4.960  1.00  0.00    -0.490 OA
ATOM     29  C   UNL     1      46.642  17.147  -6.310  1.00  0.00     0.278 C 
ENDBRANCH  18  28
BRANCH  21  30
ATOM     30  O   UNL     1      44.948  11.948  -2.662  1.00  0.00    -0.507 OA
ATOM     31  H   UNL     1      44.895  11.724  -1.680  1.00  0.00     0.293 HD
ENDBRANCH  21  30
BRANCH  25  32
ATOM     32  C   UNL     1      50.548  14.344  -5.283  1.00  0.00     0.017 A 
ATOM     33  C   UNL     1      50.992  15.679  -5.335  1.00  0.00     0.012 A 
ATOM     34  C   UNL     1      51.359  13.338  -5.835  1.00  0.00     0.012 A 
ATOM     35  C   UNL     1      52.225  15.991  -5.919  1.00  0.00     0.001 A 
ATOM     36  C   UNL     1      52.589  13.656  -6.414  1.00  0.00     0.001 A 
ATOM     37  C   UNL     1      53.020  14.980  -6.461  1.00  0.00     0.000 A 
ENDBRANCH  25  32
ENDBRANCH   1  17
TORSDOF 9
ENDMDL
MODEL 2
REMARK VINA RESULT:    -5.862      0.959      2.279
REMARK INTER + INTRA:          -9.319
REMARK INTER:                  -8.059
REMARK INTRA:                  -1.260
REMARK UNBOUND:                -1.058
REMARK SMILES COc1c(O[C@H]2O[C@@H](C(=O)[O-])[C@@H](O)[C@H](O)[C@H]2O)cc(O)c2c(=O)cc(-c3ccccc3)oc12
REMARK SMILES IDX 5 1 6 2 8 3 12 4 7 5 14 6 16 7 9 8 10 9 11 10 13 11 15 13
REMARK SMILES IDX 17 15 4 17 3 18 18 19 33 20 19 21 21 22 32 23 22 24 25 25
REMARK SMILES IDX 24 26 23 27 2 28 1 29 20 30 26 32 27 33 31 34 28 35 30 36
REMARK SMILES IDX 29 37
REMARK H PARENT 13 12 15 14 17 16 20 31
REMARK Flexibility Score: inf
ROOT
ATOM      1  O   UNL     1      44.302  16.888  -4.072  1.00  0.00    -0.458 OA
ENDROOT
BRANCH   1   2
ATOM      2  C   UNL     1      43.465  17.193  -5.197  1.00  0.00     0.339 C 
ATOM      3  C   UNL     1      41.445  17.343  -3.939  1.00  0.00     0.199 C 
ATOM      4  C   UNL     1      41.392  18.884  -4.107  1.00  0.00     0.180 C 
ATOM      5  O   UNL     1      42.152  16.690  -4.989  1.00  0.00    -0.328 OA
ATOM      6  C   UNL     1      42.784  19.472  -4.366  1.00  0.00     0.181 C 
ATOM      7  C   UNL     1      43.447  18.705  -5.513  1.00  0.00     0.214 C 
BRANCH   3   8
ATOM      8  C   UNL     1      41.893  16.862  -2.581  1.00  0.00     0.073 C 
ATOM      9  O   UNL     1      41.782  15.651  -2.250  1.00  0.00    -0.547 OA
ATOM     10  O   UNL     1      42.435  17.766  -1.675  1.00  0.00    -0.547 OA
ENDBRANCH   3   8
BRANCH   4  11
ATOM     11  O   UNL     1      40.824  19.500  -2.979  1.00  0.00    -0.387 OA
ATOM     12  H   UNL     1      40.528  20.403  -3.265  1.00  0.00     0.211 HD
ENDBRANCH   4  11
BRANCH   6  13
ATOM     13  O   UNL     1      42.649  20.826  -4.720  1.00  0.00    -0.387 OA
ATOM     14  H   UNL     1      43.123  21.356  -4.028  1.00  0.00     0.211 HD
ENDBRANCH   6  13
BRANCH   7  15
ATOM     15  O   UNL     1      44.750  19.191  -5.705  1.00  0.00    -0.384 OA
ATOM     16  H   UNL     1      44.871  19.950  -5.076  1.00  0.00     0.211 HD
ENDBRANCH   7  15
ENDBRANCH   1   2
BRANCH   1  17
ATOM     17  C   UNL     1      45.175  15.790  -3.944  1.00  0.00     0.172 A 
ATOM     18  C   UNL     1      46.451  15.900  -4.511  1.00  0.00     0.205 A 
ATOM     19  C   UNL     1      44.808  14.611  -3.281  1.00  0.00     0.097 A 
ATOM     20  C   UNL     1      47.365  14.826  -4.400  1.00  0.00     0.188 A 
ATOM     21  C   UNL     1      45.676  13.523  -3.198  1.00  0.00     0.134 A 
ATOM     22  C   UNL     1      46.996  13.635  -3.714  1.00  0.00     0.111 A 
ATOM     23  O   UNL     1      48.584  14.939  -4.924  1.00  0.00    -0.452 OA
ATOM     24  C   UNL     1      47.994  12.644  -3.556  1.00  0.00     0.197 A 
ATOM     25  C   UNL     1      49.525  14.008  -4.824  1.00  0.00     0.138 A 
ATOM     26  C   UNL     1      49.250  12.827  -4.127  1.00  0.00     0.100 A 
ATOM     27  O   UNL     1      47.797  11.599  -2.883  1.00  0.00    -0.289 OA
BRANCH  18  28
ATOM     28  O   UNL     1      46.753  17.113  -5.160  1.00  0.00    -0.490 OA
ATOM     29  C   UNL     1      47.176  17.265  -6.510  1.00  0.00     0.278 C 
ENDBRANCH  18  28
BRANCH  21  30
ATOM     30  O   UNL     1      45.157  12.358  -2.625  1.00  0.00    -0.507 OA
ATOM     31  H   UNL     1      44.659  12.324  -1.748  1.00  0.00     0.293 HD
ENDBRANCH  21  30
BRANCH  25  32
ATOM     32  C   UNL     1      50.846  14.252  -5.457  1.00  0.00     0.017 A 
ATOM     33  C   UNL     1      51.388  15.548  -5.557  1.00  0.00     0.012 A 
ATOM     34  C   UNL     1      51.564  13.173  -6.000  1.00  0.00     0.012 A 
ATOM     35  C   UNL     1      52.625  15.750  -6.178  1.00  0.00     0.001 A 
ATOM     36  C   UNL     1      52.800  13.382  -6.617  1.00  0.00     0.001 A 
ATOM     37  C   UNL     1      53.328  14.668  -6.710  1.00  0.00     0.000 A 
ENDBRANCH  25  32
ENDBRANCH   1  17
TORSDOF 9
ENDMDL
MODEL 3
REMARK VINA RESULT:    -5.861      2.172      7.925
REMARK INTER + INTRA:          -9.317
REMARK INTER:                  -7.733
REMARK INTRA:                  -1.584
REMARK UNBOUND:                -1.058
REMARK SMILES COc1c(O[C@H]2O[C@@H](C(=O)[O-])[C@@H](O)[C@H](O)[C@H]2O)cc(O)c2c(=O)cc(-c3ccccc3)oc12
REMARK SMILES IDX 5 1 6 2 8 3 12 4 7 5 14 6 16 7 9 8 10 9 11 10 13 11 15 13
REMARK SMILES IDX 17 15 4 17 3 18 18 19 33 20 19 21 21 22 32 23 22 24 25 25
REMARK SMILES IDX 24 26 23 27 2 28 1 29 20 30 26 32 27 33 31 34 28 35 30 36
REMARK SMILES IDX 29 37
REMARK H PARENT 13 12 15 14 17 16 20 31
REMARK Flexibility Score: inf
ROOT
ATOM      1  O   UNL     1      45.774  14.580  -3.871  1.00  0.00    -0.458 OA
ENDROOT
BRANCH   1   2
ATOM      2  C   UNL     1      46.866  14.300  -2.984  1.00  0.00     0.339 C 
ATOM      3  C   UNL     1      47.060  12.001  -3.586  1.00  0.00     0.199 C 
ATOM      4  C   UNL     1      48.388  12.257  -4.347  1.00  0.00     0.180 C 
ATOM      5  O   UNL     1      46.819  12.947  -2.550  1.00  0.00    -0.328 OA
ATOM      6  C   UNL     1      48.501  13.713  -4.810  1.00  0.00     0.181 C 
ATOM      7  C   UNL     1      48.233  14.640  -3.622  1.00  0.00     0.214 C 
BRANCH   3   8
ATOM      8  C   UNL     1      45.847  11.809  -4.461  1.00  0.00     0.073 C 
ATOM      9  O   UNL     1      45.931  11.879  -5.716  1.00  0.00    -0.547 OA
ATOM     10  O   UNL     1      44.611  11.553  -3.877  1.00  0.00    -0.547 OA
ENDBRANCH   3   8
BRANCH   4  11
ATOM     11  O   UNL     1      48.513  11.400  -5.454  1.00  0.00    -0.387 OA
ATOM     12  H   UNL     1      49.123  10.667  -5.181  1.00  0.00     0.211 HD
ENDBRANCH   4  11
BRANCH   6  13
ATOM     13  O   UNL     1      49.800  13.938  -5.299  1.00  0.00    -0.387 OA
ATOM     14  H   UNL     1      49.805  14.841  -5.709  1.00  0.00     0.211 HD
ENDBRANCH   6  13
BRANCH   7  15
ATOM     15  O   UNL     1      48.263  15.975  -4.056  1.00  0.00    -0.384 OA
ATOM     16  H   UNL     1      47.631  16.480  -3.480  1.00  0.00     0.211 HD
ENDBRANCH   7  15
ENDBRANCH   1   2
BRANCH   1  17
ATOM     17  C   UNL     1      44.742  15.515  -3.668  1.00  0.00     0.172 A 
ATOM     18  C   UNL     1      44.809  16.725  -4.370  1.00  0.00     0.205 A 
ATOM     19  C   UNL     1      43.671  15.276  -2.796  1.00  0.00     0.097 A 
ATOM     20  C   UNL     1      43.790  17.693  -4.204  1.00  0.00     0.188 A 
ATOM     21  C   UNL     1      42.679  16.233  -2.582  1.00  0.00     0.134 A 
ATOM     22  C   UNL     1      42.696  17.442  -3.329  1.00  0.00     0.111 A 
ATOM     23  O   UNL     1      43.845  18.835  -4.886  1.00  0.00    -0.452 OA
ATOM     24  C   UNL     1      41.665  18.411  -3.289  1.00  0.00     0.197 A 
ATOM     25  C   UNL     1      42.911  19.777  -4.836  1.00  0.00     0.138 A 
ATOM     26  C   UNL     1      41.784  19.583  -4.030  1.00  0.00     0.100 A 
ATOM     27  O   UNL     1      40.611  18.238  -2.622  1.00  0.00    -0.289 OA
BRANCH  18  28
ATOM     28  O   UNL     1      45.911  16.898  -5.230  1.00  0.00    -0.490 OA
ATOM     29  C   UNL     1      45.958  16.576  -6.615  1.00  0.00     0.278 C 
ENDBRANCH  18  28
BRANCH  21  30
ATOM     30  O   UNL     1      41.732  15.936  -1.597  1.00  0.00    -0.507 OA
ATOM     31  H   UNL     1      41.342  15.019  -1.437  1.00  0.00     0.293 HD
ENDBRANCH  21  30
BRANCH  25  32
ATOM     32  C   UNL     1      43.092  21.011  -5.643  1.00  0.00     0.017 A 
ATOM     33  C   UNL     1      44.356  21.394  -6.130  1.00  0.00     0.012 A 
ATOM     34  C   UNL     1      41.986  21.837  -5.904  1.00  0.00     0.012 A 
ATOM     35  C   UNL     1      44.500  22.573  -6.869  1.00  0.00     0.001 A 
ATOM     36  C   UNL     1      42.136  23.012  -6.644  1.00  0.00     0.001 A 
ATOM     37  C   UNL     1      43.391  23.382  -7.122  1.00  0.00     0.000 A 
ENDBRANCH  25  32
ENDBRANCH   1  17
TORSDOF 9
ENDMDL
MODEL 4
REMARK VINA RESULT:    -5.480      2.258      8.082
REMARK INTER + INTRA:          -8.780
REMARK INTER:                  -7.600
REMARK INTRA:                  -1.180
REMARK UNBOUND:                -1.058
REMARK SMILES COc1c(O[C@H]2O[C@@H](C(=O)[O-])[C@@H](O)[C@H](O)[C@H]2O)cc(O)c2c(=O)cc(-c3ccccc3)oc12
REMARK SMILES IDX 5 1 6 2 8 3 12 4 7 5 14 6 16 7 9 8 10 9 11 10 13 11 15 13
REMARK SMILES IDX 17 15 4 17 3 18 18 19 33 20 19 21 21 22 32 23 22 24 25 25
REMARK SMILES IDX 24 26 23 27 2 28 1 29 20 30 26 32 27 33 31 34 28 35 30 36
REMARK SMILES IDX 29 37
REMARK H PARENT 13 12 15 14 17 16 20 31
REMARK Flexibility Score: inf
ROOT
ATOM      1  O   UNL     1      46.497  13.612  -4.841  1.00  0.00    -0.458 OA
ENDROOT
BRANCH   1   2
ATOM      2  C   UNL     1      47.019  12.327  -5.208  1.00  0.00     0.339 C 
ATOM      3  C   UNL     1      49.101  13.156  -6.021  1.00  0.00     0.199 C 
ATOM      4  C   UNL     1      49.870  12.573  -4.804  1.00  0.00     0.180 C 
ATOM      5  O   UNL     1      47.902  12.448  -6.315  1.00  0.00    -0.328 OA
ATOM      6  C   UNL     1      48.951  12.394  -3.591  1.00  0.00     0.181 C 
ATOM      7  C   UNL     1      47.703  11.617  -4.017  1.00  0.00     0.214 C 
BRANCH   3   8
ATOM      8  C   UNL     1      48.875  14.646  -5.981  1.00  0.00     0.073 C 
ATOM      9  O   UNL     1      48.428  15.264  -6.984  1.00  0.00    -0.547 OA
ATOM     10  O   UNL     1      49.166  15.356  -4.821  1.00  0.00    -0.547 OA
ENDBRANCH   3   8
BRANCH   4  11
ATOM     11  O   UNL     1      50.959  13.388  -4.453  1.00  0.00    -0.387 OA
ATOM     12  H   UNL     1      51.779  12.856  -4.621  1.00  0.00     0.211 HD
ENDBRANCH   4  11
BRANCH   6  13
ATOM     13  O   UNL     1      49.639  11.673  -2.600  1.00  0.00    -0.387 OA
ATOM     14  H   UNL     1      50.507  11.396  -2.992  1.00  0.00     0.211 HD
ENDBRANCH   6  13
BRANCH   7  15
ATOM     15  O   UNL     1      46.824  11.514  -2.927  1.00  0.00    -0.384 OA
ATOM     16  H   UNL     1      47.373  11.274  -2.135  1.00  0.00     0.211 HD
ENDBRANCH   7  15
ENDBRANCH   1   2
BRANCH   1  17
ATOM     17  C   UNL     1      45.198  13.892  -4.377  1.00  0.00     0.172 A 
ATOM     18  C   UNL     1      44.930  15.191  -3.926  1.00  0.00     0.205 A 
ATOM     19  C   UNL     1      44.184  12.924  -4.348  1.00  0.00     0.097 A 
ATOM     20  C   UNL     1      43.636  15.521  -3.458  1.00  0.00     0.188 A 
ATOM     21  C   UNL     1      42.915  13.214  -3.848  1.00  0.00     0.134 A 
ATOM     22  C   UNL     1      42.605  14.540  -3.443  1.00  0.00     0.111 A 
ATOM     23  O   UNL     1      43.379  16.761  -3.048  1.00  0.00    -0.452 OA
ATOM     24  C   UNL     1      41.312  14.968  -3.056  1.00  0.00     0.197 A 
ATOM     25  C   UNL     1      42.185  17.177  -2.642  1.00  0.00     0.138 A 
ATOM     26  C   UNL     1      41.111  16.281  -2.640  1.00  0.00     0.100 A 
ATOM     27  O   UNL     1      40.314  14.202  -3.102  1.00  0.00    -0.289 OA
BRANCH  18  28
ATOM     28  O   UNL     1      45.993  16.113  -3.985  1.00  0.00    -0.490 OA
ATOM     29  C   UNL     1      46.198  17.101  -4.987  1.00  0.00     0.278 C 
ENDBRANCH  18  28
BRANCH  21  30
ATOM     30  O   UNL     1      42.025  12.139  -3.752  1.00  0.00    -0.507 OA
ATOM     31  H   UNL     1      41.373  11.870  -4.473  1.00  0.00     0.293 HD
ENDBRANCH  21  30
BRANCH  25  32
ATOM     32  C   UNL     1      42.027  18.587  -2.204  1.00  0.00     0.017 A 
ATOM     33  C   UNL     1      41.300  18.923  -1.046  1.00  0.00     0.012 A 
ATOM     34  C   UNL     1      42.589  19.619  -2.974  1.00  0.00     0.012 A 
ATOM     35  C   UNL     1      41.150  20.261  -0.669  1.00  0.00     0.001 A 
ATOM     36  C   UNL     1      42.438  20.954  -2.591  1.00  0.00     0.001 A 
ATOM     37  C   UNL     1      41.716  21.276  -1.443  1.00  0.00     0.000 A 
ENDBRANCH  25  32
ENDBRANCH   1  17
TORSDOF 9
ENDMDL
MODEL 5
REMARK VINA RESULT:    -5.312      1.343      2.235
REMARK INTER + INTRA:          -8.544
REMARK INTER:                  -7.228
REMARK INTRA:                  -1.316
REMARK UNBOUND:                -1.058
REMARK SMILES COc1c(O[C@H]2O[C@@H](C(=O)[O-])[C@@H](O)[C@H](O)[C@H]2O)cc(O)c2c(=O)cc(-c3ccccc3)oc12
REMARK SMILES IDX 5 1 6 2 8 3 12 4 7 5 14 6 16 7 9 8 10 9 11 10 13 11 15 13
REMARK SMILES IDX 17 15 4 17 3 18 18 19 33 20 19 21 21 22 32 23 22 24 25 25
REMARK SMILES IDX 24 26 23 27 2 28 1 29 20 30 26 32 27 33 31 34 28 35 30 36
REMARK SMILES IDX 29 37
REMARK H PARENT 13 12 15 14 17 16 20 31
REMARK Flexibility Score: inf
ROOT
ATOM      1  O   UNL     1      43.146  17.355  -3.950  1.00  0.00    -0.458 OA
ENDROOT
BRANCH   1   2
ATOM      2  C   UNL     1      41.725  17.392  -3.757  1.00  0.00     0.339 C 
ATOM      3  C   UNL     1      41.626  19.723  -3.267  1.00  0.00     0.199 C 
ATOM      4  C   UNL     1      40.953  20.036  -4.630  1.00  0.00     0.180 C 
ATOM      5  O   UNL     1      41.379  18.397  -2.813  1.00  0.00    -0.328 OA
ATOM      6  C   UNL     1      41.272  18.962  -5.676  1.00  0.00     0.181 C 
ATOM      7  C   UNL     1      40.963  17.583  -5.088  1.00  0.00     0.214 C 
BRANCH   3   8
ATOM      8  C   UNL     1      43.089  20.081  -3.177  1.00  0.00     0.073 C 
ATOM      9  O   UNL     1      43.690  20.089  -2.071  1.00  0.00    -0.547 OA
ATOM     10  O   UNL     1      43.788  20.409  -4.333  1.00  0.00    -0.547 OA
ENDBRANCH   3   8
BRANCH   4  11
ATOM     11  O   UNL     1      41.346  21.295  -5.114  1.00  0.00    -0.387 OA
ATOM     12  H   UNL     1      41.787  21.766  -4.360  1.00  0.00     0.211 HD
ENDBRANCH   4  11
BRANCH   6  13
ATOM     13  O   UNL     1      40.474  19.180  -6.812  1.00  0.00    -0.387 OA
ATOM     14  H   UNL     1      40.937  19.860  -7.367  1.00  0.00     0.211 HD
ENDBRANCH   6  13
BRANCH   7  15
ATOM     15  O   UNL     1      41.323  16.591  -6.015  1.00  0.00    -0.384 OA
ATOM     16  H   UNL     1      42.060  16.964  -6.566  1.00  0.00     0.211 HD
ENDBRANCH   7  15
ENDBRANCH   1   2
BRANCH   1  17
ATOM     17  C   UNL     1      43.976  16.221  -3.883  1.00  0.00     0.172 A 
ATOM     18  C   UNL     1      45.285  16.339  -4.370  1.00  0.00     0.205 A 
ATOM     19  C   UNL     1      43.538  14.998  -3.358  1.00  0.00     0.097 A 
ATOM     20  C   UNL     1      46.158  15.226  -4.316  1.00  0.00     0.188 A 
ATOM     21  C   UNL     1      44.366  13.876  -3.336  1.00  0.00     0.134 A 
ATOM     22  C   UNL     1      45.715  13.989  -3.769  1.00  0.00     0.111 A 
ATOM     23  O   UNL     1      47.407  15.346  -4.761  1.00  0.00    -0.452 OA
ATOM     24  C   UNL     1      46.672  12.953  -3.656  1.00  0.00     0.197 A 
ATOM     25  C   UNL     1      48.313  14.376  -4.703  1.00  0.00     0.138 A 
ATOM     26  C   UNL     1      47.964  13.144  -4.139  1.00  0.00     0.100 A 
ATOM     27  O   UNL     1      46.406  11.856  -3.099  1.00  0.00    -0.289 OA
BRANCH  18  28
ATOM     28  O   UNL     1      45.660  17.596  -4.881  1.00  0.00    -0.490 OA
ATOM     29  C   UNL     1      45.652  17.987  -6.249  1.00  0.00     0.278 C 
ENDBRANCH  18  28
BRANCH  21  30
ATOM     30  O   UNL     1      43.781  12.681  -2.907  1.00  0.00    -0.507 OA
ATOM     31  H   UNL     1      43.994  11.770  -3.286  1.00  0.00     0.293 HD
ENDBRANCH  21  30
BRANCH  25  32
ATOM     32  C   UNL     1      49.674  14.632  -5.239  1.00  0.00     0.017 A 
ATOM     33  C   UNL     1      50.074  15.917  -5.653  1.00  0.00     0.012 A 
ATOM     34  C   UNL     1      50.580  13.566  -5.369  1.00  0.00     0.012 A 
ATOM     35  C   UNL     1      51.355  16.124  -6.174  1.00  0.00     0.001 A 
ATOM     36  C   UNL     1      51.858  13.780  -5.888  1.00  0.00     0.001 A 
ATOM     37  C   UNL     1      52.245  15.055  -6.295  1.00  0.00     0.000 A 
ENDBRANCH  25  32
ENDBRANCH   1  17
TORSDOF 9
ENDMDL
MODEL 6
REMARK VINA RESULT:    -5.282      2.302      4.360
REMARK INTER + INTRA:          -8.501
REMARK INTER:                  -7.505
REMARK INTRA:                  -0.996
REMARK UNBOUND:                -1.058
REMARK SMILES COc1c(O[C@H]2O[C@@H](C(=O)[O-])[C@@H](O)[C@H](O)[C@H]2O)cc(O)c2c(=O)cc(-c3ccccc3)oc12
REMARK SMILES IDX 5 1 6 2 8 3 12 4 7 5 14 6 16 7 9 8 10 9 11 10 13 11 15 13
REMARK SMILES IDX 17 15 4 17 3 18 18 19 33 20 19 21 21 22 32 23 22 24 25 25
REMARK SMILES IDX 24 26 23 27 2 28 1 29 20 30 26 32 27 33 31 34 28 35 30 36
REMARK SMILES IDX 29 37
REMARK H PARENT 13 12 15 14 17 16 20 31
REMARK Flexibility Score: inf
ROOT
ATOM      1  O   UNL     1      42.733  18.067  -4.688  1.00  0.00    -0.458 OA
ENDROOT
BRANCH   1   2
ATOM      2  C   UNL     1      42.261  19.420  -4.758  1.00  0.00     0.339 C 
ATOM      3  C   UNL     1      40.124  18.962  -3.807  1.00  0.00     0.199 C 
ATOM      4  C   UNL     1      40.498  19.682  -2.484  1.00  0.00     0.180 C 
ATOM      5  O   UNL     1      40.851  19.445  -4.932  1.00  0.00    -0.328 OA
ATOM      6  C   UNL     1      42.015  19.709  -2.267  1.00  0.00     0.181 C 
ATOM      7  C   UNL     1      42.693  20.250  -3.528  1.00  0.00     0.214 C 
BRANCH   3   8
ATOM      8  C   UNL     1      40.133  17.455  -3.742  1.00  0.00     0.073 C 
ATOM      9  O   UNL     1      39.891  16.757  -4.762  1.00  0.00    -0.547 OA
ATOM     10  O   UNL     1      40.412  16.821  -2.536  1.00  0.00    -0.547 OA
ENDBRANCH   3   8
BRANCH   4  11
ATOM     11  O   UNL     1      39.875  19.075  -1.381  1.00  0.00    -0.387 OA
ATOM     12  H   UNL     1      40.600  18.727  -0.799  1.00  0.00     0.211 HD
ENDBRANCH   4  11
BRANCH   6  13
ATOM     13  O   UNL     1      42.305  20.549  -1.178  1.00  0.00    -0.387 OA
ATOM     14  H   UNL     1      41.589  20.412  -0.506  1.00  0.00     0.211 HD
ENDBRANCH   6  13
BRANCH   7  15
ATOM     15  O   UNL     1      44.087  20.207  -3.361  1.00  0.00    -0.384 OA
ATOM     16  H   UNL     1      44.459  20.994  -3.840  1.00  0.00     0.211 HD
ENDBRANCH   7  15
ENDBRANCH   1   2
BRANCH   1  17
ATOM     17  C   UNL     1      44.035  17.613  -4.970  1.00  0.00     0.172 A 
ATOM     18  C   UNL     1      44.532  16.542  -4.215  1.00  0.00     0.205 A 
ATOM     19  C   UNL     1      44.836  18.193  -5.963  1.00  0.00     0.097 A 
ATOM     20  C   UNL     1      45.833  16.046  -4.469  1.00  0.00     0.188 A 
ATOM     21  C   UNL     1      46.137  17.751  -6.199  1.00  0.00     0.134 A 
ATOM     22  C   UNL     1      46.638  16.628  -5.487  1.00  0.00     0.111 A 
ATOM     23  O   UNL     1      46.296  15.016  -3.763  1.00  0.00    -0.452 OA
ATOM     24  C   UNL     1      47.887  16.016  -5.752  1.00  0.00     0.197 A 
ATOM     25  C   UNL     1      47.480  14.450  -3.965  1.00  0.00     0.138 A 
ATOM     26  C   UNL     1      48.311  14.940  -4.978  1.00  0.00     0.100 A 
ATOM     27  O   UNL     1      48.630  16.395  -6.695  1.00  0.00    -0.289 OA
BRANCH  18  28
ATOM     28  O   UNL     1      43.673  16.005  -3.236  1.00  0.00    -0.490 OA
ATOM     29  C   UNL     1      42.945  14.787  -3.329  1.00  0.00     0.278 C 
ENDBRANCH  18  28
BRANCH  21  30
ATOM     30  O   UNL     1      46.884  18.486  -7.125  1.00  0.00    -0.507 OA
ATOM     31  H   UNL     1      46.684  19.437  -7.396  1.00  0.00     0.293 HD
ENDBRANCH  21  30
BRANCH  25  32
ATOM     32  C   UNL     1      47.884  13.308  -3.106  1.00  0.00     0.017 A 
ATOM     33  C   UNL     1      48.926  12.437  -3.478  1.00  0.00     0.012 A 
ATOM     34  C   UNL     1      47.195  13.066  -1.905  1.00  0.00     0.012 A 
ATOM     35  C   UNL     1      49.271  11.357  -2.659  1.00  0.00     0.001 A 
ATOM     36  C   UNL     1      47.545  11.987  -1.091  1.00  0.00     0.001 A 
ATOM     37  C   UNL     1      48.578  11.131  -1.468  1.00  0.00     0.000 A 
ENDBRANCH  25  32
ENDBRANCH   1  17
TORSDOF 9
ENDMDL
MODEL 7
REMARK VINA RESULT:    -5.274      2.134      7.996
REMARK INTER + INTRA:          -8.490
REMARK INTER:                  -7.645
REMARK INTRA:                  -0.845
REMARK UNBOUND:                -1.058
REMARK SMILES COc1c(O[C@H]2O[C@@H](C(=O)[O-])[C@@H](O)[C@H](O)[C@H]2O)cc(O)c2c(=O)cc(-c3ccccc3)oc12
REMARK SMILES IDX 5 1 6 2 8 3 12 4 7 5 14 6 16 7 9 8 10 9 11 10 13 11 15 13
REMARK SMILES IDX 17 15 4 17 3 18 18 19 33 20 19 21 21 22 32 23 22 24 25 25
REMARK SMILES IDX 24 26 23 27 2 28 1 29 20 30 26 32 27 33 31 34 28 35 30 36
REMARK SMILES IDX 29 37
REMARK H PARENT 13 12 15 14 17 16 20 31
REMARK Flexibility Score: inf
ROOT
ATOM      1  O   UNL     1      46.823  14.938  -4.669  1.00  0.00    -0.458 OA
ENDROOT
BRANCH   1   2
ATOM      2  C   UNL     1      47.022  13.628  -5.218  1.00  0.00     0.339 C 
ATOM      3  C   UNL     1      49.243  14.039  -5.981  1.00  0.00     0.199 C 
ATOM      4  C   UNL     1      49.848  13.131  -4.878  1.00  0.00     0.180 C 
ATOM      5  O   UNL     1      47.908  13.684  -6.327  1.00  0.00    -0.328 OA
ATOM      6  C   UNL     1      48.912  13.013  -3.669  1.00  0.00     0.181 C 
ATOM      7  C   UNL     1      47.514  12.621  -4.153  1.00  0.00     0.214 C 
BRANCH   3   8
ATOM      8  C   UNL     1      49.381  15.521  -5.738  1.00  0.00     0.073 C 
ATOM      9  O   UNL     1      49.349  16.343  -6.692  1.00  0.00    -0.547 OA
ATOM     10  O   UNL     1      49.551  15.993  -4.441  1.00  0.00    -0.547 OA
ENDBRANCH   3   8
BRANCH   4  11
ATOM     11  O   UNL     1      51.101  13.607  -4.458  1.00  0.00    -0.387 OA
ATOM     12  H   UNL     1      50.970  14.000  -3.556  1.00  0.00     0.211 HD
ENDBRANCH   4  11
BRANCH   6  13
ATOM     13  O   UNL     1      49.407  12.021  -2.804  1.00  0.00    -0.387 OA
ATOM     14  H   UNL     1      49.266  12.346  -1.878  1.00  0.00     0.211 HD
ENDBRANCH   6  13
BRANCH   7  15
ATOM     15  O   UNL     1      46.636  12.583  -3.058  1.00  0.00    -0.384 OA
ATOM     16  H   UNL     1      45.864  12.020  -3.326  1.00  0.00     0.211 HD
ENDBRANCH   7  15
ENDBRANCH   1   2
BRANCH   1  17
ATOM     17  C   UNL     1      45.590  15.574  -4.430  1.00  0.00     0.172 A 
ATOM     18  C   UNL     1      45.401  16.855  -4.963  1.00  0.00     0.205 A 
ATOM     19  C   UNL     1      44.566  14.973  -3.685  1.00  0.00     0.097 A 
ATOM     20  C   UNL     1      44.175  17.530  -4.756  1.00  0.00     0.188 A 
ATOM     21  C   UNL     1      43.367  15.637  -3.429  1.00  0.00     0.134 A 
ATOM     22  C   UNL     1      43.131  16.913  -4.011  1.00  0.00     0.111 A 
ATOM     23  O   UNL     1      43.990  18.740  -5.279  1.00  0.00    -0.452 OA
ATOM     24  C   UNL     1      41.899  17.603  -3.930  1.00  0.00     0.197 A 
ATOM     25  C   UNL     1      42.857  19.426  -5.183  1.00  0.00     0.138 A 
ATOM     26  C   UNL     1      41.771  18.866  -4.502  1.00  0.00     0.100 A 
ATOM     27  O   UNL     1      40.886  17.100  -3.377  1.00  0.00    -0.289 OA
BRANCH  18  28
ATOM     28  O   UNL     1      46.470  17.397  -5.703  1.00  0.00    -0.490 OA
ATOM     29  C   UNL     1      46.395  17.952  -7.011  1.00  0.00     0.278 C 
ENDBRANCH  18  28
BRANCH  21  30
ATOM     30  O   UNL     1      42.471  14.992  -2.571  1.00  0.00    -0.507 OA
ATOM     31  H   UNL     1      42.741  14.455  -1.760  1.00  0.00     0.293 HD
ENDBRANCH  21  30
BRANCH  25  32
ATOM     32  C   UNL     1      42.778  20.772  -5.807  1.00  0.00     0.017 A 
ATOM     33  C   UNL     1      41.608  21.551  -5.735  1.00  0.00     0.012 A 
ATOM     34  C   UNL     1      43.884  21.273  -6.514  1.00  0.00     0.012 A 
ATOM     35  C   UNL     1      41.556  22.806  -6.351  1.00  0.00     0.001 A 
ATOM     36  C   UNL     1      43.827  22.528  -7.125  1.00  0.00     0.001 A 
ATOM     37  C   UNL     1      42.664  23.292  -7.048  1.00  0.00     0.000 A 
ENDBRANCH  25  32
ENDBRANCH   1  17
TORSDOF 9
ENDMDL
MODEL 8
REMARK VINA RESULT:    -5.098      1.987      8.216
REMARK INTER + INTRA:          -8.242
REMARK INTER:                  -7.002
REMARK INTRA:                  -1.240
REMARK UNBOUND:                -1.058
REMARK SMILES COc1c(O[C@H]2O[C@@H](C(=O)[O-])[C@@H](O)[C@H](O)[C@H]2O)cc(O)c2c(=O)cc(-c3ccccc3)oc12
REMARK SMILES IDX 5 1 6 2 8 3 12 4 7 5 14 6 16 7 9 8 10 9 11 10 13 11 15 13
REMARK SMILES IDX 17 15 4 17 3 18 18 19 33 20 19 21 21 22 32 23 22 24 25 25
REMARK SMILES IDX 24 26 23 27 2 28 1 29 20 30 26 32 27 33 31 34 28 35 30 36
REMARK SMILES IDX 29 37
REMARK H PARENT 13 12 15 14 17 16 20 31
REMARK Flexibility Score: inf
ROOT
ATOM      1  O   UNL     1      47.946  14.056  -4.908  1.00  0.00    -0.458 OA
ENDROOT
BRANCH   1   2
ATOM      2  C   UNL     1      49.141  14.004  -4.116  1.00  0.00     0.339 C 
ATOM      3  C   UNL     1      49.935  11.956  -5.043  1.00  0.00     0.199 C 
ATOM      4  C   UNL     1      51.068  12.683  -5.816  1.00  0.00     0.180 C 
ATOM      5  O   UNL     1      49.518  12.655  -3.875  1.00  0.00    -0.328 OA
ATOM      6  C   UNL     1      50.721  14.153  -6.073  1.00  0.00     0.181 C 
ATOM      7  C   UNL     1      50.296  14.807  -4.756  1.00  0.00     0.214 C 
BRANCH   3   8
ATOM      8  C   UNL     1      48.760  11.524  -5.885  1.00  0.00     0.073 C 
ATOM      9  O   UNL     1      48.732  11.743  -7.125  1.00  0.00    -0.547 OA
ATOM     10  O   UNL     1      47.686  10.876  -5.286  1.00  0.00    -0.547 OA
ENDBRANCH   3   8
BRANCH   4  11
ATOM     11  O   UNL     1      51.342  12.043  -7.037  1.00  0.00    -0.387 OA
ATOM     12  H   UNL     1      51.035  12.656  -7.755  1.00  0.00     0.211 HD
ENDBRANCH   4  11
BRANCH   6  13
ATOM     13  O   UNL     1      51.857  14.808  -6.579  1.00  0.00    -0.387 OA
ATOM     14  H   UNL     1      51.780  14.803  -7.568  1.00  0.00     0.211 HD
ENDBRANCH   6  13
BRANCH   7  15
ATOM     15  O   UNL     1      49.908  16.134  -4.999  1.00  0.00    -0.384 OA
ATOM     16  H   UNL     1      48.950  16.111  -5.261  1.00  0.00     0.211 HD
ENDBRANCH   7  15
ENDBRANCH   1   2
BRANCH   1  17
ATOM     17  C   UNL     1      46.629  14.218  -4.436  1.00  0.00     0.172 A 
ATOM     18  C   UNL     1      46.165  15.523  -4.228  1.00  0.00     0.205 A 
ATOM     19  C   UNL     1      45.786  13.130  -4.171  1.00  0.00     0.097 A 
ATOM     20  C   UNL     1      44.846  15.735  -3.763  1.00  0.00     0.188 A 
ATOM     21  C   UNL     1      44.498  13.313  -3.669  1.00  0.00     0.134 A 
ATOM     22  C   UNL     1      43.987  14.629  -3.507  1.00  0.00     0.111 A 
ATOM     23  O   UNL     1      44.400  16.977  -3.584  1.00  0.00    -0.452 OA
ATOM     24  C   UNL     1      42.651  14.920  -3.141  1.00  0.00     0.197 A 
ATOM     25  C   UNL     1      43.163  17.275  -3.202  1.00  0.00     0.138 A 
ATOM     26  C   UNL     1      42.249  16.242  -2.973  1.00  0.00     0.100 A 
ATOM     27  O   UNL     1      41.789  14.016  -2.987  1.00  0.00    -0.289 OA
BRANCH  18  28
ATOM     28  O   UNL     1      47.063  16.569  -4.517  1.00  0.00    -0.490 OA
ATOM     29  C   UNL     1      47.052  17.394  -5.676  1.00  0.00     0.278 C 
ENDBRANCH  18  28
BRANCH  21  30
ATOM     30  O   UNL     1      43.796  12.154  -3.323  1.00  0.00    -0.507 OA
ATOM     31  H   UNL     1      43.620  11.852  -2.377  1.00  0.00     0.293 HD
ENDBRANCH  21  30
BRANCH  25  32
ATOM     32  C   UNL     1      42.790  18.702  -3.032  1.00  0.00     0.017 A 
ATOM     33  C   UNL     1      43.217  19.690  -3.939  1.00  0.00     0.012 A 
ATOM     34  C   UNL     1      42.016  19.088  -1.924  1.00  0.00     0.012 A 
ATOM     35  C   UNL     1      42.867  21.029  -3.741  1.00  0.00     0.001 A 
ATOM     36  C   UNL     1      41.669  20.427  -1.733  1.00  0.00     0.001 A 
ATOM     37  C   UNL     1      42.097  21.398  -2.637  1.00  0.00     0.000 A 
ENDBRANCH  25  32
ENDBRANCH   1  17
TORSDOF 9
ENDMDL
MODEL 9
REMARK VINA RESULT:    -4.809      2.573      8.145
REMARK INTER + INTRA:          -7.835
REMARK INTER:                  -6.967
REMARK INTRA:                  -0.868
REMARK UNBOUND:                -1.058
REMARK SMILES COc1c(O[C@H]2O[C@@H](C(=O)[O-])[C@@H](O)[C@H](O)[C@H]2O)cc(O)c2c(=O)cc(-c3ccccc3)oc12
REMARK SMILES IDX 5 1 6 2 8 3 12 4 7 5 14 6 16 7 9 8 10 9 11 10 13 11 15 13
REMARK SMILES IDX 17 15 4 17 3 18 18 19 33 20 19 21 21 22 32 23 22 24 25 25
REMARK SMILES IDX 24 26 23 27 2 28 1 29 20 30 26 32 27 33 31 34 28 35 30 36
REMARK SMILES IDX 29 37
REMARK H PARENT 13 12 15 14 17 16 20 31
REMARK Flexibility Score: inf
ROOT
ATOM      1  O   UNL     1      45.650  12.720  -4.842  1.00  0.00    -0.458 OA
ENDROOT
BRANCH   1   2
ATOM      2  C   UNL     1      45.827  11.309  -4.650  1.00  0.00     0.339 C 
ATOM      3  C   UNL     1      48.195  11.413  -4.398  1.00  0.00     0.199 C 
ATOM      4  C   UNL     1      48.101  11.108  -2.879  1.00  0.00     0.180 C 
ATOM      5  O   UNL     1      47.096  10.898  -5.141  1.00  0.00    -0.328 OA
ATOM      6  C   UNL     1      46.735  11.506  -2.308  1.00  0.00     0.181 C 
ATOM      7  C   UNL     1      45.632  10.895  -3.174  1.00  0.00     0.214 C 
BRANCH   3   8
ATOM      8  C   UNL     1      48.479  12.853  -4.746  1.00  0.00     0.073 C 
ATOM      9  O   UNL     1      48.329  13.281  -5.921  1.00  0.00    -0.547 OA
ATOM     10  O   UNL     1      48.916  13.726  -3.756  1.00  0.00    -0.547 OA
ENDBRANCH   3   8
BRANCH   4  11
ATOM     11  O   UNL     1      49.119  11.761  -2.165  1.00  0.00    -0.387 OA
ATOM     12  H   UNL     1      49.924  11.186  -2.224  1.00  0.00     0.211 HD
ENDBRANCH   4  11
BRANCH   6  13
ATOM     13  O   UNL     1      46.629  11.016  -0.995  1.00  0.00    -0.387 OA
ATOM     14  H   UNL     1      46.263  10.096  -1.056  1.00  0.00     0.211 HD
ENDBRANCH   6  13
BRANCH   7  15
ATOM     15  O   UNL     1      44.380  11.317  -2.699  1.00  0.00    -0.384 OA
ATOM     16  H   UNL     1      44.039  11.991  -3.343  1.00  0.00     0.211 HD
ENDBRANCH   7  15
ENDBRANCH   1   2
BRANCH   1  17
ATOM     17  C   UNL     1      44.428  13.417  -4.890  1.00  0.00     0.172 A 
ATOM     18  C   UNL     1      44.326  14.609  -4.160  1.00  0.00     0.205 A 
ATOM     19  C   UNL     1      43.330  12.959  -5.631  1.00  0.00     0.097 A 
ATOM     20  C   UNL     1      43.119  15.348  -4.186  1.00  0.00     0.188 A 
ATOM     21  C   UNL     1      42.117  13.647  -5.634  1.00  0.00     0.134 A 
ATOM     22  C   UNL     1      42.010  14.888  -4.949  1.00  0.00     0.111 A 
ATOM     23  O   UNL     1      43.030  16.490  -3.507  1.00  0.00    -0.452 OA
ATOM     24  C   UNL     1      40.873  15.729  -5.008  1.00  0.00     0.197 A 
ATOM     25  C   UNL     1      41.960  17.276  -3.513  1.00  0.00     0.138 A 
ATOM     26  C   UNL     1      40.846  16.912  -4.275  1.00  0.00     0.100 A 
ATOM     27  O   UNL     1      39.879  15.459  -5.732  1.00  0.00    -0.289 OA
BRANCH  18  28
ATOM     28  O   UNL     1      45.468  15.011  -3.441  1.00  0.00    -0.490 OA
ATOM     29  C   UNL     1      46.409  16.001  -3.837  1.00  0.00     0.278 C 
ENDBRANCH  18  28
BRANCH  21  30
ATOM     30  O   UNL     1      41.056  13.031  -6.304  1.00  0.00    -0.507 OA
ATOM     31  H   UNL     1      40.437  13.499  -6.950  1.00  0.00     0.293 HD
ENDBRANCH  21  30
BRANCH  25  32
ATOM     32  C   UNL     1      41.983  18.524  -2.708  1.00  0.00     0.017 A 
ATOM     33  C   UNL     1      43.079  19.407  -2.746  1.00  0.00     0.012 A 
ATOM     34  C   UNL     1      40.902  18.823  -1.862  1.00  0.00     0.012 A 
ATOM     35  C   UNL     1      43.082  20.564  -1.960  1.00  0.00     0.001 A 
ATOM     36  C   UNL     1      40.909  19.981  -1.082  1.00  0.00     0.001 A 
ATOM     37  C   UNL     1      41.999  20.848  -1.127  1.00  0.00     0.000 A 
ENDBRANCH  25  32
ENDBRANCH   1  17
TORSDOF 9
ENDMDL
