MODEL 1
REMARK VINA RESULT:    -3.524      0.000      0.000
REMARK INTER + INTRA:          -5.564
REMARK INTER:                  -4.761
REMARK INTRA:                  -0.803
REMARK UNBOUND:                -0.803
REMARK SMILES O=C[C@@H](O)[C@H](O)[C@@H](O)CO
REMARK SMILES IDX 7 1 9 2 10 3 5 5 3 6 2 7 1 8 4 9 6 11 8 13
REMARK H PARENT 10 4 4 10 6 12 8 14
REMARK Flexibility Score: inf
ROOT
ATOM      1  C   UNL     1      11.400  16.088  37.267  1.00  0.00     0.171 C 
ENDROOT
BRANCH   1   2
ATOM      2  C   UNL     1      10.523  14.900  36.848  1.00  0.00     0.190 C 
BRANCH   2   3
ATOM      3  O   UNL     1       9.695  15.247  35.773  1.00  0.00    -0.394 OA
ATOM      4  H   UNL     1      10.093  16.063  35.370  1.00  0.00     0.210 HD
ENDBRANCH   2   3
ENDBRANCH   1   2
BRANCH   1   5
ATOM      5  C   UNL     1      10.675  17.466  37.286  1.00  0.00     0.181 C 
BRANCH   5   6
ATOM      6  C   UNL     1      11.590  18.715  37.437  1.00  0.00     0.209 C 
BRANCH   6   7
ATOM      7  C   UNL     1      11.605  19.282  38.835  1.00  0.00     0.258 C 
ATOM      8  O   UNL     1      11.875  18.571  39.791  1.00  0.00    -0.300 OA
ENDBRANCH   6   7
BRANCH   6   9
ATOM      9  O   UNL     1      12.898  18.409  37.028  1.00  0.00    -0.383 OA
ATOM     10  H   UNL     1      13.510  18.755  37.731  1.00  0.00     0.211 HD
ENDBRANCH   6   9
ENDBRANCH   5   6
BRANCH   5  11
ATOM     11  O   UNL     1       9.671  17.459  38.270  1.00  0.00    -0.387 OA
ATOM     12  H   UNL     1       9.339  18.391  38.354  1.00  0.00     0.211 HD
ENDBRANCH   5  11
ENDBRANCH   1   5
BRANCH   1  13
ATOM     13  O   UNL     1      11.964  15.811  38.524  1.00  0.00    -0.388 OA
ATOM     14  H   UNL     1      11.545  14.973  38.852  1.00  0.00     0.211 HD
ENDBRANCH   1  13
TORSDOF 8
ENDMDL
MODEL 2
REMARK VINA RESULT:    -3.352      1.632      3.857
REMARK INTER + INTRA:          -5.331
REMARK INTER:                  -4.376
REMARK INTRA:                  -0.955
REMARK UNBOUND:                -0.803
REMARK SMILES O=C[C@@H](O)[C@H](O)[C@@H](O)CO
REMARK SMILES IDX 7 1 9 2 10 3 5 5 3 6 2 7 1 8 4 9 6 11 8 13
REMARK H PARENT 10 4 4 10 6 12 8 14
REMARK Flexibility Score: inf
ROOT
ATOM      1  C   UNL     1      12.142  19.157  38.014  1.00  0.00     0.171 C 
ENDROOT
BRANCH   1   2
ATOM      2  C   UNL     1      13.490  18.592  38.482  1.00  0.00     0.190 C 
BRANCH   2   3
ATOM      3  O   UNL     1      13.312  17.701  39.548  1.00  0.00    -0.394 OA
ATOM      4  H   UNL     1      12.754  18.178  40.216  1.00  0.00     0.210 HD
ENDBRANCH   2   3
ENDBRANCH   1   2
BRANCH   1   5
ATOM      5  C   UNL     1      11.165  18.109  37.404  1.00  0.00     0.181 C 
BRANCH   5   6
ATOM      6  C   UNL     1       9.945  17.720  38.288  1.00  0.00     0.209 C 
BRANCH   6   7
ATOM      7  C   UNL     1       8.877  16.965  37.536  1.00  0.00     0.258 C 
ATOM      8  O   UNL     1       9.179  16.119  36.708  1.00  0.00    -0.300 OA
ENDBRANCH   6   7
BRANCH   6   9
ATOM      9  O   UNL     1      10.371  16.973  39.398  1.00  0.00    -0.383 OA
ATOM     10  H   UNL     1       9.742  16.209  39.492  1.00  0.00     0.211 HD
ENDBRANCH   6   9
ENDBRANCH   5   6
BRANCH   5  11
ATOM     11  O   UNL     1      11.883  16.966  37.010  1.00  0.00    -0.387 OA
ATOM     12  H   UNL     1      11.944  16.373  37.804  1.00  0.00     0.211 HD
ENDBRANCH   5  11
ENDBRANCH   1   5
BRANCH   1  13
ATOM     13  O   UNL     1      11.535  19.827  39.090  1.00  0.00    -0.388 OA
ATOM     14  H   UNL     1      11.850  19.386  39.921  1.00  0.00     0.211 HD
ENDBRANCH   1  13
TORSDOF 8
ENDMDL
MODEL 3
REMARK VINA RESULT:    -3.310      1.238      3.554
REMARK INTER + INTRA:          -5.274
REMARK INTER:                  -4.333
REMARK INTRA:                  -0.941
REMARK UNBOUND:                -0.803
REMARK SMILES O=C[C@@H](O)[C@H](O)[C@@H](O)CO
REMARK SMILES IDX 7 1 9 2 10 3 5 5 3 6 2 7 1 8 4 9 6 11 8 13
REMARK H PARENT 10 4 4 10 6 12 8 14
REMARK Flexibility Score: inf
ROOT
ATOM      1  C   UNL     1      11.659  18.105  38.993  1.00  0.00     0.171 C 
ENDROOT
BRANCH   1   2
ATOM      2  C   UNL     1      12.245  19.181  38.069  1.00  0.00     0.190 C 
BRANCH   2   3
ATOM      3  O   UNL     1      12.606  18.631  36.832  1.00  0.00    -0.394 OA
ATOM      4  H   UNL     1      11.810  18.134  36.508  1.00  0.00     0.210 HD
ENDBRANCH   2   3
ENDBRANCH   1   2
BRANCH   1   5
ATOM      5  C   UNL     1      10.365  17.418  38.465  1.00  0.00     0.181 C 
BRANCH   5   6
ATOM      6  C   UNL     1      10.543  15.989  37.879  1.00  0.00     0.209 C 
BRANCH   6   7
ATOM      7  C   UNL     1       9.256  15.382  37.376  1.00  0.00     0.258 C 
ATOM      8  O   UNL     1       8.875  15.590  36.234  1.00  0.00    -0.300 OA
ENDBRANCH   6   7
BRANCH   6   9
ATOM      9  O   UNL     1      11.501  16.003  36.852  1.00  0.00    -0.383 OA
ATOM     10  H   UNL     1      12.197  15.337  37.096  1.00  0.00     0.211 HD
ENDBRANCH   6   9
ENDBRANCH   5   6
BRANCH   5  11
ATOM     11  O   UNL     1       9.724  18.262  37.541  1.00  0.00    -0.387 OA
ATOM     12  H   UNL     1       8.828  18.475  37.914  1.00  0.00     0.211 HD
ENDBRANCH   5  11
ENDBRANCH   1   5
BRANCH   1  13
ATOM     13  O   UNL     1      12.652  17.147  39.256  1.00  0.00    -0.388 OA
ATOM     14  H   UNL     1      12.392  16.319  38.774  1.00  0.00     0.211 HD
ENDBRANCH   1  13
TORSDOF 8
ENDMDL
MODEL 4
REMARK VINA RESULT:    -3.302      1.409      2.096
REMARK INTER + INTRA:          -5.264
REMARK INTER:                  -4.566
REMARK INTRA:                  -0.698
REMARK UNBOUND:                -0.803
REMARK SMILES O=C[C@@H](O)[C@H](O)[C@@H](O)CO
REMARK SMILES IDX 7 1 9 2 10 3 5 5 3 6 2 7 1 8 4 9 6 11 8 13
REMARK H PARENT 10 4 4 10 6 12 8 14
REMARK Flexibility Score: inf
ROOT
ATOM      1  C   UNL     1       9.860  16.328  37.931  1.00  0.00     0.171 C 
ENDROOT
BRANCH   1   2
ATOM      2  C   UNL     1       9.666  15.019  37.154  1.00  0.00     0.190 C 
BRANCH   2   3
ATOM      3  O   UNL     1       9.869  15.220  35.782  1.00  0.00    -0.394 OA
ATOM      4  H   UNL     1      10.668  15.804  35.705  1.00  0.00     0.210 HD
ENDBRANCH   2   3
ENDBRANCH   1   2
BRANCH   1   5
ATOM      5  C   UNL     1      11.341  16.768  38.120  1.00  0.00     0.181 C 
BRANCH   5   6
ATOM      6  C   UNL     1      11.585  17.922  39.135  1.00  0.00     0.209 C 
BRANCH   6   7
ATOM      7  C   UNL     1      13.046  18.217  39.366  1.00  0.00     0.258 C 
ATOM      8  O   UNL     1      13.754  18.610  38.451  1.00  0.00    -0.300 OA
ENDBRANCH   6   7
BRANCH   6   9
ATOM      9  O   UNL     1      10.921  19.085  38.714  1.00  0.00    -0.383 OA
ATOM     10  H   UNL     1      10.700  19.605  39.531  1.00  0.00     0.211 HD
ENDBRANCH   6   9
ENDBRANCH   5   6
BRANCH   5  11
ATOM     11  O   UNL     1      11.908  17.072  36.870  1.00  0.00    -0.387 OA
ATOM     12  H   UNL     1      11.253  16.794  36.178  1.00  0.00     0.211 HD
ENDBRANCH   5  11
ENDBRANCH   1   5
BRANCH   1  13
ATOM     13  O   UNL     1       9.123  17.343  37.297  1.00  0.00    -0.388 OA
ATOM     14  H   UNL     1       8.956  18.048  37.975  1.00  0.00     0.211 HD
ENDBRANCH   1  13
TORSDOF 8
ENDMDL
MODEL 5
REMARK VINA RESULT:    -3.255      1.926      2.804
REMARK INTER + INTRA:          -5.201
REMARK INTER:                  -4.282
REMARK INTRA:                  -0.918
REMARK UNBOUND:                -0.803
REMARK SMILES O=C[C@@H](O)[C@H](O)[C@@H](O)CO
REMARK SMILES IDX 7 1 9 2 10 3 5 5 3 6 2 7 1 8 4 9 6 11 8 13
REMARK H PARENT 10 4 4 10 6 12 8 14
REMARK Flexibility Score: inf
ROOT
ATOM      1  C   UNL     1      10.365  17.319  38.708  1.00  0.00     0.171 C 
ENDROOT
BRANCH   1   2
ATOM      2  C   UNL     1      10.777  16.622  37.403  1.00  0.00     0.190 C 
BRANCH   2   3
ATOM      3  O   UNL     1      11.986  17.141  36.922  1.00  0.00    -0.394 OA
ATOM      4  H   UNL     1      12.495  17.440  37.720  1.00  0.00     0.210 HD
ENDBRANCH   2   3
ENDBRANCH   1   2
BRANCH   1   5
ATOM      5  C   UNL     1      11.386  17.184  39.876  1.00  0.00     0.181 C 
BRANCH   5   6
ATOM      6  C   UNL     1      12.226  18.453  40.196  1.00  0.00     0.209 C 
BRANCH   6   7
ATOM      7  C   UNL     1      12.836  18.436  41.576  1.00  0.00     0.258 C 
ATOM      8  O   UNL     1      13.102  17.378  42.125  1.00  0.00    -0.300 OA
ENDBRANCH   6   7
BRANCH   6   9
ATOM      9  O   UNL     1      13.230  18.626  39.229  1.00  0.00    -0.383 OA
ATOM     10  H   UNL     1      13.602  17.726  39.033  1.00  0.00     0.211 HD
ENDBRANCH   6   9
ENDBRANCH   5   6
BRANCH   5  11
ATOM     11  O   UNL     1      12.220  16.075  39.650  1.00  0.00    -0.387 OA
ATOM     12  H   UNL     1      12.876  16.342  38.953  1.00  0.00     0.211 HD
ENDBRANCH   5  11
ENDBRANCH   1   5
BRANCH   1  13
ATOM     13  O   UNL     1      10.107  18.672  38.434  1.00  0.00    -0.388 OA
ATOM     14  H   UNL     1       9.509  18.700  37.642  1.00  0.00     0.211 HD
ENDBRANCH   1  13
TORSDOF 8
ENDMDL
MODEL 6
REMARK VINA RESULT:    -3.227      1.707      3.851
REMARK INTER + INTRA:          -5.162
REMARK INTER:                  -4.219
REMARK INTRA:                  -0.943
REMARK UNBOUND:                -0.803
REMARK SMILES O=C[C@@H](O)[C@H](O)[C@@H](O)CO
REMARK SMILES IDX 7 1 9 2 10 3 5 5 3 6 2 7 1 8 4 9 6 11 8 13
REMARK H PARENT 10 4 4 10 6 12 8 14
REMARK Flexibility Score: inf
ROOT
ATOM      1  C   UNL     1      12.521  18.391  39.708  1.00  0.00     0.171 C 
ENDROOT
BRANCH   1   2
ATOM      2  C   UNL     1      12.691  18.480  41.230  1.00  0.00     0.190 C 
BRANCH   2   3
ATOM      3  O   UNL     1      13.093  17.246  41.759  1.00  0.00    -0.394 OA
ATOM      4  H   UNL     1      12.392  16.593  41.499  1.00  0.00     0.210 HD
ENDBRANCH   2   3
ENDBRANCH   1   2
BRANCH   1   5
ATOM      5  C   UNL     1      12.033  17.010  39.180  1.00  0.00     0.181 C 
BRANCH   5   6
ATOM      6  C   UNL     1      11.720  16.934  37.658  1.00  0.00     0.209 C 
BRANCH   6   7
ATOM      7  C   UNL     1      10.245  16.988  37.346  1.00  0.00     0.258 C 
ATOM      8  O   UNL     1       9.580  17.967  37.650  1.00  0.00    -0.300 OA
ENDBRANCH   6   7
BRANCH   6   9
ATOM      9  O   UNL     1      12.394  17.958  36.973  1.00  0.00    -0.383 OA
ATOM     10  H   UNL     1      12.867  18.501  37.658  1.00  0.00     0.211 HD
ENDBRANCH   6   9
ENDBRANCH   5   6
BRANCH   5  11
ATOM     11  O   UNL     1      10.934  16.574  39.940  1.00  0.00    -0.387 OA
ATOM     12  H   UNL     1      10.889  15.586  39.848  1.00  0.00     0.211 HD
ENDBRANCH   5  11
ENDBRANCH   1   5
BRANCH   1  13
ATOM     13  O   UNL     1      11.651  19.412  39.291  1.00  0.00    -0.388 OA
ATOM     14  H   UNL     1      11.685  20.123  39.982  1.00  0.00     0.211 HD
ENDBRANCH   1  13
TORSDOF 8
ENDMDL
MODEL 7
REMARK VINA RESULT:    -3.077      1.340      3.409
REMARK INTER + INTRA:          -4.959
REMARK INTER:                  -4.439
REMARK INTRA:                  -0.521
REMARK UNBOUND:                -0.803
REMARK SMILES O=C[C@@H](O)[C@H](O)[C@@H](O)CO
REMARK SMILES IDX 7 1 9 2 10 3 5 5 3 6 2 7 1 8 4 9 6 11 8 13
REMARK H PARENT 10 4 4 10 6 12 8 14
REMARK Flexibility Score: inf
ROOT
ATOM      1  C   UNL     1      11.971  18.297  38.801  1.00  0.00     0.171 C 
ENDROOT
BRANCH   1   2
ATOM      2  C   UNL     1      13.055  18.823  37.850  1.00  0.00     0.190 C 
BRANCH   2   3
ATOM      3  O   UNL     1      12.648  18.701  36.516  1.00  0.00    -0.394 OA
ATOM      4  H   UNL     1      12.444  19.621  36.204  1.00  0.00     0.210 HD
ENDBRANCH   2   3
ENDBRANCH   1   2
BRANCH   1   5
ATOM      5  C   UNL     1      11.869  16.746  38.888  1.00  0.00     0.181 C 
BRANCH   5   6
ATOM      6  C   UNL     1      10.908  16.068  37.870  1.00  0.00     0.209 C 
BRANCH   6   7
ATOM      7  C   UNL     1       9.591  16.787  37.718  1.00  0.00     0.258 C 
ATOM      8  O   UNL     1       8.875  16.986  38.687  1.00  0.00    -0.300 OA
ENDBRANCH   6   7
BRANCH   6   9
ATOM      9  O   UNL     1      11.536  15.945  36.620  1.00  0.00    -0.383 OA
ATOM     10  H   UNL     1      10.863  16.194  35.932  1.00  0.00     0.211 HD
ENDBRANCH   6   9
ENDBRANCH   5   6
BRANCH   5  11
ATOM     11  O   UNL     1      11.553  16.366  40.204  1.00  0.00    -0.387 OA
ATOM     12  H   UNL     1      10.866  15.651  40.143  1.00  0.00     0.211 HD
ENDBRANCH   5  11
ENDBRANCH   1   5
BRANCH   1  13
ATOM     13  O   UNL     1      12.183  18.848  40.076  1.00  0.00    -0.388 OA
ATOM     14  H   UNL     1      11.616  19.661  40.139  1.00  0.00     0.211 HD
ENDBRANCH   1  13
TORSDOF 8
ENDMDL
MODEL 8
REMARK VINA RESULT:    -2.982      1.774      2.818
REMARK INTER + INTRA:          -4.832
REMARK INTER:                  -4.440
REMARK INTRA:                  -0.392
REMARK UNBOUND:                -0.803
REMARK SMILES O=C[C@@H](O)[C@H](O)[C@@H](O)CO
REMARK SMILES IDX 7 1 9 2 10 3 5 5 3 6 2 7 1 8 4 9 6 11 8 13
REMARK H PARENT 10 4 4 10 6 12 8 14
REMARK Flexibility Score: inf
ROOT
ATOM      1  C   UNL     1      11.282  17.675  37.482  1.00  0.00     0.171 C 
ENDROOT
BRANCH   1   2
ATOM      2  C   UNL     1       9.933  17.456  38.180  1.00  0.00     0.190 C 
BRANCH   2   3
ATOM      3  O   UNL     1       9.280  18.676  38.395  1.00  0.00    -0.394 OA
ATOM      4  H   UNL     1       8.505  18.687  37.777  1.00  0.00     0.210 HD
ENDBRANCH   2   3
ENDBRANCH   1   2
BRANCH   1   5
ATOM      5  C   UNL     1      12.404  18.263  38.387  1.00  0.00     0.181 C 
BRANCH   5   6
ATOM      6  C   UNL     1      12.785  17.418  39.636  1.00  0.00     0.209 C 
BRANCH   6   7
ATOM      7  C   UNL     1      12.311  18.021  40.935  1.00  0.00     0.258 C 
ATOM      8  O   UNL     1      13.052  18.731  41.598  1.00  0.00    -0.300 OA
ENDBRANCH   6   7
BRANCH   6   9
ATOM      9  O   UNL     1      12.291  16.110  39.505  1.00  0.00    -0.383 OA
ATOM     10  H   UNL     1      12.860  15.526  40.073  1.00  0.00     0.211 HD
ENDBRANCH   6   9
ENDBRANCH   5   6
BRANCH   5  11
ATOM     11  O   UNL     1      12.074  19.579  38.755  1.00  0.00    -0.387 OA
ATOM     12  H   UNL     1      12.081  19.614  39.748  1.00  0.00     0.211 HD
ENDBRANCH   5  11
ENDBRANCH   1   5
BRANCH   1  13
ATOM     13  O   UNL     1      11.697  16.460  36.910  1.00  0.00    -0.388 OA
ATOM     14  H   UNL     1      12.310  16.028  37.561  1.00  0.00     0.211 HD
ENDBRANCH   1  13
TORSDOF 8
ENDMDL
MODEL 9
REMARK VINA RESULT:    -2.931      1.877      2.896
REMARK INTER + INTRA:          -4.762
REMARK INTER:                  -4.242
REMARK INTRA:                  -0.520
REMARK UNBOUND:                -0.803
REMARK SMILES O=C[C@@H](O)[C@H](O)[C@@H](O)CO
REMARK SMILES IDX 7 1 9 2 10 3 5 5 3 6 2 7 1 8 4 9 6 11 8 13
REMARK H PARENT 10 4 4 10 6 12 8 14
REMARK Flexibility Score: inf
ROOT
ATOM      1  C   UNL     1      12.647  16.771  39.824  1.00  0.00     0.171 C 
ENDROOT
BRANCH   1   2
ATOM      2  C   UNL     1      11.727  15.694  39.231  1.00  0.00     0.190 C 
BRANCH   2   3
ATOM      3  O   UNL     1      11.505  15.926  37.867  1.00  0.00    -0.394 OA
ATOM      4  H   UNL     1      11.777  15.095  37.398  1.00  0.00     0.210 HD
ENDBRANCH   2   3
ENDBRANCH   1   2
BRANCH   1   5
ATOM      5  C   UNL     1      11.940  18.108  40.196  1.00  0.00     0.181 C 
BRANCH   5   6
ATOM      6  C   UNL     1      11.730  19.114  39.028  1.00  0.00     0.209 C 
BRANCH   6   7
ATOM      7  C   UNL     1      12.837  19.086  38.005  1.00  0.00     0.258 C 
ATOM      8  O   UNL     1      12.635  18.651  36.882  1.00  0.00    -0.300 OA
ENDBRANCH   6   7
BRANCH   6   9
ATOM      9  O   UNL     1      10.493  18.881  38.405  1.00  0.00    -0.383 OA
ATOM     10  H   UNL     1      10.017  19.753  38.370  1.00  0.00     0.211 HD
ENDBRANCH   6   9
ENDBRANCH   5   6
BRANCH   5  11
ATOM     11  O   UNL     1      12.615  18.718  41.267  1.00  0.00    -0.387 OA
ATOM     12  H   UNL     1      12.773  18.015  41.951  1.00  0.00     0.211 HD
ENDBRANCH   5  11
ENDBRANCH   1   5
BRANCH   1  13
ATOM     13  O   UNL     1      13.305  16.235  40.944  1.00  0.00    -0.388 OA
ATOM     14  H   UNL     1      12.654  16.240  41.694  1.00  0.00     0.211 HD
ENDBRANCH   1  13
TORSDOF 8
ENDMDL
