MODEL 1
REMARK VINA RESULT:    -3.364      0.000      0.000
REMARK INTER + INTRA:          -3.650
REMARK INTER:                  -3.561
REMARK INTRA:                  -0.089
REMARK UNBOUND:                -0.089
REMARK SMILES C=C(C)[C@@H]1CC=C(C)C(=O)C1
REMARK SMILES IDX 8 1 7 2 6 3 5 4 4 5 11 6 9 7 10 8 2 9 1 10 3 11
REMARK H PARENT
REMARK Flexibility Score: inf
ROOT
ATOM      1  C   UNL     1      13.197  12.885  -0.710  1.00  0.00     0.048 C 
ATOM      2  C   UNL     1      11.967  13.437  -0.041  1.00  0.00    -0.012 C 
ATOM      3  C   UNL     1      10.874  13.727  -0.770  1.00  0.00    -0.019 C 
ATOM      4  C   UNL     1       9.595  14.205  -0.136  1.00  0.00     0.036 C 
ATOM      5  C   UNL     1       9.876  15.003   1.153  1.00  0.00     0.025 C 
ATOM      6  C   UNL     1      10.732  14.167   2.123  1.00  0.00     0.089 C 
ATOM      7  C   UNL     1      11.956  13.637   1.428  1.00  0.00     0.158 C 
ATOM      8  O   UNL     1      12.964  13.319   2.117  1.00  0.00    -0.295 OA
ENDROOT
BRANCH   5   9
ATOM      9  C   UNL     1       8.589  15.482   1.809  1.00  0.00    -0.077 C 
ATOM     10  C   UNL     1       8.401  16.777   2.118  1.00  0.00     0.008 C 
ATOM     11  C   UNL     1       7.490  14.500   2.125  1.00  0.00     0.039 C 
ENDBRANCH   5   9
TORSDOF 1
ENDMDL
MODEL 2
REMARK VINA RESULT:    -2.759      2.018      4.623
REMARK INTER + INTRA:          -3.010
REMARK INTER:                  -2.921
REMARK INTRA:                  -0.089
REMARK UNBOUND:                -0.089
REMARK SMILES C=C(C)[C@@H]1CC=C(C)C(=O)C1
REMARK SMILES IDX 8 1 7 2 6 3 5 4 4 5 11 6 9 7 10 8 2 9 1 10 3 11
REMARK H PARENT
REMARK Flexibility Score: inf
ROOT
ATOM      1  C   UNL     1       7.753  17.328   2.125  1.00  0.00     0.048 C 
ATOM      2  C   UNL     1       8.870  16.338   1.931  1.00  0.00    -0.012 C 
ATOM      3  C   UNL     1      10.135  16.768   1.779  1.00  0.00    -0.019 C 
ATOM      4  C   UNL     1      11.294  15.814   1.663  1.00  0.00     0.036 C 
ATOM      5  C   UNL     1      10.862  14.490   1.002  1.00  0.00     0.025 C 
ATOM      6  C   UNL     1       9.674  13.874   1.764  1.00  0.00     0.089 C 
ATOM      7  C   UNL     1       8.572  14.885   1.934  1.00  0.00     0.158 C 
ATOM      8  O   UNL     1       7.393  14.481   2.125  1.00  0.00    -0.295 OA
ENDROOT
BRANCH   5   9
ATOM      9  C   UNL     1      12.025  13.513   0.889  1.00  0.00    -0.077 C 
ATOM     10  C   UNL     1      12.402  13.009  -0.299  1.00  0.00     0.008 C 
ATOM     11  C   UNL     1      12.780  13.090   2.123  1.00  0.00     0.039 C 
ENDBRANCH   5   9
TORSDOF 1
ENDMDL
