MODEL 1
REMARK VINA RESULT:    -6.003      0.000      0.000
REMARK INTER + INTRA:         -17.692
REMARK INTER:                 -15.128
REMARK INTRA:                  -2.563
REMARK UNBOUND:                -2.563
REMARK SMILES CCCCCCCCCCCCCCCCCCCCCCCCCCCC(=O)[O-]
REMARK SMILES IDX 15 1 16 2 17 3 18 4 19 5 20 6 21 7 22 8 23 9 24 10 25 11
REMARK SMILES IDX 26 12 27 13 28 14 29 15 30 16 14 17 13 18 12 19 11 20 10 21
REMARK SMILES IDX 9 22 8 23 7 24 6 25 5 26 4 27 3 28 2 29 1 30
REMARK H PARENT
REMARK Flexibility Score: inf
ROOT
ATOM      1  C   UNL     1      90.115 323.447 198.526  1.00  0.00     0.000 C 
ENDROOT
BRANCH   1   2
ATOM      2  C   UNL     1      90.263 324.382 199.739  1.00  0.00     0.000 C 
BRANCH   2   3
ATOM      3  C   UNL     1      89.232 325.526 199.812  1.00  0.00     0.000 C 
BRANCH   3   4
ATOM      4  C   UNL     1      89.581 326.633 200.833  1.00  0.00     0.000 C 
BRANCH   4   5
ATOM      5  C   UNL     1      89.081 326.279 202.244  1.00  0.00     0.000 C 
BRANCH   5   6
ATOM      6  C   UNL     1      89.610 327.219 203.342  1.00  0.00     0.000 C 
BRANCH   6   7
ATOM      7  C   UNL     1      90.070 326.513 204.631  1.00  0.00     0.000 C 
BRANCH   7   8
ATOM      8  C   UNL     1      89.619 327.246 205.907  1.00  0.00     0.000 C 
BRANCH   8   9
ATOM      9  C   UNL     1      88.567 326.434 206.677  1.00  0.00     0.000 C 
BRANCH   9  10
ATOM     10  C   UNL     1      88.219 325.099 205.979  1.00  0.00     0.000 C 
BRANCH  10  11
ATOM     11  C   UNL     1      86.716 324.779 205.950  1.00  0.00     0.000 C 
BRANCH  11  12
ATOM     12  C   UNL     1      86.378 323.565 205.072  1.00  0.00     0.006 C 
BRANCH  12  13
ATOM     13  C   UNL     1      86.723 323.833 203.603  1.00  0.00     0.053 C 
BRANCH  13  14
ATOM     14  C   UNL     1      87.696 322.813 203.105  1.00  0.00     0.041 C 
ATOM     15  O   UNL     1      88.397 322.154 203.920  1.00  0.00    -0.550 OA
ATOM     16  O   UNL     1      87.786 322.549 201.743  1.00  0.00    -0.550 OA
ENDBRANCH  13  14
ENDBRANCH  12  13
ENDBRANCH  11  12
ENDBRANCH  10  11
ENDBRANCH   9  10
ENDBRANCH   8   9
ENDBRANCH   7   8
ENDBRANCH   6   7
ENDBRANCH   5   6
ENDBRANCH   4   5
ENDBRANCH   3   4
ENDBRANCH   2   3
ENDBRANCH   1   2
BRANCH   1  17
ATOM     17  C   UNL     1      88.717 322.816 198.416  1.00  0.00     0.000 C 
BRANCH  17  18
ATOM     18  C   UNL     1      88.200 322.876 196.971  1.00  0.00     0.000 C 
BRANCH  18  19
ATOM     19  C   UNL     1      88.761 324.067 196.174  1.00  0.00     0.000 C 
BRANCH  19  20
ATOM     20  C   UNL     1      87.908 325.346 196.234  1.00  0.00     0.000 C 
BRANCH  20  21
ATOM     21  C   UNL     1      88.473 326.494 195.378  1.00  0.00     0.000 C 
BRANCH  21  22
ATOM     22  C   UNL     1      87.600 326.768 194.133  1.00  0.00    -0.000 C 
BRANCH  22  23
ATOM     23  C   UNL     1      86.412 325.800 193.971  1.00  0.00    -0.000 C 
BRANCH  23  24
ATOM     24  C   UNL     1      86.582 324.740 192.873  1.00  0.00    -0.000 C 
BRANCH  24  25
ATOM     25  C   UNL     1      87.930 324.821 192.142  1.00  0.00    -0.000 C 
BRANCH  25  26
ATOM     26  C   UNL     1      88.325 323.441 191.597  1.00  0.00    -0.000 C 
BRANCH  26  27
ATOM     27  C   UNL     1      87.801 323.180 190.176  1.00  0.00    -0.000 C 
BRANCH  27  28
ATOM     28  C   UNL     1      88.839 322.590 189.207  1.00  0.00    -0.000 C 
BRANCH  28  29
ATOM     29  C   UNL     1      89.917 323.605 188.800  1.00  0.00    -0.003 C 
ATOM     30  C   UNL     1      91.224 322.906 188.439  1.00  0.00     0.004 C 
ENDBRANCH  28  29
ENDBRANCH  27  28
ENDBRANCH  26  27
ENDBRANCH  25  26
ENDBRANCH  24  25
ENDBRANCH  23  24
ENDBRANCH  22  23
ENDBRANCH  21  22
ENDBRANCH  20  21
ENDBRANCH  19  20
ENDBRANCH  18  19
ENDBRANCH  17  18
ENDBRANCH   1  17
TORSDOF 26
ENDMDL
MODEL 2
REMARK VINA RESULT:    -5.992      3.872     11.812
REMARK INTER + INTRA:         -17.664
REMARK INTER:                 -14.998
REMARK INTRA:                  -2.666
REMARK UNBOUND:                -2.563
REMARK SMILES CCCCCCCCCCCCCCCCCCCCCCCCCCCC(=O)[O-]
REMARK SMILES IDX 15 1 16 2 17 3 18 4 19 5 20 6 21 7 22 8 23 9 24 10 25 11
REMARK SMILES IDX 26 12 27 13 28 14 29 15 30 16 14 17 13 18 12 19 11 20 10 21
REMARK SMILES IDX 9 22 8 23 7 24 6 25 5 26 4 27 3 28 2 29 1 30
REMARK H PARENT
REMARK Flexibility Score: inf
ROOT
ATOM      1  C   UNL     1      89.436 325.015 200.026  1.00  0.00     0.000 C 
ENDROOT
BRANCH   1   2
ATOM      2  C   UNL     1      89.248 324.938 198.501  1.00  0.00     0.000 C 
BRANCH   2   3
ATOM      3  C   UNL     1      88.543 326.154 197.866  1.00  0.00     0.000 C 
BRANCH   3   4
ATOM      4  C   UNL     1      88.653 326.220 196.326  1.00  0.00     0.000 C 
BRANCH   4   5
ATOM      5  C   UNL     1      88.003 324.996 195.660  1.00  0.00     0.000 C 
BRANCH   5   6
ATOM      6  C   UNL     1      86.573 325.254 195.152  1.00  0.00     0.000 C 
BRANCH   6   7
ATOM      7  C   UNL     1      86.471 325.610 193.657  1.00  0.00     0.000 C 
BRANCH   7   8
ATOM      8  C   UNL     1      87.782 325.357 192.892  1.00  0.00     0.000 C 
BRANCH   8   9
ATOM      9  C   UNL     1      87.582 324.341 191.757  1.00  0.00     0.000 C 
BRANCH   9  10
ATOM     10  C   UNL     1      88.551 323.140 191.859  1.00  0.00     0.000 C 
BRANCH  10  11
ATOM     11  C   UNL     1      88.635 322.292 190.579  1.00  0.00     0.000 C 
BRANCH  11  12
ATOM     12  C   UNL     1      88.445 323.118 189.298  1.00  0.00     0.006 C 
BRANCH  12  13
ATOM     13  C   UNL     1      89.778 323.699 188.815  1.00  0.00     0.053 C 
BRANCH  13  14
ATOM     14  C   UNL     1      90.714 322.597 188.431  1.00  0.00     0.041 C 
ATOM     15  O   UNL     1      91.861 322.529 188.950  1.00  0.00    -0.550 OA
ATOM     16  O   UNL     1      90.296 321.612 187.543  1.00  0.00    -0.550 OA
ENDBRANCH  13  14
ENDBRANCH  12  13
ENDBRANCH  11  12
ENDBRANCH  10  11
ENDBRANCH   9  10
ENDBRANCH   8   9
ENDBRANCH   7   8
ENDBRANCH   6   7
ENDBRANCH   5   6
ENDBRANCH   4   5
ENDBRANCH   3   4
ENDBRANCH   2   3
ENDBRANCH   1   2
BRANCH   1  17
ATOM     17  C   UNL     1      89.463 326.457 200.559  1.00  0.00     0.000 C 
BRANCH  17  18
ATOM     18  C   UNL     1      88.877 326.529 201.977  1.00  0.00     0.000 C 
BRANCH  18  19
ATOM     19  C   UNL     1      89.914 326.237 203.077  1.00  0.00     0.000 C 
BRANCH  19  20
ATOM     20  C   UNL     1      90.199 327.411 204.028  1.00  0.00     0.000 C 
BRANCH  20  21
ATOM     21  C   UNL     1      89.410 327.329 205.348  1.00  0.00     0.000 C 
BRANCH  21  22
ATOM     22  C   UNL     1      89.871 326.141 206.222  1.00  0.00    -0.000 C 
BRANCH  22  23
ATOM     23  C   UNL     1      88.736 325.183 206.633  1.00  0.00    -0.000 C 
BRANCH  23  24
ATOM     24  C   UNL     1      87.378 325.462 205.972  1.00  0.00    -0.000 C 
BRANCH  24  25
ATOM     25  C   UNL     1      86.606 324.191 205.591  1.00  0.00    -0.000 C 
BRANCH  25  26
ATOM     26  C   UNL     1      87.560 323.151 204.983  1.00  0.00    -0.000 C 
BRANCH  26  27
ATOM     27  C   UNL     1      87.746 323.317 203.466  1.00  0.00    -0.000 C 
BRANCH  27  28
ATOM     28  C   UNL     1      86.480 323.749 202.708  1.00  0.00    -0.000 C 
BRANCH  28  29
ATOM     29  C   UNL     1      86.149 322.824 201.528  1.00  0.00    -0.003 C 
ATOM     30  C   UNL     1      86.307 321.357 201.916  1.00  0.00     0.004 C 
ENDBRANCH  28  29
ENDBRANCH  27  28
ENDBRANCH  26  27
ENDBRANCH  25  26
ENDBRANCH  24  25
ENDBRANCH  23  24
ENDBRANCH  22  23
ENDBRANCH  21  22
ENDBRANCH  20  21
ENDBRANCH  19  20
ENDBRANCH  18  19
ENDBRANCH  17  18
ENDBRANCH   1  17
TORSDOF 26
ENDMDL
MODEL 3
REMARK VINA RESULT:    -5.939      3.645     11.155
REMARK INTER + INTRA:         -17.531
REMARK INTER:                 -14.547
REMARK INTRA:                  -2.983
REMARK UNBOUND:                -2.563
REMARK SMILES CCCCCCCCCCCCCCCCCCCCCCCCCCCC(=O)[O-]
REMARK SMILES IDX 15 1 16 2 17 3 18 4 19 5 20 6 21 7 22 8 23 9 24 10 25 11
REMARK SMILES IDX 26 12 27 13 28 14 29 15 30 16 14 17 13 18 12 19 11 20 10 21
REMARK SMILES IDX 9 22 8 23 7 24 6 25 5 26 4 27 3 28 2 29 1 30
REMARK H PARENT
REMARK Flexibility Score: inf
ROOT
ATOM      1  C   UNL     1      87.439 321.733 199.494  1.00  0.00     0.000 C 
ENDROOT
BRANCH   1   2
ATOM      2  C   UNL     1      88.293 322.621 198.572  1.00  0.00     0.000 C 
BRANCH   2   3
ATOM      3  C   UNL     1      87.885 322.601 197.084  1.00  0.00     0.000 C 
BRANCH   3   4
ATOM      4  C   UNL     1      88.716 323.544 196.184  1.00  0.00     0.000 C 
BRANCH   4   5
ATOM      5  C   UNL     1      89.228 324.765 196.967  1.00  0.00     0.000 C 
BRANCH   5   6
ATOM      6  C   UNL     1      88.427 326.052 196.701  1.00  0.00     0.000 C 
BRANCH   6   7
ATOM      7  C   UNL     1      88.188 326.369 195.213  1.00  0.00     0.000 C 
BRANCH   7   8
ATOM      8  C   UNL     1      86.698 326.346 194.829  1.00  0.00     0.000 C 
BRANCH   8   9
ATOM      9  C   UNL     1      86.473 325.610 193.499  1.00  0.00     0.000 C 
BRANCH   9  10
ATOM     10  C   UNL     1      87.797 325.190 192.821  1.00  0.00     0.000 C 
BRANCH  10  11
ATOM     11  C   UNL     1      87.931 323.677 192.588  1.00  0.00     0.000 C 
BRANCH  11  12
ATOM     12  C   UNL     1      87.712 323.274 191.122  1.00  0.00     0.006 C 
BRANCH  12  13
ATOM     13  C   UNL     1      88.791 323.878 190.217  1.00  0.00     0.053 C 
BRANCH  13  14
ATOM     14  C   UNL     1      89.329 322.836 189.288  1.00  0.00     0.041 C 
ATOM     15  O   UNL     1      88.853 321.669 189.299  1.00  0.00    -0.550 OA
ATOM     16  O   UNL     1      90.317 323.173 188.368  1.00  0.00    -0.550 OA
ENDBRANCH  13  14
ENDBRANCH  12  13
ENDBRANCH  11  12
ENDBRANCH  10  11
ENDBRANCH   9  10
ENDBRANCH   8   9
ENDBRANCH   7   8
ENDBRANCH   6   7
ENDBRANCH   5   6
ENDBRANCH   4   5
ENDBRANCH   3   4
ENDBRANCH   2   3
ENDBRANCH   1   2
BRANCH   1  17
ATOM     17  C   UNL     1      87.509 322.153 200.971  1.00  0.00     0.000 C 
BRANCH  17  18
ATOM     18  C   UNL     1      86.145 322.658 201.463  1.00  0.00     0.000 C 
BRANCH  18  19
ATOM     19  C   UNL     1      86.249 323.883 202.388  1.00  0.00     0.000 C 
BRANCH  19  20
ATOM     20  C   UNL     1      87.364 323.806 203.444  1.00  0.00     0.000 C 
BRANCH  20  21
ATOM     21  C   UNL     1      86.913 323.139 204.757  1.00  0.00     0.000 C 
BRANCH  21  22
ATOM     22  C   UNL     1      87.404 323.918 205.997  1.00  0.00    -0.000 C 
BRANCH  22  23
ATOM     23  C   UNL     1      87.687 325.410 205.734  1.00  0.00    -0.000 C 
BRANCH  23  24
ATOM     24  C   UNL     1      88.525 326.113 206.813  1.00  0.00    -0.000 C 
BRANCH  24  25
ATOM     25  C   UNL     1      89.627 327.017 206.243  1.00  0.00    -0.000 C 
BRANCH  25  26
ATOM     26  C   UNL     1      90.302 326.340 205.040  1.00  0.00    -0.000 C 
BRANCH  26  27
ATOM     27  C   UNL     1      90.329 327.227 203.785  1.00  0.00    -0.000 C 
BRANCH  27  28
ATOM     28  C   UNL     1      89.290 326.855 202.714  1.00  0.00    -0.000 C 
BRANCH  28  29
ATOM     29  C   UNL     1      89.932 326.427 201.386  1.00  0.00    -0.003 C 
ATOM     30  C   UNL     1      88.911 325.760 200.470  1.00  0.00     0.004 C 
ENDBRANCH  28  29
ENDBRANCH  27  28
ENDBRANCH  26  27
ENDBRANCH  25  26
ENDBRANCH  24  25
ENDBRANCH  23  24
ENDBRANCH  22  23
ENDBRANCH  21  22
ENDBRANCH  20  21
ENDBRANCH  19  20
ENDBRANCH  18  19
ENDBRANCH  17  18
ENDBRANCH   1  17
TORSDOF 26
ENDMDL
MODEL 4
REMARK VINA RESULT:    -5.932      1.579      3.160
REMARK INTER + INTRA:         -17.511
REMARK INTER:                 -14.917
REMARK INTRA:                  -2.595
REMARK UNBOUND:                -2.563
REMARK SMILES CCCCCCCCCCCCCCCCCCCCCCCCCCCC(=O)[O-]
REMARK SMILES IDX 15 1 16 2 17 3 18 4 19 5 20 6 21 7 22 8 23 9 24 10 25 11
REMARK SMILES IDX 26 12 27 13 28 14 29 15 30 16 14 17 13 18 12 19 11 20 10 21
REMARK SMILES IDX 9 22 8 23 7 24 6 25 5 26 4 27 3 28 2 29 1 30
REMARK H PARENT
REMARK Flexibility Score: inf
ROOT
ATOM      1  C   UNL     1      87.336 321.424 199.266  1.00  0.00     0.000 C 
ENDROOT
BRANCH   1   2
ATOM      2  C   UNL     1      86.826 321.703 200.691  1.00  0.00     0.000 C 
BRANCH   2   3
ATOM      3  C   UNL     1      87.362 322.997 201.336  1.00  0.00     0.000 C 
BRANCH   3   4
ATOM      4  C   UNL     1      86.707 323.351 202.691  1.00  0.00     0.000 C 
BRANCH   4   5
ATOM      5  C   UNL     1      87.033 322.301 203.767  1.00  0.00     0.000 C 
BRANCH   5   6
ATOM      6  C   UNL     1      87.174 322.889 205.182  1.00  0.00     0.000 C 
BRANCH   6   7
ATOM      7  C   UNL     1      86.396 324.197 205.420  1.00  0.00     0.000 C 
BRANCH   7   8
ATOM      8  C   UNL     1      87.264 325.302 206.049  1.00  0.00     0.000 C 
BRANCH   8   9
ATOM      9  C   UNL     1      88.698 324.813 206.301  1.00  0.00     0.000 C 
BRANCH   9  10
ATOM     10  C   UNL     1      89.762 325.860 205.899  1.00  0.00     0.000 C 
BRANCH  10  11
ATOM     11  C   UNL     1      89.176 327.168 205.344  1.00  0.00     0.000 C 
BRANCH  11  12
ATOM     12  C   UNL     1      89.523 327.401 203.866  1.00  0.00     0.006 C 
BRANCH  12  13
ATOM     13  C   UNL     1      89.178 326.172 203.019  1.00  0.00     0.053 C 
BRANCH  13  14
ATOM     14  C   UNL     1      89.585 326.393 201.597  1.00  0.00     0.041 C 
ATOM     15  O   UNL     1      90.750 326.793 201.325  1.00  0.00    -0.550 OA
ATOM     16  O   UNL     1      88.696 326.101 200.568  1.00  0.00    -0.550 OA
ENDBRANCH  13  14
ENDBRANCH  12  13
ENDBRANCH  11  12
ENDBRANCH  10  11
ENDBRANCH   9  10
ENDBRANCH   8   9
ENDBRANCH   7   8
ENDBRANCH   6   7
ENDBRANCH   5   6
ENDBRANCH   4   5
ENDBRANCH   3   4
ENDBRANCH   2   3
ENDBRANCH   1   2
BRANCH   1  17
ATOM     17  C   UNL     1      88.138 322.594 198.672  1.00  0.00     0.000 C 
BRANCH  17  18
ATOM     18  C   UNL     1      88.149 322.528 197.137  1.00  0.00     0.000 C 
BRANCH  18  19
ATOM     19  C   UNL     1      88.850 323.732 196.484  1.00  0.00     0.000 C 
BRANCH  19  20
ATOM     20  C   UNL     1      88.892 325.004 197.346  1.00  0.00     0.000 C 
BRANCH  20  21
ATOM     21  C   UNL     1      88.179 326.204 196.694  1.00  0.00     0.000 C 
BRANCH  21  22
ATOM     22  C   UNL     1      88.712 326.487 195.271  1.00  0.00    -0.000 C 
BRANCH  22  23
ATOM     23  C   UNL     1      87.611 326.761 194.229  1.00  0.00    -0.000 C 
BRANCH  23  24
ATOM     24  C   UNL     1      86.505 325.698 194.156  1.00  0.00    -0.000 C 
BRANCH  24  25
ATOM     25  C   UNL     1      86.864 324.494 193.274  1.00  0.00    -0.000 C 
BRANCH  25  26
ATOM     26  C   UNL     1      87.877 324.908 192.196  1.00  0.00    -0.000 C 
BRANCH  26  27
ATOM     27  C   UNL     1      88.451 323.715 191.416  1.00  0.00    -0.000 C 
BRANCH  27  28
ATOM     28  C   UNL     1      87.514 323.143 190.338  1.00  0.00    -0.000 C 
BRANCH  28  29
ATOM     29  C   UNL     1      88.224 322.914 188.995  1.00  0.00    -0.003 C 
ATOM     30  C   UNL     1      89.596 323.580 188.975  1.00  0.00     0.004 C 
ENDBRANCH  28  29
ENDBRANCH  27  28
ENDBRANCH  26  27
ENDBRANCH  25  26
ENDBRANCH  24  25
ENDBRANCH  23  24
ENDBRANCH  22  23
ENDBRANCH  21  22
ENDBRANCH  20  21
ENDBRANCH  19  20
ENDBRANCH  18  19
ENDBRANCH  17  18
ENDBRANCH   1  17
TORSDOF 26
ENDMDL
MODEL 5
REMARK VINA RESULT:    -5.928      3.696     12.034
REMARK INTER + INTRA:         -17.501
REMARK INTER:                 -14.971
REMARK INTRA:                  -2.531
REMARK UNBOUND:                -2.563
REMARK SMILES CCCCCCCCCCCCCCCCCCCCCCCCCCCC(=O)[O-]
REMARK SMILES IDX 15 1 16 2 17 3 18 4 19 5 20 6 21 7 22 8 23 9 24 10 25 11
REMARK SMILES IDX 26 12 27 13 28 14 29 15 30 16 14 17 13 18 12 19 11 20 10 21
REMARK SMILES IDX 9 22 8 23 7 24 6 25 5 26 4 27 3 28 2 29 1 30
REMARK H PARENT
REMARK Flexibility Score: inf
ROOT
ATOM      1  C   UNL     1      88.959 324.688 197.007  1.00  0.00     0.000 C 
ENDROOT
BRANCH   1   2
ATOM      2  C   UNL     1      88.511 326.063 196.482  1.00  0.00     0.000 C 
BRANCH   2   3
ATOM      3  C   UNL     1      87.064 326.121 195.951  1.00  0.00     0.000 C 
BRANCH   3   4
ATOM      4  C   UNL     1      86.911 326.855 194.599  1.00  0.00     0.000 C 
BRANCH   4   5
ATOM      5  C   UNL     1      87.937 326.357 193.567  1.00  0.00     0.000 C 
BRANCH   5   6
ATOM      6  C   UNL     1      87.567 325.006 192.929  1.00  0.00     0.000 C 
BRANCH   6   7
ATOM      7  C   UNL     1      88.494 323.836 193.307  1.00  0.00     0.000 C 
BRANCH   7   8
ATOM      8  C   UNL     1      87.867 322.461 193.022  1.00  0.00     0.000 C 
BRANCH   8   9
ATOM      9  C   UNL     1      88.738 321.636 192.062  1.00  0.00     0.000 C 
BRANCH   9  10
ATOM     10  C   UNL     1      88.091 321.471 190.667  1.00  0.00     0.000 C 
BRANCH  10  11
ATOM     11  C   UNL     1      87.894 322.793 189.907  1.00  0.00     0.000 C 
BRANCH  11  12
ATOM     12  C   UNL     1      88.680 322.850 188.589  1.00  0.00     0.006 C 
BRANCH  12  13
ATOM     13  C   UNL     1      90.081 323.432 188.808  1.00  0.00     0.053 C 
BRANCH  13  14
ATOM     14  C   UNL     1      91.114 322.360 188.668  1.00  0.00     0.041 C 
ATOM     15  O   UNL     1      91.477 321.692 189.673  1.00  0.00    -0.550 OA
ATOM     16  O   UNL     1      91.634 322.060 187.413  1.00  0.00    -0.550 OA
ENDBRANCH  13  14
ENDBRANCH  12  13
ENDBRANCH  11  12
ENDBRANCH  10  11
ENDBRANCH   9  10
ENDBRANCH   8   9
ENDBRANCH   7   8
ENDBRANCH   6   7
ENDBRANCH   5   6
ENDBRANCH   4   5
ENDBRANCH   3   4
ENDBRANCH   2   3
ENDBRANCH   1   2
BRANCH   1  17
ATOM     17  C   UNL     1      89.190 324.668 198.526  1.00  0.00     0.000 C 
BRANCH  17  18
ATOM     18  C   UNL     1      89.099 326.084 199.114  1.00  0.00     0.000 C 
BRANCH  18  19
ATOM     19  C   UNL     1      89.944 326.268 200.387  1.00  0.00     0.000 C 
BRANCH  19  20
ATOM     20  C   UNL     1      89.137 326.536 201.668  1.00  0.00     0.000 C 
BRANCH  20  21
ATOM     21  C   UNL     1      90.023 326.799 202.900  1.00  0.00     0.000 C 
BRANCH  21  22
ATOM     22  C   UNL     1      89.221 327.425 204.063  1.00  0.00    -0.000 C 
BRANCH  22  23
ATOM     23  C   UNL     1      89.746 327.053 205.463  1.00  0.00    -0.000 C 
BRANCH  23  24
ATOM     24  C   UNL     1      88.694 326.470 206.418  1.00  0.00    -0.000 C 
BRANCH  24  25
ATOM     25  C   UNL     1      88.321 325.013 206.107  1.00  0.00    -0.000 C 
BRANCH  25  26
ATOM     26  C   UNL     1      86.799 324.877 205.943  1.00  0.00    -0.000 C 
BRANCH  26  27
ATOM     27  C   UNL     1      86.378 323.544 205.303  1.00  0.00    -0.000 C 
BRANCH  27  28
ATOM     28  C   UNL     1      87.182 323.151 204.053  1.00  0.00    -0.000 C 
BRANCH  28  29
ATOM     29  C   UNL     1      86.674 323.840 202.778  1.00  0.00    -0.003 C 
ATOM     30  C   UNL     1      87.359 323.278 201.536  1.00  0.00     0.004 C 
ENDBRANCH  28  29
ENDBRANCH  27  28
ENDBRANCH  26  27
ENDBRANCH  25  26
ENDBRANCH  24  25
ENDBRANCH  23  24
ENDBRANCH  22  23
ENDBRANCH  21  22
ENDBRANCH  20  21
ENDBRANCH  19  20
ENDBRANCH  18  19
ENDBRANCH  17  18
ENDBRANCH   1  17
TORSDOF 26
ENDMDL
MODEL 6
REMARK VINA RESULT:    -5.921      1.852      3.503
REMARK INTER + INTRA:         -17.484
REMARK INTER:                 -14.303
REMARK INTRA:                  -3.181
REMARK UNBOUND:                -2.563
REMARK SMILES CCCCCCCCCCCCCCCCCCCCCCCCCCCC(=O)[O-]
REMARK SMILES IDX 15 1 16 2 17 3 18 4 19 5 20 6 21 7 22 8 23 9 24 10 25 11
REMARK SMILES IDX 26 12 27 13 28 14 29 15 30 16 14 17 13 18 12 19 11 20 10 21
REMARK SMILES IDX 9 22 8 23 7 24 6 25 5 26 4 27 3 28 2 29 1 30
REMARK H PARENT
REMARK Flexibility Score: inf
ROOT
ATOM      1  C   UNL     1      88.892 325.662 198.423  1.00  0.00     0.000 C 
ENDROOT
BRANCH   1   2
ATOM      2  C   UNL     1      89.228 326.491 199.675  1.00  0.00     0.000 C 
BRANCH   2   3
ATOM      3  C   UNL     1      90.358 325.919 200.555  1.00  0.00     0.000 C 
BRANCH   3   4
ATOM      4  C   UNL     1      90.663 326.752 201.821  1.00  0.00     0.000 C 
BRANCH   4   5
ATOM      5  C   UNL     1      89.462 326.781 202.781  1.00  0.00     0.000 C 
BRANCH   5   6
ATOM      6  C   UNL     1      89.784 326.257 204.192  1.00  0.00     0.000 C 
BRANCH   6   7
ATOM      7  C   UNL     1      89.317 327.167 205.343  1.00  0.00     0.000 C 
BRANCH   7   8
ATOM      8  C   UNL     1      88.740 326.379 206.531  1.00  0.00     0.000 C 
BRANCH   8   9
ATOM      9  C   UNL     1      88.268 324.981 206.101  1.00  0.00     0.000 C 
BRANCH   9  10
ATOM     10  C   UNL     1      86.728 324.877 206.008  1.00  0.00     0.000 C 
BRANCH  10  11
ATOM     11  C   UNL     1      86.229 323.854 204.976  1.00  0.00     0.000 C 
BRANCH  11  12
ATOM     12  C   UNL     1      87.114 323.786 203.722  1.00  0.00     0.006 C 
BRANCH  12  13
ATOM     13  C   UNL     1      86.265 323.796 202.447  1.00  0.00     0.053 C 
BRANCH  13  14
ATOM     14  C   UNL     1      86.904 322.947 201.394  1.00  0.00     0.041 C 
ATOM     15  O   UNL     1      86.208 322.141 200.719  1.00  0.00    -0.550 OA
ATOM     16  O   UNL     1      88.260 323.090 201.118  1.00  0.00    -0.550 OA
ENDBRANCH  13  14
ENDBRANCH  12  13
ENDBRANCH  11  12
ENDBRANCH  10  11
ENDBRANCH   9  10
ENDBRANCH   8   9
ENDBRANCH   7   8
ENDBRANCH   6   7
ENDBRANCH   5   6
ENDBRANCH   4   5
ENDBRANCH   3   4
ENDBRANCH   2   3
ENDBRANCH   1   2
BRANCH   1  17
ATOM     17  C   UNL     1      88.520 326.528 197.208  1.00  0.00     0.000 C 
BRANCH  17  18
ATOM     18  C   UNL     1      88.072 325.653 196.028  1.00  0.00     0.000 C 
BRANCH  18  19
ATOM     19  C   UNL     1      86.668 326.009 195.508  1.00  0.00     0.000 C 
BRANCH  19  20
ATOM     20  C   UNL     1      86.517 325.984 193.978  1.00  0.00     0.000 C 
BRANCH  20  21
ATOM     21  C   UNL     1      87.862 325.861 193.236  1.00  0.00     0.000 C 
BRANCH  21  22
ATOM     22  C   UNL     1      87.835 324.736 192.178  1.00  0.00    -0.000 C 
BRANCH  22  23
ATOM     23  C   UNL     1      86.513 323.946 192.130  1.00  0.00    -0.000 C 
BRANCH  23  24
ATOM     24  C   UNL     1      86.642 322.444 192.424  1.00  0.00    -0.000 C 
BRANCH  24  25
ATOM     25  C   UNL     1      87.562 322.126 193.611  1.00  0.00    -0.000 C 
BRANCH  25  26
ATOM     26  C   UNL     1      86.788 322.249 194.932  1.00  0.00    -0.000 C 
BRANCH  26  27
ATOM     27  C   UNL     1      87.703 322.291 196.166  1.00  0.00    -0.000 C 
BRANCH  27  28
ATOM     28  C   UNL     1      89.206 322.204 195.854  1.00  0.00    -0.000 C 
BRANCH  28  29
ATOM     29  C   UNL     1      90.085 322.449 197.089  1.00  0.00    -0.003 C 
ATOM     30  C   UNL     1      91.403 321.687 196.989  1.00  0.00     0.004 C 
ENDBRANCH  28  29
ENDBRANCH  27  28
ENDBRANCH  26  27
ENDBRANCH  25  26
ENDBRANCH  24  25
ENDBRANCH  23  24
ENDBRANCH  22  23
ENDBRANCH  21  22
ENDBRANCH  20  21
ENDBRANCH  19  20
ENDBRANCH  18  19
ENDBRANCH  17  18
ENDBRANCH   1  17
TORSDOF 26
ENDMDL
MODEL 7
REMARK VINA RESULT:    -5.908      3.973     11.907
REMARK INTER + INTRA:         -17.452
REMARK INTER:                 -14.436
REMARK INTRA:                  -3.016
REMARK UNBOUND:                -2.563
REMARK SMILES CCCCCCCCCCCCCCCCCCCCCCCCCCCC(=O)[O-]
REMARK SMILES IDX 15 1 16 2 17 3 18 4 19 5 20 6 21 7 22 8 23 9 24 10 25 11
REMARK SMILES IDX 26 12 27 13 28 14 29 15 30 16 14 17 13 18 12 19 11 20 10 21
REMARK SMILES IDX 9 22 8 23 7 24 6 25 5 26 4 27 3 28 2 29 1 30
REMARK H PARENT
REMARK Flexibility Score: inf
ROOT
ATOM      1  C   UNL     1      89.609 324.884 199.609  1.00  0.00     0.000 C 
ENDROOT
BRANCH   1   2
ATOM      2  C   UNL     1      89.195 325.037 198.135  1.00  0.00     0.000 C 
BRANCH   2   3
ATOM      3  C   UNL     1      88.650 326.427 197.749  1.00  0.00     0.000 C 
BRANCH   3   4
ATOM      4  C   UNL     1      87.709 326.424 196.523  1.00  0.00     0.000 C 
BRANCH   4   5
ATOM      5  C   UNL     1      88.492 326.252 195.210  1.00  0.00     0.000 C 
BRANCH   5   6
ATOM      6  C   UNL     1      87.674 326.594 193.952  1.00  0.00     0.000 C 
BRANCH   6   7
ATOM      7  C   UNL     1      86.788 325.450 193.426  1.00  0.00     0.000 C 
BRANCH   7   8
ATOM      8  C   UNL     1      87.350 324.057 193.759  1.00  0.00     0.000 C 
BRANCH   8   9
ATOM      9  C   UNL     1      88.433 323.634 192.755  1.00  0.00     0.000 C 
BRANCH   9  10
ATOM     10  C   UNL     1      88.120 324.098 191.314  1.00  0.00     0.000 C 
BRANCH  10  11
ATOM     11  C   UNL     1      87.373 323.055 190.467  1.00  0.00     0.000 C 
BRANCH  11  12
ATOM     12  C   UNL     1      87.970 322.884 189.063  1.00  0.00     0.006 C 
BRANCH  12  13
ATOM     13  C   UNL     1      89.289 323.652 188.927  1.00  0.00     0.053 C 
BRANCH  13  14
ATOM     14  C   UNL     1      90.387 322.725 188.509  1.00  0.00     0.041 C 
ATOM     15  O   UNL     1      91.590 323.092 188.585  1.00  0.00    -0.550 OA
ATOM     16  O   UNL     1      90.081 321.434 188.092  1.00  0.00    -0.550 OA
ENDBRANCH  13  14
ENDBRANCH  12  13
ENDBRANCH  11  12
ENDBRANCH  10  11
ENDBRANCH   9  10
ENDBRANCH   8   9
ENDBRANCH   7   8
ENDBRANCH   6   7
ENDBRANCH   5   6
ENDBRANCH   4   5
ENDBRANCH   3   4
ENDBRANCH   2   3
ENDBRANCH   1   2
BRANCH   1  17
ATOM     17  C   UNL     1      89.318 326.137 200.451  1.00  0.00     0.000 C 
BRANCH  17  18
ATOM     18  C   UNL     1      88.207 325.864 201.476  1.00  0.00     0.000 C 
BRANCH  18  19
ATOM     19  C   UNL     1      88.009 324.366 201.770  1.00  0.00     0.000 C 
BRANCH  19  20
ATOM     20  C   UNL     1      86.609 323.986 202.281  1.00  0.00     0.000 C 
BRANCH  20  21
ATOM     21  C   UNL     1      86.588 323.612 203.775  1.00  0.00     0.000 C 
BRANCH  21  22
ATOM     22  C   UNL     1      87.986 323.199 204.285  1.00  0.00    -0.000 C 
BRANCH  22  23
ATOM     23  C   UNL     1      88.402 323.878 205.605  1.00  0.00    -0.000 C 
BRANCH  23  24
ATOM     24  C   UNL     1      87.987 325.351 205.737  1.00  0.00    -0.000 C 
BRANCH  24  25
ATOM     25  C   UNL     1      88.846 326.145 206.731  1.00  0.00    -0.000 C 
BRANCH  25  26
ATOM     26  C   UNL     1      89.472 327.364 206.037  1.00  0.00    -0.000 C 
BRANCH  26  27
ATOM     27  C   UNL     1      89.380 327.300 204.505  1.00  0.00    -0.000 C 
BRANCH  27  28
ATOM     28  C   UNL     1      90.728 327.119 203.788  1.00  0.00    -0.000 C 
BRANCH  28  29
ATOM     29  C   UNL     1      91.301 325.703 203.948  1.00  0.00    -0.003 C 
ATOM     30  C   UNL     1      92.085 325.281 202.710  1.00  0.00     0.004 C 
ENDBRANCH  28  29
ENDBRANCH  27  28
ENDBRANCH  26  27
ENDBRANCH  25  26
ENDBRANCH  24  25
ENDBRANCH  23  24
ENDBRANCH  22  23
ENDBRANCH  21  22
ENDBRANCH  20  21
ENDBRANCH  19  20
ENDBRANCH  18  19
ENDBRANCH  17  18
ENDBRANCH   1  17
TORSDOF 26
ENDMDL
MODEL 8
REMARK VINA RESULT:    -5.861      1.542      3.211
REMARK INTER + INTRA:         -17.333
REMARK INTER:                 -14.501
REMARK INTRA:                  -2.832
REMARK UNBOUND:                -2.563
REMARK SMILES CCCCCCCCCCCCCCCCCCCCCCCCCCCC(=O)[O-]
REMARK SMILES IDX 15 1 16 2 17 3 18 4 19 5 20 6 21 7 22 8 23 9 24 10 25 11
REMARK SMILES IDX 26 12 27 13 28 14 29 15 30 16 14 17 13 18 12 19 11 20 10 21
REMARK SMILES IDX 9 22 8 23 7 24 6 25 5 26 4 27 3 28 2 29 1 30
REMARK H PARENT
REMARK Flexibility Score: inf
ROOT
ATOM      1  C   UNL     1      89.869 325.244 202.395  1.00  0.00     0.000 C 
ENDROOT
BRANCH   1   2
ATOM      2  C   UNL     1      89.790 326.671 202.963  1.00  0.00     0.000 C 
BRANCH   2   3
ATOM      3  C   UNL     1      91.013 327.115 203.790  1.00  0.00     0.000 C 
BRANCH   3   4
ATOM      4  C   UNL     1      90.730 327.292 205.300  1.00  0.00     0.000 C 
BRANCH   4   5
ATOM      5  C   UNL     1      89.221 327.296 205.595  1.00  0.00     0.000 C 
BRANCH   5   6
ATOM      6  C   UNL     1      88.828 326.455 206.822  1.00  0.00     0.000 C 
BRANCH   6   7
ATOM      7  C   UNL     1      89.351 325.006 206.808  1.00  0.00     0.000 C 
BRANCH   7   8
ATOM      8  C   UNL     1      88.668 324.135 205.739  1.00  0.00     0.000 C 
BRANCH   8   9
ATOM      9  C   UNL     1      87.197 324.536 205.545  1.00  0.00     0.000 C 
BRANCH   9  10
ATOM     10  C   UNL     1      86.430 323.553 204.631  1.00  0.00     0.000 C 
BRANCH  10  11
ATOM     11  C   UNL     1      86.480 323.915 203.138  1.00  0.00     0.000 C 
BRANCH  11  12
ATOM     12  C   UNL     1      86.417 322.685 202.221  1.00  0.00     0.006 C 
BRANCH  12  13
ATOM     13  C   UNL     1      87.450 322.784 201.093  1.00  0.00     0.053 C 
BRANCH  13  14
ATOM     14  C   UNL     1      87.069 321.883 199.962  1.00  0.00     0.041 C 
ATOM     15  O   UNL     1      85.990 321.233 200.004  1.00  0.00    -0.550 OA
ATOM     16  O   UNL     1      87.880 321.807 198.834  1.00  0.00    -0.550 OA
ENDBRANCH  13  14
ENDBRANCH  12  13
ENDBRANCH  11  12
ENDBRANCH  10  11
ENDBRANCH   9  10
ENDBRANCH   8   9
ENDBRANCH   7   8
ENDBRANCH   6   7
ENDBRANCH   5   6
ENDBRANCH   4   5
ENDBRANCH   3   4
ENDBRANCH   2   3
ENDBRANCH   1   2
BRANCH   1  17
ATOM     17  C   UNL     1      90.003 325.209 200.864  1.00  0.00     0.000 C 
BRANCH  17  18
ATOM     18  C   UNL     1      89.463 326.503 200.237  1.00  0.00     0.000 C 
BRANCH  18  19
ATOM     19  C   UNL     1      88.938 326.309 198.804  1.00  0.00     0.000 C 
BRANCH  19  20
ATOM     20  C   UNL     1      89.263 324.945 198.173  1.00  0.00     0.000 C 
BRANCH  20  21
ATOM     21  C   UNL     1      88.806 324.828 196.707  1.00  0.00     0.000 C 
BRANCH  21  22
ATOM     22  C   UNL     1      88.159 326.136 196.199  1.00  0.00    -0.000 C 
BRANCH  22  23
ATOM     23  C   UNL     1      86.700 325.977 195.729  1.00  0.00    -0.000 C 
BRANCH  23  24
ATOM     24  C   UNL     1      86.415 326.486 194.309  1.00  0.00    -0.000 C 
BRANCH  24  25
ATOM     25  C   UNL     1      86.493 325.390 193.236  1.00  0.00    -0.000 C 
BRANCH  25  26
ATOM     26  C   UNL     1      87.956 325.127 192.849  1.00  0.00    -0.000 C 
BRANCH  26  27
ATOM     27  C   UNL     1      88.289 323.631 192.728  1.00  0.00    -0.000 C 
BRANCH  27  28
ATOM     28  C   UNL     1      87.930 323.001 191.372  1.00  0.00    -0.000 C 
BRANCH  28  29
ATOM     29  C   UNL     1      88.653 323.672 190.195  1.00  0.00    -0.003 C 
ATOM     30  C   UNL     1      88.509 322.851 188.918  1.00  0.00     0.004 C 
ENDBRANCH  28  29
ENDBRANCH  27  28
ENDBRANCH  26  27
ENDBRANCH  25  26
ENDBRANCH  24  25
ENDBRANCH  23  24
ENDBRANCH  22  23
ENDBRANCH  21  22
ENDBRANCH  20  21
ENDBRANCH  19  20
ENDBRANCH  18  19
ENDBRANCH  17  18
ENDBRANCH   1  17
TORSDOF 26
ENDMDL
MODEL 9
REMARK VINA RESULT:    -5.841      2.310     10.645
REMARK INTER + INTRA:         -17.282
REMARK INTER:                 -13.900
REMARK INTRA:                  -3.382
REMARK UNBOUND:                -2.563
REMARK SMILES CCCCCCCCCCCCCCCCCCCCCCCCCCCC(=O)[O-]
REMARK SMILES IDX 15 1 16 2 17 3 18 4 19 5 20 6 21 7 22 8 23 9 24 10 25 11
REMARK SMILES IDX 26 12 27 13 28 14 29 15 30 16 14 17 13 18 12 19 11 20 10 21
REMARK SMILES IDX 9 22 8 23 7 24 6 25 5 26 4 27 3 28 2 29 1 30
REMARK H PARENT
REMARK Flexibility Score: inf
ROOT
ATOM      1  C   UNL     1      88.805 326.494 197.760  1.00  0.00     0.000 C 
ENDROOT
BRANCH   1   2
ATOM      2  C   UNL     1      88.526 326.362 196.253  1.00  0.00     0.000 C 
BRANCH   2   3
ATOM      3  C   UNL     1      87.044 326.160 195.877  1.00  0.00     0.000 C 
BRANCH   3   4
ATOM      4  C   UNL     1      86.735 326.360 194.376  1.00  0.00     0.000 C 
BRANCH   4   5
ATOM      5  C   UNL     1      87.966 326.066 193.502  1.00  0.00     0.000 C 
BRANCH   5   6
ATOM      6  C   UNL     1      87.726 324.975 192.442  1.00  0.00     0.000 C 
BRANCH   6   7
ATOM      7  C   UNL     1      86.356 324.278 192.530  1.00  0.00     0.000 C 
BRANCH   7   8
ATOM      8  C   UNL     1      86.110 323.296 191.371  1.00  0.00     0.000 C 
BRANCH   8   9
ATOM      9  C   UNL     1      86.213 321.837 191.841  1.00  0.00     0.000 C 
BRANCH   9  10
ATOM     10  C   UNL     1      86.496 321.719 193.356  1.00  0.00     0.000 C 
BRANCH  10  11
ATOM     11  C   UNL     1      87.795 320.971 193.695  1.00  0.00     0.000 C 
BRANCH  11  12
ATOM     12  C   UNL     1      88.938 321.910 194.105  1.00  0.00     0.006 C 
BRANCH  12  13
ATOM     13  C   UNL     1      88.539 322.773 195.307  1.00  0.00     0.053 C 
BRANCH  13  14
ATOM     14  C   UNL     1      88.874 322.070 196.583  1.00  0.00     0.041 C 
ATOM     15  O   UNL     1      90.069 321.768 196.847  1.00  0.00    -0.550 OA
ATOM     16  O   UNL     1      87.871 321.799 197.508  1.00  0.00    -0.550 OA
ENDBRANCH  13  14
ENDBRANCH  12  13
ENDBRANCH  11  12
ENDBRANCH  10  11
ENDBRANCH   9  10
ENDBRANCH   8   9
ENDBRANCH   7   8
ENDBRANCH   6   7
ENDBRANCH   5   6
ENDBRANCH   4   5
ENDBRANCH   3   4
ENDBRANCH   2   3
ENDBRANCH   1   2
BRANCH   1  17
ATOM     17  C   UNL     1      88.884 325.138 198.481  1.00  0.00     0.000 C 
BRANCH  17  18
ATOM     18  C   UNL     1      89.792 325.226 199.716  1.00  0.00     0.000 C 
BRANCH  18  19
ATOM     19  C   UNL     1      89.661 326.560 200.472  1.00  0.00     0.000 C 
BRANCH  19  20
ATOM     20  C   UNL     1      89.116 326.444 201.905  1.00  0.00     0.000 C 
BRANCH  20  21
ATOM     21  C   UNL     1      90.153 326.813 202.982  1.00  0.00     0.000 C 
BRANCH  21  22
ATOM     22  C   UNL     1      89.516 327.602 204.148  1.00  0.00    -0.000 C 
BRANCH  22  23
ATOM     23  C   UNL     1      88.831 326.719 205.208  1.00  0.00    -0.000 C 
BRANCH  23  24
ATOM     24  C   UNL     1      89.496 325.354 205.445  1.00  0.00    -0.000 C 
BRANCH  24  25
ATOM     25  C   UNL     1      88.533 324.286 205.983  1.00  0.00    -0.000 C 
BRANCH  25  26
ATOM     26  C   UNL     1      87.093 324.821 205.986  1.00  0.00    -0.000 C 
BRANCH  26  27
ATOM     27  C   UNL     1      86.144 324.008 205.090  1.00  0.00    -0.000 C 
BRANCH  27  28
ATOM     28  C   UNL     1      86.837 323.239 203.954  1.00  0.00    -0.000 C 
BRANCH  28  29
ATOM     29  C   UNL     1      86.592 323.868 202.574  1.00  0.00    -0.003 C 
ATOM     30  C   UNL     1      87.262 323.056 201.470  1.00  0.00     0.004 C 
ENDBRANCH  28  29
ENDBRANCH  27  28
ENDBRANCH  26  27
ENDBRANCH  25  26
ENDBRANCH  24  25
ENDBRANCH  23  24
ENDBRANCH  22  23
ENDBRANCH  21  22
ENDBRANCH  20  21
ENDBRANCH  19  20
ENDBRANCH  18  19
ENDBRANCH  17  18
ENDBRANCH   1  17
TORSDOF 26
ENDMDL
