MODEL 1
REMARK VINA RESULT:    -2.575      0.000      0.000
REMARK INTER + INTRA:          -2.575
REMARK INTER:                  -2.575
REMARK INTRA:                   0.000
REMARK UNBOUND:                 0.000
REMARK SMILES CC(=O)[O-]
REMARK SMILES IDX 1 1 2 2 3 3 4 4
REMARK H PARENT
REMARK Flexibility Score: inf
ROOT
ATOM      1  C   UNL     1       5.455  21.815 -52.638  1.00  0.00     0.063 C 
ATOM      2  C   UNL     1       5.447  21.249 -54.017  1.00  0.00     0.038 C 
ATOM      3  O   UNL     1       6.166  20.255 -54.296  1.00  0.00    -0.550 OA
ATOM      4  O   UNL     1       4.607  21.785 -54.985  1.00  0.00    -0.550 OA
ENDROOT
TORSDOF 0
ENDMDL
MODEL 2
REMARK VINA RESULT:    -2.570      1.362      1.756
REMARK INTER + INTRA:          -2.570
REMARK INTER:                  -2.570
REMARK INTRA:                   0.000
REMARK UNBOUND:                 0.000
REMARK SMILES CC(=O)[O-]
REMARK SMILES IDX 1 1 2 2 3 3 4 4
REMARK H PARENT
REMARK Flexibility Score: inf
ROOT
ATOM      1  C   UNL     1       4.786  22.064 -54.844  1.00  0.00     0.063 C 
ATOM      2  C   UNL     1       5.466  21.214 -53.826  1.00  0.00     0.038 C 
ATOM      3  O   UNL     1       6.218  20.272 -54.189  1.00  0.00    -0.550 OA
ATOM      4  O   UNL     1       5.316  21.492 -52.473  1.00  0.00    -0.550 OA
ENDROOT
TORSDOF 0
ENDMDL
MODEL 3
REMARK VINA RESULT:    -2.521      1.814      1.852
REMARK INTER + INTRA:          -2.521
REMARK INTER:                  -2.521
REMARK INTRA:                   0.000
REMARK UNBOUND:                 0.000
REMARK SMILES CC(=O)[O-]
REMARK SMILES IDX 1 1 2 2 3 3 4 4
REMARK H PARENT
REMARK Flexibility Score: inf
ROOT
ATOM      1  C   UNL     1       7.196  21.303 -53.097  1.00  0.00     0.063 C 
ATOM      2  C   UNL     1       5.709  21.409 -53.072  1.00  0.00     0.038 C 
ATOM      3  O   UNL     1       5.109  21.630 -51.988  1.00  0.00    -0.550 OA
ATOM      4  O   UNL     1       4.984  21.318 -54.254  1.00  0.00    -0.550 OA
ENDROOT
TORSDOF 0
ENDMDL
MODEL 4
REMARK VINA RESULT:    -2.117     15.475     15.765
REMARK INTER + INTRA:          -2.117
REMARK INTER:                  -2.117
REMARK INTRA:                   0.000
REMARK UNBOUND:                 0.000
REMARK SMILES CC(=O)[O-]
REMARK SMILES IDX 1 1 2 2 3 3 4 4
REMARK H PARENT
REMARK Flexibility Score: inf
ROOT
ATOM      1  C   UNL     1      -4.628   8.465 -58.753  1.00  0.00     0.063 C 
ATOM      2  C   UNL     1      -3.446   9.131 -58.135  1.00  0.00     0.038 C 
ATOM      3  O   UNL     1      -2.600   9.718 -58.858  1.00  0.00    -0.550 OA
ATOM      4  O   UNL     1      -3.303   9.151 -56.753  1.00  0.00    -0.550 OA
ENDROOT
TORSDOF 0
ENDMDL
MODEL 5
REMARK VINA RESULT:    -2.074      5.404      5.932
REMARK INTER + INTRA:          -2.074
REMARK INTER:                  -2.074
REMARK INTRA:                   0.000
REMARK UNBOUND:                 0.000
REMARK SMILES CC(=O)[O-]
REMARK SMILES IDX 1 1 2 2 3 3 4 4
REMARK H PARENT
REMARK Flexibility Score: inf
ROOT
ATOM      1  C   UNL     1       2.149  24.599 -48.600  1.00  0.00     0.063 C 
ATOM      2  C   UNL     1       2.971  23.793 -49.547  1.00  0.00     0.038 C 
ATOM      3  O   UNL     1       3.308  24.274 -50.660  1.00  0.00    -0.550 OA
ATOM      4  O   UNL     1       3.414  22.527 -49.182  1.00  0.00    -0.550 OA
ENDROOT
TORSDOF 0
ENDMDL
MODEL 6
REMARK VINA RESULT:    -2.058     15.726     15.738
REMARK INTER + INTRA:          -2.058
REMARK INTER:                  -2.058
REMARK INTRA:                   0.000
REMARK UNBOUND:                 0.000
REMARK SMILES CC(=O)[O-]
REMARK SMILES IDX 1 1 2 2 3 3 4 4
REMARK H PARENT
REMARK Flexibility Score: inf
ROOT
ATOM      1  C   UNL     1      -3.516   8.677 -56.619  1.00  0.00     0.063 C 
ATOM      2  C   UNL     1      -3.377   8.911 -58.084  1.00  0.00     0.038 C 
ATOM      3  O   UNL     1      -2.436   8.373 -58.724  1.00  0.00    -0.550 OA
ATOM      4  O   UNL     1      -4.317   9.680 -58.759  1.00  0.00    -0.550 OA
ENDROOT
TORSDOF 0
ENDMDL
MODEL 7
REMARK VINA RESULT:    -2.049     14.824     15.388
REMARK INTER + INTRA:          -2.049
REMARK INTER:                  -2.049
REMARK INTRA:                   0.000
REMARK UNBOUND:                 0.000
REMARK SMILES CC(=O)[O-]
REMARK SMILES IDX 1 1 2 2 3 3 4 4
REMARK H PARENT
REMARK Flexibility Score: inf
ROOT
ATOM      1  C   UNL     1      -7.949  15.323 -60.993  1.00  0.00     0.063 C 
ATOM      2  C   UNL     1      -7.120  16.537 -61.242  1.00  0.00     0.038 C 
ATOM      3  O   UNL     1      -7.634  17.555 -61.773  1.00  0.00    -0.550 OA
ATOM      4  O   UNL     1      -5.790  16.566 -60.841  1.00  0.00    -0.550 OA
ENDROOT
TORSDOF 0
ENDMDL
MODEL 8
REMARK VINA RESULT:    -2.032     16.639     16.852
REMARK INTER + INTRA:          -2.032
REMARK INTER:                  -2.032
REMARK INTRA:                   0.000
REMARK UNBOUND:                 0.000
REMARK SMILES CC(=O)[O-]
REMARK SMILES IDX 1 1 2 2 3 3 4 4
REMARK H PARENT
REMARK Flexibility Score: inf
ROOT
ATOM      1  C   UNL     1      -4.158   9.494 -58.716  1.00  0.00     0.063 C 
ATOM      2  C   UNL     1      -4.920   8.611 -57.788  1.00  0.00     0.038 C 
ATOM      3  O   UNL     1      -4.481   8.379 -56.632  1.00  0.00    -0.550 OA
ATOM      4  O   UNL     1      -6.145   8.083 -58.179  1.00  0.00    -0.550 OA
ENDROOT
TORSDOF 0
ENDMDL
MODEL 9
REMARK VINA RESULT:    -1.995     16.642     16.831
REMARK INTER + INTRA:          -1.995
REMARK INTER:                  -1.995
REMARK INTRA:                   0.000
REMARK UNBOUND:                 0.000
REMARK SMILES CC(=O)[O-]
REMARK SMILES IDX 1 1 2 2 3 3 4 4
REMARK H PARENT
REMARK Flexibility Score: inf
ROOT
ATOM      1  C   UNL     1      -4.376   8.253 -56.706  1.00  0.00     0.063 C 
ATOM      2  C   UNL     1      -4.913   8.637 -58.042  1.00  0.00     0.038 C 
ATOM      3  O   UNL     1      -5.921   8.048 -58.512  1.00  0.00    -0.550 OA
ATOM      4  O   UNL     1      -4.336   9.684 -58.750  1.00  0.00    -0.550 OA
ENDROOT
TORSDOF 0
ENDMDL
