MODEL 1
REMARK VINA RESULT:     7.091      0.000      0.000
REMARK INTER + INTRA:           7.713
REMARK INTER:                   7.713
REMARK INTRA:                   0.000
REMARK UNBOUND:                 0.000
REMARK SMILES Cc1cc(O)c2c(c1)C(=O)c1cc(O)cc(O)c1C2=O
REMARK SMILES IDX 1 1 2 2 8 3 7 4 6 5 4 6 3 7 19 8 20 9 18 10 11 11 9 12 10 13
REMARK SMILES IDX 12 14 13 15 15 16 16 17 5 18 17 20 14 22
REMARK H PARENT 5 19 17 21 14 23
REMARK Flexibility Score: inf
ROOT
ATOM      1  C   UNL     1     163.344 177.115 154.233  1.00  0.00     0.044 C 
ATOM      2  C   UNL     1     164.726 176.773 154.705  1.00  0.00    -0.047 A 
ATOM      3  C   UNL     1     165.817 176.900 153.837  1.00  0.00     0.016 A 
ATOM      4  C   UNL     1     167.120 176.609 154.277  1.00  0.00     0.038 A 
ATOM      5  C   UNL     1     167.333 176.182 155.608  1.00  0.00     0.076 A 
ATOM      6  C   UNL     1     166.235 176.136 156.504  1.00  0.00     0.127 A 
ATOM      7  C   UNL     1     164.946 176.411 156.038  1.00  0.00     0.050 A 
ATOM      8  C   UNL     1     168.699 175.742 155.992  1.00  0.00     0.201 C 
ATOM      9  O   UNL     1     168.846 174.864 156.885  1.00  0.00    -0.288 OA
ATOM     10  C   UNL     1     169.872 176.194 155.200  1.00  0.00     0.076 A 
ATOM     11  C   UNL     1     169.653 176.623 153.871  1.00  0.00     0.041 A 
ATOM     12  C   UNL     1     168.271 176.754 153.355  1.00  0.00     0.194 C 
ATOM     13  O   UNL     1     168.074 177.014 152.136  1.00  0.00    -0.289 OA
ATOM     14  C   UNL     1     170.750 176.928 153.046  1.00  0.00     0.059 A 
ATOM     15  C   UNL     1     172.053 176.825 153.533  1.00  0.00     0.120 A 
ATOM     16  C   UNL     1     172.272 176.440 154.857  1.00  0.00     0.093 A 
ATOM     17  C   UNL     1     171.198 176.152 155.705  1.00  0.00     0.131 A 
ENDROOT
BRANCH   6  18
ATOM     18  O   UNL     1     166.383 175.858 157.864  1.00  0.00    -0.507 OA
ATOM     19  H   UNL     1     166.079 176.483 158.598  1.00  0.00     0.293 HD
ENDBRANCH   6  18
BRANCH  17  20
ATOM     20  O   UNL     1     171.489 175.863 157.041  1.00  0.00    -0.507 OA
ATOM     21  H   UNL     1     170.822 175.965 157.792  1.00  0.00     0.293 HD
ENDBRANCH  17  20
BRANCH  15  22
ATOM     22  O   UNL     1     173.125 177.120 152.692  1.00  0.00    -0.508 OA
ATOM     23  H   UNL     1     174.078 176.887 152.947  1.00  0.00     0.293 HD
ENDBRANCH  15  22
TORSDOF 3
ENDMDL
MODEL 2
REMARK VINA RESULT:     7.908     16.779     19.256
REMARK INTER + INTRA:           8.602
REMARK INTER:                   8.602
REMARK INTRA:                   0.000
REMARK UNBOUND:                 0.000
REMARK SMILES Cc1cc(O)c2c(c1)C(=O)c1cc(O)cc(O)c1C2=O
REMARK SMILES IDX 1 1 2 2 8 3 7 4 6 5 4 6 3 7 19 8 20 9 18 10 11 11 9 12 10 13
REMARK SMILES IDX 12 14 13 15 15 16 16 17 5 18 17 20 14 22
REMARK H PARENT 5 19 17 21 14 23
REMARK Flexibility Score: inf
ROOT
ATOM      1  C   UNL     1     162.499 161.666 155.543  1.00  0.00     0.044 C 
ATOM      2  C   UNL     1     161.132 161.489 156.135  1.00  0.00    -0.047 A 
ATOM      3  C   UNL     1     160.088 162.341 155.760  1.00  0.00     0.016 A 
ATOM      4  C   UNL     1     158.797 162.166 156.287  1.00  0.00     0.038 A 
ATOM      5  C   UNL     1     158.548 161.122 157.206  1.00  0.00     0.076 A 
ATOM      6  C   UNL     1     159.590 160.210 157.516  1.00  0.00     0.127 A 
ATOM      7  C   UNL     1     160.870 160.417 156.995  1.00  0.00     0.050 A 
ATOM      8  C   UNL     1     157.212 161.060 157.853  1.00  0.00     0.201 C 
ATOM      9  O   UNL     1     157.100 160.582 159.014  1.00  0.00    -0.288 OA
ATOM     10  C   UNL     1     156.049 161.728 157.214  1.00  0.00     0.076 A 
ATOM     11  C   UNL     1     156.303 162.770 156.294  1.00  0.00     0.041 A 
ATOM     12  C   UNL     1     157.693 163.068 155.880  1.00  0.00     0.194 C 
ATOM     13  O   UNL     1     157.935 164.076 155.158  1.00  0.00    -0.289 OA
ATOM     14  C   UNL     1     155.232 163.518 155.773  1.00  0.00     0.059 A 
ATOM     15  C   UNL     1     153.919 163.229 156.144  1.00  0.00     0.120 A 
ATOM     16  C   UNL     1     153.661 162.174 157.022  1.00  0.00     0.093 A 
ATOM     17  C   UNL     1     154.706 161.402 157.538  1.00  0.00     0.131 A 
ENDROOT
BRANCH   6  18
ATOM     18  O   UNL     1     159.390 159.075 158.304  1.00  0.00    -0.507 OA
ATOM     19  H   UNL     1     160.119 158.410 158.522  1.00  0.00     0.293 HD
ENDBRANCH   6  18
BRANCH  17  20
ATOM     20  O   UNL     1     154.366 160.307 158.337  1.00  0.00    -0.507 OA
ATOM     21  H   UNL     1     154.158 159.390 157.967  1.00  0.00     0.293 HD
ENDBRANCH  17  20
BRANCH  15  22
ATOM     22  O   UNL     1     152.875 163.993 155.624  1.00  0.00    -0.508 OA
ATOM     23  H   UNL     1     152.434 164.726 156.167  1.00  0.00     0.293 HD
ENDBRANCH  15  22
TORSDOF 3
ENDMDL
MODEL 3
REMARK VINA RESULT:     9.101      1.341      3.418
REMARK INTER + INTRA:           9.900
REMARK INTER:                   9.900
REMARK INTRA:                   0.000
REMARK UNBOUND:                 0.000
REMARK SMILES Cc1cc(O)c2c(c1)C(=O)c1cc(O)cc(O)c1C2=O
REMARK SMILES IDX 1 1 2 2 8 3 7 4 6 5 4 6 3 7 19 8 20 9 18 10 11 11 9 12 10 13
REMARK SMILES IDX 12 14 13 15 15 16 16 17 5 18 17 20 14 22
REMARK H PARENT 5 19 17 21 14 23
REMARK Flexibility Score: inf
ROOT
ATOM      1  C   UNL     1     163.978 175.384 154.502  1.00  0.00     0.044 C 
ATOM      2  C   UNL     1     165.424 175.682 154.240  1.00  0.00    -0.047 A 
ATOM      3  C   UNL     1     166.284 175.981 155.303  1.00  0.00     0.016 A 
ATOM      4  C   UNL     1     167.647 176.233 155.071  1.00  0.00     0.038 A 
ATOM      5  C   UNL     1     168.157 176.188 153.754  1.00  0.00     0.076 A 
ATOM      6  C   UNL     1     167.298 175.802 152.692  1.00  0.00     0.127 A 
ATOM      7  C   UNL     1     165.942 175.574 152.945  1.00  0.00     0.050 A 
ATOM      8  C   UNL     1     169.565 176.605 153.531  1.00  0.00     0.201 C 
ATOM      9  O   UNL     1     169.899 177.125 152.432  1.00  0.00    -0.288 OA
ATOM     10  C   UNL     1     170.530 176.583 154.661  1.00  0.00     0.076 A 
ATOM     11  C   UNL     1     170.016 176.626 155.977  1.00  0.00     0.041 A 
ATOM     12  C   UNL     1     168.554 176.542 156.202  1.00  0.00     0.194 C 
ATOM     13  O   UNL     1     168.083 176.706 157.362  1.00  0.00    -0.289 OA
ATOM     14  C   UNL     1     170.895 176.747 157.068  1.00  0.00     0.059 A 
ATOM     15  C   UNL     1     172.273 176.807 156.863  1.00  0.00     0.120 A 
ATOM     16  C   UNL     1     172.788 176.725 155.567  1.00  0.00     0.093 A 
ATOM     17  C   UNL     1     171.936 176.584 154.467  1.00  0.00     0.131 A 
ENDROOT
BRANCH   6  18
ATOM     18  O   UNL     1     167.754 175.599 151.389  1.00  0.00    -0.507 OA
ATOM     19  H   UNL     1     168.229 176.307 150.847  1.00  0.00     0.293 HD
ENDBRANCH   6  18
BRANCH  17  20
ATOM     20  O   UNL     1     172.526 176.416 153.212  1.00  0.00    -0.507 OA
ATOM     21  H   UNL     1     173.045 177.140 152.737  1.00  0.00     0.293 HD
ENDBRANCH  17  20
BRANCH  15  22
ATOM     22  O   UNL     1     173.125 176.939 157.959  1.00  0.00    -0.508 OA
ATOM     23  H   UNL     1     174.124 176.793 157.873  1.00  0.00     0.293 HD
ENDBRANCH  15  22
TORSDOF 3
ENDMDL
MODEL 4
REMARK VINA RESULT:     9.102     12.947     13.426
REMARK INTER + INTRA:           9.900
REMARK INTER:                   9.900
REMARK INTRA:                   0.000
REMARK UNBOUND:                 0.000
REMARK SMILES Cc1cc(O)c2c(c1)C(=O)c1cc(O)cc(O)c1C2=O
REMARK SMILES IDX 1 1 2 2 8 3 7 4 6 5 4 6 3 7 19 8 20 9 18 10 11 11 9 12 10 13
REMARK SMILES IDX 12 14 13 15 15 16 16 17 5 18 17 20 14 22
REMARK H PARENT 5 19 17 21 14 23
REMARK Flexibility Score: inf
ROOT
ATOM      1  C   UNL     1     164.627 168.290 145.650  1.00  0.00     0.044 C 
ATOM      2  C   UNL     1     164.869 167.350 146.793  1.00  0.00    -0.047 A 
ATOM      3  C   UNL     1     165.976 166.493 146.776  1.00  0.00     0.016 A 
ATOM      4  C   UNL     1     166.228 165.628 147.856  1.00  0.00     0.038 A 
ATOM      5  C   UNL     1     165.357 165.621 148.969  1.00  0.00     0.076 A 
ATOM      6  C   UNL     1     164.287 166.551 149.017  1.00  0.00     0.127 A 
ATOM      7  C   UNL     1     164.045 167.387 147.923  1.00  0.00     0.050 A 
ATOM      8  C   UNL     1     165.571 164.592 150.020  1.00  0.00     0.201 C 
ATOM      9  O   UNL     1     164.588 164.159 150.681  1.00  0.00    -0.288 OA
ATOM     10  C   UNL     1     166.900 163.944 150.160  1.00  0.00     0.076 A 
ATOM     11  C   UNL     1     167.769 163.956 149.045  1.00  0.00     0.041 A 
ATOM     12  C   UNL     1     167.406 164.729 147.834  1.00  0.00     0.194 C 
ATOM     13  O   UNL     1     168.114 164.641 146.794  1.00  0.00    -0.289 OA
ATOM     14  C   UNL     1     168.976 163.236 149.092  1.00  0.00     0.059 A 
ATOM     15  C   UNL     1     169.331 162.523 150.236  1.00  0.00     0.120 A 
ATOM     16  C   UNL     1     168.495 162.541 151.354  1.00  0.00     0.093 A 
ATOM     17  C   UNL     1     167.299 163.265 151.341  1.00  0.00     0.131 A 
ENDROOT
BRANCH   6  18
ATOM     18  O   UNL     1     163.468 166.702 150.137  1.00  0.00    -0.507 OA
ATOM     19  H   UNL     1     162.487 166.462 150.148  1.00  0.00     0.293 HD
ENDBRANCH   6  18
BRANCH  17  20
ATOM     20  O   UNL     1     166.560 163.312 152.526  1.00  0.00    -0.507 OA
ATOM     21  H   UNL     1     166.850 162.863 153.383  1.00  0.00     0.293 HD
ENDBRANCH  17  20
BRANCH  15  22
ATOM     22  O   UNL     1     170.527 161.806 150.254  1.00  0.00    -0.508 OA
ATOM     23  H   UNL     1     171.046 161.664 151.113  1.00  0.00     0.293 HD
ENDBRANCH  15  22
TORSDOF 3
ENDMDL
MODEL 5
REMARK VINA RESULT:     9.910     13.187     14.614
REMARK INTER + INTRA:          10.780
REMARK INTER:                  10.780
REMARK INTRA:                   0.000
REMARK UNBOUND:                 0.000
REMARK SMILES Cc1cc(O)c2c(c1)C(=O)c1cc(O)cc(O)c1C2=O
REMARK SMILES IDX 1 1 2 2 8 3 7 4 6 5 4 6 3 7 19 8 20 9 18 10 11 11 9 12 10 13
REMARK SMILES IDX 12 14 13 15 15 16 16 17 5 18 17 20 14 22
REMARK H PARENT 5 19 17 21 14 23
REMARK Flexibility Score: inf
ROOT
ATOM      1  C   UNL     1     170.567 161.783 151.563  1.00  0.00     0.044 C 
ATOM      2  C   UNL     1     169.632 162.505 150.641  1.00  0.00    -0.047 A 
ATOM      3  C   UNL     1     168.358 162.882 151.083  1.00  0.00     0.016 A 
ATOM      4  C   UNL     1     167.485 163.585 150.235  1.00  0.00     0.038 A 
ATOM      5  C   UNL     1     167.892 163.915 148.922  1.00  0.00     0.076 A 
ATOM      6  C   UNL     1     169.214 163.604 148.510  1.00  0.00     0.127 A 
ATOM      7  C   UNL     1     170.057 162.888 149.364  1.00  0.00     0.050 A 
ATOM      8  C   UNL     1     166.892 164.524 148.009  1.00  0.00     0.201 C 
ATOM      9  O   UNL     1     166.970 164.320 146.768  1.00  0.00    -0.288 OA
ATOM     10  C   UNL     1     165.701 165.212 148.571  1.00  0.00     0.076 A 
ATOM     11  C   UNL     1     165.298 164.882 149.885  1.00  0.00     0.041 A 
ATOM     12  C   UNL     1     166.141 163.987 150.713  1.00  0.00     0.194 C 
ATOM     13  O   UNL     1     165.725 163.590 151.837  1.00  0.00    -0.289 OA
ATOM     14  C   UNL     1     164.100 165.406 150.402  1.00  0.00     0.059 A 
ATOM     15  C   UNL     1     163.313 166.263 149.635  1.00  0.00     0.120 A 
ATOM     16  C   UNL     1     163.727 166.625 148.350  1.00  0.00     0.093 A 
ATOM     17  C   UNL     1     164.924 166.134 147.820  1.00  0.00     0.131 A 
ENDROOT
BRANCH   6  18
ATOM     18  O   UNL     1     169.738 164.017 147.283  1.00  0.00    -0.507 OA
ATOM     19  H   UNL     1     169.708 163.453 146.445  1.00  0.00     0.293 HD
ENDBRANCH   6  18
BRANCH  17  20
ATOM     20  O   UNL     1     165.320 166.610 146.568  1.00  0.00    -0.507 OA
ATOM     21  H   UNL     1     166.285 166.706 146.287  1.00  0.00     0.293 HD
ENDBRANCH  17  20
BRANCH  15  22
ATOM     22  O   UNL     1     162.123 166.761 150.163  1.00  0.00    -0.508 OA
ATOM     23  H   UNL     1     161.224 166.372 149.902  1.00  0.00     0.293 HD
ENDBRANCH  15  22
TORSDOF 3
ENDMDL
MODEL 6
REMARK VINA RESULT:     9.926     12.696     13.576
REMARK INTER + INTRA:          10.796
REMARK INTER:                  10.796
REMARK INTRA:                   0.000
REMARK UNBOUND:                 0.000
REMARK SMILES Cc1cc(O)c2c(c1)C(=O)c1cc(O)cc(O)c1C2=O
REMARK SMILES IDX 1 1 2 2 8 3 7 4 6 5 4 6 3 7 19 8 20 9 18 10 11 11 9 12 10 13
REMARK SMILES IDX 12 14 13 15 15 16 16 17 5 18 17 20 14 22
REMARK H PARENT 5 19 17 21 14 23
REMARK Flexibility Score: inf
ROOT
ATOM      1  C   UNL     1     167.144 161.976 155.684  1.00  0.00     0.044 C 
ATOM      2  C   UNL     1     167.149 162.923 154.522  1.00  0.00    -0.047 A 
ATOM      3  C   UNL     1     167.021 162.435 153.216  1.00  0.00     0.016 A 
ATOM      4  C   UNL     1     166.995 163.317 152.122  1.00  0.00     0.038 A 
ATOM      5  C   UNL     1     167.101 164.709 152.337  1.00  0.00     0.076 A 
ATOM      6  C   UNL     1     167.145 165.202 153.667  1.00  0.00     0.127 A 
ATOM      7  C   UNL     1     167.189 164.305 154.739  1.00  0.00     0.050 A 
ATOM      8  C   UNL     1     167.220 165.596 151.152  1.00  0.00     0.201 C 
ATOM      9  O   UNL     1     167.860 166.678 151.240  1.00  0.00    -0.288 OA
ATOM     10  C   UNL     1     166.749 165.122 149.824  1.00  0.00     0.076 A 
ATOM     11  C   UNL     1     166.642 163.728 149.614  1.00  0.00     0.041 A 
ATOM     12  C   UNL     1     166.852 162.793 150.743  1.00  0.00     0.194 C 
ATOM     13  O   UNL     1     166.881 161.548 150.534  1.00  0.00    -0.289 OA
ATOM     14  C   UNL     1     166.334 163.237 148.333  1.00  0.00     0.059 A 
ATOM     15  C   UNL     1     166.117 164.114 147.271  1.00  0.00     0.120 A 
ATOM     16  C   UNL     1     166.182 165.493 147.483  1.00  0.00     0.093 A 
ATOM     17  C   UNL     1     166.466 166.008 148.752  1.00  0.00     0.131 A 
ENDROOT
BRANCH   6  18
ATOM     18  O   UNL     1     167.111 166.565 153.968  1.00  0.00    -0.507 OA
ATOM     19  H   UNL     1     166.593 167.243 153.428  1.00  0.00     0.293 HD
ENDBRANCH   6  18
BRANCH  17  20
ATOM     20  O   UNL     1     166.424 167.396 148.909  1.00  0.00    -0.507 OA
ATOM     21  H   UNL     1     166.949 168.039 148.334  1.00  0.00     0.293 HD
ENDBRANCH  17  20
BRANCH  15  22
ATOM     22  O   UNL     1     165.825 163.603 146.007  1.00  0.00    -0.508 OA
ATOM     23  H   UNL     1     164.880 163.607 145.639  1.00  0.00     0.293 HD
ENDBRANCH  15  22
TORSDOF 3
ENDMDL
