MODEL 1
REMARK VINA RESULT:    -5.925      0.000      0.000
REMARK INTER + INTRA:          -8.256
REMARK INTER:                  -7.483
REMARK INTRA:                  -0.773
REMARK UNBOUND:                -0.773
REMARK SMILES Oc1ccc(CCc2cc(O)cc(O)c2)cc1
REMARK SMILES IDX 6 1 5 2 4 3 3 4 2 5 16 6 17 7 1 8 7 10 8 11 15 12 9 13 13 14
REMARK SMILES IDX 10 15 12 16 14 17 11 19
REMARK H PARENT 1 9 14 18 11 20
REMARK Flexibility Score: inf
ROOT
ATOM      1  C   UNL     1      18.341  51.186  45.009  1.00  0.00     0.040 C 
ENDROOT
BRANCH   1   2
ATOM      2  C   UNL     1      17.367  50.676  43.982  1.00  0.00    -0.047 A 
ATOM      3  C   UNL     1      17.732  50.617  42.627  1.00  0.00     0.007 A 
ATOM      4  C   UNL     1      16.839  50.111  41.678  1.00  0.00     0.046 A 
ATOM      5  C   UNL     1      15.577  49.651  42.075  1.00  0.00     0.115 A 
ATOM      6  C   UNL     1      16.106  50.201  44.377  1.00  0.00     0.007 A 
ATOM      7  C   UNL     1      15.214  49.696  43.425  1.00  0.00     0.046 A 
BRANCH   5   8
ATOM      8  O   UNL     1      14.678  49.145  41.138  1.00  0.00    -0.508 OA
ATOM      9  H   UNL     1      13.805  48.715  41.420  1.00  0.00     0.293 HD
ENDBRANCH   5   8
ENDBRANCH   1   2
BRANCH   1  10
ATOM     10  C   UNL     1      18.900  50.031  45.843  1.00  0.00     0.040 C 
BRANCH  10  11
ATOM     11  C   UNL     1      19.806  49.166  45.008  1.00  0.00    -0.040 A 
ATOM     12  C   UNL     1      20.952  49.714  44.407  1.00  0.00     0.050 A 
ATOM     13  C   UNL     1      19.483  47.819  44.776  1.00  0.00     0.050 A 
ATOM     14  C   UNL     1      21.776  48.920  43.603  1.00  0.00     0.119 A 
ATOM     15  C   UNL     1      20.309  47.021  43.971  1.00  0.00     0.119 A 
ATOM     16  C   UNL     1      21.455  47.573  43.389  1.00  0.00     0.092 A 
BRANCH  14  17
ATOM     17  O   UNL     1      22.912  49.479  43.020  1.00  0.00    -0.508 OA
ATOM     18  H   UNL     1      23.521  50.102  43.537  1.00  0.00     0.293 HD
ENDBRANCH  14  17
BRANCH  15  19
ATOM     19  O   UNL     1      19.999  45.682  43.743  1.00  0.00    -0.508 OA
ATOM     20  H   UNL     1      19.583  45.377  42.871  1.00  0.00     0.293 HD
ENDBRANCH  15  19
ENDBRANCH  10  11
ENDBRANCH   1  10
TORSDOF 6
ENDMDL
MODEL 2
REMARK VINA RESULT:    -5.884      1.564      5.280
REMARK INTER + INTRA:          -8.204
REMARK INTER:                  -7.447
REMARK INTRA:                  -0.758
REMARK UNBOUND:                -0.773
REMARK SMILES Oc1ccc(CCc2cc(O)cc(O)c2)cc1
REMARK SMILES IDX 6 1 5 2 4 3 3 4 2 5 16 6 17 7 1 8 7 10 8 11 15 12 9 13 13 14
REMARK SMILES IDX 10 15 12 16 14 17 11 19
REMARK H PARENT 1 9 14 18 11 20
REMARK Flexibility Score: inf
ROOT
ATOM      1  C   UNL     1      19.500  50.084  44.910  1.00  0.00     0.040 C 
ENDROOT
BRANCH   1   2
ATOM      2  C   UNL     1      20.090  48.736  44.589  1.00  0.00    -0.047 A 
ATOM      3  C   UNL     1      19.838  47.636  45.424  1.00  0.00     0.007 A 
ATOM      4  C   UNL     1      20.358  46.378  45.108  1.00  0.00     0.046 A 
ATOM      5  C   UNL     1      21.127  46.205  43.949  1.00  0.00     0.115 A 
ATOM      6  C   UNL     1      20.849  48.556  43.421  1.00  0.00     0.007 A 
ATOM      7  C   UNL     1      21.369  47.296  43.108  1.00  0.00     0.046 A 
BRANCH   5   8
ATOM      8  O   UNL     1      21.651  44.956  43.624  1.00  0.00    -0.508 OA
ATOM      9  H   UNL     1      22.193  44.419  44.291  1.00  0.00     0.293 HD
ENDBRANCH   5   8
ENDBRANCH   1   2
BRANCH   1  10
ATOM     10  C   UNL     1      17.972  50.034  44.838  1.00  0.00     0.040 C 
BRANCH  10  11
ATOM     11  C   UNL     1      17.505  50.130  43.411  1.00  0.00    -0.040 A 
ATOM     12  C   UNL     1      18.031  51.116  42.559  1.00  0.00     0.050 A 
ATOM     13  C   UNL     1      16.497  49.275  42.936  1.00  0.00     0.050 A 
ATOM     14  C   UNL     1      17.574  51.229  41.242  1.00  0.00     0.119 A 
ATOM     15  C   UNL     1      16.037  49.388  41.616  1.00  0.00     0.119 A 
ATOM     16  C   UNL     1      16.578  50.362  40.772  1.00  0.00     0.092 A 
BRANCH  14  17
ATOM     17  O   UNL     1      18.112  52.208  40.410  1.00  0.00    -0.508 OA
ATOM     18  H   UNL     1      17.843  53.182  40.493  1.00  0.00     0.293 HD
ENDBRANCH  14  17
BRANCH  15  19
ATOM     19  O   UNL     1      15.044  48.537  41.136  1.00  0.00    -0.508 OA
ATOM     20  H   UNL     1      14.723  47.741  41.675  1.00  0.00     0.293 HD
ENDBRANCH  15  19
ENDBRANCH  10  11
ENDBRANCH   1  10
TORSDOF 6
ENDMDL
MODEL 3
REMARK VINA RESULT:    -5.860      1.564      5.677
REMARK INTER + INTRA:          -8.174
REMARK INTER:                  -7.422
REMARK INTRA:                  -0.752
REMARK UNBOUND:                -0.773
REMARK SMILES Oc1ccc(CCc2cc(O)cc(O)c2)cc1
REMARK SMILES IDX 6 1 5 2 4 3 3 4 2 5 16 6 17 7 1 8 7 10 8 11 15 12 9 13 13 14
REMARK SMILES IDX 10 15 12 16 14 17 11 19
REMARK H PARENT 1 9 14 18 11 20
REMARK Flexibility Score: inf
ROOT
ATOM      1  C   UNL     1      19.508  50.090  44.845  1.00  0.00     0.040 C 
ENDROOT
BRANCH   1   2
ATOM      2  C   UNL     1      20.092  48.732  44.557  1.00  0.00    -0.047 A 
ATOM      3  C   UNL     1      19.801  47.644  45.394  1.00  0.00     0.007 A 
ATOM      4  C   UNL     1      20.316  46.376  45.108  1.00  0.00     0.046 A 
ATOM      5  C   UNL     1      21.119  46.183  43.976  1.00  0.00     0.115 A 
ATOM      6  C   UNL     1      20.886  48.531  43.416  1.00  0.00     0.007 A 
ATOM      7  C   UNL     1      21.401  47.262  43.132  1.00  0.00     0.046 A 
BRANCH   5   8
ATOM      8  O   UNL     1      21.638  44.925  43.681  1.00  0.00    -0.508 OA
ATOM      9  H   UNL     1      21.036  44.146  43.439  1.00  0.00     0.293 HD
ENDBRANCH   5   8
ENDBRANCH   1   2
BRANCH   1  10
ATOM     10  C   UNL     1      17.979  50.033  44.826  1.00  0.00     0.040 C 
BRANCH  10  11
ATOM     11  C   UNL     1      17.461  50.180  43.420  1.00  0.00    -0.040 A 
ATOM     12  C   UNL     1      16.455  49.322  42.944  1.00  0.00     0.050 A 
ATOM     13  C   UNL     1      18.019  51.135  42.556  1.00  0.00     0.050 A 
ATOM     14  C   UNL     1      15.996  49.434  41.627  1.00  0.00     0.119 A 
ATOM     15  C   UNL     1      17.560  51.249  41.235  1.00  0.00     0.119 A 
ATOM     16  C   UNL     1      16.548  50.400  40.775  1.00  0.00     0.092 A 
BRANCH  14  17
ATOM     17  O   UNL     1      14.993  48.579  41.174  1.00  0.00    -0.508 OA
ATOM     18  H   UNL     1      14.263  48.245  41.791  1.00  0.00     0.293 HD
ENDBRANCH  14  17
BRANCH  15  19
ATOM     19  O   UNL     1      18.103  52.200  40.374  1.00  0.00    -0.508 OA
ATOM     20  H   UNL     1      18.208  52.018  39.383  1.00  0.00     0.293 HD
ENDBRANCH  15  19
ENDBRANCH  10  11
ENDBRANCH   1  10
TORSDOF 6
ENDMDL
MODEL 4
REMARK VINA RESULT:    -5.853      0.125      2.039
REMARK INTER + INTRA:          -8.165
REMARK INTER:                  -7.426
REMARK INTRA:                  -0.739
REMARK UNBOUND:                -0.773
REMARK SMILES Oc1ccc(CCc2cc(O)cc(O)c2)cc1
REMARK SMILES IDX 6 1 5 2 4 3 3 4 2 5 16 6 17 7 1 8 7 10 8 11 15 12 9 13 13 14
REMARK SMILES IDX 10 15 12 16 14 17 11 19
REMARK H PARENT 1 9 14 18 11 20
REMARK Flexibility Score: inf
ROOT
ATOM      1  C   UNL     1      18.206  51.135  45.122  1.00  0.00     0.040 C 
ENDROOT
BRANCH   1   2
ATOM      2  C   UNL     1      17.266  50.628  44.062  1.00  0.00    -0.047 A 
ATOM      3  C   UNL     1      17.661  50.610  42.714  1.00  0.00     0.007 A 
ATOM      4  C   UNL     1      16.800  50.108  41.734  1.00  0.00     0.046 A 
ATOM      5  C   UNL     1      15.540  49.609  42.093  1.00  0.00     0.115 A 
ATOM      6  C   UNL     1      16.008  50.115  44.418  1.00  0.00     0.007 A 
ATOM      7  C   UNL     1      15.148  49.614  43.435  1.00  0.00     0.046 A 
BRANCH   5   8
ATOM      8  O   UNL     1      14.674  49.107  41.125  1.00  0.00    -0.508 OA
ATOM      9  H   UNL     1      13.850  49.620  40.834  1.00  0.00     0.293 HD
ENDBRANCH   5   8
ENDBRANCH   1   2
BRANCH   1  10
ATOM     10  C   UNL     1      18.799  49.970  45.918  1.00  0.00     0.040 C 
BRANCH  10  11
ATOM     11  C   UNL     1      19.683  49.124  45.041  1.00  0.00    -0.040 A 
ATOM     12  C   UNL     1      19.385  47.766  44.837  1.00  0.00     0.050 A 
ATOM     13  C   UNL     1      20.842  49.670  44.467  1.00  0.00     0.050 A 
ATOM     14  C   UNL     1      20.224  46.970  44.050  1.00  0.00     0.119 A 
ATOM     15  C   UNL     1      21.684  48.873  43.678  1.00  0.00     0.119 A 
ATOM     16  C   UNL     1      21.371  47.526  43.469  1.00  0.00     0.092 A 
BRANCH  14  17
ATOM     17  O   UNL     1      19.909  45.627  43.853  1.00  0.00    -0.508 OA
ATOM     18  H   UNL     1      18.988  45.337  43.547  1.00  0.00     0.293 HD
ENDBRANCH  14  17
BRANCH  15  19
ATOM     19  O   UNL     1      22.832  49.410  43.099  1.00  0.00    -0.508 OA
ATOM     20  H   UNL     1      23.708  48.900  43.090  1.00  0.00     0.293 HD
ENDBRANCH  15  19
ENDBRANCH  10  11
ENDBRANCH   1  10
TORSDOF 6
ENDMDL
MODEL 5
REMARK VINA RESULT:    -5.809      1.594      5.842
REMARK INTER + INTRA:          -8.109
REMARK INTER:                  -7.438
REMARK INTRA:                  -0.672
REMARK UNBOUND:                -0.773
REMARK SMILES Oc1ccc(CCc2cc(O)cc(O)c2)cc1
REMARK SMILES IDX 6 1 5 2 4 3 3 4 2 5 16 6 17 7 1 8 7 10 8 11 15 12 9 13 13 14
REMARK SMILES IDX 10 15 12 16 14 17 11 19
REMARK H PARENT 1 9 14 18 11 20
REMARK Flexibility Score: inf
ROOT
ATOM      1  C   UNL     1      19.453  49.841  44.945  1.00  0.00     0.040 C 
ENDROOT
BRANCH   1   2
ATOM      2  C   UNL     1      20.069  48.504  44.630  1.00  0.00    -0.047 A 
ATOM      3  C   UNL     1      19.930  47.431  45.524  1.00  0.00     0.007 A 
ATOM      4  C   UNL     1      20.474  46.181  45.216  1.00  0.00     0.046 A 
ATOM      5  C   UNL     1      21.155  45.989  44.007  1.00  0.00     0.115 A 
ATOM      6  C   UNL     1      20.741  48.304  43.413  1.00  0.00     0.007 A 
ATOM      7  C   UNL     1      21.285  47.052  43.107  1.00  0.00     0.046 A 
BRANCH   5   8
ATOM      8  O   UNL     1      21.702  44.748  43.689  1.00  0.00    -0.508 OA
ATOM      9  H   UNL     1      22.388  44.303  44.287  1.00  0.00     0.293 HD
ENDBRANCH   5   8
ENDBRANCH   1   2
BRANCH   1  10
ATOM     10  C   UNL     1      18.783  50.431  43.702  1.00  0.00     0.040 C 
BRANCH  10  11
ATOM     11  C   UNL     1      17.322  50.071  43.666  1.00  0.00    -0.040 A 
ATOM     12  C   UNL     1      16.641  49.756  44.854  1.00  0.00     0.050 A 
ATOM     13  C   UNL     1      16.643  49.989  42.440  1.00  0.00     0.050 A 
ATOM     14  C   UNL     1      15.292  49.389  44.819  1.00  0.00     0.119 A 
ATOM     15  C   UNL     1      15.290  49.620  42.403  1.00  0.00     0.119 A 
ATOM     16  C   UNL     1      14.618  49.324  43.593  1.00  0.00     0.092 A 
BRANCH  14  17
ATOM     17  O   UNL     1      14.632  49.087  46.008  1.00  0.00    -0.508 OA
ATOM     18  H   UNL     1      13.768  48.556  46.015  1.00  0.00     0.293 HD
ENDBRANCH  14  17
BRANCH  15  19
ATOM     19  O   UNL     1      14.608  49.545  41.191  1.00  0.00    -0.508 OA
ATOM     20  H   UNL     1      14.324  50.379  40.690  1.00  0.00     0.293 HD
ENDBRANCH  15  19
ENDBRANCH  10  11
ENDBRANCH   1  10
TORSDOF 6
ENDMDL
MODEL 6
REMARK VINA RESULT:    -5.790      1.644      5.798
REMARK INTER + INTRA:          -8.086
REMARK INTER:                  -7.431
REMARK INTRA:                  -0.655
REMARK UNBOUND:                -0.773
REMARK SMILES Oc1ccc(CCc2cc(O)cc(O)c2)cc1
REMARK SMILES IDX 6 1 5 2 4 3 3 4 2 5 16 6 17 7 1 8 7 10 8 11 15 12 9 13 13 14
REMARK SMILES IDX 10 15 12 16 14 17 11 19
REMARK H PARENT 1 9 14 18 11 20
REMARK Flexibility Score: inf
ROOT
ATOM      1  C   UNL     1      19.489  49.743  44.888  1.00  0.00     0.040 C 
ENDROOT
BRANCH   1   2
ATOM      2  C   UNL     1      20.086  48.390  44.607  1.00  0.00    -0.047 A 
ATOM      3  C   UNL     1      19.865  47.320  45.488  1.00  0.00     0.007 A 
ATOM      4  C   UNL     1      20.392  46.056  45.210  1.00  0.00     0.046 A 
ATOM      5  C   UNL     1      21.137  45.846  44.042  1.00  0.00     0.115 A 
ATOM      6  C   UNL     1      20.822  48.172  43.430  1.00  0.00     0.007 A 
ATOM      7  C   UNL     1      21.349  46.906  43.154  1.00  0.00     0.046 A 
BRANCH   5   8
ATOM      8  O   UNL     1      21.668  44.591  43.753  1.00  0.00    -0.508 OA
ATOM      9  H   UNL     1      22.400  44.183  44.322  1.00  0.00     0.293 HD
ENDBRANCH   5   8
ENDBRANCH   1   2
BRANCH   1  10
ATOM     10  C   UNL     1      18.829  50.312  43.630  1.00  0.00     0.040 C 
BRANCH  10  11
ATOM     11  C   UNL     1      17.363  49.972  43.599  1.00  0.00    -0.040 A 
ATOM     12  C   UNL     1      16.656  49.997  42.386  1.00  0.00     0.050 A 
ATOM     13  C   UNL     1      16.679  49.683  44.791  1.00  0.00     0.050 A 
ATOM     14  C   UNL     1      15.287  49.714  42.360  1.00  0.00     0.119 A 
ATOM     15  C   UNL     1      15.305  49.399  44.767  1.00  0.00     0.119 A 
ATOM     16  C   UNL     1      14.614  49.413  43.552  1.00  0.00     0.092 A 
BRANCH  14  17
ATOM     17  O   UNL     1      14.603  49.738  41.147  1.00  0.00    -0.508 OA
ATOM     18  H   UNL     1      13.835  50.379  40.983  1.00  0.00     0.293 HD
ENDBRANCH  14  17
BRANCH  15  19
ATOM     19  O   UNL     1      14.621  49.104  45.944  1.00  0.00    -0.508 OA
ATOM     20  H   UNL     1      15.111  48.811  46.782  1.00  0.00     0.293 HD
ENDBRANCH  15  19
ENDBRANCH  10  11
ENDBRANCH   1  10
TORSDOF 6
ENDMDL
MODEL 7
REMARK VINA RESULT:    -5.785      1.357      2.164
REMARK INTER + INTRA:          -8.080
REMARK INTER:                  -7.311
REMARK INTRA:                  -0.769
REMARK UNBOUND:                -0.773
REMARK SMILES Oc1ccc(CCc2cc(O)cc(O)c2)cc1
REMARK SMILES IDX 6 1 5 2 4 3 3 4 2 5 16 6 17 7 1 8 7 10 8 11 15 12 9 13 13 14
REMARK SMILES IDX 10 15 12 16 14 17 11 19
REMARK H PARENT 1 9 14 18 11 20
REMARK Flexibility Score: inf
ROOT
ATOM      1  C   UNL     1      18.793  50.758  44.798  1.00  0.00     0.040 C 
ENDROOT
BRANCH   1   2
ATOM      2  C   UNL     1      17.679  50.440  43.837  1.00  0.00    -0.047 A 
ATOM      3  C   UNL     1      17.898  50.504  42.452  1.00  0.00     0.007 A 
ATOM      4  C   UNL     1      16.874  50.176  41.560  1.00  0.00     0.046 A 
ATOM      5  C   UNL     1      15.622  49.772  42.044  1.00  0.00     0.115 A 
ATOM      6  C   UNL     1      16.428  50.021  44.318  1.00  0.00     0.007 A 
ATOM      7  C   UNL     1      15.404  49.694  43.423  1.00  0.00     0.046 A 
BRANCH   5   8
ATOM      8  O   UNL     1      14.593  49.443  41.165  1.00  0.00    -0.508 OA
ATOM      9  H   UNL     1      14.081  48.573  41.250  1.00  0.00     0.293 HD
ENDBRANCH   5   8
ENDBRANCH   1   2
BRANCH   1  10
ATOM     10  C   UNL     1      20.105  50.124  44.331  1.00  0.00     0.040 C 
BRANCH  10  11
ATOM     11  C   UNL     1      20.127  48.653  44.650  1.00  0.00    -0.040 A 
ATOM     12  C   UNL     1      19.798  48.205  45.941  1.00  0.00     0.050 A 
ATOM     13  C   UNL     1      20.531  47.724  43.679  1.00  0.00     0.050 A 
ATOM     14  C   UNL     1      19.851  46.842  46.250  1.00  0.00     0.119 A 
ATOM     15  C   UNL     1      20.584  46.356  43.988  1.00  0.00     0.119 A 
ATOM     16  C   UNL     1      20.241  45.919  45.270  1.00  0.00     0.092 A 
BRANCH  14  17
ATOM     17  O   UNL     1      19.515  46.415  47.533  1.00  0.00    -0.508 OA
ATOM     18  H   UNL     1      19.184  47.063  48.238  1.00  0.00     0.293 HD
ENDBRANCH  14  17
BRANCH  15  19
ATOM     19  O   UNL     1      20.977  45.427  43.026  1.00  0.00    -0.508 OA
ATOM     20  H   UNL     1      20.510  44.532  42.933  1.00  0.00     0.293 HD
ENDBRANCH  15  19
ENDBRANCH  10  11
ENDBRANCH   1  10
TORSDOF 6
ENDMDL
MODEL 8
REMARK VINA RESULT:    -5.759      1.320      1.959
REMARK INTER + INTRA:          -8.046
REMARK INTER:                  -7.282
REMARK INTRA:                  -0.765
REMARK UNBOUND:                -0.773
REMARK SMILES Oc1ccc(CCc2cc(O)cc(O)c2)cc1
REMARK SMILES IDX 6 1 5 2 4 3 3 4 2 5 16 6 17 7 1 8 7 10 8 11 15 12 9 13 13 14
REMARK SMILES IDX 10 15 12 16 14 17 11 19
REMARK H PARENT 1 9 14 18 11 20
REMARK Flexibility Score: inf
ROOT
ATOM      1  C   UNL     1      18.699  50.778  44.879  1.00  0.00     0.040 C 
ENDROOT
BRANCH   1   2
ATOM      2  C   UNL     1      17.617  50.443  43.887  1.00  0.00    -0.047 A 
ATOM      3  C   UNL     1      17.879  50.496  42.509  1.00  0.00     0.007 A 
ATOM      4  C   UNL     1      16.884  50.153  41.589  1.00  0.00     0.046 A 
ATOM      5  C   UNL     1      15.622  49.742  42.038  1.00  0.00     0.115 A 
ATOM      6  C   UNL     1      16.355  50.018  44.333  1.00  0.00     0.007 A 
ATOM      7  C   UNL     1      15.361  49.675  43.410  1.00  0.00     0.046 A 
BRANCH   5   8
ATOM      8  O   UNL     1      14.623  49.398  41.130  1.00  0.00    -0.508 OA
ATOM      9  H   UNL     1      13.706  49.828  41.163  1.00  0.00     0.293 HD
ENDBRANCH   5   8
ENDBRANCH   1   2
BRANCH   1  10
ATOM     10  C   UNL     1      20.045  50.214  44.419  1.00  0.00     0.040 C 
BRANCH  10  11
ATOM     11  C   UNL     1      20.137  48.744  44.729  1.00  0.00    -0.040 A 
ATOM     12  C   UNL     1      20.527  47.834  43.732  1.00  0.00     0.050 A 
ATOM     13  C   UNL     1      19.778  48.264  45.998  1.00  0.00     0.050 A 
ATOM     14  C   UNL     1      20.581  46.464  44.007  1.00  0.00     0.119 A 
ATOM     15  C   UNL     1      19.831  46.890  46.276  1.00  0.00     0.119 A 
ATOM     16  C   UNL     1      20.234  45.994  45.281  1.00  0.00     0.092 A 
BRANCH  14  17
ATOM     17  O   UNL     1      20.977  45.577  43.008  1.00  0.00    -0.508 OA
ATOM     18  H   UNL     1      21.734  45.798  42.372  1.00  0.00     0.293 HD
ENDBRANCH  14  17
BRANCH  15  19
ATOM     19  O   UNL     1      19.483  46.407  47.536  1.00  0.00    -0.508 OA
ATOM     20  H   UNL     1      18.599  46.647  47.969  1.00  0.00     0.293 HD
ENDBRANCH  15  19
ENDBRANCH  10  11
ENDBRANCH   1  10
TORSDOF 6
ENDMDL
MODEL 9
REMARK VINA RESULT:    -5.676      1.562      2.034
REMARK INTER + INTRA:          -7.942
REMARK INTER:                  -7.157
REMARK INTRA:                  -0.785
REMARK UNBOUND:                -0.773
REMARK SMILES Oc1ccc(CCc2cc(O)cc(O)c2)cc1
REMARK SMILES IDX 6 1 5 2 4 3 3 4 2 5 16 6 17 7 1 8 7 10 8 11 15 12 9 13 13 14
REMARK SMILES IDX 10 15 12 16 14 17 11 19
REMARK H PARENT 1 9 14 18 11 20
REMARK Flexibility Score: inf
ROOT
ATOM      1  C   UNL     1      19.203  49.677  46.851  1.00  0.00     0.040 C 
ENDROOT
BRANCH   1   2
ATOM      2  C   UNL     1      17.871  49.764  46.154  1.00  0.00    -0.047 A 
ATOM      3  C   UNL     1      17.729  50.537  44.991  1.00  0.00     0.007 A 
ATOM      4  C   UNL     1      16.500  50.591  44.327  1.00  0.00     0.046 A 
ATOM      5  C   UNL     1      15.405  49.865  44.813  1.00  0.00     0.115 A 
ATOM      6  C   UNL     1      16.774  49.027  46.631  1.00  0.00     0.007 A 
ATOM      7  C   UNL     1      15.546  49.083  45.964  1.00  0.00     0.046 A 
BRANCH   5   8
ATOM      8  O   UNL     1      14.176  49.911  44.159  1.00  0.00    -0.508 OA
ATOM      9  H   UNL     1      13.646  49.069  43.966  1.00  0.00     0.293 HD
ENDBRANCH   5   8
ENDBRANCH   1   2
BRANCH   1  10
ATOM     10  C   UNL     1      19.674  48.223  46.932  1.00  0.00     0.040 C 
BRANCH  10  11
ATOM     11  C   UNL     1      20.252  47.778  45.616  1.00  0.00    -0.040 A 
ATOM     12  C   UNL     1      21.122  48.622  44.904  1.00  0.00     0.050 A 
ATOM     13  C   UNL     1      19.883  46.543  45.060  1.00  0.00     0.050 A 
ATOM     14  C   UNL     1      21.634  48.226  43.664  1.00  0.00     0.119 A 
ATOM     15  C   UNL     1      20.395  46.144  43.817  1.00  0.00     0.119 A 
ATOM     16  C   UNL     1      21.271  46.985  43.124  1.00  0.00     0.092 A 
BRANCH  14  17
ATOM     17  O   UNL     1      22.500  49.073  42.976  1.00  0.00    -0.508 OA
ATOM     18  H   UNL     1      23.488  48.866  42.891  1.00  0.00     0.293 HD
ENDBRANCH  14  17
BRANCH  15  19
ATOM     19  O   UNL     1      20.039  44.916  43.264  1.00  0.00    -0.508 OA
ATOM     20  H   UNL     1      20.131  44.053  43.788  1.00  0.00     0.293 HD
ENDBRANCH  15  19
ENDBRANCH  10  11
ENDBRANCH   1  10
TORSDOF 6
ENDMDL
