MODEL 1
REMARK VINA RESULT:    -5.655      0.000      0.000
REMARK INTER + INTRA:          -8.231
REMARK INTER:                  -7.639
REMARK INTRA:                  -0.592
REMARK UNBOUND:                -0.592
REMARK SMILES CC(=O)CCC=C(C)CCC=C(C)C
REMARK SMILES IDX 7 1 6 2 8 3 9 4 10 5 11 6 13 7 12 8 14 9 5 10 4 11 2 12 3 13
REMARK SMILES IDX 1 14
REMARK H PARENT
REMARK Flexibility Score: inf
ROOT
ATOM      1  C   UNL     1     108.013  47.220  65.475  1.00  0.00    -0.077 C 
ATOM      2  C   UNL     1     107.016  47.983  64.970  1.00  0.00    -0.028 C 
ATOM      3  C   UNL     1     108.784  47.627  66.709  1.00  0.00     0.039 C 
ENDROOT
BRANCH   1   4
ATOM      4  C   UNL     1     108.384  45.936  64.768  1.00  0.00     0.034 C 
BRANCH   4   5
ATOM      5  C   UNL     1     108.346  46.121  63.247  1.00  0.00     0.032 C 
BRANCH   5   6
ATOM      6  C   UNL     1     109.054  47.391  62.844  1.00  0.00    -0.028 C 
ATOM      7  C   UNL     1     107.304  48.023  61.167  1.00  0.00     0.039 C 
ATOM      8  C   UNL     1     108.579  48.270  61.933  1.00  0.00    -0.080 C 
ATOM      9  C   UNL     1     109.357  49.525  61.628  1.00  0.00     0.039 C 
ENDBRANCH   5   6
ENDBRANCH   4   5
ENDBRANCH   1   4
BRANCH   2  10
ATOM     10  C   UNL     1     106.523  49.268  65.592  1.00  0.00     0.035 C 
BRANCH  10  11
ATOM     11  C   UNL     1     106.581  50.446  64.610  1.00  0.00     0.079 C 
BRANCH  11  12
ATOM     12  C   UNL     1     107.871  51.219  64.742  1.00  0.00     0.130 C 
ATOM     13  O   UNL     1     108.936  50.621  64.727  1.00  0.00    -0.300 OA
ATOM     14  C   UNL     1     107.874  52.713  64.876  1.00  0.00     0.087 C 
ENDBRANCH  11  12
ENDBRANCH  10  11
ENDBRANCH   2  10
TORSDOF 6
ENDMDL
MODEL 2
REMARK VINA RESULT:    -5.619      1.558      4.144
REMARK INTER + INTRA:          -8.182
REMARK INTER:                  -7.855
REMARK INTRA:                  -0.327
REMARK UNBOUND:                -0.592
REMARK SMILES CC(=O)CCC=C(C)CCC=C(C)C
REMARK SMILES IDX 7 1 6 2 8 3 9 4 10 5 11 6 13 7 12 8 14 9 5 10 4 11 2 12 3 13
REMARK SMILES IDX 1 14
REMARK H PARENT
REMARK Flexibility Score: inf
ROOT
ATOM      1  C   UNL     1     107.927  47.611  65.416  1.00  0.00    -0.077 C 
ATOM      2  C   UNL     1     107.889  47.371  64.085  1.00  0.00    -0.028 C 
ATOM      3  C   UNL     1     108.752  46.766  66.358  1.00  0.00     0.039 C 
ENDROOT
BRANCH   1   4
ATOM      4  C   UNL     1     107.097  48.743  65.981  1.00  0.00     0.034 C 
BRANCH   4   5
ATOM      5  C   UNL     1     106.474  49.576  64.855  1.00  0.00     0.032 C 
BRANCH   5   6
ATOM      6  C   UNL     1     106.755  51.045  65.059  1.00  0.00    -0.028 C 
ATOM      7  C   UNL     1     109.129  50.863  64.280  1.00  0.00     0.039 C 
ATOM      8  C   UNL     1     107.934  51.641  64.773  1.00  0.00    -0.080 C 
ATOM      9  C   UNL     1     108.095  53.124  64.988  1.00  0.00     0.039 C 
ENDBRANCH   5   6
ENDBRANCH   4   5
ENDBRANCH   1   4
BRANCH   2  10
ATOM     10  C   UNL     1     108.690  46.299  63.385  1.00  0.00     0.035 C 
BRANCH  10  11
ATOM     11  C   UNL     1     108.713  46.493  61.864  1.00  0.00     0.079 C 
BRANCH  11  12
ATOM     12  C   UNL     1     108.188  47.850  61.466  1.00  0.00     0.130 C 
ATOM     13  O   UNL     1     107.025  47.967  61.111  1.00  0.00    -0.300 OA
ATOM     14  C   UNL     1     109.063  49.068  61.512  1.00  0.00     0.087 C 
ENDBRANCH  11  12
ENDBRANCH  10  11
ENDBRANCH   2  10
TORSDOF 6
ENDMDL
MODEL 3
REMARK VINA RESULT:    -5.205      1.265      4.507
REMARK INTER + INTRA:          -7.623
REMARK INTER:                  -7.043
REMARK INTRA:                  -0.580
REMARK UNBOUND:                -0.592
REMARK SMILES CC(=O)CCC=C(C)CCC=C(C)C
REMARK SMILES IDX 7 1 6 2 8 3 9 4 10 5 11 6 13 7 12 8 14 9 5 10 4 11 2 12 3 13
REMARK SMILES IDX 1 14
REMARK H PARENT
REMARK Flexibility Score: inf
ROOT
ATOM      1  C   UNL     1     108.647  47.981  61.946  1.00  0.00    -0.077 C 
ATOM      2  C   UNL     1     109.143  47.170  62.909  1.00  0.00    -0.028 C 
ATOM      3  C   UNL     1     107.444  47.594  61.117  1.00  0.00     0.039 C 
ENDROOT
BRANCH   1   4
ATOM      4  C   UNL     1     109.331  49.302  61.674  1.00  0.00     0.034 C 
BRANCH   4   5
ATOM      5  C   UNL     1     109.431  50.137  62.956  1.00  0.00     0.032 C 
BRANCH   5   6
ATOM      6  C   UNL     1     108.143  50.073  63.739  1.00  0.00    -0.028 C 
ATOM      7  C   UNL     1     108.595  52.211  64.964  1.00  0.00     0.039 C 
ATOM      8  C   UNL     1     107.741  51.016  64.621  1.00  0.00    -0.080 C 
ATOM      9  C   UNL     1     106.419  50.864  65.329  1.00  0.00     0.039 C 
ENDBRANCH   5   6
ENDBRANCH   4   5
ENDBRANCH   1   4
BRANCH   2  10
ATOM     10  C   UNL     1     108.541  45.843  63.306  1.00  0.00     0.035 C 
BRANCH  10  11
ATOM     11  C   UNL     1     108.321  45.737  64.821  1.00  0.00     0.079 C 
BRANCH  11  12
ATOM     12  C   UNL     1     107.742  47.008  65.391  1.00  0.00     0.130 C 
ATOM     13  O   UNL     1     106.673  47.426  64.972  1.00  0.00    -0.300 OA
ATOM     14  C   UNL     1     108.446  47.766  66.477  1.00  0.00     0.087 C 
ENDBRANCH  11  12
ENDBRANCH  10  11
ENDBRANCH   2  10
TORSDOF 6
ENDMDL
MODEL 4
REMARK VINA RESULT:    -5.108      8.089     10.901
REMARK INTER + INTRA:          -7.492
REMARK INTER:                  -6.957
REMARK INTRA:                  -0.535
REMARK UNBOUND:                -0.592
REMARK SMILES CC(=O)CCC=C(C)CCC=C(C)C
REMARK SMILES IDX 7 1 6 2 8 3 9 4 10 5 11 6 13 7 12 8 14 9 5 10 4 11 2 12 3 13
REMARK SMILES IDX 1 14
REMARK H PARENT
REMARK Flexibility Score: inf
ROOT
ATOM      1  C   UNL     1     102.834  47.337  53.713  1.00  0.00    -0.077 C 
ATOM      2  C   UNL     1     104.014  47.786  54.201  1.00  0.00    -0.028 C 
ATOM      3  C   UNL     1     102.292  47.801  52.381  1.00  0.00     0.039 C 
ENDROOT
BRANCH   1   4
ATOM      4  C   UNL     1     102.023  46.362  54.536  1.00  0.00     0.034 C 
BRANCH   4   5
ATOM      5  C   UNL     1     102.175  46.655  56.033  1.00  0.00     0.032 C 
BRANCH   5   6
ATOM      6  C   UNL     1     102.046  48.134  56.305  1.00  0.00    -0.028 C 
ATOM      7  C   UNL     1     103.744  48.105  58.147  1.00  0.00     0.039 C 
ATOM      8  C   UNL     1     102.770  48.803  57.231  1.00  0.00    -0.080 C 
ATOM      9  C   UNL     1     102.580  50.289  57.399  1.00  0.00     0.039 C 
ENDBRANCH   5   6
ENDBRANCH   4   5
ENDBRANCH   1   4
BRANCH   2  10
ATOM     10  C   UNL     1     104.938  48.732  53.472  1.00  0.00     0.035 C 
BRANCH  10  11
ATOM     11  C   UNL     1     105.409  49.887  54.366  1.00  0.00     0.079 C 
BRANCH  11  12
ATOM     12  C   UNL     1     104.642  51.156  54.089  1.00  0.00     0.130 C 
ATOM     13  O   UNL     1     105.249  52.175  53.793  1.00  0.00    -0.300 OA
ATOM     14  C   UNL     1     103.144  51.192  54.154  1.00  0.00     0.087 C 
ENDBRANCH  11  12
ENDBRANCH  10  11
ENDBRANCH   2  10
TORSDOF 6
ENDMDL
MODEL 5
REMARK VINA RESULT:    -4.989     16.519     17.048
REMARK INTER + INTRA:          -7.331
REMARK INTER:                  -6.795
REMARK INTRA:                  -0.536
REMARK UNBOUND:                -0.592
REMARK SMILES CC(=O)CCC=C(C)CCC=C(C)C
REMARK SMILES IDX 7 1 6 2 8 3 9 4 10 5 11 6 13 7 12 8 14 9 5 10 4 11 2 12 3 13
REMARK SMILES IDX 1 14
REMARK H PARENT
REMARK Flexibility Score: inf
ROOT
ATOM      1  C   UNL     1     100.438  33.756  62.124  1.00  0.00    -0.077 C 
ATOM      2  C   UNL     1      99.188  34.242  61.944  1.00  0.00    -0.028 C 
ATOM      3  C   UNL     1     100.800  32.905  63.319  1.00  0.00     0.039 C 
ENDROOT
BRANCH   1   4
ATOM      4  C   UNL     1     101.511  34.096  61.113  1.00  0.00     0.034 C 
BRANCH   4   5
ATOM      5  C   UNL     1     102.479  32.921  60.930  1.00  0.00     0.032 C 
BRANCH   5   6
ATOM      6  C   UNL     1     103.197  33.020  59.607  1.00  0.00    -0.028 C 
ATOM      7  C   UNL     1     105.470  32.875  60.650  1.00  0.00     0.039 C 
ATOM      8  C   UNL     1     104.541  32.968  59.465  1.00  0.00    -0.080 C 
ATOM      9  C   UNL     1     105.152  33.048  58.090  1.00  0.00     0.039 C 
ENDBRANCH   5   6
ENDBRANCH   4   5
ENDBRANCH   1   4
BRANCH   2  10
ATOM     10  C   UNL     1      98.018  33.955  62.854  1.00  0.00     0.035 C 
BRANCH  10  11
ATOM     11  C   UNL     1      97.420  35.235  63.450  1.00  0.00     0.079 C 
BRANCH  11  12
ATOM     12  C   UNL     1      97.322  35.158  64.954  1.00  0.00     0.130 C 
ATOM     13  O   UNL     1      96.559  35.905  65.548  1.00  0.00    -0.300 OA
ATOM     14  C   UNL     1      98.134  34.170  65.738  1.00  0.00     0.087 C 
ENDBRANCH  11  12
ENDBRANCH  10  11
ENDBRANCH   2  10
TORSDOF 6
ENDMDL
MODEL 6
REMARK VINA RESULT:    -4.980      8.349     10.582
REMARK INTER + INTRA:          -7.318
REMARK INTER:                  -6.952
REMARK INTRA:                  -0.366
REMARK UNBOUND:                -0.592
REMARK SMILES CC(=O)CCC=C(C)CCC=C(C)C
REMARK SMILES IDX 7 1 6 2 8 3 9 4 10 5 11 6 13 7 12 8 14 9 5 10 4 11 2 12 3 13
REMARK SMILES IDX 1 14
REMARK H PARENT
REMARK Flexibility Score: inf
ROOT
ATOM      1  C   UNL     1     102.119  46.575  54.338  1.00  0.00    -0.077 C 
ATOM      2  C   UNL     1     102.331  47.274  55.477  1.00  0.00    -0.028 C 
ATOM      3  C   UNL     1     101.612  45.152  54.356  1.00  0.00     0.039 C 
ENDROOT
BRANCH   1   4
ATOM      4  C   UNL     1     102.424  47.229  53.008  1.00  0.00     0.034 C 
BRANCH   4   5
ATOM      5  C   UNL     1     103.677  48.107  53.108  1.00  0.00     0.032 C 
BRANCH   5   6
ATOM      6  C   UNL     1     103.315  49.513  53.518  1.00  0.00    -0.028 C 
ATOM      7  C   UNL     1     105.689  50.155  53.995  1.00  0.00     0.039 C 
ATOM      8  C   UNL     1     104.214  50.453  53.888  1.00  0.00    -0.080 C 
ATOM      9  C   UNL     1     103.742  51.838  54.252  1.00  0.00     0.039 C 
ENDBRANCH   5   6
ENDBRANCH   4   5
ENDBRANCH   1   4
BRANCH   2  10
ATOM     10  C   UNL     1     102.038  46.758  56.866  1.00  0.00     0.035 C 
BRANCH  10  11
ATOM     11  C   UNL     1     102.912  47.433  57.931  1.00  0.00     0.079 C 
BRANCH  11  12
ATOM     12  C   UNL     1     103.572  48.682  57.401  1.00  0.00     0.130 C 
ATOM     13  O   UNL     1     104.683  48.612  56.898  1.00  0.00    -0.300 OA
ATOM     14  C   UNL     1     102.884  50.014  57.466  1.00  0.00     0.087 C 
ENDBRANCH  11  12
ENDBRANCH  10  11
ENDBRANCH   2  10
TORSDOF 6
ENDMDL
MODEL 7
REMARK VINA RESULT:    -4.952      8.265     10.798
REMARK INTER + INTRA:          -7.280
REMARK INTER:                  -6.878
REMARK INTRA:                  -0.402
REMARK UNBOUND:                -0.592
REMARK SMILES CC(=O)CCC=C(C)CCC=C(C)C
REMARK SMILES IDX 7 1 6 2 8 3 9 4 10 5 11 6 13 7 12 8 14 9 5 10 4 11 2 12 3 13
REMARK SMILES IDX 1 14
REMARK H PARENT
REMARK Flexibility Score: inf
ROOT
ATOM      1  C   UNL     1     102.685  48.580  57.183  1.00  0.00    -0.077 C 
ATOM      2  C   UNL     1     101.921  47.987  56.237  1.00  0.00    -0.028 C 
ATOM      3  C   UNL     1     103.564  47.782  58.118  1.00  0.00     0.039 C 
ENDROOT
BRANCH   1   4
ATOM      4  C   UNL     1     102.639  50.086  57.326  1.00  0.00     0.034 C 
BRANCH   4   5
ATOM      5  C   UNL     1     102.668  50.764  55.952  1.00  0.00     0.032 C 
BRANCH   5   6
ATOM      6  C   UNL     1     103.796  50.219  55.109  1.00  0.00    -0.028 C 
ATOM      7  C   UNL     1     104.172  52.393  53.922  1.00  0.00     0.039 C 
ATOM      8  C   UNL     1     104.500  50.950  54.216  1.00  0.00    -0.080 C 
ATOM      9  C   UNL     1     105.628  50.309  53.448  1.00  0.00     0.039 C 
ENDBRANCH   5   6
ENDBRANCH   4   5
ENDBRANCH   1   4
BRANCH   2  10
ATOM     10  C   UNL     1     101.895  46.502  55.965  1.00  0.00     0.035 C 
BRANCH  10  11
ATOM     11  C   UNL     1     101.981  46.187  54.465  1.00  0.00     0.079 C 
BRANCH  11  12
ATOM     12  C   UNL     1     102.966  47.087  53.761  1.00  0.00     0.130 C 
ATOM     13  O   UNL     1     104.111  47.172  54.179  1.00  0.00    -0.300 OA
ATOM     14  C   UNL     1     102.573  47.871  52.544  1.00  0.00     0.087 C 
ENDBRANCH  11  12
ENDBRANCH  10  11
ENDBRANCH   2  10
TORSDOF 6
ENDMDL
MODEL 8
REMARK VINA RESULT:    -4.948      8.468     10.879
REMARK INTER + INTRA:          -7.275
REMARK INTER:                  -6.602
REMARK INTRA:                  -0.673
REMARK UNBOUND:                -0.592
REMARK SMILES CC(=O)CCC=C(C)CCC=C(C)C
REMARK SMILES IDX 7 1 6 2 8 3 9 4 10 5 11 6 13 7 12 8 14 9 5 10 4 11 2 12 3 13
REMARK SMILES IDX 1 14
REMARK H PARENT
REMARK Flexibility Score: inf
ROOT
ATOM      1  C   UNL     1     103.521  47.916  53.449  1.00  0.00    -0.077 C 
ATOM      2  C   UNL     1     103.515  47.495  54.735  1.00  0.00    -0.028 C 
ATOM      3  C   UNL     1     102.392  47.594  52.497  1.00  0.00     0.039 C 
ENDROOT
BRANCH   1   4
ATOM      4  C   UNL     1     104.705  48.709  52.942  1.00  0.00     0.034 C 
BRANCH   4   5
ATOM      5  C   UNL     1     105.246  49.638  54.034  1.00  0.00     0.032 C 
BRANCH   5   6
ATOM      6  C   UNL     1     104.871  51.073  53.752  1.00  0.00    -0.028 C 
ATOM      7  C   UNL     1     102.729  50.934  55.043  1.00  0.00     0.039 C 
ATOM      8  C   UNL     1     103.758  51.676  54.227  1.00  0.00    -0.080 C 
ATOM      9  C   UNL     1     103.496  53.125  53.905  1.00  0.00     0.039 C 
ENDBRANCH   5   6
ENDBRANCH   4   5
ENDBRANCH   1   4
BRANCH   2  10
ATOM     10  C   UNL     1     102.386  46.726  55.380  1.00  0.00     0.035 C 
BRANCH  10  11
ATOM     11  C   UNL     1     101.776  47.481  56.568  1.00  0.00     0.079 C 
BRANCH  11  12
ATOM     12  C   UNL     1     102.835  47.945  57.538  1.00  0.00     0.130 C 
ATOM     13  O   UNL     1     103.491  47.121  58.155  1.00  0.00    -0.300 OA
ATOM     14  C   UNL     1     103.111  49.405  57.750  1.00  0.00     0.087 C 
ENDBRANCH  11  12
ENDBRANCH  10  11
ENDBRANCH   2  10
TORSDOF 6
ENDMDL
MODEL 9
REMARK VINA RESULT:    -4.818     16.884     17.660
REMARK INTER + INTRA:          -7.099
REMARK INTER:                  -6.467
REMARK INTRA:                  -0.632
REMARK UNBOUND:                -0.592
REMARK SMILES CC(=O)CCC=C(C)CCC=C(C)C
REMARK SMILES IDX 7 1 6 2 8 3 9 4 10 5 11 6 13 7 12 8 14 9 5 10 4 11 2 12 3 13
REMARK SMILES IDX 1 14
REMARK H PARENT
REMARK Flexibility Score: inf
ROOT
ATOM      1  C   UNL     1      98.350  33.654  63.876  1.00  0.00    -0.077 C 
ATOM      2  C   UNL     1      98.070  33.566  65.197  1.00  0.00    -0.028 C 
ATOM      3  C   UNL     1      97.267  33.841  62.839  1.00  0.00     0.039 C 
ENDROOT
BRANCH   1   4
ATOM      4  C   UNL     1      99.788  33.536  63.422  1.00  0.00     0.034 C 
BRANCH   4   5
ATOM      5  C   UNL     1     100.004  34.280  62.099  1.00  0.00     0.032 C 
BRANCH   5   6
ATOM      6  C   UNL     1     101.287  33.837  61.438  1.00  0.00    -0.028 C 
ATOM      7  C   UNL     1     100.141  33.129  59.326  1.00  0.00     0.039 C 
ATOM      8  C   UNL     1     101.365  33.348  60.180  1.00  0.00    -0.080 C 
ATOM      9  C   UNL     1     102.705  32.962  59.609  1.00  0.00     0.039 C 
ENDBRANCH   5   6
ENDBRANCH   4   5
ENDBRANCH   1   4
BRANCH   2  10
ATOM     10  C   UNL     1      96.687  33.699  65.790  1.00  0.00     0.035 C 
BRANCH  10  11
ATOM     11  C   UNL     1      96.613  34.815  66.840  1.00  0.00     0.079 C 
BRANCH  11  12
ATOM     12  C   UNL     1      95.649  35.902  66.433  1.00  0.00     0.130 C 
ATOM     13  O   UNL     1      94.879  36.367  67.260  1.00  0.00    -0.300 OA
ATOM     14  C   UNL     1      95.624  36.437  65.031  1.00  0.00     0.087 C 
ENDBRANCH  11  12
ENDBRANCH  10  11
ENDBRANCH   2  10
TORSDOF 6
ENDMDL
