MODEL 1
REMARK VINA RESULT:    -3.858      0.000      0.000
REMARK INTER + INTRA:          -6.007
REMARK INTER:                  -5.888
REMARK INTRA:                  -0.119
REMARK UNBOUND:                -0.119
REMARK SMILES CC1=CCC[C@H](C)C(=O)C[C@@H](C(C)C)C(=O)C1
REMARK SMILES IDX 8 1 9 2 6 3 7 4 5 5 4 6 3 7 2 8 1 9 10 11 11 12 15 13 16 14
REMARK SMILES IDX 17 15 12 17 13 18 14 19
REMARK H PARENT
REMARK Flexibility Score: 70.00
ROOT
ATOM      1  C   UNL     1      -6.878  21.014  63.216  1.00  0.00     0.136 C 
ATOM      2  O   UNL     1      -6.284  20.348  64.052  1.00  0.00    -0.299 OA
ENDROOT
BRANCH   1   3
ATOM      3  C   UNL     1      -8.267  21.539  63.517  1.00  0.00     0.053 C 
ATOM      4  C   UNL     1      -8.909  20.678  64.609  1.00  0.00     0.016 C 
BRANCH   3   5
ATOM      5  C   UNL     1      -8.242  23.023  63.951  1.00  0.00     0.015 C 
BRANCH   5   6
ATOM      6  C   UNL     1      -8.733  23.984  62.858  1.00  0.00     0.028 C 
BRANCH   6   7
ATOM      7  C   UNL     1      -7.761  25.119  62.646  1.00  0.00    -0.028 C 
ATOM      8  C   UNL     1      -6.746  25.133  61.752  1.00  0.00    -0.070 CG0
ATOM      9  C   UNL     1      -5.883  26.368  61.684  1.00  0.00     0.039 C 
ATOM     10  G   UNL     1      -6.461  23.994  60.793  1.00  0.00     0.000 G0
ENDBRANCH   6   7
ENDBRANCH   5   6
ENDBRANCH   3   5
ENDBRANCH   1   3
BRANCH   1  11
ATOM     11  C   UNL     1      -6.224  21.264  61.882  1.00  0.00     0.087 C 
BRANCH  11  12
ATOM     12  C   UNL     1      -4.973  22.171  62.011  1.00  0.00     0.066 C 
BRANCH  12  13
ATOM     13  C   UNL     1      -5.114  23.353  61.066  1.00  0.00     0.140 C 
ATOM     14  O   UNL     1      -4.110  23.855  60.578  1.00  0.00    -0.299 OA
BRANCH  13  15
ATOM     15  C   UNL     1      -6.455  23.984  60.787  1.00  0.00     0.106 CG0
ATOM     16  G   UNL     1      -6.734  25.120  61.752  1.00  0.00     0.000 G0
ENDBRANCH  13  15
ENDBRANCH  12  13
BRANCH  12  17
ATOM     17  C   UNL     1      -3.645  21.397  61.723  1.00  0.00    -0.006 C 
ATOM     18  C   UNL     1      -2.639  21.550  62.882  1.00  0.00     0.008 C 
ATOM     19  C   UNL     1      -3.887  19.894  61.483  1.00  0.00     0.008 C 
ENDBRANCH  12  17
ENDBRANCH  11  12
ENDBRANCH   1  11
TORSDOF 1
ENDMDL
MODEL 2
REMARK VINA RESULT:    -3.370      2.079      2.863
REMARK INTER + INTRA:          -5.262
REMARK INTER:                  -5.246
REMARK INTRA:                  -0.016
REMARK UNBOUND:                -0.119
REMARK SMILES CC1=CCC[C@H](C)C(=O)C[C@@H](C(C)C)C(=O)C1
REMARK SMILES IDX 8 1 9 2 6 3 7 4 5 5 4 6 3 7 2 8 1 9 10 11 11 12 15 13 16 14
REMARK SMILES IDX 17 15 12 17 13 18 14 19
REMARK H PARENT
REMARK Flexibility Score: 70.00
ROOT
ATOM      1  C   UNL     1      -7.033  23.477  61.845  1.00  0.00     0.136 C 
ATOM      2  O   UNL     1      -7.315  22.547  62.587  1.00  0.00    -0.299 OA
ENDROOT
BRANCH   1   3
ATOM      3  C   UNL     1      -7.760  24.799  61.982  1.00  0.00     0.053 C 
ATOM      4  C   UNL     1      -8.999  24.608  62.862  1.00  0.00     0.016 C 
BRANCH   3   5
ATOM      5  C   UNL     1      -6.849  25.901  62.572  1.00  0.00     0.015 C 
BRANCH   5   6
ATOM      6  C   UNL     1      -6.473  26.988  61.553  1.00  0.00     0.028 C 
BRANCH   6   7
ATOM      7  C   UNL     1      -5.005  27.328  61.630  1.00  0.00    -0.028 C 
ATOM      8  C   UNL     1      -4.003  26.647  61.026  1.00  0.00    -0.070 CG0
ATOM      9  C   UNL     1      -2.594  27.149  61.217  1.00  0.00     0.039 C 
ATOM     10  G   UNL     1      -4.231  25.437  60.141  1.00  0.00     0.000 G0
ENDBRANCH   6   7
ENDBRANCH   5   6
ENDBRANCH   3   5
ENDBRANCH   1   3
BRANCH   1  11
ATOM     11  C   UNL     1      -5.990  23.270  60.778  1.00  0.00     0.087 C 
BRANCH  11  12
ATOM     12  C   UNL     1      -4.566  23.141  61.379  1.00  0.00     0.066 C 
BRANCH  12  13
ATOM     13  C   UNL     1      -3.659  24.181  60.741  1.00  0.00     0.140 C 
ATOM     14  O   UNL     1      -2.446  24.034  60.796  1.00  0.00    -0.299 OA
BRANCH  13  15
ATOM     15  C   UNL     1      -4.216  25.439  60.124  1.00  0.00     0.106 CG0
ATOM     16  G   UNL     1      -4.022  26.630  61.044  1.00  0.00     0.000 G0
ENDBRANCH  13  15
ENDBRANCH  12  13
BRANCH  12  17
ATOM     17  C   UNL     1      -3.969  21.708  61.190  1.00  0.00    -0.006 C 
ATOM     18  C   UNL     1      -4.058  20.882  62.490  1.00  0.00     0.008 C 
ATOM     19  C   UNL     1      -4.677  20.925  60.066  1.00  0.00     0.008 C 
ENDBRANCH  12  17
ENDBRANCH  11  12
ENDBRANCH   1  11
TORSDOF 1
ENDMDL
MODEL 3
REMARK VINA RESULT:    -3.237     10.244     12.036
REMARK INTER + INTRA:          -5.059
REMARK INTER:                  -4.889
REMARK INTRA:                  -0.170
REMARK UNBOUND:                -0.119
REMARK SMILES CC1=CCC[C@H](C)C(=O)C[C@@H](C(C)C)C(=O)C1
REMARK SMILES IDX 8 1 9 2 6 3 7 4 5 5 4 6 3 7 2 8 1 9 10 11 11 12 15 13 16 14
REMARK SMILES IDX 17 15 12 17 13 18 14 19
REMARK H PARENT
REMARK Flexibility Score: 70.00
ROOT
ATOM      1  C   UNL     1       0.528  27.324  69.589  1.00  0.00     0.136 C 
ATOM      2  O   UNL     1      -0.525  27.620  70.136  1.00  0.00    -0.299 OA
ENDROOT
BRANCH   1   3
ATOM      3  C   UNL     1       0.542  26.278  68.493  1.00  0.00     0.053 C 
ATOM      4  C   UNL     1      -0.218  25.036  68.967  1.00  0.00     0.016 C 
BRANCH   3   5
ATOM      5  C   UNL     1      -0.072  26.812  67.178  1.00  0.00     0.015 C 
BRANCH   5   6
ATOM      6  C   UNL     1       0.979  27.144  66.108  1.00  0.00     0.028 C 
BRANCH   6   7
ATOM      7  C   UNL     1       2.176  26.232  66.213  1.00  0.00    -0.028 C 
ATOM      8  C   UNL     1       3.430  26.609  66.555  1.00  0.00    -0.070 CG0
ATOM      9  C   UNL     1       4.496  25.544  66.613  1.00  0.00     0.039 C 
ATOM     10  G   UNL     1       3.803  28.032  66.922  1.00  0.00     0.000 G0
ENDBRANCH   6   7
ENDBRANCH   5   6
ENDBRANCH   3   5
ENDBRANCH   1   3
BRANCH   1  11
ATOM     11  C   UNL     1       1.802  27.983  70.051  1.00  0.00     0.087 C 
BRANCH  11  12
ATOM     12  C   UNL     1       2.397  28.916  68.965  1.00  0.00     0.066 C 
BRANCH  12  13
ATOM     13  C   UNL     1       3.658  28.281  68.399  1.00  0.00     0.140 C 
ATOM     14  O   UNL     1       4.594  28.036  69.147  1.00  0.00    -0.299 OA
BRANCH  13  15
ATOM     15  C   UNL     1       3.818  28.032  66.921  1.00  0.00     0.106 CG0
ATOM     16  G   UNL     1       3.423  26.613  66.561  1.00  0.00     0.000 G0
ENDBRANCH  13  15
ENDBRANCH  12  13
BRANCH  12  17
ATOM     17  C   UNL     1       2.707  30.347  69.515  1.00  0.00    -0.006 C 
ATOM     18  C   UNL     1       1.563  31.332  69.200  1.00  0.00     0.008 C 
ATOM     19  C   UNL     1       2.946  30.347  71.038  1.00  0.00     0.008 C 
ENDBRANCH  12  17
ENDBRANCH  11  12
ENDBRANCH   1  11
TORSDOF 1
ENDMDL
MODEL 4
REMARK VINA RESULT:    -3.204      8.242      9.982
REMARK INTER + INTRA:          -5.009
REMARK INTER:                  -4.668
REMARK INTRA:                  -0.341
REMARK UNBOUND:                -0.119
REMARK SMILES CC1=CCC[C@H](C)C(=O)C[C@@H](C(C)C)C(=O)C1
REMARK SMILES IDX 8 1 9 2 6 3 7 4 5 5 4 6 3 7 2 8 1 9 10 11 11 12 15 13 16 14
REMARK SMILES IDX 17 15 12 17 13 18 14 19
REMARK H PARENT
REMARK Flexibility Score: 70.00
ROOT
ATOM      1  C   UNL     1       1.987  26.578  67.341  1.00  0.00     0.136 C 
ATOM      2  O   UNL     1       2.459  27.232  68.261  1.00  0.00    -0.299 OA
ENDROOT
BRANCH   1   3
ATOM      3  C   UNL     1       0.483  26.471  67.185  1.00  0.00     0.053 C 
ATOM      4  C   UNL     1      -0.119  25.880  68.463  1.00  0.00     0.016 C 
BRANCH   3   5
ATOM      5  C   UNL     1      -0.163  27.841  66.872  1.00  0.00     0.015 C 
BRANCH   5   6
ATOM      6  C   UNL     1       0.018  28.278  65.411  1.00  0.00     0.028 C 
BRANCH   6   7
ATOM      7  C   UNL     1      -0.198  27.125  64.461  1.00  0.00    -0.028 C 
ATOM      8  C   UNL     1       0.676  26.700  63.521  1.00  0.00    -0.070 CG0
ATOM      9  C   UNL     1       0.280  25.520  62.669  1.00  0.00     0.039 C 
ATOM     10  G   UNL     1       2.043  27.322  63.310  1.00  0.00     0.000 G0
ENDBRANCH   6   7
ENDBRANCH   5   6
ENDBRANCH   3   5
ENDBRANCH   1   3
BRANCH   1  11
ATOM     11  C   UNL     1       2.919  25.857  66.403  1.00  0.00     0.087 C 
BRANCH  11  12
ATOM     12  C   UNL     1       3.600  26.829  65.405  1.00  0.00     0.066 C 
BRANCH  12  13
ATOM     13  C   UNL     1       3.138  26.500  63.994  1.00  0.00     0.140 C 
ATOM     14  O   UNL     1       3.691  25.601  63.375  1.00  0.00    -0.299 OA
BRANCH  13  15
ATOM     15  C   UNL     1       2.076  27.317  63.303  1.00  0.00     0.106 CG0
ATOM     16  G   UNL     1       0.702  26.709  63.506  1.00  0.00     0.000 G0
ENDBRANCH  13  15
ENDBRANCH  12  13
BRANCH  12  17
ATOM     17  C   UNL     1       5.161  26.775  65.493  1.00  0.00    -0.006 C 
ATOM     18  C   UNL     1       5.768  28.185  65.646  1.00  0.00     0.008 C 
ATOM     19  C   UNL     1       5.648  25.905  66.669  1.00  0.00     0.008 C 
ENDBRANCH  12  17
ENDBRANCH  11  12
ENDBRANCH   1  11
TORSDOF 1
ENDMDL
MODEL 5
REMARK VINA RESULT:    -3.135      1.643      2.420
REMARK INTER + INTRA:          -4.903
REMARK INTER:                  -5.179
REMARK INTRA:                   0.276
REMARK UNBOUND:                -0.119
REMARK SMILES CC1=CCC[C@H](C)C(=O)C[C@@H](C(C)C)C(=O)C1
REMARK SMILES IDX 8 1 9 2 6 3 7 4 5 5 4 6 3 7 2 8 1 9 10 11 11 12 15 13 16 14
REMARK SMILES IDX 17 15 12 17 13 18 14 19
REMARK H PARENT
REMARK Flexibility Score: 70.00
ROOT
ATOM      1  C   UNL     1      -4.815  21.439  62.052  1.00  0.00     0.136 C 
ATOM      2  O   UNL     1      -3.924  20.906  62.698  1.00  0.00    -0.299 OA
ENDROOT
BRANCH   1   3
ATOM      3  C   UNL     1      -6.235  20.918  62.151  1.00  0.00     0.053 C 
ATOM      4  C   UNL     1      -6.517  20.486  63.593  1.00  0.00     0.016 C 
BRANCH   3   5
ATOM      5  C   UNL     1      -7.270  21.973  61.695  1.00  0.00     0.015 C 
BRANCH   5   6
ATOM      6  C   UNL     1      -7.641  22.975  62.798  1.00  0.00     0.028 C 
BRANCH   6   7
ATOM      7  C   UNL     1      -8.309  24.201  62.224  1.00  0.00    -0.028 C 
ATOM      8  C   UNL     1      -7.721  25.403  62.027  1.00  0.00    -0.070 CG0
ATOM      9  C   UNL     1      -8.557  26.509  61.432  1.00  0.00     0.039 C 
ATOM     10  G   UNL     1      -6.262  25.680  62.335  1.00  0.00     0.000 G0
ENDBRANCH   6   7
ENDBRANCH   5   6
ENDBRANCH   3   5
ENDBRANCH   1   3
BRANCH   1  11
ATOM     11  C   UNL     1      -4.469  22.584  61.136  1.00  0.00     0.087 C 
BRANCH  11  12
ATOM     12  C   UNL     1      -4.316  23.919  61.911  1.00  0.00     0.066 C 
BRANCH  12  13
ATOM     13  C   UNL     1      -5.334  24.919  61.387  1.00  0.00     0.140 C 
ATOM     14  O   UNL     1      -5.369  25.168  60.190  1.00  0.00    -0.299 OA
BRANCH  13  15
ATOM     15  C   UNL     1      -6.239  25.683  62.319  1.00  0.00     0.106 CG0
ATOM     16  G   UNL     1      -7.698  25.397  62.020  1.00  0.00     0.000 G0
ENDBRANCH  13  15
ENDBRANCH  12  13
BRANCH  12  17
ATOM     17  C   UNL     1      -2.870  24.505  61.805  1.00  0.00    -0.006 C 
ATOM     18  C   UNL     1      -1.952  23.948  62.912  1.00  0.00     0.008 C 
ATOM     19  C   UNL     1      -2.221  24.211  60.439  1.00  0.00     0.008 C 
ENDBRANCH  12  17
ENDBRANCH  11  12
ENDBRANCH   1  11
TORSDOF 1
ENDMDL
MODEL 6
REMARK VINA RESULT:    -2.937      8.396     10.728
REMARK INTER + INTRA:          -4.601
REMARK INTER:                  -4.629
REMARK INTRA:                   0.029
REMARK UNBOUND:                -0.119
REMARK SMILES CC1=CCC[C@H](C)C(=O)C[C@@H](C(C)C)C(=O)C1
REMARK SMILES IDX 8 1 9 2 6 3 7 4 5 5 4 6 3 7 2 8 1 9 10 11 11 12 15 13 16 14
REMARK SMILES IDX 17 15 12 17 13 18 14 19
REMARK H PARENT
REMARK Flexibility Score: 70.00
ROOT
ATOM      1  C   UNL     1       1.711  26.714  65.678  1.00  0.00     0.136 C 
ATOM      2  O   UNL     1       1.130  27.444  66.469  1.00  0.00    -0.299 OA
ENDROOT
BRANCH   1   3
ATOM      3  C   UNL     1       1.088  26.415  64.329  1.00  0.00     0.053 C 
ATOM      4  C   UNL     1      -0.437  26.385  64.470  1.00  0.00     0.016 C 
BRANCH   3   5
ATOM      5  C   UNL     1       1.508  27.449  63.259  1.00  0.00     0.015 C 
BRANCH   5   6
ATOM      6  C   UNL     1       2.372  26.849  62.140  1.00  0.00     0.028 C 
BRANCH   6   7
ATOM      7  C   UNL     1       2.208  25.350  62.064  1.00  0.00    -0.028 C 
ATOM      8  C   UNL     1       3.152  24.435  62.384  1.00  0.00    -0.070 CG0
ATOM      9  C   UNL     1       2.795  22.976  62.250  1.00  0.00     0.039 C 
ATOM     10  G   UNL     1       4.527  24.801  62.907  1.00  0.00     0.000 G0
ENDBRANCH   6   7
ENDBRANCH   5   6
ENDBRANCH   3   5
ENDBRANCH   1   3
BRANCH   1  11
ATOM     11  C   UNL     1       3.021  26.092  66.085  1.00  0.00     0.087 C 
BRANCH  11  12
ATOM     12  C   UNL     1       4.126  26.326  65.022  1.00  0.00     0.066 C 
BRANCH  12  13
ATOM     13  C   UNL     1       4.517  24.992  64.406  1.00  0.00     0.140 C 
ATOM     14  O   UNL     1       4.907  24.087  65.132  1.00  0.00    -0.299 OA
BRANCH  13  15
ATOM     15  C   UNL     1       4.524  24.786  62.913  1.00  0.00     0.106 CG0
ATOM     16  G   UNL     1       3.143  24.416  62.407  1.00  0.00     0.000 G0
ENDBRANCH  13  15
ENDBRANCH  12  13
BRANCH  12  17
ATOM     17  C   UNL     1       5.384  27.039  65.619  1.00  0.00    -0.006 C 
ATOM     18  C   UNL     1       5.850  28.206  64.724  1.00  0.00     0.008 C 
ATOM     19  C   UNL     1       5.125  27.587  67.037  1.00  0.00     0.008 C 
ENDBRANCH  12  17
ENDBRANCH  11  12
ENDBRANCH   1  11
TORSDOF 1
ENDMDL
MODEL 7
REMARK VINA RESULT:    -2.929     17.026     18.763
REMARK INTER + INTRA:          -4.589
REMARK INTER:                  -4.500
REMARK INTRA:                  -0.089
REMARK UNBOUND:                -0.119
REMARK SMILES CC1=CCC[C@H](C)C(=O)C[C@@H](C(C)C)C(=O)C1
REMARK SMILES IDX 8 1 9 2 6 3 7 4 5 5 4 6 3 7 2 8 1 9 10 11 11 12 15 13 16 14
REMARK SMILES IDX 17 15 12 17 13 18 14 19
REMARK H PARENT
REMARK Flexibility Score: 70.00
ROOT
ATOM      1  C   UNL     1       7.928  32.510  63.521  1.00  0.00     0.136 C 
ATOM      2  O   UNL     1       8.272  31.863  62.542  1.00  0.00    -0.299 OA
ENDROOT
BRANCH   1   3
ATOM      3  C   UNL     1       8.850  32.612  64.719  1.00  0.00     0.053 C 
ATOM      4  C   UNL     1       9.045  31.220  65.329  1.00  0.00     0.016 C 
BRANCH   3   5
ATOM      5  C   UNL     1      10.218  33.229  64.346  1.00  0.00     0.015 C 
BRANCH   5   6
ATOM      6  C   UNL     1      10.181  34.760  64.228  1.00  0.00     0.028 C 
BRANCH   6   7
ATOM      7  C   UNL     1       9.623  35.394  65.480  1.00  0.00    -0.028 C 
ATOM      8  C   UNL     1       8.544  36.208  65.540  1.00  0.00    -0.070 CG0
ATOM      9  C   UNL     1       8.134  36.738  66.891  1.00  0.00     0.039 C 
ATOM     10  G   UNL     1       7.708  36.577  64.330  1.00  0.00     0.000 G0
ENDBRANCH   6   7
ENDBRANCH   5   6
ENDBRANCH   3   5
ENDBRANCH   1   3
BRANCH   1  11
ATOM     11  C   UNL     1       6.571  33.162  63.526  1.00  0.00     0.087 C 
BRANCH  11  12
ATOM     12  C   UNL     1       6.617  34.599  62.945  1.00  0.00     0.066 C 
BRANCH  12  13
ATOM     13  C   UNL     1       6.577  35.601  64.087  1.00  0.00     0.140 C 
ATOM     14  O   UNL     1       5.577  35.671  64.790  1.00  0.00    -0.299 OA
BRANCH  13  15
ATOM     15  C   UNL     1       7.702  36.577  64.319  1.00  0.00     0.106 CG0
ATOM     16  G   UNL     1       8.525  36.183  65.530  1.00  0.00     0.000 G0
ENDBRANCH  13  15
ENDBRANCH  12  13
BRANCH  12  17
ATOM     17  C   UNL     1       5.450  34.871  61.940  1.00  0.00    -0.006 C 
ATOM     18  C   UNL     1       5.271  36.381  61.677  1.00  0.00     0.008 C 
ATOM     19  C   UNL     1       5.668  34.164  60.587  1.00  0.00     0.008 C 
ENDBRANCH  12  17
ENDBRANCH  11  12
ENDBRANCH   1  11
TORSDOF 1
ENDMDL
MODEL 8
REMARK VINA RESULT:    -2.915      7.218      9.189
REMARK INTER + INTRA:          -4.568
REMARK INTER:                  -4.361
REMARK INTRA:                  -0.206
REMARK UNBOUND:                -0.119
REMARK SMILES CC1=CCC[C@H](C)C(=O)C[C@@H](C(C)C)C(=O)C1
REMARK SMILES IDX 8 1 9 2 6 3 7 4 5 5 4 6 3 7 2 8 1 9 10 11 11 12 15 13 16 14
REMARK SMILES IDX 17 15 12 17 13 18 14 19
REMARK H PARENT
REMARK Flexibility Score: 70.00
ROOT
ATOM      1  C   UNL     1       1.679  24.873  62.133  1.00  0.00     0.136 C 
ATOM      2  O   UNL     1       1.676  23.657  62.006  1.00  0.00    -0.299 OA
ENDROOT
BRANCH   1   3
ATOM      3  C   UNL     1       0.406  25.659  61.897  1.00  0.00     0.053 C 
ATOM      4  C   UNL     1       0.015  25.561  60.419  1.00  0.00     0.016 C 
BRANCH   3   5
ATOM      5  C   UNL     1      -0.754  25.163  62.791  1.00  0.00     0.015 C 
BRANCH   5   6
ATOM      6  C   UNL     1      -0.770  25.814  64.182  1.00  0.00     0.028 C 
BRANCH   6   7
ATOM      7  C   UNL     1      -0.498  27.296  64.098  1.00  0.00    -0.028 C 
ATOM      8  C   UNL     1       0.559  27.939  64.645  1.00  0.00    -0.070 CG0
ATOM      9  C   UNL     1       0.661  29.430  64.444  1.00  0.00     0.039 C 
ATOM     10  G   UNL     1       1.661  27.232  65.410  1.00  0.00     0.000 G0
ENDBRANCH   6   7
ENDBRANCH   5   6
ENDBRANCH   3   5
ENDBRANCH   1   3
BRANCH   1  11
ATOM     11  C   UNL     1       2.968  25.568  62.485  1.00  0.00     0.087 C 
BRANCH  11  12
ATOM     12  C   UNL     1       3.206  25.605  64.017  1.00  0.00     0.066 C 
BRANCH  12  13
ATOM     13  C   UNL     1       2.875  26.994  64.540  1.00  0.00     0.140 C 
ATOM     14  O   UNL     1       3.637  27.922  64.304  1.00  0.00    -0.299 OA
BRANCH  13  15
ATOM     15  C   UNL     1       1.678  27.238  65.424  1.00  0.00     0.106 CG0
ATOM     16  G   UNL     1       0.562  27.916  64.654  1.00  0.00     0.000 G0
ENDBRANCH  13  15
ENDBRANCH  12  13
BRANCH  12  17
ATOM     17  C   UNL     1       4.670  25.212  64.401  1.00  0.00    -0.006 C 
ATOM     18  C   UNL     1       4.716  24.430  65.730  1.00  0.00     0.008 C 
ATOM     19  C   UNL     1       5.350  24.360  63.311  1.00  0.00     0.008 C 
ENDBRANCH  12  17
ENDBRANCH  11  12
ENDBRANCH   1  11
TORSDOF 1
ENDMDL
MODEL 9
REMARK VINA RESULT:    -2.808     10.898     11.829
REMARK INTER + INTRA:          -4.403
REMARK INTER:                  -4.156
REMARK INTRA:                  -0.247
REMARK UNBOUND:                -0.119
REMARK SMILES CC1=CCC[C@H](C)C(=O)C[C@@H](C(C)C)C(=O)C1
REMARK SMILES IDX 8 1 9 2 6 3 7 4 5 5 4 6 3 7 2 8 1 9 10 11 11 12 15 13 16 14
REMARK SMILES IDX 17 15 12 17 13 18 14 19
REMARK H PARENT
REMARK Flexibility Score: 70.00
ROOT
ATOM      1  C   UNL     1       1.584  27.892  69.610  1.00  0.00     0.136 C 
ATOM      2  O   UNL     1       2.368  27.409  70.415  1.00  0.00    -0.299 OA
ENDROOT
BRANCH   1   3
ATOM      3  C   UNL     1       0.498  28.835  70.086  1.00  0.00     0.053 C 
ATOM      4  C   UNL     1      -0.424  28.096  71.061  1.00  0.00     0.016 C 
BRANCH   3   5
ATOM      5  C   UNL     1       1.084  30.099  70.757  1.00  0.00     0.015 C 
BRANCH   5   6
ATOM      6  C   UNL     1       1.630  31.123  69.751  1.00  0.00     0.028 C 
BRANCH   6   7
ATOM      7  C   UNL     1       0.666  31.340  68.611  1.00  0.00    -0.028 C 
ATOM      8  C   UNL     1       0.948  31.184  67.296  1.00  0.00    -0.070 CG0
ATOM      9  C   UNL     1      -0.156  31.442  66.302  1.00  0.00     0.039 C 
ATOM     10  G   UNL     1       2.298  30.725  66.780  1.00  0.00     0.000 G0
ENDBRANCH   6   7
ENDBRANCH   5   6
ENDBRANCH   3   5
ENDBRANCH   1   3
BRANCH   1  11
ATOM     11  C   UNL     1       1.695  27.503  68.159  1.00  0.00     0.087 C 
BRANCH  11  12
ATOM     12  C   UNL     1       2.868  28.231  67.453  1.00  0.00     0.066 C 
BRANCH  12  13
ATOM     13  C   UNL     1       2.305  29.244  66.468  1.00  0.00     0.140 C 
ATOM     14  O   UNL     1       1.920  28.864  65.371  1.00  0.00    -0.299 OA
BRANCH  13  15
ATOM     15  C   UNL     1       2.297  30.720  66.774  1.00  0.00     0.106 CG0
ATOM     16  G   UNL     1       0.943  31.162  67.295  1.00  0.00     0.000 G0
ENDBRANCH  13  15
ENDBRANCH  12  13
BRANCH  12  17
ATOM     17  C   UNL     1       3.831  27.239  66.724  1.00  0.00    -0.006 C 
ATOM     18  C   UNL     1       5.115  26.992  67.543  1.00  0.00     0.008 C 
ATOM     19  C   UNL     1       3.163  25.878  66.443  1.00  0.00     0.008 C 
ENDBRANCH  12  17
ENDBRANCH  11  12
ENDBRANCH   1  11
TORSDOF 1
ENDMDL
