MODEL 1
REMARK VINA RESULT:    -3.475      0.000      0.000
REMARK INTER + INTRA:          -8.581
REMARK INTER:                  -6.319
REMARK INTRA:                  -2.262
REMARK UNBOUND:                -2.262
REMARK SMILES CCCCCCCCCCCCCC[C@@H](C)C(=O)[O-]
REMARK SMILES IDX 9 1 10 2 11 3 12 4 13 5 14 6 15 7 16 8 17 9 18 10 19 11 8 12
REMARK SMILES IDX 7 13 6 14 5 15 4 16 3 17 2 18 1 19
REMARK H PARENT
REMARK Flexibility Score: inf
ROOT
ATOM      1  C   UNL     1      44.801  27.943  91.777  1.00  0.00     0.000 C 
ENDROOT
BRANCH   1   2
ATOM      2  C   UNL     1      44.231  29.130  92.565  1.00  0.00     0.000 C 
BRANCH   2   3
ATOM      3  C   UNL     1      43.526  30.123  91.629  1.00  0.00     0.000 C 
BRANCH   3   4
ATOM      4  C   UNL     1      42.790  29.429  90.471  1.00  0.00     0.000 C 
BRANCH   4   5
ATOM      5  C   UNL     1      43.367  29.805  89.095  1.00  0.00     0.001 C 
BRANCH   5   6
ATOM      6  C   UNL     1      42.737  31.086  88.515  1.00  0.00     0.009 C 
BRANCH   6   7
ATOM      7  C   UNL     1      41.750  30.838  87.351  1.00  0.00     0.032 C 
ATOM      8  C   UNL     1      42.379  29.905  86.311  1.00  0.00     0.014 C 
BRANCH   7   9
ATOM      9  C   UNL     1      40.456  30.249  87.842  1.00  0.00     0.044 C 
ATOM     10  O   UNL     1      39.677  30.938  88.553  1.00  0.00    -0.550 OA
ATOM     11  O   UNL     1      40.112  28.941  87.520  1.00  0.00    -0.550 OA
ENDBRANCH   7   9
ENDBRANCH   6   7
ENDBRANCH   5   6
ENDBRANCH   4   5
ENDBRANCH   3   4
ENDBRANCH   2   3
ENDBRANCH   1   2
BRANCH   1  12
ATOM     12  C   UNL     1      46.327  28.047  91.651  1.00  0.00     0.000 C 
BRANCH  12  13
ATOM     13  C   UNL     1      46.781  28.555  90.273  1.00  0.00    -0.000 C 
BRANCH  13  14
ATOM     14  C   UNL     1      47.711  29.785  90.341  1.00  0.00    -0.000 C 
BRANCH  14  15
ATOM     15  C   UNL     1      46.926  31.102  90.481  1.00  0.00    -0.000 C 
BRANCH  15  16
ATOM     16  C   UNL     1      46.431  31.635  89.119  1.00  0.00    -0.000 C 
BRANCH  16  17
ATOM     17  C   UNL     1      47.567  31.968  88.136  1.00  0.00    -0.000 C 
BRANCH  17  18
ATOM     18  C   UNL     1      47.553  31.078  86.886  1.00  0.00    -0.003 C 
ATOM     19  C   UNL     1      46.344  30.146  86.888  1.00  0.00     0.004 C 
ENDBRANCH  17  18
ENDBRANCH  16  17
ENDBRANCH  15  16
ENDBRANCH  14  15
ENDBRANCH  13  14
ENDBRANCH  12  13
ENDBRANCH   1  12
TORSDOF 14
ENDMDL
MODEL 2
REMARK VINA RESULT:    -3.397      2.723      5.894
REMARK INTER + INTRA:          -8.439
REMARK INTER:                  -6.113
REMARK INTRA:                  -2.326
REMARK UNBOUND:                -2.262
REMARK SMILES CCCCCCCCCCCCCC[C@@H](C)C(=O)[O-]
REMARK SMILES IDX 9 1 10 2 11 3 12 4 13 5 14 6 15 7 16 8 17 9 18 10 19 11 8 12
REMARK SMILES IDX 7 13 6 14 5 15 4 16 3 17 2 18 1 19
REMARK H PARENT
REMARK Flexibility Score: inf
ROOT
ATOM      1  C   UNL     1      42.841  28.629  90.001  1.00  0.00     0.000 C 
ENDROOT
BRANCH   1   2
ATOM      2  C   UNL     1      42.584  29.680  91.089  1.00  0.00     0.000 C 
BRANCH   2   3
ATOM      3  C   UNL     1      43.625  29.572  92.213  1.00  0.00     0.000 C 
BRANCH   3   4
ATOM      4  C   UNL     1      44.282  30.921  92.547  1.00  0.00     0.000 C 
BRANCH   4   5
ATOM      5  C   UNL     1      44.958  31.567  91.325  1.00  0.00     0.001 C 
BRANCH   5   6
ATOM      6  C   UNL     1      46.101  30.706  90.753  1.00  0.00     0.009 C 
BRANCH   6   7
ATOM      7  C   UNL     1      46.235  30.768  89.214  1.00  0.00     0.032 C 
ATOM      8  C   UNL     1      47.158  31.922  88.806  1.00  0.00     0.014 C 
BRANCH   7   9
ATOM      9  C   UNL     1      46.763  29.476  88.654  1.00  0.00     0.044 C 
ATOM     10  O   UNL     1      46.355  28.376  89.110  1.00  0.00    -0.550 OA
ATOM     11  O   UNL     1      47.708  29.486  87.634  1.00  0.00    -0.550 OA
ENDBRANCH   7   9
ENDBRANCH   6   7
ENDBRANCH   5   6
ENDBRANCH   4   5
ENDBRANCH   3   4
ENDBRANCH   2   3
ENDBRANCH   1   2
BRANCH   1  12
ATOM     12  C   UNL     1      43.040  29.293  88.631  1.00  0.00     0.000 C 
BRANCH  12  13
ATOM     13  C   UNL     1      42.591  30.764  88.609  1.00  0.00    -0.000 C 
BRANCH  13  14
ATOM     14  C   UNL     1      41.375  31.027  87.695  1.00  0.00    -0.000 C 
BRANCH  14  15
ATOM     15  C   UNL     1      40.040  30.875  88.445  1.00  0.00    -0.000 C 
BRANCH  15  16
ATOM     16  C   UNL     1      39.133  29.798  87.812  1.00  0.00    -0.000 C 
BRANCH  16  17
ATOM     17  C   UNL     1      39.436  28.371  88.299  1.00  0.00    -0.000 C 
BRANCH  17  18
ATOM     18  C   UNL     1      40.126  27.511  87.231  1.00  0.00    -0.003 C 
ATOM     19  C   UNL     1      39.639  27.877  85.831  1.00  0.00     0.004 C 
ENDBRANCH  17  18
ENDBRANCH  16  17
ENDBRANCH  15  16
ENDBRANCH  14  15
ENDBRANCH  13  14
ENDBRANCH  12  13
ENDBRANCH   1  12
TORSDOF 14
ENDMDL
MODEL 3
REMARK VINA RESULT:    -3.372      3.454      5.850
REMARK INTER + INTRA:          -8.394
REMARK INTER:                  -5.796
REMARK INTRA:                  -2.598
REMARK UNBOUND:                -2.262
REMARK SMILES CCCCCCCCCCCCCC[C@@H](C)C(=O)[O-]
REMARK SMILES IDX 9 1 10 2 11 3 12 4 13 5 14 6 15 7 16 8 17 9 18 10 19 11 8 12
REMARK SMILES IDX 7 13 6 14 5 15 4 16 3 17 2 18 1 19
REMARK H PARENT
REMARK Flexibility Score: inf
ROOT
ATOM      1  C   UNL     1      42.912  28.786  90.334  1.00  0.00     0.000 C 
ENDROOT
BRANCH   1   2
ATOM      2  C   UNL     1      42.994  29.814  91.470  1.00  0.00     0.000 C 
BRANCH   2   3
ATOM      3  C   UNL     1      44.123  30.823  91.216  1.00  0.00     0.000 C 
BRANCH   3   4
ATOM      4  C   UNL     1      44.242  31.222  89.735  1.00  0.00     0.000 C 
BRANCH   4   5
ATOM      5  C   UNL     1      45.704  31.289  89.258  1.00  0.00     0.001 C 
BRANCH   5   6
ATOM      6  C   UNL     1      46.715  31.129  90.410  1.00  0.00     0.009 C 
BRANCH   6   7
ATOM      7  C   UNL     1      47.599  29.865  90.310  1.00  0.00     0.032 C 
ATOM      8  C   UNL     1      46.816  28.719  89.661  1.00  0.00     0.014 C 
BRANCH   7   9
ATOM      9  C   UNL     1      48.852  30.130  89.522  1.00  0.00     0.044 C 
ATOM     10  O   UNL     1      49.478  31.212  89.675  1.00  0.00    -0.550 OA
ATOM     11  O   UNL     1      49.327  29.187  88.617  1.00  0.00    -0.550 OA
ENDBRANCH   7   9
ENDBRANCH   6   7
ENDBRANCH   5   6
ENDBRANCH   4   5
ENDBRANCH   3   4
ENDBRANCH   2   3
ENDBRANCH   1   2
BRANCH   1  12
ATOM     12  C   UNL     1      41.457  28.566  89.894  1.00  0.00     0.000 C 
BRANCH  12  13
ATOM     13  C   UNL     1      40.670  29.879  89.754  1.00  0.00    -0.000 C 
BRANCH  13  14
ATOM     14  C   UNL     1      40.276  30.212  88.299  1.00  0.00    -0.000 C 
BRANCH  14  15
ATOM     15  C   UNL     1      41.238  31.225  87.653  1.00  0.00    -0.000 C 
BRANCH  15  16
ATOM     16  C   UNL     1      42.246  30.548  86.700  1.00  0.00    -0.000 C 
BRANCH  16  17
ATOM     17  C   UNL     1      41.802  29.157  86.217  1.00  0.00    -0.000 C 
BRANCH  17  18
ATOM     18  C   UNL     1      42.870  28.078  86.442  1.00  0.00    -0.003 C 
ATOM     19  C   UNL     1      44.196  28.699  86.875  1.00  0.00     0.004 C 
ENDBRANCH  17  18
ENDBRANCH  16  17
ENDBRANCH  15  16
ENDBRANCH  14  15
ENDBRANCH  13  14
ENDBRANCH  12  13
ENDBRANCH   1  12
TORSDOF 14
ENDMDL
MODEL 4
REMARK VINA RESULT:    -3.361      1.947      3.925
REMARK INTER + INTRA:          -8.373
REMARK INTER:                  -5.992
REMARK INTRA:                  -2.381
REMARK UNBOUND:                -2.262
REMARK SMILES CCCCCCCCCCCCCC[C@@H](C)C(=O)[O-]
REMARK SMILES IDX 9 1 10 2 11 3 12 4 13 5 14 6 15 7 16 8 17 9 18 10 19 11 8 12
REMARK SMILES IDX 7 13 6 14 5 15 4 16 3 17 2 18 1 19
REMARK H PARENT
REMARK Flexibility Score: inf
ROOT
ATOM      1  C   UNL     1      43.870  28.843  88.258  1.00  0.00     0.000 C 
ENDROOT
BRANCH   1   2
ATOM      2  C   UNL     1      43.978  30.268  87.698  1.00  0.00     0.000 C 
BRANCH   2   3
ATOM      3  C   UNL     1      42.842  31.154  88.231  1.00  0.00     0.000 C 
BRANCH   3   4
ATOM      4  C   UNL     1      41.524  30.956  87.466  1.00  0.00     0.000 C 
BRANCH   4   5
ATOM      5  C   UNL     1      40.324  30.737  88.405  1.00  0.00     0.001 C 
BRANCH   5   6
ATOM      6  C   UNL     1      40.208  29.281  88.895  1.00  0.00     0.009 C 
BRANCH   6   7
ATOM      7  C   UNL     1      39.336  28.375  87.996  1.00  0.00     0.032 C 
ATOM      8  C   UNL     1      38.180  29.179  87.392  1.00  0.00     0.014 C 
BRANCH   7   9
ATOM      9  C   UNL     1      40.147  27.750  86.893  1.00  0.00     0.044 C 
ATOM     10  O   UNL     1      39.917  28.050  85.692  1.00  0.00    -0.550 OA
ATOM     11  O   UNL     1      41.149  26.833  87.190  1.00  0.00    -0.550 OA
ENDBRANCH   7   9
ENDBRANCH   6   7
ENDBRANCH   5   6
ENDBRANCH   4   5
ENDBRANCH   3   4
ENDBRANCH   2   3
ENDBRANCH   1   2
BRANCH   1  12
ATOM     12  C   UNL     1      45.156  28.442  88.994  1.00  0.00     0.000 C 
BRANCH  12  13
ATOM     13  C   UNL     1      46.177  29.590  89.082  1.00  0.00    -0.000 C 
BRANCH  13  14
ATOM     14  C   UNL     1      46.348  30.157  90.507  1.00  0.00    -0.000 C 
BRANCH  14  15
ATOM     15  C   UNL     1      45.591  31.483  90.701  1.00  0.00    -0.000 C 
BRANCH  15  16
ATOM     16  C   UNL     1      44.746  31.492  91.993  1.00  0.00    -0.000 C 
BRANCH  16  17
ATOM     17  C   UNL     1      44.198  30.109  92.383  1.00  0.00    -0.000 C 
BRANCH  17  18
ATOM     18  C   UNL     1      42.908  29.747  91.634  1.00  0.00    -0.003 C 
ATOM     19  C   UNL     1      42.623  28.250  91.722  1.00  0.00     0.004 C 
ENDBRANCH  17  18
ENDBRANCH  16  17
ENDBRANCH  15  16
ENDBRANCH  14  15
ENDBRANCH  13  14
ENDBRANCH  12  13
ENDBRANCH   1  12
TORSDOF 14
ENDMDL
MODEL 5
REMARK VINA RESULT:    -3.347      1.899      3.814
REMARK INTER + INTRA:          -8.348
REMARK INTER:                  -5.938
REMARK INTRA:                  -2.411
REMARK UNBOUND:                -2.262
REMARK SMILES CCCCCCCCCCCCCC[C@@H](C)C(=O)[O-]
REMARK SMILES IDX 9 1 10 2 11 3 12 4 13 5 14 6 15 7 16 8 17 9 18 10 19 11 8 12
REMARK SMILES IDX 7 13 6 14 5 15 4 16 3 17 2 18 1 19
REMARK H PARENT
REMARK Flexibility Score: inf
ROOT
ATOM      1  C   UNL     1      40.615  27.416  90.064  1.00  0.00     0.000 C 
ENDROOT
BRANCH   1   2
ATOM      2  C   UNL     1      39.957  28.469  89.163  1.00  0.00     0.000 C 
BRANCH   2   3
ATOM      3  C   UNL     1      40.577  29.855  89.398  1.00  0.00     0.000 C 
BRANCH   3   4
ATOM      4  C   UNL     1      40.357  30.813  88.216  1.00  0.00     0.000 C 
BRANCH   4   5
ATOM      5  C   UNL     1      41.672  31.197  87.515  1.00  0.00     0.001 C 
BRANCH   5   6
ATOM      6  C   UNL     1      42.914  30.624  88.224  1.00  0.00     0.009 C 
BRANCH   6   7
ATOM      7  C   UNL     1      43.826  29.768  87.315  1.00  0.00     0.032 C 
ATOM      8  C   UNL     1      44.674  28.812  88.161  1.00  0.00     0.014 C 
BRANCH   7   9
ATOM      9  C   UNL     1      43.024  28.981  86.315  1.00  0.00     0.044 C 
ATOM     10  O   UNL     1      43.034  29.308  85.099  1.00  0.00    -0.550 OA
ATOM     11  O   UNL     1      42.263  27.891  86.724  1.00  0.00    -0.550 OA
ENDBRANCH   7   9
ENDBRANCH   6   7
ENDBRANCH   5   6
ENDBRANCH   4   5
ENDBRANCH   3   4
ENDBRANCH   2   3
ENDBRANCH   1   2
BRANCH   1  12
ATOM     12  C   UNL     1      42.072  27.787  90.373  1.00  0.00     0.000 C 
BRANCH  12  13
ATOM     13  C   UNL     1      42.444  27.570  91.850  1.00  0.00    -0.000 C 
BRANCH  13  14
ATOM     14  C   UNL     1      43.451  28.605  92.394  1.00  0.00    -0.000 C 
BRANCH  14  15
ATOM     15  C   UNL     1      43.206  30.012  91.821  1.00  0.00    -0.000 C 
BRANCH  15  16
ATOM     16  C   UNL     1      44.436  30.932  91.983  1.00  0.00    -0.000 C 
BRANCH  16  17
ATOM     17  C   UNL     1      45.661  30.473  91.174  1.00  0.00    -0.000 C 
BRANCH  17  18
ATOM     18  C   UNL     1      46.160  31.541  90.191  1.00  0.00    -0.003 C 
ATOM     19  C   UNL     1      47.489  31.130  89.560  1.00  0.00     0.004 C 
ENDBRANCH  17  18
ENDBRANCH  16  17
ENDBRANCH  15  16
ENDBRANCH  14  15
ENDBRANCH  13  14
ENDBRANCH  12  13
ENDBRANCH   1  12
TORSDOF 14
ENDMDL
MODEL 6
REMARK VINA RESULT:    -3.341      3.016      5.449
REMARK INTER + INTRA:          -8.336
REMARK INTER:                  -5.772
REMARK INTRA:                  -2.564
REMARK UNBOUND:                -2.262
REMARK SMILES CCCCCCCCCCCCCC[C@@H](C)C(=O)[O-]
REMARK SMILES IDX 9 1 10 2 11 3 12 4 13 5 14 6 15 7 16 8 17 9 18 10 19 11 8 12
REMARK SMILES IDX 7 13 6 14 5 15 4 16 3 17 2 18 1 19
REMARK H PARENT
REMARK Flexibility Score: inf
ROOT
ATOM      1  C   UNL     1      41.183  27.367  90.284  1.00  0.00     0.000 C 
ENDROOT
BRANCH   1   2
ATOM      2  C   UNL     1      42.625  27.870  90.138  1.00  0.00     0.000 C 
BRANCH   2   3
ATOM      3  C   UNL     1      43.432  27.601  91.417  1.00  0.00     0.000 C 
BRANCH   3   4
ATOM      4  C   UNL     1      43.227  28.684  92.489  1.00  0.00     0.000 C 
BRANCH   4   5
ATOM      5  C   UNL     1      43.887  30.022  92.110  1.00  0.00     0.001 C 
BRANCH   5   6
ATOM      6  C   UNL     1      45.297  29.843  91.515  1.00  0.00     0.009 C 
BRANCH   6   7
ATOM      7  C   UNL     1      45.450  30.370  90.071  1.00  0.00     0.032 C 
ATOM      8  C   UNL     1      44.320  31.352  89.740  1.00  0.00     0.014 C 
BRANCH   7   9
ATOM      9  C   UNL     1      46.780  31.044  89.867  1.00  0.00     0.044 C 
ATOM     10  O   UNL     1      46.877  32.031  89.092  1.00  0.00    -0.550 OA
ATOM     11  O   UNL     1      47.911  30.579  90.529  1.00  0.00    -0.550 OA
ENDBRANCH   7   9
ENDBRANCH   6   7
ENDBRANCH   5   6
ENDBRANCH   4   5
ENDBRANCH   3   4
ENDBRANCH   2   3
ENDBRANCH   1   2
BRANCH   1  12
ATOM     12  C   UNL     1      40.180  28.409  89.769  1.00  0.00     0.000 C 
BRANCH  12  13
ATOM     13  C   UNL     1      40.793  29.814  89.638  1.00  0.00    -0.000 C 
BRANCH  13  14
ATOM     14  C   UNL     1      40.349  30.567  88.366  1.00  0.00    -0.000 C 
BRANCH  14  15
ATOM     15  C   UNL     1      41.544  31.108  87.562  1.00  0.00    -0.000 C 
BRANCH  15  16
ATOM     16  C   UNL     1      42.012  30.118  86.473  1.00  0.00    -0.000 C 
BRANCH  16  17
ATOM     17  C   UNL     1      43.262  29.312  86.866  1.00  0.00    -0.000 C 
BRANCH  17  18
ATOM     18  C   UNL     1      43.146  27.823  86.512  1.00  0.00    -0.003 C 
ATOM     19  C   UNL     1      41.688  27.370  86.513  1.00  0.00     0.004 C 
ENDBRANCH  17  18
ENDBRANCH  16  17
ENDBRANCH  15  16
ENDBRANCH  14  15
ENDBRANCH  13  14
ENDBRANCH  12  13
ENDBRANCH   1  12
TORSDOF 14
ENDMDL
MODEL 7
REMARK VINA RESULT:    -3.330      1.483      2.413
REMARK INTER + INTRA:          -8.318
REMARK INTER:                  -5.964
REMARK INTRA:                  -2.353
REMARK UNBOUND:                -2.262
REMARK SMILES CCCCCCCCCCCCCC[C@@H](C)C(=O)[O-]
REMARK SMILES IDX 9 1 10 2 11 3 12 4 13 5 14 6 15 7 16 8 17 9 18 10 19 11 8 12
REMARK SMILES IDX 7 13 6 14 5 15 4 16 3 17 2 18 1 19
REMARK H PARENT
REMARK Flexibility Score: inf
ROOT
ATOM      1  C   UNL     1      45.506  27.531  91.008  1.00  0.00     0.000 C 
ENDROOT
BRANCH   1   2
ATOM      2  C   UNL     1      44.086  26.949  91.048  1.00  0.00     0.000 C 
BRANCH   2   3
ATOM      3  C   UNL     1      43.498  26.840  89.633  1.00  0.00     0.000 C 
BRANCH   3   4
ATOM      4  C   UNL     1      42.916  28.170  89.127  1.00  0.00     0.000 C 
BRANCH   4   5
ATOM      5  C   UNL     1      41.480  28.413  89.624  1.00  0.00     0.001 C 
BRANCH   5   6
ATOM      6  C   UNL     1      41.117  29.910  89.688  1.00  0.00     0.009 C 
BRANCH   6   7
ATOM      7  C   UNL     1      40.432  30.453  88.414  1.00  0.00     0.032 C 
ATOM      8  C   UNL     1      41.452  31.181  87.531  1.00  0.00     0.014 C 
BRANCH   7   9
ATOM      9  C   UNL     1      39.779  29.350  87.626  1.00  0.00     0.044 C 
ATOM     10  O   UNL     1      38.606  28.985  87.904  1.00  0.00    -0.550 OA
ATOM     11  O   UNL     1      40.465  28.724  86.591  1.00  0.00    -0.550 OA
ENDBRANCH   7   9
ENDBRANCH   6   7
ENDBRANCH   5   6
ENDBRANCH   4   5
ENDBRANCH   3   4
ENDBRANCH   2   3
ENDBRANCH   1   2
BRANCH   1  12
ATOM     12  C   UNL     1      45.615  28.778  91.896  1.00  0.00     0.000 C 
BRANCH  12  13
ATOM     13  C   UNL     1      44.246  29.305  92.358  1.00  0.00    -0.000 C 
BRANCH  13  14
ATOM     14  C   UNL     1      44.107  30.839  92.260  1.00  0.00    -0.000 C 
BRANCH  14  15
ATOM     15  C   UNL     1      45.053  31.443  91.207  1.00  0.00    -0.000 C 
BRANCH  15  16
ATOM     16  C   UNL     1      44.402  31.516  89.809  1.00  0.00    -0.000 C 
BRANCH  16  17
ATOM     17  C   UNL     1      45.250  30.873  88.698  1.00  0.00    -0.000 C 
BRANCH  17  18
ATOM     18  C   UNL     1      46.748  30.847  89.032  1.00  0.00    -0.003 C 
ATOM     19  C   UNL     1      47.475  32.027  88.392  1.00  0.00     0.004 C 
ENDBRANCH  17  18
ENDBRANCH  16  17
ENDBRANCH  15  16
ENDBRANCH  14  15
ENDBRANCH  13  14
ENDBRANCH  12  13
ENDBRANCH   1  12
TORSDOF 14
ENDMDL
MODEL 8
REMARK VINA RESULT:    -3.306      2.236      4.523
REMARK INTER + INTRA:          -8.274
REMARK INTER:                  -5.675
REMARK INTRA:                  -2.599
REMARK UNBOUND:                -2.262
REMARK SMILES CCCCCCCCCCCCCC[C@@H](C)C(=O)[O-]
REMARK SMILES IDX 9 1 10 2 11 3 12 4 13 5 14 6 15 7 16 8 17 9 18 10 19 11 8 12
REMARK SMILES IDX 7 13 6 14 5 15 4 16 3 17 2 18 1 19
REMARK H PARENT
REMARK Flexibility Score: inf
ROOT
ATOM      1  C   UNL     1      43.530  30.088  87.764  1.00  0.00     0.000 C 
ENDROOT
BRANCH   1   2
ATOM      2  C   UNL     1      42.233  30.213  86.953  1.00  0.00     0.000 C 
BRANCH   2   3
ATOM      3  C   UNL     1      41.339  31.328  87.517  1.00  0.00     0.000 C 
BRANCH   3   4
ATOM      4  C   UNL     1      40.112  30.785  88.267  1.00  0.00     0.000 C 
BRANCH   4   5
ATOM      5  C   UNL     1      39.984  29.255  88.158  1.00  0.00     0.001 C 
BRANCH   5   6
ATOM      6  C   UNL     1      40.123  28.547  89.520  1.00  0.00     0.009 C 
BRANCH   6   7
ATOM      7  C   UNL     1      41.432  27.742  89.687  1.00  0.00     0.032 C 
ATOM      8  C   UNL     1      41.517  27.151  91.098  1.00  0.00     0.014 C 
BRANCH   7   9
ATOM      9  C   UNL     1      41.533  26.637  88.670  1.00  0.00     0.044 C 
ATOM     10  O   UNL     1      42.376  26.712  87.738  1.00  0.00    -0.550 OA
ATOM     11  O   UNL     1      40.695  25.531  88.748  1.00  0.00    -0.550 OA
ENDBRANCH   7   9
ENDBRANCH   6   7
ENDBRANCH   5   6
ENDBRANCH   4   5
ENDBRANCH   3   4
ENDBRANCH   2   3
ENDBRANCH   1   2
BRANCH   1  12
ATOM     12  C   UNL     1      43.673  31.250  88.757  1.00  0.00     0.000 C 
BRANCH  12  13
ATOM     13  C   UNL     1      45.051  31.285  89.441  1.00  0.00    -0.000 C 
BRANCH  13  14
ATOM     14  C   UNL     1      44.977  31.264  90.982  1.00  0.00    -0.000 C 
BRANCH  14  15
ATOM     15  C   UNL     1      43.757  30.480  91.496  1.00  0.00    -0.000 C 
BRANCH  15  16
ATOM     16  C   UNL     1      44.161  29.285  92.387  1.00  0.00    -0.000 C 
BRANCH  16  17
ATOM     17  C   UNL     1      45.476  28.612  91.959  1.00  0.00    -0.000 C 
BRANCH  17  18
ATOM     18  C   UNL     1      45.254  27.273  91.241  1.00  0.00    -0.003 C 
ATOM     19  C   UNL     1      45.206  27.462  89.727  1.00  0.00     0.004 C 
ENDBRANCH  17  18
ENDBRANCH  16  17
ENDBRANCH  15  16
ENDBRANCH  14  15
ENDBRANCH  13  14
ENDBRANCH  12  13
ENDBRANCH   1  12
TORSDOF 14
ENDMDL
MODEL 9
REMARK VINA RESULT:    -3.304      2.102      4.535
REMARK INTER + INTRA:          -8.270
REMARK INTER:                  -5.932
REMARK INTRA:                  -2.338
REMARK UNBOUND:                -2.262
REMARK SMILES CCCCCCCCCCCCCC[C@@H](C)C(=O)[O-]
REMARK SMILES IDX 9 1 10 2 11 3 12 4 13 5 14 6 15 7 16 8 17 9 18 10 19 11 8 12
REMARK SMILES IDX 7 13 6 14 5 15 4 16 3 17 2 18 1 19
REMARK H PARENT
REMARK Flexibility Score: inf
ROOT
ATOM      1  C   UNL     1      42.831  30.532  88.131  1.00  0.00     0.000 C 
ENDROOT
BRANCH   1   2
ATOM      2  C   UNL     1      41.647  31.276  87.501  1.00  0.00     0.000 C 
BRANCH   2   3
ATOM      3  C   UNL     1      40.331  30.905  88.202  1.00  0.00     0.000 C 
BRANCH   3   4
ATOM      4  C   UNL     1      40.359  29.494  88.812  1.00  0.00     0.000 C 
BRANCH   4   5
ATOM      5  C   UNL     1      39.259  28.582  88.240  1.00  0.00     0.001 C 
BRANCH   5   6
ATOM      6  C   UNL     1      39.825  27.438  87.375  1.00  0.00     0.009 C 
BRANCH   6   7
ATOM      7  C   UNL     1      41.364  27.309  87.419  1.00  0.00     0.032 C 
ATOM      8  C   UNL     1      41.768  25.939  87.974  1.00  0.00     0.014 C 
BRANCH   7   9
ATOM      9  C   UNL     1      41.972  27.502  86.057  1.00  0.00     0.044 C 
ATOM     10  O   UNL     1      42.856  26.707  85.641  1.00  0.00    -0.550 OA
ATOM     11  O   UNL     1      41.568  28.561  85.251  1.00  0.00    -0.550 OA
ENDBRANCH   7   9
ENDBRANCH   6   7
ENDBRANCH   5   6
ENDBRANCH   4   5
ENDBRANCH   3   4
ENDBRANCH   2   3
ENDBRANCH   1   2
BRANCH   1  12
ATOM     12  C   UNL     1      43.696  31.483  88.970  1.00  0.00     0.000 C 
BRANCH  12  13
ATOM     13  C   UNL     1      45.185  31.100  88.964  1.00  0.00    -0.000 C 
BRANCH  13  14
ATOM     14  C   UNL     1      45.861  31.220  90.347  1.00  0.00    -0.000 C 
BRANCH  14  15
ATOM     15  C   UNL     1      46.542  29.909  90.777  1.00  0.00    -0.000 C 
BRANCH  15  16
ATOM     16  C   UNL     1      45.580  28.971  91.538  1.00  0.00    -0.000 C 
BRANCH  16  17
ATOM     17  C   UNL     1      44.445  29.710  92.268  1.00  0.00    -0.000 C 
BRANCH  17  18
ATOM     18  C   UNL     1      43.051  29.212  91.861  1.00  0.00    -0.003 C 
ATOM     19  C   UNL     1      43.148  28.066  90.856  1.00  0.00     0.004 C 
ENDBRANCH  17  18
ENDBRANCH  16  17
ENDBRANCH  15  16
ENDBRANCH  14  15
ENDBRANCH  13  14
ENDBRANCH  12  13
ENDBRANCH   1  12
TORSDOF 14
ENDMDL
