MODEL 1
REMARK VINA RESULT:    -4.950      0.000      0.000
REMARK INTER + INTRA:         -15.577
REMARK INTER:                 -13.052
REMARK INTRA:                  -2.525
REMARK UNBOUND:                -2.525
REMARK SMILES CCCCCCCCCCCCCCCCCCCCCCCCCCCCCC(=O)[O-]
REMARK SMILES IDX 16 1 17 2 18 3 19 4 20 5 21 6 22 7 23 8 24 9 25 10 26 11
REMARK SMILES IDX 27 12 28 13 29 14 30 15 31 16 32 17 15 18 14 19 13 20 12 21
REMARK SMILES IDX 11 22 10 23 9 24 8 25 7 26 6 27 5 28 4 29 3 30 2 31 1 32
REMARK H PARENT
REMARK Flexibility Score: inf
ROOT
ATOM      1  C   UNL     1      -5.006   7.005  -5.163  1.00  0.00     0.000 C 
ENDROOT
BRANCH   1   2
ATOM      2  C   UNL     1      -6.124   7.376  -6.153  1.00  0.00     0.000 C 
BRANCH   2   3
ATOM      3  C   UNL     1      -5.746   7.071  -7.610  1.00  0.00     0.000 C 
BRANCH   3   4
ATOM      4  C   UNL     1      -6.601   5.946  -8.221  1.00  0.00     0.000 C 
BRANCH   4   5
ATOM      5  C   UNL     1      -7.769   5.534  -7.311  1.00  0.00     0.000 C 
BRANCH   5   6
ATOM      6  C   UNL     1      -9.124   5.575  -8.037  1.00  0.00     0.000 C 
BRANCH   6   7
ATOM      7  C   UNL     1      -9.209   4.571  -9.203  1.00  0.00     0.000 C 
BRANCH   7   8
ATOM      8  C   UNL     1      -9.519   5.198 -10.576  1.00  0.00     0.000 C 
BRANCH   8   9
ATOM      9  C   UNL     1      -8.690   4.579 -11.715  1.00  0.00     0.000 C 
BRANCH   9  10
ATOM     10  C   UNL     1      -7.587   5.520 -12.225  1.00  0.00     0.000 C 
BRANCH  10  11
ATOM     11  C   UNL     1      -6.577   4.801 -13.136  1.00  0.00     0.000 C 
BRANCH  11  12
ATOM     12  C   UNL     1      -6.516   5.409 -14.547  1.00  0.00     0.000 C 
BRANCH  12  13
ATOM     13  C   UNL     1      -7.910   5.766 -15.092  1.00  0.00     0.006 C 
BRANCH  13  14
ATOM     14  C   UNL     1      -7.838   6.751 -16.267  1.00  0.00     0.053 C 
BRANCH  14  15
ATOM     15  C   UNL     1      -6.524   6.674 -16.981  1.00  0.00     0.041 C 
ATOM     16  O   UNL     1      -5.698   7.621 -16.893  1.00  0.00    -0.550 OA
ATOM     17  O   UNL     1      -6.196   5.542 -17.718  1.00  0.00    -0.550 OA
ENDBRANCH  14  15
ENDBRANCH  13  14
ENDBRANCH  12  13
ENDBRANCH  11  12
ENDBRANCH  10  11
ENDBRANCH   9  10
ENDBRANCH   8   9
ENDBRANCH   7   8
ENDBRANCH   6   7
ENDBRANCH   5   6
ENDBRANCH   4   5
ENDBRANCH   3   4
ENDBRANCH   2   3
ENDBRANCH   1   2
BRANCH   1  18
ATOM     18  C   UNL     1      -5.549   6.558  -3.794  1.00  0.00     0.000 C 
BRANCH  18  19
ATOM     19  C   UNL     1      -7.028   6.126  -3.796  1.00  0.00     0.000 C 
BRANCH  19  20
ATOM     20  C   UNL     1      -7.234   4.601  -3.931  1.00  0.00     0.000 C 
BRANCH  20  21
ATOM     21  C   UNL     1      -6.160   3.794  -3.179  1.00  0.00     0.000 C 
BRANCH  21  22
ATOM     22  C   UNL     1      -6.742   3.043  -1.962  1.00  0.00     0.000 C 
BRANCH  22  23
ATOM     23  C   UNL     1      -7.031   3.954  -0.756  1.00  0.00     0.000 C 
BRANCH  23  24
ATOM     24  C   UNL     1      -8.533   4.072  -0.448  1.00  0.00    -0.000 C 
BRANCH  24  25
ATOM     25  C   UNL     1      -9.002   5.531  -0.292  1.00  0.00    -0.000 C 
BRANCH  25  26
ATOM     26  C   UNL     1      -9.882   6.071  -1.439  1.00  0.00    -0.000 C 
BRANCH  26  27
ATOM     27  C   UNL     1     -10.376   7.518  -1.260  1.00  0.00    -0.000 C 
BRANCH  27  28
ATOM     28  C   UNL     1      -9.977   8.478  -2.398  1.00  0.00    -0.000 C 
BRANCH  28  29
ATOM     29  C   UNL     1     -11.186   9.091  -3.139  1.00  0.00    -0.000 C 
BRANCH  29  30
ATOM     30  C   UNL     1     -11.304  10.607  -2.910  1.00  0.00    -0.000 C 
BRANCH  30  31
ATOM     31  C   UNL     1     -12.740  11.043  -2.579  1.00  0.00    -0.003 C 
ATOM     32  C   UNL     1     -13.748  10.631  -3.652  1.00  0.00     0.004 C 
ENDBRANCH  30  31
ENDBRANCH  29  30
ENDBRANCH  28  29
ENDBRANCH  27  28
ENDBRANCH  26  27
ENDBRANCH  25  26
ENDBRANCH  24  25
ENDBRANCH  23  24
ENDBRANCH  22  23
ENDBRANCH  21  22
ENDBRANCH  20  21
ENDBRANCH  19  20
ENDBRANCH  18  19
ENDBRANCH   1  18
TORSDOF 28
ENDMDL
MODEL 2
REMARK VINA RESULT:    -4.776      4.266      9.524
REMARK INTER + INTRA:         -15.119
REMARK INTER:                 -11.208
REMARK INTRA:                  -3.911
REMARK UNBOUND:                -2.525
REMARK SMILES CCCCCCCCCCCCCCCCCCCCCCCCCCCCCC(=O)[O-]
REMARK SMILES IDX 16 1 17 2 18 3 19 4 20 5 21 6 22 7 23 8 24 9 25 10 26 11
REMARK SMILES IDX 27 12 28 13 29 14 30 15 31 16 32 17 15 18 14 19 13 20 12 21
REMARK SMILES IDX 11 22 10 23 9 24 8 25 7 26 6 27 5 28 4 29 3 30 2 31 1 32
REMARK H PARENT
REMARK Flexibility Score: inf
ROOT
ATOM      1  C   UNL     1      -8.378   5.091 -13.090  1.00  0.00     0.000 C 
ENDROOT
BRANCH   1   2
ATOM      2  C   UNL     1      -8.468   4.471 -11.685  1.00  0.00     0.000 C 
BRANCH   2   3
ATOM      3  C   UNL     1      -9.473   5.203 -10.782  1.00  0.00     0.000 C 
BRANCH   3   4
ATOM      4  C   UNL     1      -9.504   4.640  -9.350  1.00  0.00     0.000 C 
BRANCH   4   5
ATOM      5  C   UNL     1      -8.347   5.166  -8.487  1.00  0.00     0.000 C 
BRANCH   5   6
ATOM      6  C   UNL     1      -8.829   5.751  -7.149  1.00  0.00     0.000 C 
BRANCH   6   7
ATOM      7  C   UNL     1      -8.150   5.098  -5.930  1.00  0.00     0.000 C 
BRANCH   7   8
ATOM      8  C   UNL     1      -8.713   5.536  -4.564  1.00  0.00     0.000 C 
BRANCH   8   9
ATOM      9  C   UNL     1      -9.256   6.975  -4.576  1.00  0.00     0.000 C 
BRANCH   9  10
ATOM     10  C   UNL     1      -9.160   7.657  -3.202  1.00  0.00     0.000 C 
BRANCH  10  11
ATOM     11  C   UNL     1      -9.336   6.664  -2.040  1.00  0.00     0.000 C 
BRANCH  11  12
ATOM     12  C   UNL     1     -10.370   7.140  -1.007  1.00  0.00     0.000 C 
BRANCH  12  13
ATOM     13  C   UNL     1     -10.547   8.669  -1.017  1.00  0.00     0.006 C 
BRANCH  13  14
ATOM     14  C   UNL     1     -11.987   9.084  -1.351  1.00  0.00     0.053 C 
BRANCH  14  15
ATOM     15  C   UNL     1     -12.029  10.174  -2.378  1.00  0.00     0.041 C 
ATOM     16  O   UNL     1     -13.121  10.497  -2.915  1.00  0.00    -0.550 OA
ATOM     17  O   UNL     1     -10.867  10.856  -2.719  1.00  0.00    -0.550 OA
ENDBRANCH  14  15
ENDBRANCH  13  14
ENDBRANCH  12  13
ENDBRANCH  11  12
ENDBRANCH  10  11
ENDBRANCH   9  10
ENDBRANCH   8   9
ENDBRANCH   7   8
ENDBRANCH   6   7
ENDBRANCH   5   6
ENDBRANCH   4   5
ENDBRANCH   3   4
ENDBRANCH   2   3
ENDBRANCH   1   2
BRANCH   1  18
ATOM     18  C   UNL     1      -6.983   5.662 -13.398  1.00  0.00     0.000 C 
BRANCH  18  19
ATOM     19  C   UNL     1      -5.873   5.214 -12.427  1.00  0.00     0.000 C 
BRANCH  19  20
ATOM     20  C   UNL     1      -5.361   6.339 -11.501  1.00  0.00     0.000 C 
BRANCH  20  21
ATOM     21  C   UNL     1      -4.976   5.820 -10.103  1.00  0.00     0.000 C 
BRANCH  21  22
ATOM     22  C   UNL     1      -4.578   6.964  -9.146  1.00  0.00     0.000 C 
BRANCH  22  23
ATOM     23  C   UNL     1      -5.462   7.054  -7.890  1.00  0.00     0.000 C 
BRANCH  23  24
ATOM     24  C   UNL     1      -4.665   7.416  -6.626  1.00  0.00    -0.000 C 
BRANCH  24  25
ATOM     25  C   UNL     1      -5.514   7.364  -5.343  1.00  0.00    -0.000 C 
BRANCH  25  26
ATOM     26  C   UNL     1      -4.995   6.417  -4.241  1.00  0.00    -0.000 C 
BRANCH  26  27
ATOM     27  C   UNL     1      -5.563   6.675  -2.834  1.00  0.00    -0.000 C 
BRANCH  27  28
ATOM     28  C   UNL     1      -5.881   5.402  -2.026  1.00  0.00    -0.000 C 
BRANCH  28  29
ATOM     29  C   UNL     1      -5.559   4.095  -2.784  1.00  0.00    -0.000 C 
BRANCH  29  30
ATOM     30  C   UNL     1      -6.713   3.080  -2.717  1.00  0.00    -0.000 C 
BRANCH  30  31
ATOM     31  C   UNL     1      -6.858   2.444  -1.326  1.00  0.00    -0.003 C 
ATOM     32  C   UNL     1      -8.237   2.676  -0.708  1.00  0.00     0.004 C 
ENDBRANCH  30  31
ENDBRANCH  29  30
ENDBRANCH  28  29
ENDBRANCH  27  28
ENDBRANCH  26  27
ENDBRANCH  25  26
ENDBRANCH  24  25
ENDBRANCH  23  24
ENDBRANCH  22  23
ENDBRANCH  21  22
ENDBRANCH  20  21
ENDBRANCH  19  20
ENDBRANCH  18  19
ENDBRANCH   1  18
TORSDOF 28
ENDMDL
MODEL 3
REMARK VINA RESULT:    -4.775      1.660      4.085
REMARK INTER + INTRA:         -15.117
REMARK INTER:                 -12.219
REMARK INTRA:                  -2.898
REMARK UNBOUND:                -2.525
REMARK SMILES CCCCCCCCCCCCCCCCCCCCCCCCCCCCCC(=O)[O-]
REMARK SMILES IDX 16 1 17 2 18 3 19 4 20 5 21 6 22 7 23 8 24 9 25 10 26 11
REMARK SMILES IDX 27 12 28 13 29 14 30 15 31 16 32 17 15 18 14 19 13 20 12 21
REMARK SMILES IDX 11 22 10 23 9 24 8 25 7 26 6 27 5 28 4 29 3 30 2 31 1 32
REMARK H PARENT
REMARK Flexibility Score: inf
ROOT
ATOM      1  C   UNL     1      -9.126   5.485  -8.194  1.00  0.00     0.000 C 
ENDROOT
BRANCH   1   2
ATOM      2  C   UNL     1      -9.353   4.496  -9.351  1.00  0.00     0.000 C 
BRANCH   2   3
ATOM      3  C   UNL     1      -9.524   5.202 -10.704  1.00  0.00     0.000 C 
BRANCH   3   4
ATOM      4  C   UNL     1      -8.357   4.927 -11.669  1.00  0.00     0.000 C 
BRANCH   4   5
ATOM      5  C   UNL     1      -8.836   4.503 -13.066  1.00  0.00     0.000 C 
BRANCH   5   6
ATOM      6  C   UNL     1      -8.024   5.164 -14.192  1.00  0.00     0.000 C 
BRANCH   6   7
ATOM      7  C   UNL     1      -6.592   5.533 -13.761  1.00  0.00     0.000 C 
BRANCH   7   8
ATOM      8  C   UNL     1      -5.476   4.871 -14.591  1.00  0.00     0.000 C 
BRANCH   8   9
ATOM      9  C   UNL     1      -5.765   3.394 -14.909  1.00  0.00     0.000 C 
BRANCH   9  10
ATOM     10  C   UNL     1      -5.140   2.940 -16.239  1.00  0.00     0.000 C 
BRANCH  10  11
ATOM     11  C   UNL     1      -5.056   4.082 -17.268  1.00  0.00     0.000 C 
BRANCH  11  12
ATOM     12  C   UNL     1      -6.334   4.209 -18.114  1.00  0.00     0.000 C 
BRANCH  12  13
ATOM     13  C   UNL     1      -6.694   5.674 -18.415  1.00  0.00     0.006 C 
BRANCH  13  14
ATOM     14  C   UNL     1      -8.210   5.883 -18.546  1.00  0.00     0.053 C 
BRANCH  14  15
ATOM     15  C   UNL     1      -8.650   7.175 -17.928  1.00  0.00     0.041 C 
ATOM     16  O   UNL     1      -9.596   7.831 -18.439  1.00  0.00    -0.550 OA
ATOM     17  O   UNL     1      -8.037   7.639 -16.771  1.00  0.00    -0.550 OA
ENDBRANCH  14  15
ENDBRANCH  13  14
ENDBRANCH  12  13
ENDBRANCH  11  12
ENDBRANCH  10  11
ENDBRANCH   9  10
ENDBRANCH   8   9
ENDBRANCH   7   8
ENDBRANCH   6   7
ENDBRANCH   5   6
ENDBRANCH   4   5
ENDBRANCH   3   4
ENDBRANCH   2   3
ENDBRANCH   1   2
BRANCH   1  18
ATOM     18  C   UNL     1      -7.635   5.717  -7.896  1.00  0.00     0.000 C 
BRANCH  18  19
ATOM     19  C   UNL     1      -7.343   6.373  -6.532  1.00  0.00     0.000 C 
BRANCH  19  20
ATOM     20  C   UNL     1      -8.125   5.746  -5.357  1.00  0.00     0.000 C 
BRANCH  20  21
ATOM     21  C   UNL     1      -7.295   4.700  -4.591  1.00  0.00     0.000 C 
BRANCH  21  22
ATOM     22  C   UNL     1      -6.257   5.353  -3.653  1.00  0.00     0.000 C 
BRANCH  22  23
ATOM     23  C   UNL     1      -5.645   4.376  -2.635  1.00  0.00     0.000 C 
BRANCH  23  24
ATOM     24  C   UNL     1      -6.437   3.064  -2.518  1.00  0.00    -0.000 C 
BRANCH  24  25
ATOM     25  C   UNL     1      -6.815   2.716  -1.066  1.00  0.00    -0.000 C 
BRANCH  25  26
ATOM     26  C   UNL     1      -8.279   3.007  -0.673  1.00  0.00    -0.000 C 
BRANCH  26  27
ATOM     27  C   UNL     1      -8.609   4.491  -0.432  1.00  0.00    -0.000 C 
BRANCH  27  28
ATOM     28  C   UNL     1      -9.402   5.165  -1.568  1.00  0.00    -0.000 C 
BRANCH  28  29
ATOM     29  C   UNL     1      -9.759   6.640  -1.280  1.00  0.00    -0.000 C 
BRANCH  29  30
ATOM     30  C   UNL     1      -9.175   7.599  -2.331  1.00  0.00    -0.000 C 
BRANCH  30  31
ATOM     31  C   UNL     1     -10.259   8.229  -3.220  1.00  0.00    -0.003 C 
ATOM     32  C   UNL     1     -10.584   9.670  -2.830  1.00  0.00     0.004 C 
ENDBRANCH  30  31
ENDBRANCH  29  30
ENDBRANCH  28  29
ENDBRANCH  27  28
ENDBRANCH  26  27
ENDBRANCH  25  26
ENDBRANCH  24  25
ENDBRANCH  23  24
ENDBRANCH  22  23
ENDBRANCH  21  22
ENDBRANCH  20  21
ENDBRANCH  19  20
ENDBRANCH  18  19
ENDBRANCH   1  18
TORSDOF 28
ENDMDL
MODEL 4
REMARK VINA RESULT:    -4.753      4.481     12.479
REMARK INTER + INTRA:         -15.059
REMARK INTER:                 -12.137
REMARK INTRA:                  -2.922
REMARK UNBOUND:                -2.525
REMARK SMILES CCCCCCCCCCCCCCCCCCCCCCCCCCCCCC(=O)[O-]
REMARK SMILES IDX 16 1 17 2 18 3 19 4 20 5 21 6 22 7 23 8 24 9 25 10 26 11
REMARK SMILES IDX 27 12 28 13 29 14 30 15 31 16 32 17 15 18 14 19 13 20 12 21
REMARK SMILES IDX 11 22 10 23 9 24 8 25 7 26 6 27 5 28 4 29 3 30 2 31 1 32
REMARK H PARENT
REMARK Flexibility Score: inf
ROOT
ATOM      1  C   UNL     1      -9.020   5.606  -8.091  1.00  0.00     0.000 C 
ENDROOT
BRANCH   1   2
ATOM      2  C   UNL     1      -7.520   5.821  -7.823  1.00  0.00     0.000 C 
BRANCH   2   3
ATOM      3  C   UNL     1      -7.220   6.097  -6.342  1.00  0.00     0.000 C 
BRANCH   3   4
ATOM      4  C   UNL     1      -7.807   5.023  -5.408  1.00  0.00     0.000 C 
BRANCH   4   5
ATOM      5  C   UNL     1      -8.506   5.629  -4.181  1.00  0.00     0.000 C 
BRANCH   5   6
ATOM      6  C   UNL     1      -8.035   7.062  -3.883  1.00  0.00     0.000 C 
BRANCH   6   7
ATOM      7  C   UNL     1      -8.914   7.777  -2.840  1.00  0.00     0.000 C 
BRANCH   7   8
ATOM      8  C   UNL     1      -8.536   7.498  -1.373  1.00  0.00     0.000 C 
BRANCH   8   9
ATOM      9  C   UNL     1      -9.601   7.991  -0.378  1.00  0.00     0.000 C 
BRANCH   9  10
ATOM     10  C   UNL     1     -11.015   7.505  -0.733  1.00  0.00     0.000 C 
BRANCH  10  11
ATOM     11  C   UNL     1     -12.025   8.662  -0.837  1.00  0.00     0.000 C 
BRANCH  11  12
ATOM     12  C   UNL     1     -11.362  10.040  -0.672  1.00  0.00     0.000 C 
BRANCH  12  13
ATOM     13  C   UNL     1     -11.347  10.844  -1.985  1.00  0.00     0.006 C 
BRANCH  13  14
ATOM     14  C   UNL     1     -12.282  10.243  -3.043  1.00  0.00     0.053 C 
BRANCH  14  15
ATOM     15  C   UNL     1     -13.519  11.068  -3.227  1.00  0.00     0.041 C 
ATOM     16  O   UNL     1     -14.457  10.650  -3.957  1.00  0.00    -0.550 OA
ATOM     17  O   UNL     1     -13.651  12.283  -2.567  1.00  0.00    -0.550 OA
ENDBRANCH  14  15
ENDBRANCH  13  14
ENDBRANCH  12  13
ENDBRANCH  11  12
ENDBRANCH  10  11
ENDBRANCH   9  10
ENDBRANCH   8   9
ENDBRANCH   7   8
ENDBRANCH   6   7
ENDBRANCH   5   6
ENDBRANCH   4   5
ENDBRANCH   3   4
ENDBRANCH   2   3
ENDBRANCH   1   2
BRANCH   1  18
ATOM     18  C   UNL     1      -9.283   4.547  -9.175  1.00  0.00     0.000 C 
BRANCH  18  19
ATOM     19  C   UNL     1      -9.597   5.116 -10.572  1.00  0.00     0.000 C 
BRANCH  19  20
ATOM     20  C   UNL     1      -8.376   5.167 -11.516  1.00  0.00     0.000 C 
BRANCH  20  21
ATOM     21  C   UNL     1      -8.618   4.405 -12.832  1.00  0.00     0.000 C 
BRANCH  21  22
ATOM     22  C   UNL     1      -7.362   4.381 -13.730  1.00  0.00     0.000 C 
BRANCH  22  23
ATOM     23  C   UNL     1      -6.234   5.304 -13.238  1.00  0.00     0.000 C 
BRANCH  23  24
ATOM     24  C   UNL     1      -5.136   5.515 -14.293  1.00  0.00    -0.000 C 
BRANCH  24  25
ATOM     25  C   UNL     1      -5.074   4.381 -15.334  1.00  0.00    -0.000 C 
BRANCH  25  26
ATOM     26  C   UNL     1      -4.964   4.837 -16.805  1.00  0.00    -0.000 C 
BRANCH  26  27
ATOM     27  C   UNL     1      -6.095   4.350 -17.728  1.00  0.00    -0.000 C 
BRANCH  27  28
ATOM     28  C   UNL     1      -7.127   5.432 -18.103  1.00  0.00    -0.000 C 
BRANCH  28  29
ATOM     29  C   UNL     1      -7.904   5.989 -16.890  1.00  0.00    -0.000 C 
BRANCH  29  30
ATOM     30  C   UNL     1      -7.717   7.506 -16.723  1.00  0.00    -0.000 C 
BRANCH  30  31
ATOM     31  C   UNL     1      -6.672   8.082 -17.692  1.00  0.00    -0.003 C 
ATOM     32  C   UNL     1      -5.347   8.416 -17.006  1.00  0.00     0.004 C 
ENDBRANCH  30  31
ENDBRANCH  29  30
ENDBRANCH  28  29
ENDBRANCH  27  28
ENDBRANCH  26  27
ENDBRANCH  25  26
ENDBRANCH  24  25
ENDBRANCH  23  24
ENDBRANCH  22  23
ENDBRANCH  21  22
ENDBRANCH  20  21
ENDBRANCH  19  20
ENDBRANCH  18  19
ENDBRANCH   1  18
TORSDOF 28
ENDMDL
MODEL 5
REMARK VINA RESULT:    -4.739      4.399     12.044
REMARK INTER + INTRA:         -15.022
REMARK INTER:                 -12.453
REMARK INTRA:                  -2.569
REMARK UNBOUND:                -2.525
REMARK SMILES CCCCCCCCCCCCCCCCCCCCCCCCCCCCCC(=O)[O-]
REMARK SMILES IDX 16 1 17 2 18 3 19 4 20 5 21 6 22 7 23 8 24 9 25 10 26 11
REMARK SMILES IDX 27 12 28 13 29 14 30 15 31 16 32 17 15 18 14 19 13 20 12 21
REMARK SMILES IDX 11 22 10 23 9 24 8 25 7 26 6 27 5 28 4 29 3 30 2 31 1 32
REMARK H PARENT
REMARK Flexibility Score: inf
ROOT
ATOM      1  C   UNL     1      -7.641   5.361  -7.505  1.00  0.00     0.000 C 
ENDROOT
BRANCH   1   2
ATOM      2  C   UNL     1      -6.623   6.444  -7.902  1.00  0.00     0.000 C 
BRANCH   2   3
ATOM      3  C   UNL     1      -6.014   7.155  -6.684  1.00  0.00     0.000 C 
BRANCH   3   4
ATOM      4  C   UNL     1      -7.069   7.529  -5.628  1.00  0.00     0.000 C 
BRANCH   4   5
ATOM      5  C   UNL     1      -6.662   7.095  -4.211  1.00  0.00     0.000 C 
BRANCH   5   6
ATOM      6  C   UNL     1      -7.154   5.680  -3.864  1.00  0.00     0.000 C 
BRANCH   6   7
ATOM      7  C   UNL     1      -6.717   5.221  -2.461  1.00  0.00     0.000 C 
BRANCH   7   8
ATOM      8  C   UNL     1      -7.766   5.434  -1.353  1.00  0.00     0.000 C 
BRANCH   8   9
ATOM      9  C   UNL     1      -9.181   5.667  -1.909  1.00  0.00     0.000 C 
BRANCH   9  10
ATOM     10  C   UNL     1     -10.090   6.419  -0.923  1.00  0.00     0.000 C 
BRANCH  10  11
ATOM     11  C   UNL     1      -9.968   7.947  -1.061  1.00  0.00     0.000 C 
BRANCH  11  12
ATOM     12  C   UNL     1      -9.741   8.392  -2.515  1.00  0.00     0.000 C 
BRANCH  12  13
ATOM     13  C   UNL     1     -11.046   8.822  -3.207  1.00  0.00     0.006 C 
BRANCH  13  14
ATOM     14  C   UNL     1     -11.381  10.297  -2.949  1.00  0.00     0.053 C 
BRANCH  14  15
ATOM     15  C   UNL     1     -12.799  10.477  -2.497  1.00  0.00     0.041 C 
ATOM     16  O   UNL     1     -13.723  10.592  -3.344  1.00  0.00    -0.550 OA
ATOM     17  O   UNL     1     -13.102  10.486  -1.142  1.00  0.00    -0.550 OA
ENDBRANCH  14  15
ENDBRANCH  13  14
ENDBRANCH  12  13
ENDBRANCH  11  12
ENDBRANCH  10  11
ENDBRANCH   9  10
ENDBRANCH   8   9
ENDBRANCH   7   8
ENDBRANCH   6   7
ENDBRANCH   5   6
ENDBRANCH   4   5
ENDBRANCH   3   4
ENDBRANCH   2   3
ENDBRANCH   1   2
BRANCH   1  18
ATOM     18  C   UNL     1      -9.024   5.585  -8.139  1.00  0.00     0.000 C 
BRANCH  18  19
ATOM     19  C   UNL     1      -9.426   4.541  -9.199  1.00  0.00     0.000 C 
BRANCH  19  20
ATOM     20  C   UNL     1      -9.606   5.126 -10.617  1.00  0.00     0.000 C 
BRANCH  20  21
ATOM     21  C   UNL     1      -8.353   4.943 -11.492  1.00  0.00     0.000 C 
BRANCH  21  22
ATOM     22  C   UNL     1      -8.703   4.472 -12.920  1.00  0.00     0.000 C 
BRANCH  22  23
ATOM     23  C   UNL     1      -8.014   5.289 -14.026  1.00  0.00     0.000 C 
BRANCH  23  24
ATOM     24  C   UNL     1      -6.484   5.315 -13.882  1.00  0.00    -0.000 C 
BRANCH  24  25
ATOM     25  C   UNL     1      -5.776   4.295 -14.794  1.00  0.00    -0.000 C 
BRANCH  25  26
ATOM     26  C   UNL     1      -5.214   4.863 -16.114  1.00  0.00    -0.000 C 
BRANCH  26  27
ATOM     27  C   UNL     1      -5.133   6.399 -16.184  1.00  0.00    -0.000 C 
BRANCH  27  28
ATOM     28  C   UNL     1      -5.962   7.034 -17.316  1.00  0.00    -0.000 C 
BRANCH  28  29
ATOM     29  C   UNL     1      -7.349   7.536 -16.857  1.00  0.00    -0.000 C 
BRANCH  29  30
ATOM     30  C   UNL     1      -8.500   6.770 -17.531  1.00  0.00    -0.000 C 
BRANCH  30  31
ATOM     31  C   UNL     1      -8.976   7.442 -18.828  1.00  0.00    -0.003 C 
ATOM     32  C   UNL     1     -10.313   6.892 -19.326  1.00  0.00     0.004 C 
ENDBRANCH  30  31
ENDBRANCH  29  30
ENDBRANCH  28  29
ENDBRANCH  27  28
ENDBRANCH  26  27
ENDBRANCH  25  26
ENDBRANCH  24  25
ENDBRANCH  23  24
ENDBRANCH  22  23
ENDBRANCH  21  22
ENDBRANCH  20  21
ENDBRANCH  19  20
ENDBRANCH  18  19
ENDBRANCH   1  18
TORSDOF 28
ENDMDL
MODEL 6
REMARK VINA RESULT:    -4.704      4.250     12.293
REMARK INTER + INTRA:         -14.930
REMARK INTER:                 -11.787
REMARK INTRA:                  -3.143
REMARK UNBOUND:                -2.525
REMARK SMILES CCCCCCCCCCCCCCCCCCCCCCCCCCCCCC(=O)[O-]
REMARK SMILES IDX 16 1 17 2 18 3 19 4 20 5 21 6 22 7 23 8 24 9 25 10 26 11
REMARK SMILES IDX 27 12 28 13 29 14 30 15 31 16 32 17 15 18 14 19 13 20 12 21
REMARK SMILES IDX 11 22 10 23 9 24 8 25 7 26 6 27 5 28 4 29 3 30 2 31 1 32
REMARK H PARENT
REMARK Flexibility Score: inf
ROOT
ATOM      1  C   UNL     1      -9.158   5.591  -8.030  1.00  0.00     0.000 C 
ENDROOT
BRANCH   1   2
ATOM      2  C   UNL     1      -7.864   5.542  -7.198  1.00  0.00     0.000 C 
BRANCH   2   3
ATOM      3  C   UNL     1      -6.672   6.182  -7.925  1.00  0.00     0.000 C 
BRANCH   3   4
ATOM      4  C   UNL     1      -5.838   7.093  -7.007  1.00  0.00     0.000 C 
BRANCH   4   5
ATOM      5  C   UNL     1      -6.669   7.695  -5.863  1.00  0.00     0.000 C 
BRANCH   5   6
ATOM      6  C   UNL     1      -6.001   7.511  -4.490  1.00  0.00     0.000 C 
BRANCH   6   7
ATOM      7  C   UNL     1      -5.912   6.034  -4.061  1.00  0.00     0.000 C 
BRANCH   7   8
ATOM      8  C   UNL     1      -6.817   5.649  -2.874  1.00  0.00     0.000 C 
BRANCH   8   9
ATOM      9  C   UNL     1      -8.305   5.579  -3.257  1.00  0.00     0.000 C 
BRANCH   9  10
ATOM     10  C   UNL     1      -9.208   5.226  -2.064  1.00  0.00     0.000 C 
BRANCH  10  11
ATOM     11  C   UNL     1      -9.047   6.211  -0.893  1.00  0.00     0.000 C 
BRANCH  11  12
ATOM     12  C   UNL     1     -10.291   7.092  -0.687  1.00  0.00     0.000 C 
BRANCH  12  13
ATOM     13  C   UNL     1     -10.078   8.532  -1.186  1.00  0.00     0.006 C 
BRANCH  13  14
ATOM     14  C   UNL     1     -10.698   8.764  -2.571  1.00  0.00     0.053 C 
BRANCH  14  15
ATOM     15  C   UNL     1     -11.922   9.623  -2.498  1.00  0.00     0.041 C 
ATOM     16  O   UNL     1     -12.442   9.893  -1.383  1.00  0.00    -0.550 OA
ATOM     17  O   UNL     1     -12.473  10.153  -3.659  1.00  0.00    -0.550 OA
ENDBRANCH  14  15
ENDBRANCH  13  14
ENDBRANCH  12  13
ENDBRANCH  11  12
ENDBRANCH  10  11
ENDBRANCH   9  10
ENDBRANCH   8   9
ENDBRANCH   7   8
ENDBRANCH   6   7
ENDBRANCH   5   6
ENDBRANCH   4   5
ENDBRANCH   3   4
ENDBRANCH   2   3
ENDBRANCH   1   2
BRANCH   1  18
ATOM     18  C   UNL     1      -9.177   4.545  -9.158  1.00  0.00     0.000 C 
BRANCH  18  19
ATOM     19  C   UNL     1      -9.529   5.103 -10.551  1.00  0.00     0.000 C 
BRANCH  19  20
ATOM     20  C   UNL     1      -8.360   5.050 -11.559  1.00  0.00     0.000 C 
BRANCH  20  21
ATOM     21  C   UNL     1      -8.783   4.464 -12.919  1.00  0.00     0.000 C 
BRANCH  21  22
ATOM     22  C   UNL     1      -7.833   4.893 -14.058  1.00  0.00     0.000 C 
BRANCH  22  23
ATOM     23  C   UNL     1      -6.532   5.548 -13.563  1.00  0.00     0.000 C 
BRANCH  23  24
ATOM     24  C   UNL     1      -5.344   5.297 -14.505  1.00  0.00    -0.000 C 
BRANCH  24  25
ATOM     25  C   UNL     1      -5.549   4.077 -15.422  1.00  0.00    -0.000 C 
BRANCH  25  26
ATOM     26  C   UNL     1      -5.079   4.258 -16.881  1.00  0.00    -0.000 C 
BRANCH  26  27
ATOM     27  C   UNL     1      -5.834   3.412 -17.922  1.00  0.00    -0.000 C 
BRANCH  27  28
ATOM     28  C   UNL     1      -6.747   4.219 -18.865  1.00  0.00    -0.000 C 
BRANCH  28  29
ATOM     29  C   UNL     1      -6.806   5.725 -18.526  1.00  0.00    -0.000 C 
BRANCH  29  30
ATOM     30  C   UNL     1      -8.033   6.085 -17.672  1.00  0.00    -0.000 C 
BRANCH  30  31
ATOM     31  C   UNL     1      -7.826   7.368 -16.852  1.00  0.00    -0.003 C 
ATOM     32  C   UNL     1      -6.410   7.930 -16.977  1.00  0.00     0.004 C 
ENDBRANCH  30  31
ENDBRANCH  29  30
ENDBRANCH  28  29
ENDBRANCH  27  28
ENDBRANCH  26  27
ENDBRANCH  25  26
ENDBRANCH  24  25
ENDBRANCH  23  24
ENDBRANCH  22  23
ENDBRANCH  21  22
ENDBRANCH  20  21
ENDBRANCH  19  20
ENDBRANCH  18  19
ENDBRANCH   1  18
TORSDOF 28
ENDMDL
MODEL 7
REMARK VINA RESULT:    -4.703      1.529      3.738
REMARK INTER + INTRA:         -14.926
REMARK INTER:                 -12.442
REMARK INTRA:                  -2.484
REMARK UNBOUND:                -2.525
REMARK SMILES CCCCCCCCCCCCCCCCCCCCCCCCCCCCCC(=O)[O-]
REMARK SMILES IDX 16 1 17 2 18 3 19 4 20 5 21 6 22 7 23 8 24 9 25 10 26 11
REMARK SMILES IDX 27 12 28 13 29 14 30 15 31 16 32 17 15 18 14 19 13 20 12 21
REMARK SMILES IDX 11 22 10 23 9 24 8 25 7 26 6 27 5 28 4 29 3 30 2 31 1 32
REMARK H PARENT
REMARK Flexibility Score: inf
ROOT
ATOM      1  C   UNL     1      -9.130   5.552  -8.236  1.00  0.00     0.000 C 
ENDROOT
BRANCH   1   2
ATOM      2  C   UNL     1      -9.198   4.512  -9.369  1.00  0.00     0.000 C 
BRANCH   2   3
ATOM      3  C   UNL     1      -9.423   5.156 -10.746  1.00  0.00     0.000 C 
BRANCH   3   4
ATOM      4  C   UNL     1      -8.296   4.831 -11.742  1.00  0.00     0.000 C 
BRANCH   4   5
ATOM      5  C   UNL     1      -8.828   4.507 -13.147  1.00  0.00     0.000 C 
BRANCH   5   6
ATOM      6  C   UNL     1      -8.049   5.237 -14.254  1.00  0.00     0.000 C 
BRANCH   6   7
ATOM      7  C   UNL     1      -6.595   5.554 -13.854  1.00  0.00     0.000 C 
BRANCH   7   8
ATOM      8  C   UNL     1      -5.521   4.869 -14.721  1.00  0.00     0.000 C 
BRANCH   8   9
ATOM      9  C   UNL     1      -5.778   3.364 -14.910  1.00  0.00     0.000 C 
BRANCH   9  10
ATOM     10  C   UNL     1      -5.428   2.876 -16.326  1.00  0.00     0.000 C 
BRANCH  10  11
ATOM     11  C   UNL     1      -5.165   4.039 -17.299  1.00  0.00     0.000 C 
BRANCH  11  12
ATOM     12  C   UNL     1      -6.287   4.204 -18.338  1.00  0.00     0.000 C 
BRANCH  12  13
ATOM     13  C   UNL     1      -7.134   5.465 -18.091  1.00  0.00     0.006 C 
BRANCH  13  14
ATOM     14  C   UNL     1      -6.309   6.753 -18.219  1.00  0.00     0.053 C 
BRANCH  14  15
ATOM     15  C   UNL     1      -6.777   7.813 -17.269  1.00  0.00     0.041 C 
ATOM     16  O   UNL     1      -7.879   7.686 -16.672  1.00  0.00    -0.550 OA
ATOM     17  O   UNL     1      -5.984   8.926 -17.020  1.00  0.00    -0.550 OA
ENDBRANCH  14  15
ENDBRANCH  13  14
ENDBRANCH  12  13
ENDBRANCH  11  12
ENDBRANCH  10  11
ENDBRANCH   9  10
ENDBRANCH   8   9
ENDBRANCH   7   8
ENDBRANCH   6   7
ENDBRANCH   5   6
ENDBRANCH   4   5
ENDBRANCH   3   4
ENDBRANCH   2   3
ENDBRANCH   1   2
BRANCH   1  18
ATOM     18  C   UNL     1      -7.783   5.532  -7.493  1.00  0.00     0.000 C 
BRANCH  18  19
ATOM     19  C   UNL     1      -7.609   6.645  -6.442  1.00  0.00     0.000 C 
BRANCH  19  20
ATOM     20  C   UNL     1      -8.805   6.785  -5.475  1.00  0.00     0.000 C 
BRANCH  20  21
ATOM     21  C   UNL     1      -8.374   7.239  -4.068  1.00  0.00     0.000 C 
BRANCH  21  22
ATOM     22  C   UNL     1      -7.239   6.362  -3.496  1.00  0.00     0.000 C 
BRANCH  22  23
ATOM     23  C   UNL     1      -7.731   5.265  -2.535  1.00  0.00     0.000 C 
BRANCH  23  24
ATOM     24  C   UNL     1      -9.159   5.519  -2.025  1.00  0.00    -0.000 C 
BRANCH  24  25
ATOM     25  C   UNL     1      -9.213   5.829  -0.517  1.00  0.00    -0.000 C 
BRANCH  25  26
ATOM     26  C   UNL     1     -10.002   7.097  -0.128  1.00  0.00    -0.000 C 
BRANCH  26  27
ATOM     27  C   UNL     1     -11.057   7.551  -1.152  1.00  0.00    -0.000 C 
BRANCH  27  28
ATOM     28  C   UNL     1     -11.449   9.038  -1.054  1.00  0.00    -0.000 C 
BRANCH  28  29
ATOM     29  C   UNL     1     -11.926   9.639  -2.394  1.00  0.00    -0.000 C 
BRANCH  29  30
ATOM     30  C   UNL     1     -11.774  11.169  -2.437  1.00  0.00    -0.000 C 
BRANCH  30  31
ATOM     31  C   UNL     1     -12.853  11.846  -3.297  1.00  0.00    -0.003 C 
ATOM     32  C   UNL     1     -13.995  10.900  -3.668  1.00  0.00     0.004 C 
ENDBRANCH  30  31
ENDBRANCH  29  30
ENDBRANCH  28  29
ENDBRANCH  27  28
ENDBRANCH  26  27
ENDBRANCH  25  26
ENDBRANCH  24  25
ENDBRANCH  23  24
ENDBRANCH  22  23
ENDBRANCH  21  22
ENDBRANCH  20  21
ENDBRANCH  19  20
ENDBRANCH  18  19
ENDBRANCH   1  18
TORSDOF 28
ENDMDL
MODEL 8
REMARK VINA RESULT:    -4.655      4.053     12.624
REMARK INTER + INTRA:         -14.799
REMARK INTER:                 -11.791
REMARK INTRA:                  -3.007
REMARK UNBOUND:                -2.525
REMARK SMILES CCCCCCCCCCCCCCCCCCCCCCCCCCCCCC(=O)[O-]
REMARK SMILES IDX 16 1 17 2 18 3 19 4 20 5 21 6 22 7 23 8 24 9 25 10 26 11
REMARK SMILES IDX 27 12 28 13 29 14 30 15 31 16 32 17 15 18 14 19 13 20 12 21
REMARK SMILES IDX 11 22 10 23 9 24 8 25 7 26 6 27 5 28 4 29 3 30 2 31 1 32
REMARK H PARENT
REMARK Flexibility Score: inf
ROOT
ATOM      1  C   UNL     1      -9.569   5.171 -10.678  1.00  0.00     0.000 C 
ENDROOT
BRANCH   1   2
ATOM      2  C   UNL     1      -9.395   4.539  -9.286  1.00  0.00     0.000 C 
BRANCH   2   3
ATOM      3  C   UNL     1      -9.079   5.580  -8.201  1.00  0.00     0.000 C 
BRANCH   3   4
ATOM      4  C   UNL     1      -7.589   5.602  -7.817  1.00  0.00     0.000 C 
BRANCH   4   5
ATOM      5  C   UNL     1      -7.295   6.571  -6.661  1.00  0.00     0.000 C 
BRANCH   5   6
ATOM      6  C   UNL     1      -5.860   7.122  -6.706  1.00  0.00     0.000 C 
BRANCH   6   7
ATOM      7  C   UNL     1      -5.614   8.238  -5.672  1.00  0.00     0.000 C 
BRANCH   7   8
ATOM      8  C   UNL     1      -5.120   7.748  -4.298  1.00  0.00     0.000 C 
BRANCH   8   9
ATOM      9  C   UNL     1      -4.414   6.383  -4.368  1.00  0.00     0.000 C 
BRANCH   9  10
ATOM     10  C   UNL     1      -5.000   5.360  -3.381  1.00  0.00     0.000 C 
BRANCH  10  11
ATOM     11  C   UNL     1      -6.525   5.214  -3.524  1.00  0.00     0.000 C 
BRANCH  11  12
ATOM     12  C   UNL     1      -7.254   5.289  -2.172  1.00  0.00     0.000 C 
BRANCH  12  13
ATOM     13  C   UNL     1      -8.695   5.813  -2.311  1.00  0.00     0.006 C 
BRANCH  13  14
ATOM     14  C   UNL     1      -8.941   6.477  -3.673  1.00  0.00     0.053 C 
BRANCH  14  15
ATOM     15  C   UNL     1      -9.313   7.921  -3.530  1.00  0.00     0.041 C 
ATOM     16  O   UNL     1     -10.524   8.265  -3.515  1.00  0.00    -0.550 OA
ATOM     17  O   UNL     1      -8.322   8.885  -3.383  1.00  0.00    -0.550 OA
ENDBRANCH  14  15
ENDBRANCH  13  14
ENDBRANCH  12  13
ENDBRANCH  11  12
ENDBRANCH  10  11
ENDBRANCH   9  10
ENDBRANCH   8   9
ENDBRANCH   7   8
ENDBRANCH   6   7
ENDBRANCH   5   6
ENDBRANCH   4   5
ENDBRANCH   3   4
ENDBRANCH   2   3
ENDBRANCH   1   2
BRANCH   1  18
ATOM     18  C   UNL     1      -8.384   4.880 -11.614  1.00  0.00     0.000 C 
BRANCH  18  19
ATOM     19  C   UNL     1      -8.775   4.532 -13.063  1.00  0.00     0.000 C 
BRANCH  19  20
ATOM     20  C   UNL     1      -7.857   5.171 -14.129  1.00  0.00     0.000 C 
BRANCH  20  21
ATOM     21  C   UNL     1      -6.405   5.322 -13.640  1.00  0.00     0.000 C 
BRANCH  21  22
ATOM     22  C   UNL     1      -5.401   5.395 -14.810  1.00  0.00     0.000 C 
BRANCH  22  23
ATOM     23  C   UNL     1      -6.049   5.763 -16.156  1.00  0.00     0.000 C 
BRANCH  23  24
ATOM     24  C   UNL     1      -5.557   7.113 -16.704  1.00  0.00    -0.000 C 
BRANCH  24  25
ATOM     25  C   UNL     1      -6.668   7.921 -17.400  1.00  0.00    -0.000 C 
BRANCH  25  26
ATOM     26  C   UNL     1      -8.107   7.602 -16.942  1.00  0.00    -0.000 C 
BRANCH  26  27
ATOM     27  C   UNL     1      -9.125   7.396 -18.078  1.00  0.00    -0.000 C 
BRANCH  27  28
ATOM     28  C   UNL     1      -9.227   5.947 -18.594  1.00  0.00    -0.000 C 
BRANCH  28  29
ATOM     29  C   UNL     1      -8.504   5.721 -19.941  1.00  0.00    -0.000 C 
BRANCH  29  30
ATOM     30  C   UNL     1      -7.842   4.336 -20.023  1.00  0.00    -0.000 C 
BRANCH  30  31
ATOM     31  C   UNL     1      -6.428   4.321 -19.423  1.00  0.00    -0.003 C 
ATOM     32  C   UNL     1      -6.105   3.017 -18.695  1.00  0.00     0.004 C 
ENDBRANCH  30  31
ENDBRANCH  29  30
ENDBRANCH  28  29
ENDBRANCH  27  28
ENDBRANCH  26  27
ENDBRANCH  25  26
ENDBRANCH  24  25
ENDBRANCH  23  24
ENDBRANCH  22  23
ENDBRANCH  21  22
ENDBRANCH  20  21
ENDBRANCH  19  20
ENDBRANCH  18  19
ENDBRANCH   1  18
TORSDOF 28
ENDMDL
MODEL 9
REMARK VINA RESULT:    -4.637      4.378     12.955
REMARK INTER + INTRA:         -14.751
REMARK INTER:                 -11.268
REMARK INTRA:                  -3.483
REMARK UNBOUND:                -2.525
REMARK SMILES CCCCCCCCCCCCCCCCCCCCCCCCCCCCCC(=O)[O-]
REMARK SMILES IDX 16 1 17 2 18 3 19 4 20 5 21 6 22 7 23 8 24 9 25 10 26 11
REMARK SMILES IDX 27 12 28 13 29 14 30 15 31 16 32 17 15 18 14 19 13 20 12 21
REMARK SMILES IDX 11 22 10 23 9 24 8 25 7 26 6 27 5 28 4 29 3 30 2 31 1 32
REMARK H PARENT
REMARK Flexibility Score: inf
ROOT
ATOM      1  C   UNL     1      -8.864   4.504 -12.634  1.00  0.00     0.000 C 
ENDROOT
BRANCH   1   2
ATOM      2  C   UNL     1      -8.569   4.891 -11.174  1.00  0.00     0.000 C 
BRANCH   2   3
ATOM      3  C   UNL     1      -9.845   5.215 -10.381  1.00  0.00     0.000 C 
BRANCH   3   4
ATOM      4  C   UNL     1      -9.604   5.256  -8.862  1.00  0.00     0.000 C 
BRANCH   4   5
ATOM      5  C   UNL     1      -8.111   5.321  -8.504  1.00  0.00     0.000 C 
BRANCH   5   6
ATOM      6  C   UNL     1      -7.849   6.105  -7.207  1.00  0.00     0.000 C 
BRANCH   6   7
ATOM      7  C   UNL     1      -9.031   6.042  -6.221  1.00  0.00     0.000 C 
BRANCH   7   8
ATOM      8  C   UNL     1      -8.689   5.455  -4.838  1.00  0.00     0.000 C 
BRANCH   8   9
ATOM      9  C   UNL     1      -7.185   5.185  -4.660  1.00  0.00     0.000 C 
BRANCH   9  10
ATOM     10  C   UNL     1      -6.866   4.448  -3.349  1.00  0.00     0.000 C 
BRANCH  10  11
ATOM     11  C   UNL     1      -7.205   5.289  -2.105  1.00  0.00     0.000 C 
BRANCH  11  12
ATOM     12  C   UNL     1      -8.324   4.663  -1.257  1.00  0.00     0.000 C 
BRANCH  12  13
ATOM     13  C   UNL     1      -9.443   5.668  -0.930  1.00  0.00     0.006 C 
BRANCH  13  14
ATOM     14  C   UNL     1      -9.195   7.041  -1.569  1.00  0.00     0.053 C 
BRANCH  14  15
ATOM     15  C   UNL     1     -10.474   7.775  -1.830  1.00  0.00     0.041 C 
ATOM     16  O   UNL     1     -11.411   7.734  -0.989  1.00  0.00    -0.550 OA
ATOM     17  O   UNL     1     -10.622   8.529  -2.988  1.00  0.00    -0.550 OA
ENDBRANCH  14  15
ENDBRANCH  13  14
ENDBRANCH  12  13
ENDBRANCH  11  12
ENDBRANCH  10  11
ENDBRANCH   9  10
ENDBRANCH   8   9
ENDBRANCH   7   8
ENDBRANCH   6   7
ENDBRANCH   5   6
ENDBRANCH   4   5
ENDBRANCH   3   4
ENDBRANCH   2   3
ENDBRANCH   1   2
BRANCH   1  18
ATOM     18  C   UNL     1      -7.988   5.271 -13.639  1.00  0.00     0.000 C 
BRANCH  18  19
ATOM     19  C   UNL     1      -6.526   5.476 -13.198  1.00  0.00     0.000 C 
BRANCH  19  20
ATOM     20  C   UNL     1      -5.490   5.147 -14.295  1.00  0.00     0.000 C 
BRANCH  20  21
ATOM     21  C   UNL     1      -5.782   3.809 -14.997  1.00  0.00     0.000 C 
BRANCH  21  22
ATOM     22  C   UNL     1      -4.945   3.631 -16.283  1.00  0.00     0.000 C 
BRANCH  22  23
ATOM     23  C   UNL     1      -5.627   2.751 -17.346  1.00  0.00     0.000 C 
BRANCH  23  24
ATOM     24  C   UNL     1      -5.526   3.343 -18.761  1.00  0.00    -0.000 C 
BRANCH  24  25
ATOM     25  C   UNL     1      -6.898   3.692 -19.368  1.00  0.00    -0.000 C 
BRANCH  25  26
ATOM     26  C   UNL     1      -7.161   5.196 -19.593  1.00  0.00    -0.000 C 
BRANCH  26  27
ATOM     27  C   UNL     1      -8.271   5.805 -18.719  1.00  0.00    -0.000 C 
BRANCH  27  28
ATOM     28  C   UNL     1      -7.914   5.935 -17.225  1.00  0.00    -0.000 C 
BRANCH  28  29
ATOM     29  C   UNL     1      -7.772   7.398 -16.750  1.00  0.00    -0.000 C 
BRANCH  29  30
ATOM     30  C   UNL     1      -6.608   8.127 -17.442  1.00  0.00    -0.000 C 
BRANCH  30  31
ATOM     31  C   UNL     1      -5.247   7.800 -16.808  1.00  0.00    -0.003 C 
ATOM     32  C   UNL     1      -4.384   6.896 -17.687  1.00  0.00     0.004 C 
ENDBRANCH  30  31
ENDBRANCH  29  30
ENDBRANCH  28  29
ENDBRANCH  27  28
ENDBRANCH  26  27
ENDBRANCH  25  26
ENDBRANCH  24  25
ENDBRANCH  23  24
ENDBRANCH  22  23
ENDBRANCH  21  22
ENDBRANCH  20  21
ENDBRANCH  19  20
ENDBRANCH  18  19
ENDBRANCH   1  18
TORSDOF 28
ENDMDL
