MODEL 1
REMARK VINA RESULT:    -3.118      0.000      0.000
REMARK INTER + INTRA:          -3.633
REMARK INTER:                  -3.574
REMARK INTRA:                  -0.059
REMARK UNBOUND:                -0.059
REMARK SMILES CC(C)[C@H]([NH3+])C(=O)[O-]
REMARK SMILES IDX 4 1 5 2 6 6 7 7 8 8 2 9 1 10 3 11
REMARK H PARENT 5 3 5 4 5 5
REMARK Flexibility Score: inf
ROOT
ATOM      1  C   UNL     1      46.188  19.236  77.760  1.00  0.00     0.230 C 
ENDROOT
BRANCH   1   2
ATOM      2  N   UNL     1      46.978  18.434  78.709  1.00  0.00    -0.350 N 
ATOM      3  H   UNL     1      46.494  17.541  78.952  1.00  0.00     0.345 HD
ATOM      4  H   UNL     1      47.125  18.982  79.588  1.00  0.00     0.345 HD
ATOM      5  H   UNL     1      47.921  18.220  78.310  1.00  0.00     0.345 HD
ENDBRANCH   1   2
BRANCH   1   6
ATOM      6  C   UNL     1      45.176  20.088  78.487  1.00  0.00     0.099 C 
ATOM      7  O   UNL     1      45.536  21.099  79.146  1.00  0.00    -0.544 OA
ATOM      8  O   UNL     1      43.835  19.726  78.471  1.00  0.00    -0.544 OA
ENDBRANCH   1   6
BRANCH   1   9
ATOM      9  C   UNL     1      45.501  18.375  76.658  1.00  0.00     0.047 C 
ATOM     10  C   UNL     1      45.929  18.805  75.246  1.00  0.00     0.014 C 
ATOM     11  C   UNL     1      45.710  16.862  76.836  1.00  0.00     0.014 C 
ENDBRANCH   1   9
TORSDOF 3
ENDMDL
MODEL 2
REMARK VINA RESULT:    -3.030      2.258      3.422
REMARK INTER + INTRA:          -3.532
REMARK INTER:                  -3.474
REMARK INTRA:                  -0.058
REMARK UNBOUND:                -0.059
REMARK SMILES CC(C)[C@H]([NH3+])C(=O)[O-]
REMARK SMILES IDX 4 1 5 2 6 6 7 7 8 8 2 9 1 10 3 11
REMARK H PARENT 5 3 5 4 5 5
REMARK Flexibility Score: inf
ROOT
ATOM      1  C   UNL     1      45.599  18.391  77.782  1.00  0.00     0.230 C 
ENDROOT
BRANCH   1   2
ATOM      2  N   UNL     1      46.864  18.211  78.513  1.00  0.00    -0.350 N 
ATOM      3  H   UNL     1      47.609  17.815  77.897  1.00  0.00     0.345 HD
ATOM      4  H   UNL     1      46.712  17.554  79.313  1.00  0.00     0.345 HD
ATOM      5  H   UNL     1      47.189  19.121  78.911  1.00  0.00     0.345 HD
ENDBRANCH   1   2
BRANCH   1   6
ATOM      6  C   UNL     1      45.710  17.861  76.374  1.00  0.00     0.099 C 
ATOM      7  O   UNL     1      45.733  16.622  76.148  1.00  0.00    -0.544 OA
ATOM      8  O   UNL     1      45.839  18.749  75.313  1.00  0.00    -0.544 OA
ENDBRANCH   1   6
BRANCH   1   9
ATOM      9  C   UNL     1      45.099  19.868  77.783  1.00  0.00     0.047 C 
ATOM     10  C   UNL     1      43.720  20.004  78.446  1.00  0.00     0.014 C 
ATOM     11  C   UNL     1      46.092  20.855  78.419  1.00  0.00     0.014 C 
ENDBRANCH   1   9
TORSDOF 3
ENDMDL
MODEL 3
REMARK VINA RESULT:    -2.994      2.773      3.354
REMARK INTER + INTRA:          -3.490
REMARK INTER:                  -3.450
REMARK INTRA:                  -0.041
REMARK UNBOUND:                -0.059
REMARK SMILES CC(C)[C@H]([NH3+])C(=O)[O-]
REMARK SMILES IDX 4 1 5 2 6 6 7 7 8 8 2 9 1 10 3 11
REMARK H PARENT 5 3 5 4 5 5
REMARK Flexibility Score: inf
ROOT
ATOM      1  C   UNL     1      46.028  19.346  75.615  1.00  0.00     0.230 C 
ENDROOT
BRANCH   1   2
ATOM      2  N   UNL     1      46.101  18.401  74.489  1.00  0.00    -0.350 N 
ATOM      3  H   UNL     1      45.486  17.572  74.644  1.00  0.00     0.345 HD
ATOM      4  H   UNL     1      47.086  18.067  74.380  1.00  0.00     0.345 HD
ATOM      5  H   UNL     1      45.829  18.874  73.597  1.00  0.00     0.345 HD
ENDBRANCH   1   2
BRANCH   1   6
ATOM      6  C   UNL     1      47.215  20.277  75.616  1.00  0.00     0.099 C 
ATOM      7  O   UNL     1      47.645  20.779  74.543  1.00  0.00    -0.544 OA
ATOM      8  O   UNL     1      47.876  20.548  76.808  1.00  0.00    -0.544 OA
ENDBRANCH   1   6
BRANCH   1   9
ATOM      9  C   UNL     1      45.875  18.639  76.996  1.00  0.00     0.047 C 
ATOM     10  C   UNL     1      44.802  19.311  77.867  1.00  0.00     0.014 C 
ATOM     11  C   UNL     1      45.601  17.129  76.889  1.00  0.00     0.014 C 
ENDBRANCH   1   9
TORSDOF 3
ENDMDL
MODEL 4
REMARK VINA RESULT:    -2.987      2.272      3.345
REMARK INTER + INTRA:          -3.482
REMARK INTER:                  -3.422
REMARK INTRA:                  -0.060
REMARK UNBOUND:                -0.059
REMARK SMILES CC(C)[C@H]([NH3+])C(=O)[O-]
REMARK SMILES IDX 4 1 5 2 6 6 7 7 8 8 2 9 1 10 3 11
REMARK H PARENT 5 3 5 4 5 5
REMARK Flexibility Score: inf
ROOT
ATOM      1  C   UNL     1      45.989  18.497  77.965  1.00  0.00     0.230 C 
ENDROOT
BRANCH   1   2
ATOM      2  N   UNL     1      47.051  17.840  78.744  1.00  0.00    -0.350 N 
ATOM      3  H   UNL     1      46.773  17.718  79.743  1.00  0.00     0.345 HD
ATOM      4  H   UNL     1      47.918  18.423  78.710  1.00  0.00     0.345 HD
ATOM      5  H   UNL     1      47.283  16.907  78.332  1.00  0.00     0.345 HD
ENDBRANCH   1   2
BRANCH   1   6
ATOM      6  C   UNL     1      45.735  17.760  76.672  1.00  0.00     0.099 C 
ATOM      7  O   UNL     1      45.514  16.520  76.666  1.00  0.00    -0.544 OA
ATOM      8  O   UNL     1      45.794  18.448  75.466  1.00  0.00    -0.544 OA
ENDBRANCH   1   6
BRANCH   1   9
ATOM      9  C   UNL     1      46.273  20.006  77.698  1.00  0.00     0.047 C 
ATOM     10  C   UNL     1      45.436  20.915  78.612  1.00  0.00     0.014 C 
ATOM     11  C   UNL     1      47.761  20.381  77.797  1.00  0.00     0.014 C 
ENDBRANCH   1   9
TORSDOF 3
ENDMDL
MODEL 5
REMARK VINA RESULT:    -2.845     17.473     18.034
REMARK INTER + INTRA:          -3.319
REMARK INTER:                  -3.241
REMARK INTRA:                  -0.079
REMARK UNBOUND:                -0.059
REMARK SMILES CC(C)[C@H]([NH3+])C(=O)[O-]
REMARK SMILES IDX 4 1 5 2 6 6 7 7 8 8 2 9 1 10 3 11
REMARK H PARENT 5 3 5 4 5 5
REMARK Flexibility Score: inf
ROOT
ATOM      1  C   UNL     1      48.655  34.710  85.269  1.00  0.00     0.230 C 
ENDROOT
BRANCH   1   2
ATOM      2  N   UNL     1      47.889  35.759  84.577  1.00  0.00    -0.350 N 
ATOM      3  H   UNL     1      48.473  36.256  83.867  1.00  0.00     0.345 HD
ATOM      4  H   UNL     1      47.551  36.460  85.276  1.00  0.00     0.345 HD
ATOM      5  H   UNL     1      47.048  35.350  84.110  1.00  0.00     0.345 HD
ENDBRANCH   1   2
BRANCH   1   6
ATOM      6  C   UNL     1      48.640  34.928  86.762  1.00  0.00     0.099 C 
ATOM      7  O   UNL     1      49.197  35.935  87.276  1.00  0.00    -0.544 OA
ATOM      8  O   UNL     1      48.049  33.981  87.589  1.00  0.00    -0.544 OA
ENDBRANCH   1   6
BRANCH   1   9
ATOM      9  C   UNL     1      50.116  34.573  84.742  1.00  0.00     0.047 C 
ATOM     10  C   UNL     1      50.826  33.348  85.338  1.00  0.00     0.014 C 
ATOM     11  C   UNL     1      50.218  34.549  83.208  1.00  0.00     0.014 C 
ENDBRANCH   1   9
TORSDOF 3
ENDMDL
MODEL 6
REMARK VINA RESULT:    -2.808     10.989     11.712
REMARK INTER + INTRA:          -3.278
REMARK INTER:                  -3.216
REMARK INTRA:                  -0.061
REMARK UNBOUND:                -0.059
REMARK SMILES CC(C)[C@H]([NH3+])C(=O)[O-]
REMARK SMILES IDX 4 1 5 2 6 6 7 7 8 8 2 9 1 10 3 11
REMARK H PARENT 5 3 5 4 5 5
REMARK Flexibility Score: inf
ROOT
ATOM      1  C   UNL     1      54.256  18.517  86.028  1.00  0.00     0.230 C 
ENDROOT
BRANCH   1   2
ATOM      2  N   UNL     1      54.362  17.334  86.896  1.00  0.00    -0.350 N 
ATOM      3  H   UNL     1      54.564  16.470  86.344  1.00  0.00     0.345 HD
ATOM      4  H   UNL     1      53.459  17.197  87.406  1.00  0.00     0.345 HD
ATOM      5  H   UNL     1      55.110  17.472  87.613  1.00  0.00     0.345 HD
ENDBRANCH   1   2
BRANCH   1   6
ATOM      6  C   UNL     1      52.815  18.809  85.686  1.00  0.00     0.099 C 
ATOM      7  O   UNL     1      52.348  18.522  84.552  1.00  0.00    -0.544 OA
ATOM      8  O   UNL     1      52.004  19.448  86.616  1.00  0.00    -0.544 OA
ENDBRANCH   1   6
BRANCH   1   9
ATOM      9  C   UNL     1      55.122  18.406  84.736  1.00  0.00     0.047 C 
ATOM     10  C   UNL     1      56.066  19.608  84.576  1.00  0.00     0.014 C 
ATOM     11  C   UNL     1      55.916  17.093  84.637  1.00  0.00     0.014 C 
ENDBRANCH   1   9
TORSDOF 3
ENDMDL
MODEL 7
REMARK VINA RESULT:    -2.792      6.937      7.906
REMARK INTER + INTRA:          -3.260
REMARK INTER:                  -3.294
REMARK INTRA:                   0.034
REMARK UNBOUND:                -0.059
REMARK SMILES CC(C)[C@H]([NH3+])C(=O)[O-]
REMARK SMILES IDX 4 1 5 2 6 6 7 7 8 8 2 9 1 10 3 11
REMARK H PARENT 5 3 5 4 5 5
REMARK Flexibility Score: inf
ROOT
ATOM      1  C   UNL     1      38.753  19.247  80.320  1.00  0.00     0.230 C 
ENDROOT
BRANCH   1   2
ATOM      2  N   UNL     1      38.554  18.075  79.452  1.00  0.00    -0.350 N 
ATOM      3  H   UNL     1      39.124  17.260  79.772  1.00  0.00     0.345 HD
ATOM      4  H   UNL     1      38.839  18.315  78.474  1.00  0.00     0.345 HD
ATOM      5  H   UNL     1      37.545  17.805  79.429  1.00  0.00     0.345 HD
ENDBRANCH   1   2
BRANCH   1   6
ATOM      6  C   UNL     1      37.434  19.760  80.844  1.00  0.00     0.099 C 
ATOM      7  O   UNL     1      36.642  20.391  80.095  1.00  0.00    -0.544 OA
ATOM      8  O   UNL     1      37.108  19.578  82.182  1.00  0.00    -0.544 OA
ENDBRANCH   1   6
BRANCH   1   9
ATOM      9  C   UNL     1      39.559  20.388  79.630  1.00  0.00     0.047 C 
ATOM     10  C   UNL     1      39.617  21.654  80.499  1.00  0.00     0.014 C 
ATOM     11  C   UNL     1      40.978  19.972  79.205  1.00  0.00     0.014 C 
ENDBRANCH   1   9
TORSDOF 3
ENDMDL
MODEL 8
REMARK VINA RESULT:    -2.701     12.076     12.847
REMARK INTER + INTRA:          -3.154
REMARK INTER:                  -3.080
REMARK INTRA:                  -0.074
REMARK UNBOUND:                -0.059
REMARK SMILES CC(C)[C@H]([NH3+])C(=O)[O-]
REMARK SMILES IDX 4 1 5 2 6 6 7 7 8 8 2 9 1 10 3 11
REMARK H PARENT 5 3 5 4 5 5
REMARK Flexibility Score: inf
ROOT
ATOM      1  C   UNL     1      55.866  18.051  85.424  1.00  0.00     0.230 C 
ENDROOT
BRANCH   1   2
ATOM      2  N   UNL     1      56.018  17.295  84.170  1.00  0.00    -0.350 N 
ATOM      3  H   UNL     1      56.426  17.888  83.413  1.00  0.00     0.345 HD
ATOM      4  H   UNL     1      55.081  16.954  83.855  1.00  0.00     0.345 HD
ATOM      5  H   UNL     1      56.624  16.457  84.320  1.00  0.00     0.345 HD
ENDBRANCH   1   2
BRANCH   1   6
ATOM      6  C   UNL     1      55.651  17.119  86.592  1.00  0.00     0.099 C 
ATOM      7  O   UNL     1      55.556  15.875  86.419  1.00  0.00    -0.544 OA
ATOM      8  O   UNL     1      55.505  17.642  87.871  1.00  0.00    -0.544 OA
ENDBRANCH   1   6
BRANCH   1   9
ATOM      9  C   UNL     1      54.739  19.126  85.356  1.00  0.00     0.047 C 
ATOM     10  C   UNL     1      55.122  20.298  84.439  1.00  0.00     0.014 C 
ATOM     11  C   UNL     1      53.369  18.559  84.947  1.00  0.00     0.014 C 
ENDBRANCH   1   9
TORSDOF 3
ENDMDL
MODEL 9
REMARK VINA RESULT:    -1.516     17.327     18.299
REMARK INTER + INTRA:          -1.797
REMARK INTER:                  -1.871
REMARK INTRA:                   0.075
REMARK UNBOUND:                -0.059
REMARK SMILES CC(C)[C@H]([NH3+])C(=O)[O-]
REMARK SMILES IDX 4 1 5 2 6 6 7 7 8 8 2 9 1 10 3 11
REMARK H PARENT 5 3 5 4 5 5
REMARK Flexibility Score: inf
ROOT
ATOM      1  C   UNL     1      44.331  31.378  91.485  1.00  0.00     0.230 C 
ENDROOT
BRANCH   1   2
ATOM      2  N   UNL     1      44.502  32.521  92.396  1.00  0.00    -0.350 N 
ATOM      3  H   UNL     1      44.359  32.242  93.392  1.00  0.00     0.345 HD
ATOM      4  H   UNL     1      43.804  33.263  92.157  1.00  0.00     0.345 HD
ATOM      5  H   UNL     1      45.454  32.937  92.285  1.00  0.00     0.345 HD
ENDBRANCH   1   2
BRANCH   1   6
ATOM      6  C   UNL     1      43.646  30.229  92.185  1.00  0.00     0.099 C 
ATOM      7  O   UNL     1      42.435  29.964  91.962  1.00  0.00    -0.544 OA
ATOM      8  O   UNL     1      44.346  29.482  93.125  1.00  0.00    -0.544 OA
ENDBRANCH   1   6
BRANCH   1   9
ATOM      9  C   UNL     1      45.667  30.914  90.830  1.00  0.00     0.047 C 
ATOM     10  C   UNL     1      45.525  29.541  90.154  1.00  0.00     0.014 C 
ATOM     11  C   UNL     1      46.255  31.933  89.840  1.00  0.00     0.014 C 
ENDBRANCH   1   9
TORSDOF 3
ENDMDL
