MODEL 1
REMARK VINA RESULT:    -3.091      0.000      0.000
REMARK INTER + INTRA:          -4.105
REMARK INTER:                  -3.814
REMARK INTRA:                  -0.291
REMARK UNBOUND:                -0.291
REMARK SMILES C=CCc1ccc(OC)c(OC)c1
REMARK SMILES IDX 7 1 10 2 13 3 4 4 5 5 6 6 8 7 9 8 11 9 12 10 3 11 2 12 1 13
REMARK H PARENT
REMARK Flexibility Score: inf
ROOT
ATOM      1  C   UNL     1     119.355 114.345 114.554  1.00  0.00     0.160 A 
ATOM      2  C   UNL     1     118.980 115.600 115.058  1.00  0.00     0.160 A 
ATOM      3  C   UNL     1     118.854 116.694 114.180  1.00  0.00     0.054 A 
ATOM      4  C   UNL     1     119.095 116.539 112.808  1.00  0.00    -0.040 A 
ATOM      5  C   UNL     1     119.479 115.285 112.314  1.00  0.00     0.008 A 
ATOM      6  C   UNL     1     119.604 114.195 113.177  1.00  0.00     0.051 A 
ENDROOT
BRANCH   1   7
ATOM      7  O   UNL     1     119.470 113.272 115.453  1.00  0.00    -0.493 OA
ATOM      8  C   UNL     1     120.703 112.780 115.968  1.00  0.00     0.278 C 
ENDBRANCH   1   7
BRANCH   2   9
ATOM      9  O   UNL     1     118.742 115.720 116.438  1.00  0.00    -0.493 OA
ATOM     10  C   UNL     1     119.587 116.422 117.343  1.00  0.00     0.278 C 
ENDBRANCH   2   9
BRANCH   4  11
ATOM     11  C   UNL     1     118.991 117.717 111.876  1.00  0.00     0.062 C 
BRANCH  11  12
ATOM     12  C   UNL     1     119.149 119.008 112.629  1.00  0.00    -0.030 C 
ATOM     13  C   UNL     1     118.675 120.162 112.154  1.00  0.00     0.004 C 
ENDBRANCH  11  12
ENDBRANCH   4  11
TORSDOF 4
ENDMDL
MODEL 2
REMARK VINA RESULT:    -2.949     11.726     13.467
REMARK INTER + INTRA:          -3.930
REMARK INTER:                  -3.643
REMARK INTRA:                  -0.287
REMARK UNBOUND:                -0.291
REMARK SMILES C=CCc1ccc(OC)c(OC)c1
REMARK SMILES IDX 7 1 10 2 13 3 4 4 5 5 6 6 8 7 9 8 11 9 12 10 3 11 2 12 1 13
REMARK H PARENT
REMARK Flexibility Score: inf
ROOT
ATOM      1  C   UNL     1     110.722 126.024 115.670  1.00  0.00     0.160 A 
ATOM      2  C   UNL     1     110.628 126.138 117.066  1.00  0.00     0.160 A 
ATOM      3  C   UNL     1     111.609 125.542 117.882  1.00  0.00     0.054 A 
ATOM      4  C   UNL     1     112.681 124.841 117.312  1.00  0.00    -0.040 A 
ATOM      5  C   UNL     1     112.763 124.723 115.918  1.00  0.00     0.008 A 
ATOM      6  C   UNL     1     111.796 125.312 115.102  1.00  0.00     0.051 A 
ENDROOT
BRANCH   1   7
ATOM      7  O   UNL     1     109.730 126.632 114.883  1.00  0.00    -0.493 OA
ATOM      8  C   UNL     1     108.764 125.922 114.115  1.00  0.00     0.278 C 
ENDBRANCH   1   7
BRANCH   2   9
ATOM      9  O   UNL     1     109.543 126.850 117.605  1.00  0.00    -0.493 OA
ATOM     10  C   UNL     1     108.372 126.249 118.146  1.00  0.00     0.278 C 
ENDBRANCH   2   9
BRANCH   4  11
ATOM     11  C   UNL     1     113.712 124.177 118.186  1.00  0.00     0.062 C 
BRANCH  11  12
ATOM     12  C   UNL     1     113.260 124.155 119.619  1.00  0.00    -0.030 C 
ATOM     13  C   UNL     1     114.076 123.783 120.609  1.00  0.00     0.004 C 
ENDBRANCH  11  12
ENDBRANCH   4  11
TORSDOF 4
ENDMDL
MODEL 3
REMARK VINA RESULT:    -2.948      3.759      5.479
REMARK INTER + INTRA:          -3.929
REMARK INTER:                  -3.610
REMARK INTRA:                  -0.319
REMARK UNBOUND:                -0.291
REMARK SMILES C=CCc1ccc(OC)c(OC)c1
REMARK SMILES IDX 7 1 10 2 13 3 4 4 5 5 6 6 8 7 9 8 11 9 12 10 3 11 2 12 1 13
REMARK H PARENT
REMARK Flexibility Score: inf
ROOT
ATOM      1  C   UNL     1     117.267 117.045 112.331  1.00  0.00     0.160 A 
ATOM      2  C   UNL     1     117.854 115.787 112.540  1.00  0.00     0.160 A 
ATOM      3  C   UNL     1     117.069 114.623 112.421  1.00  0.00     0.054 A 
ATOM      4  C   UNL     1     115.709 114.711 112.090  1.00  0.00    -0.040 A 
ATOM      5  C   UNL     1     115.128 115.971 111.893  1.00  0.00     0.008 A 
ATOM      6  C   UNL     1     115.899 117.129 112.008  1.00  0.00     0.051 A 
ENDROOT
BRANCH   1   7
ATOM      7  O   UNL     1     118.075 118.187 112.455  1.00  0.00    -0.493 OA
ATOM      8  C   UNL     1     117.862 119.226 113.404  1.00  0.00     0.278 C 
ENDBRANCH   1   7
BRANCH   2   9
ATOM      9  O   UNL     1     119.219 115.734 112.866  1.00  0.00    -0.493 OA
ATOM     10  C   UNL     1     120.060 114.608 112.641  1.00  0.00     0.278 C 
ENDBRANCH   2   9
BRANCH   4  11
ATOM     11  C   UNL     1     114.864 113.468 111.995  1.00  0.00     0.062 C 
BRANCH  11  12
ATOM     12  C   UNL     1     113.663 113.570 112.892  1.00  0.00    -0.030 C 
ATOM     13  C   UNL     1     113.775 113.536 114.223  1.00  0.00     0.004 C 
ENDBRANCH  11  12
ENDBRANCH   4  11
TORSDOF 4
ENDMDL
MODEL 4
REMARK VINA RESULT:    -2.946      4.317      5.003
REMARK INTER + INTRA:          -3.927
REMARK INTER:                  -3.629
REMARK INTRA:                  -0.297
REMARK UNBOUND:                -0.291
REMARK SMILES C=CCc1ccc(OC)c(OC)c1
REMARK SMILES IDX 7 1 10 2 13 3 4 4 5 5 6 6 8 7 9 8 11 9 12 10 3 11 2 12 1 13
REMARK H PARENT
REMARK Flexibility Score: inf
ROOT
ATOM      1  C   UNL     1     118.924 119.631 115.037  1.00  0.00     0.160 A 
ATOM      2  C   UNL     1     117.610 119.249 115.348  1.00  0.00     0.160 A 
ATOM      3  C   UNL     1     116.667 119.090 114.314  1.00  0.00     0.054 A 
ATOM      4  C   UNL     1     117.032 119.304 112.977  1.00  0.00    -0.040 A 
ATOM      5  C   UNL     1     118.343 119.695 112.675  1.00  0.00     0.008 A 
ATOM      6  C   UNL     1     119.284 119.853 113.694  1.00  0.00     0.051 A 
ENDROOT
BRANCH   1   7
ATOM      7  O   UNL     1     119.843 119.779 116.089  1.00  0.00    -0.493 OA
ATOM      8  C   UNL     1     120.370 121.026 116.529  1.00  0.00     0.278 C 
ENDBRANCH   1   7
BRANCH   2   9
ATOM      9  O   UNL     1     117.278 119.039 116.697  1.00  0.00    -0.493 OA
ATOM     10  C   UNL     1     116.584 119.977 117.513  1.00  0.00     0.278 C 
ENDBRANCH   2   9
BRANCH   4  11
ATOM     11  C   UNL     1     116.014 119.165 111.875  1.00  0.00     0.062 C 
BRANCH  11  12
ATOM     12  C   UNL     1     114.620 119.301 112.418  1.00  0.00    -0.030 C 
ATOM     13  C   UNL     1     113.620 118.524 111.992  1.00  0.00     0.004 C 
ENDBRANCH  11  12
ENDBRANCH   4  11
TORSDOF 4
ENDMDL
MODEL 5
REMARK VINA RESULT:    -2.941      3.038      5.146
REMARK INTER + INTRA:          -3.920
REMARK INTER:                  -3.581
REMARK INTRA:                  -0.339
REMARK UNBOUND:                -0.291
REMARK SMILES C=CCc1ccc(OC)c(OC)c1
REMARK SMILES IDX 7 1 10 2 13 3 4 4 5 5 6 6 8 7 9 8 11 9 12 10 3 11 2 12 1 13
REMARK H PARENT
REMARK Flexibility Score: inf
ROOT
ATOM      1  C   UNL     1     116.244 116.999 112.093  1.00  0.00     0.160 A 
ATOM      2  C   UNL     1     117.413 117.650 112.517  1.00  0.00     0.160 A 
ATOM      3  C   UNL     1     118.592 116.905 112.720  1.00  0.00     0.054 A 
ATOM      4  C   UNL     1     118.607 115.520 112.496  1.00  0.00    -0.040 A 
ATOM      5  C   UNL     1     117.434 114.876 112.083  1.00  0.00     0.008 A 
ATOM      6  C   UNL     1     116.262 115.607 111.878  1.00  0.00     0.051 A 
ENDROOT
BRANCH   1   7
ATOM      7  O   UNL     1     115.086 117.768 111.896  1.00  0.00    -0.493 OA
ATOM      8  C   UNL     1     113.850 117.551 112.569  1.00  0.00     0.278 C 
ENDBRANCH   1   7
BRANCH   2   9
ATOM      9  O   UNL     1     117.364 119.037 112.728  1.00  0.00    -0.493 OA
ATOM     10  C   UNL     1     118.413 119.942 112.399  1.00  0.00     0.278 C 
ENDBRANCH   2   9
BRANCH   4  11
ATOM     11  C   UNL     1     119.859 114.720 112.745  1.00  0.00     0.062 C 
BRANCH  11  12
ATOM     12  C   UNL     1     119.629 113.691 113.815  1.00  0.00    -0.030 C 
ATOM     13  C   UNL     1     119.452 114.033 115.094  1.00  0.00     0.004 C 
ENDBRANCH  11  12
ENDBRANCH   4  11
TORSDOF 4
ENDMDL
MODEL 6
REMARK VINA RESULT:    -2.939      2.332      3.322
REMARK INTER + INTRA:          -3.917
REMARK INTER:                  -3.581
REMARK INTRA:                  -0.336
REMARK UNBOUND:                -0.291
REMARK SMILES C=CCc1ccc(OC)c(OC)c1
REMARK SMILES IDX 7 1 10 2 13 3 4 4 5 5 6 6 8 7 9 8 11 9 12 10 3 11 2 12 1 13
REMARK H PARENT
REMARK Flexibility Score: inf
ROOT
ATOM      1  C   UNL     1     116.889 115.269 113.073  1.00  0.00     0.160 A 
ATOM      2  C   UNL     1     118.281 115.164 112.934  1.00  0.00     0.160 A 
ATOM      3  C   UNL     1     119.034 116.299 112.577  1.00  0.00     0.054 A 
ATOM      4  C   UNL     1     118.405 117.535 112.366  1.00  0.00    -0.040 A 
ATOM      5  C   UNL     1     117.013 117.629 112.497  1.00  0.00     0.008 A 
ATOM      6  C   UNL     1     116.259 116.509 112.852  1.00  0.00     0.051 A 
ENDROOT
BRANCH   1   7
ATOM      7  O   UNL     1     116.165 114.120 113.432  1.00  0.00    -0.493 OA
ATOM      8  C   UNL     1     114.747 114.065 113.551  1.00  0.00     0.278 C 
ENDBRANCH   1   7
BRANCH   2   9
ATOM      9  O   UNL     1     118.880 113.913 113.157  1.00  0.00    -0.493 OA
ATOM     10  C   UNL     1     119.614 113.566 114.326  1.00  0.00     0.278 C 
ENDBRANCH   2   9
BRANCH   4  11
ATOM     11  C   UNL     1     119.207 118.740 111.953  1.00  0.00     0.062 C 
BRANCH  11  12
ATOM     12  C   UNL     1     118.955 119.892 112.884  1.00  0.00    -0.030 C 
ATOM     13  C   UNL     1     119.539 119.968 114.083  1.00  0.00     0.004 C 
ENDBRANCH  11  12
ENDBRANCH   4  11
TORSDOF 4
ENDMDL
MODEL 7
REMARK VINA RESULT:    -2.939      3.477      4.395
REMARK INTER + INTRA:          -3.917
REMARK INTER:                  -3.584
REMARK INTRA:                  -0.333
REMARK UNBOUND:                -0.291
REMARK SMILES C=CCc1ccc(OC)c(OC)c1
REMARK SMILES IDX 7 1 10 2 13 3 4 4 5 5 6 6 8 7 9 8 11 9 12 10 3 11 2 12 1 13
REMARK H PARENT
REMARK Flexibility Score: inf
ROOT
ATOM      1  C   UNL     1     118.015 117.024 112.716  1.00  0.00     0.160 A 
ATOM      2  C   UNL     1     118.071 118.426 112.705  1.00  0.00     0.160 A 
ATOM      3  C   UNL     1     116.903 119.169 112.441  1.00  0.00     0.054 A 
ATOM      4  C   UNL     1     115.685 118.519 112.193  1.00  0.00    -0.040 A 
ATOM      5  C   UNL     1     115.640 117.118 112.195  1.00  0.00     0.008 A 
ATOM      6  C   UNL     1     116.792 116.375 112.459  1.00  0.00     0.051 A 
ENDROOT
BRANCH   1   7
ATOM      7  O   UNL     1     119.194 116.310 112.985  1.00  0.00    -0.493 OA
ATOM      8  C   UNL     1     119.247 114.915 113.262  1.00  0.00     0.278 C 
ENDBRANCH   1   7
BRANCH   2   9
ATOM      9  O   UNL     1     119.305 119.045 112.961  1.00  0.00    -0.493 OA
ATOM     10  C   UNL     1     119.601 119.805 114.127  1.00  0.00     0.278 C 
ENDBRANCH   2   9
BRANCH   4  11
ATOM     11  C   UNL     1     114.445 119.313 111.878  1.00  0.00     0.062 C 
BRANCH  11  12
ATOM     12  C   UNL     1     113.351 119.005 112.861  1.00  0.00    -0.030 C 
ATOM     13  C   UNL     1     113.327 119.548 114.081  1.00  0.00     0.004 C 
ENDBRANCH  11  12
ENDBRANCH   4  11
TORSDOF 4
ENDMDL
MODEL 8
REMARK VINA RESULT:    -2.910      3.153      4.048
REMARK INTER + INTRA:          -3.881
REMARK INTER:                  -3.530
REMARK INTRA:                  -0.351
REMARK UNBOUND:                -0.291
REMARK SMILES C=CCc1ccc(OC)c(OC)c1
REMARK SMILES IDX 7 1 10 2 13 3 4 4 5 5 6 6 8 7 9 8 11 9 12 10 3 11 2 12 1 13
REMARK H PARENT
REMARK Flexibility Score: inf
ROOT
ATOM      1  C   UNL     1     116.585 115.596 112.887  1.00  0.00     0.160 A 
ATOM      2  C   UNL     1     116.036 116.881 112.756  1.00  0.00     0.160 A 
ATOM      3  C   UNL     1     116.873 117.967 112.431  1.00  0.00     0.054 A 
ATOM      4  C   UNL     1     118.248 117.773 112.232  1.00  0.00    -0.040 A 
ATOM      5  C   UNL     1     118.790 116.489 112.375  1.00  0.00     0.008 A 
ATOM      6  C   UNL     1     117.968 115.408 112.695  1.00  0.00     0.051 A 
ENDROOT
BRANCH   1   7
ATOM      7  O   UNL     1     115.726 114.533 113.209  1.00  0.00    -0.493 OA
ATOM      8  C   UNL     1     115.188 113.616 112.263  1.00  0.00     0.278 C 
ENDBRANCH   1   7
BRANCH   2   9
ATOM      9  O   UNL     1     114.656 117.040 112.958  1.00  0.00    -0.493 OA
ATOM     10  C   UNL     1     113.725 117.388 111.939  1.00  0.00     0.278 C 
ENDBRANCH   2   9
BRANCH   4  11
ATOM     11  C   UNL     1     119.146 118.940 111.916  1.00  0.00     0.062 C 
BRANCH  11  12
ATOM     12  C   UNL     1     118.976 120.034 112.933  1.00  0.00    -0.030 C 
ATOM     13  C   UNL     1     119.598 119.999 114.114  1.00  0.00     0.004 C 
ENDBRANCH  11  12
ENDBRANCH   4  11
TORSDOF 4
ENDMDL
MODEL 9
REMARK VINA RESULT:    -2.695      3.883      5.596
REMARK INTER + INTRA:          -3.617
REMARK INTER:                  -3.276
REMARK INTRA:                  -0.340
REMARK UNBOUND:                -0.291
REMARK SMILES C=CCc1ccc(OC)c(OC)c1
REMARK SMILES IDX 7 1 10 2 13 3 4 4 5 5 6 6 8 7 9 8 11 9 12 10 3 11 2 12 1 13
REMARK H PARENT
REMARK Flexibility Score: inf
ROOT
ATOM      1  C   UNL     1     115.221 116.502 112.918  1.00  0.00     0.160 A 
ATOM      2  C   UNL     1     115.126 115.112 112.745  1.00  0.00     0.160 A 
ATOM      3  C   UNL     1     116.277 114.370 112.414  1.00  0.00     0.054 A 
ATOM      4  C   UNL     1     117.517 115.008 112.261  1.00  0.00    -0.040 A 
ATOM      5  C   UNL     1     117.602 116.397 112.425  1.00  0.00     0.008 A 
ATOM      6  C   UNL     1     116.466 117.139 112.755  1.00  0.00     0.051 A 
ENDROOT
BRANCH   1   7
ATOM      7  O   UNL     1     114.057 117.214 113.250  1.00  0.00    -0.493 OA
ATOM      8  C   UNL     1     113.569 118.341 112.530  1.00  0.00     0.278 C 
ENDBRANCH   1   7
BRANCH   2   9
ATOM      9  O   UNL     1     113.870 114.505 112.909  1.00  0.00    -0.493 OA
ATOM     10  C   UNL     1     113.618 113.390 113.756  1.00  0.00     0.278 C 
ENDBRANCH   2   9
BRANCH   4  11
ATOM     11  C   UNL     1     118.740 114.218 111.875  1.00  0.00     0.062 C 
BRANCH  11  12
ATOM     12  C   UNL     1     119.819 114.368 112.910  1.00  0.00    -0.030 C 
ATOM     13  C   UNL     1     119.723 113.797 114.114  1.00  0.00     0.004 C 
ENDBRANCH  11  12
ENDBRANCH   4  11
TORSDOF 4
ENDMDL
