MODEL 1
REMARK VINA RESULT:    -4.914      0.000      0.000
REMARK INTER + INTRA:         -11.046
REMARK INTER:                  -8.935
REMARK INTRA:                  -2.110
REMARK UNBOUND:                -2.110
REMARK SMILES CCCCCCCCCCCCCCCC(=O)[O-]
REMARK SMILES IDX 9 1 10 2 11 3 12 4 13 5 14 6 15 7 16 8 17 9 18 10 8 11 7 12
REMARK SMILES IDX 6 13 5 14 4 15 3 16 2 17 1 18
REMARK H PARENT
REMARK Flexibility Score: inf
ROOT
ATOM      1  C   UNL     1     -25.377   7.005 -31.885  1.00  0.00     0.000 C 
ENDROOT
BRANCH   1   2
ATOM      2  C   UNL     1     -25.055   7.782 -33.175  1.00  0.00     0.000 C 
BRANCH   2   3
ATOM      3  C   UNL     1     -25.511   9.250 -33.121  1.00  0.00     0.000 C 
BRANCH   3   4
ATOM      4  C   UNL     1     -24.468  10.214 -33.710  1.00  0.00     0.000 C 
BRANCH   4   5
ATOM      5  C   UNL     1     -24.026  11.293 -32.711  1.00  0.00     0.000 C 
BRANCH   5   6
ATOM      6  C   UNL     1     -23.226  12.398 -33.415  1.00  0.00     0.006 C 
BRANCH   6   7
ATOM      7  C   UNL     1     -22.724  13.468 -32.436  1.00  0.00     0.053 C 
BRANCH   7   8
ATOM      8  C   UNL     1     -21.606  12.958 -31.579  1.00  0.00     0.041 C 
ATOM      9  O   UNL     1     -20.664  12.300 -32.093  1.00  0.00    -0.550 OA
ATOM     10  O   UNL     1     -21.586  13.239 -30.219  1.00  0.00    -0.550 OA
ENDBRANCH   7   8
ENDBRANCH   6   7
ENDBRANCH   5   6
ENDBRANCH   4   5
ENDBRANCH   3   4
ENDBRANCH   2   3
ENDBRANCH   1   2
BRANCH   1  11
ATOM     11  C   UNL     1     -24.164   6.375 -31.176  1.00  0.00     0.000 C 
BRANCH  11  12
ATOM     12  C   UNL     1     -22.821   6.928 -31.681  1.00  0.00    -0.000 C 
BRANCH  12  13
ATOM     13  C   UNL     1     -21.975   7.544 -30.554  1.00  0.00    -0.000 C 
BRANCH  13  14
ATOM     14  C   UNL     1     -21.772   9.057 -30.725  1.00  0.00    -0.000 C 
BRANCH  14  15
ATOM     15  C   UNL     1     -22.302   9.823 -29.503  1.00  0.00    -0.000 C 
BRANCH  15  16
ATOM     16  C   UNL     1     -23.837   9.836 -29.433  1.00  0.00    -0.000 C 
BRANCH  16  17
ATOM     17  C   UNL     1     -24.378   9.190 -28.149  1.00  0.00    -0.003 C 
ATOM     18  C   UNL     1     -23.650   9.721 -26.917  1.00  0.00     0.004 C 
ENDBRANCH  16  17
ENDBRANCH  15  16
ENDBRANCH  14  15
ENDBRANCH  13  14
ENDBRANCH  12  13
ENDBRANCH  11  12
ENDBRANCH   1  11
TORSDOF 14
ENDMDL
MODEL 2
REMARK VINA RESULT:    -4.877      2.027      4.576
REMARK INTER + INTRA:         -10.978
REMARK INTER:                  -9.107
REMARK INTRA:                  -1.871
REMARK UNBOUND:                -2.110
REMARK SMILES CCCCCCCCCCCCCCCC(=O)[O-]
REMARK SMILES IDX 9 1 10 2 11 3 12 4 13 5 14 6 15 7 16 8 17 9 18 10 8 11 7 12
REMARK SMILES IDX 6 13 5 14 4 15 3 16 2 17 1 18
REMARK H PARENT
REMARK Flexibility Score: inf
ROOT
ATOM      1  C   UNL     1     -24.571   8.137 -33.328  1.00  0.00     0.000 C 
ENDROOT
BRANCH   1   2
ATOM      2  C   UNL     1     -25.402   7.230 -32.401  1.00  0.00     0.000 C 
BRANCH   2   3
ATOM      3  C   UNL     1     -24.691   6.919 -31.073  1.00  0.00     0.000 C 
BRANCH   3   4
ATOM      4  C   UNL     1     -23.175   7.167 -31.144  1.00  0.00     0.000 C 
BRANCH   4   5
ATOM      5  C   UNL     1     -22.677   8.116 -30.044  1.00  0.00     0.000 C 
BRANCH   5   6
ATOM      6  C   UNL     1     -23.855   8.763 -29.303  1.00  0.00     0.006 C 
BRANCH   6   7
ATOM      7  C   UNL     1     -23.475  10.105 -28.663  1.00  0.00     0.053 C 
BRANCH   7   8
ATOM      8  C   UNL     1     -23.203   9.965 -27.196  1.00  0.00     0.041 C 
ATOM      9  O   UNL     1     -23.474   8.889 -26.602  1.00  0.00    -0.550 OA
ATOM     10  O   UNL     1     -22.618  11.010 -26.493  1.00  0.00    -0.550 OA
ENDBRANCH   7   8
ENDBRANCH   6   7
ENDBRANCH   5   6
ENDBRANCH   4   5
ENDBRANCH   3   4
ENDBRANCH   2   3
ENDBRANCH   1   2
BRANCH   1  11
ATOM     11  C   UNL     1     -25.122   9.561 -33.524  1.00  0.00     0.000 C 
BRANCH  11  12
ATOM     12  C   UNL     1     -24.775  10.504 -32.359  1.00  0.00    -0.000 C 
BRANCH  12  13
ATOM     13  C   UNL     1     -23.344  11.057 -32.455  1.00  0.00    -0.000 C 
BRANCH  13  14
ATOM     14  C   UNL     1     -23.298  12.489 -33.010  1.00  0.00    -0.000 C 
BRANCH  14  15
ATOM     15  C   UNL     1     -22.284  13.345 -32.236  1.00  0.00    -0.000 C 
BRANCH  15  16
ATOM     16  C   UNL     1     -21.409  12.511 -31.285  1.00  0.00    -0.000 C 
BRANCH  16  17
ATOM     17  C   UNL     1     -21.447  13.027 -29.839  1.00  0.00    -0.003 C 
ATOM     18  C   UNL     1     -20.129  13.698 -29.461  1.00  0.00     0.004 C 
ENDBRANCH  16  17
ENDBRANCH  15  16
ENDBRANCH  14  15
ENDBRANCH  13  14
ENDBRANCH  12  13
ENDBRANCH  11  12
ENDBRANCH   1  11
TORSDOF 14
ENDMDL
MODEL 3
REMARK VINA RESULT:    -4.819      1.998      4.835
REMARK INTER + INTRA:         -10.874
REMARK INTER:                  -9.008
REMARK INTRA:                  -1.866
REMARK UNBOUND:                -2.110
REMARK SMILES CCCCCCCCCCCCCCCC(=O)[O-]
REMARK SMILES IDX 9 1 10 2 11 3 12 4 13 5 14 6 15 7 16 8 17 9 18 10 8 11 7 12
REMARK SMILES IDX 6 13 5 14 4 15 3 16 2 17 1 18
REMARK H PARENT
REMARK Flexibility Score: inf
ROOT
ATOM      1  C   UNL     1     -23.583   6.031 -31.290  1.00  0.00     0.000 C 
ENDROOT
BRANCH   1   2
ATOM      2  C   UNL     1     -22.282   6.708 -30.820  1.00  0.00     0.000 C 
BRANCH   2   3
ATOM      3  C   UNL     1     -21.988   8.021 -31.565  1.00  0.00     0.000 C 
BRANCH   3   4
ATOM      4  C   UNL     1     -21.902   9.230 -30.618  1.00  0.00     0.000 C 
BRANCH   4   5
ATOM      5  C   UNL     1     -22.559   8.964 -29.255  1.00  0.00     0.000 C 
BRANCH   5   6
ATOM      6  C   UNL     1     -23.819   9.821 -29.076  1.00  0.00     0.006 C 
BRANCH   6   7
ATOM      7  C   UNL     1     -24.403   9.711 -27.661  1.00  0.00     0.053 C 
BRANCH   7   8
ATOM      8  C   UNL     1     -23.328   9.685 -26.617  1.00  0.00     0.041 C 
ATOM      9  O   UNL     1     -23.061   8.615 -26.010  1.00  0.00    -0.550 OA
ATOM     10  O   UNL     1     -22.599  10.833 -26.339  1.00  0.00    -0.550 OA
ENDBRANCH   7   8
ENDBRANCH   6   7
ENDBRANCH   5   6
ENDBRANCH   4   5
ENDBRANCH   3   4
ENDBRANCH   2   3
ENDBRANCH   1   2
BRANCH   1  11
ATOM     11  C   UNL     1     -24.882   6.761 -30.902  1.00  0.00     0.000 C 
BRANCH  11  12
ATOM     12  C   UNL     1     -25.826   6.981 -32.096  1.00  0.00    -0.000 C 
BRANCH  12  13
ATOM     13  C   UNL     1     -25.110   7.599 -33.308  1.00  0.00    -0.000 C 
BRANCH  13  14
ATOM     14  C   UNL     1     -25.275   9.126 -33.379  1.00  0.00    -0.000 C 
BRANCH  14  15
ATOM     15  C   UNL     1     -24.483   9.708 -34.559  1.00  0.00    -0.000 C 
BRANCH  15  16
ATOM     16  C   UNL     1     -23.826  11.057 -34.224  1.00  0.00    -0.000 C 
BRANCH  16  17
ATOM     17  C   UNL     1     -23.994  11.447 -32.748  1.00  0.00    -0.003 C 
ATOM     18  C   UNL     1     -23.153  12.673 -32.404  1.00  0.00     0.004 C 
ENDBRANCH  16  17
ENDBRANCH  15  16
ENDBRANCH  14  15
ENDBRANCH  13  14
ENDBRANCH  12  13
ENDBRANCH  11  12
ENDBRANCH   1  11
TORSDOF 14
ENDMDL
MODEL 4
REMARK VINA RESULT:    -4.809      2.625      5.574
REMARK INTER + INTRA:         -10.856
REMARK INTER:                  -9.486
REMARK INTRA:                  -1.369
REMARK UNBOUND:                -2.110
REMARK SMILES CCCCCCCCCCCCCCCC(=O)[O-]
REMARK SMILES IDX 9 1 10 2 11 3 12 4 13 5 14 6 15 7 16 8 17 9 18 10 8 11 7 12
REMARK SMILES IDX 6 13 5 14 4 15 3 16 2 17 1 18
REMARK H PARENT
REMARK Flexibility Score: inf
ROOT
ATOM      1  C   UNL     1     -23.224   7.262 -30.854  1.00  0.00     0.000 C 
ENDROOT
BRANCH   1   2
ATOM      2  C   UNL     1     -22.801   8.271 -29.770  1.00  0.00     0.000 C 
BRANCH   2   3
ATOM      3  C   UNL     1     -23.796   9.433 -29.612  1.00  0.00     0.000 C 
BRANCH   3   4
ATOM      4  C   UNL     1     -24.345   9.550 -28.181  1.00  0.00     0.000 C 
BRANCH   4   5
ATOM      5  C   UNL     1     -23.278   9.998 -27.170  1.00  0.00     0.000 C 
BRANCH   5   6
ATOM      6  C   UNL     1     -23.140   8.978 -26.031  1.00  0.00     0.006 C 
BRANCH   6   7
ATOM      7  C   UNL     1     -21.801   8.230 -26.078  1.00  0.00     0.053 C 
BRANCH   7   8
ATOM      8  C   UNL     1     -20.784   8.850 -25.168  1.00  0.00     0.041 C 
ATOM      9  O   UNL     1     -19.616   8.386 -25.115  1.00  0.00    -0.550 OA
ATOM     10  O   UNL     1     -21.119   9.961 -24.405  1.00  0.00    -0.550 OA
ENDBRANCH   7   8
ENDBRANCH   6   7
ENDBRANCH   5   6
ENDBRANCH   4   5
ENDBRANCH   3   4
ENDBRANCH   2   3
ENDBRANCH   1   2
BRANCH   1  11
ATOM     11  C   UNL     1     -24.725   6.919 -30.884  1.00  0.00     0.000 C 
BRANCH  11  12
ATOM     12  C   UNL     1     -25.333   7.011 -32.293  1.00  0.00    -0.000 C 
BRANCH  12  13
ATOM     13  C   UNL     1     -24.568   7.985 -33.204  1.00  0.00    -0.000 C 
BRANCH  13  14
ATOM     14  C   UNL     1     -25.330   9.298 -33.440  1.00  0.00    -0.000 C 
BRANCH  14  15
ATOM     15  C   UNL     1     -24.359  10.444 -33.763  1.00  0.00    -0.000 C 
BRANCH  15  16
ATOM     16  C   UNL     1     -24.105  11.363 -32.557  1.00  0.00    -0.000 C 
BRANCH  16  17
ATOM     17  C   UNL     1     -22.742  12.068 -32.626  1.00  0.00    -0.003 C 
ATOM     18  C   UNL     1     -22.897  13.579 -32.479  1.00  0.00     0.004 C 
ENDBRANCH  16  17
ENDBRANCH  15  16
ENDBRANCH  14  15
ENDBRANCH  13  14
ENDBRANCH  12  13
ENDBRANCH  11  12
ENDBRANCH   1  11
TORSDOF 14
ENDMDL
MODEL 5
REMARK VINA RESULT:    -4.736     12.069     13.895
REMARK INTER + INTRA:         -10.722
REMARK INTER:                  -8.909
REMARK INTRA:                  -1.813
REMARK UNBOUND:                -2.110
REMARK SMILES CCCCCCCCCCCCCCCC(=O)[O-]
REMARK SMILES IDX 9 1 10 2 11 3 12 4 13 5 14 6 15 7 16 8 17 9 18 10 8 11 7 12
REMARK SMILES IDX 6 13 5 14 4 15 3 16 2 17 1 18
REMARK H PARENT
REMARK Flexibility Score: inf
ROOT
ATOM      1  C   UNL     1      -9.702   8.267 -31.337  1.00  0.00     0.000 C 
ENDROOT
BRANCH   1   2
ATOM      2  C   UNL     1     -10.979   8.894 -30.745  1.00  0.00     0.000 C 
BRANCH   2   3
ATOM      3  C   UNL     1     -10.828   9.273 -29.262  1.00  0.00     0.000 C 
BRANCH   3   4
ATOM      4  C   UNL     1      -9.838  10.430 -29.047  1.00  0.00     0.000 C 
BRANCH   4   5
ATOM      5  C   UNL     1      -9.114  10.347 -27.695  1.00  0.00     0.000 C 
BRANCH   5   6
ATOM      6  C   UNL     1     -10.019   9.721 -26.625  1.00  0.00     0.006 C 
BRANCH   6   7
ATOM      7  C   UNL     1     -10.693  10.779 -25.741  1.00  0.00     0.053 C 
BRANCH   7   8
ATOM      8  C   UNL     1     -12.127  10.990 -26.121  1.00  0.00     0.041 C 
ATOM      9  O   UNL     1     -12.885  10.003 -26.304  1.00  0.00    -0.550 OA
ATOM     10  O   UNL     1     -12.634  12.278 -26.238  1.00  0.00    -0.550 OA
ENDBRANCH   7   8
ENDBRANCH   6   7
ENDBRANCH   5   6
ENDBRANCH   4   5
ENDBRANCH   3   4
ENDBRANCH   2   3
ENDBRANCH   1   2
BRANCH   1  11
ATOM     11  C   UNL     1      -9.878   7.587 -32.707  1.00  0.00     0.000 C 
BRANCH  11  12
ATOM     12  C   UNL     1      -9.515   8.508 -33.885  1.00  0.00    -0.000 C 
BRANCH  12  13
ATOM     13  C   UNL     1      -8.528   9.617 -33.485  1.00  0.00    -0.000 C 
BRANCH  13  14
ATOM     14  C   UNL     1      -9.107  11.026 -33.685  1.00  0.00    -0.000 C 
BRANCH  14  15
ATOM     15  C   UNL     1      -8.430  12.035 -32.745  1.00  0.00    -0.000 C 
BRANCH  15  16
ATOM     16  C   UNL     1      -9.410  12.652 -31.734  1.00  0.00    -0.000 C 
BRANCH  16  17
ATOM     17  C   UNL     1     -10.879  12.394 -32.099  1.00  0.00    -0.003 C 
ATOM     18  C   UNL     1     -11.816  12.931 -31.021  1.00  0.00     0.004 C 
ENDBRANCH  16  17
ENDBRANCH  15  16
ENDBRANCH  14  15
ENDBRANCH  13  14
ENDBRANCH  12  13
ENDBRANCH  11  12
ENDBRANCH   1  11
TORSDOF 14
ENDMDL
MODEL 6
REMARK VINA RESULT:    -4.721     11.835     13.828
REMARK INTER + INTRA:         -10.695
REMARK INTER:                  -9.073
REMARK INTRA:                  -1.623
REMARK UNBOUND:                -2.110
REMARK SMILES CCCCCCCCCCCCCCCC(=O)[O-]
REMARK SMILES IDX 9 1 10 2 11 3 12 4 13 5 14 6 15 7 16 8 17 9 18 10 8 11 7 12
REMARK SMILES IDX 6 13 5 14 4 15 3 16 2 17 1 18
REMARK H PARENT
REMARK Flexibility Score: inf
ROOT
ATOM      1  C   UNL     1      -8.945  12.587 -31.650  1.00  0.00     0.000 C 
ENDROOT
BRANCH   1   2
ATOM      2  C   UNL     1      -8.214  11.853 -32.790  1.00  0.00     0.000 C 
BRANCH   2   3
ATOM      3  C   UNL     1      -9.095  10.803 -33.488  1.00  0.00     0.000 C 
BRANCH   3   4
ATOM      4  C   UNL     1      -8.718   9.364 -33.100  1.00  0.00     0.000 C 
BRANCH   4   5
ATOM      5  C   UNL     1      -9.876   8.374 -33.293  1.00  0.00     0.000 C 
BRANCH   5   6
ATOM      6  C   UNL     1      -9.952   7.384 -32.122  1.00  0.00     0.006 C 
BRANCH   6   7
ATOM      7  C   UNL     1     -10.964   6.258 -32.375  1.00  0.00     0.053 C 
BRANCH   7   8
ATOM      8  C   UNL     1     -12.222   6.453 -31.586  1.00  0.00     0.041 C 
ATOM      9  O   UNL     1     -13.344   6.332 -32.143  1.00  0.00    -0.550 OA
ATOM     10  O   UNL     1     -12.156   6.734 -30.227  1.00  0.00    -0.550 OA
ENDBRANCH   7   8
ENDBRANCH   6   7
ENDBRANCH   5   6
ENDBRANCH   4   5
ENDBRANCH   3   4
ENDBRANCH   2   3
ENDBRANCH   1   2
BRANCH   1  11
ATOM     11  C   UNL     1     -10.481  12.498 -31.689  1.00  0.00     0.000 C 
BRANCH  11  12
ATOM     12  C   UNL     1     -11.071  11.770 -30.469  1.00  0.00    -0.000 C 
BRANCH  12  13
ATOM     13  C   UNL     1      -9.990  11.114 -29.594  1.00  0.00    -0.000 C 
BRANCH  13  14
ATOM     14  C   UNL     1     -10.241   9.615 -29.368  1.00  0.00    -0.000 C 
BRANCH  14  15
ATOM     15  C   UNL     1     -10.719   9.350 -27.932  1.00  0.00    -0.000 C 
BRANCH  15  16
ATOM     16  C   UNL     1      -9.852  10.059 -26.879  1.00  0.00    -0.000 C 
BRANCH  16  17
ATOM     17  C   UNL     1     -10.687  10.813 -25.833  1.00  0.00    -0.003 C 
ATOM     18  C   UNL     1     -11.554  11.883 -26.489  1.00  0.00     0.004 C 
ENDBRANCH  16  17
ENDBRANCH  15  16
ENDBRANCH  14  15
ENDBRANCH  13  14
ENDBRANCH  12  13
ENDBRANCH  11  12
ENDBRANCH   1  11
TORSDOF 14
ENDMDL
MODEL 7
REMARK VINA RESULT:    -4.687      2.431      4.882
REMARK INTER + INTRA:         -10.633
REMARK INTER:                  -8.865
REMARK INTRA:                  -1.768
REMARK UNBOUND:                -2.110
REMARK SMILES CCCCCCCCCCCCCCCC(=O)[O-]
REMARK SMILES IDX 9 1 10 2 11 3 12 4 13 5 14 6 15 7 16 8 17 9 18 10 8 11 7 12
REMARK SMILES IDX 6 13 5 14 4 15 3 16 2 17 1 18
REMARK H PARENT
REMARK Flexibility Score: inf
ROOT
ATOM      1  C   UNL     1     -23.991  11.535 -32.519  1.00  0.00     0.000 C 
ENDROOT
BRANCH   1   2
ATOM      2  C   UNL     1     -24.127  10.655 -33.776  1.00  0.00     0.000 C 
BRANCH   2   3
ATOM      3  C   UNL     1     -25.183   9.548 -33.621  1.00  0.00     0.000 C 
BRANCH   3   4
ATOM      4  C   UNL     1     -24.557   8.148 -33.508  1.00  0.00     0.000 C 
BRANCH   4   5
ATOM      5  C   UNL     1     -25.378   7.200 -32.621  1.00  0.00     0.000 C 
BRANCH   5   6
ATOM      6  C   UNL     1     -24.654   6.924 -31.296  1.00  0.00     0.006 C 
BRANCH   6   7
ATOM      7  C   UNL     1     -23.899   5.588 -31.312  1.00  0.00     0.053 C 
BRANCH   7   8
ATOM      8  C   UNL     1     -22.440   5.776 -31.598  1.00  0.00     0.041 C 
ATOM      9  O   UNL     1     -22.010   5.687 -32.778  1.00  0.00    -0.550 OA
ATOM     10  O   UNL     1     -21.563   6.084 -30.567  1.00  0.00    -0.550 OA
ENDBRANCH   7   8
ENDBRANCH   6   7
ENDBRANCH   5   6
ENDBRANCH   4   5
ENDBRANCH   3   4
ENDBRANCH   2   3
ENDBRANCH   1   2
BRANCH   1  11
ATOM     11  C   UNL     1     -23.014  12.718 -32.647  1.00  0.00     0.000 C 
BRANCH  11  12
ATOM     12  C   UNL     1     -21.652  12.446 -31.986  1.00  0.00    -0.000 C 
BRANCH  12  13
ATOM     13  C   UNL     1     -21.575  12.986 -30.550  1.00  0.00    -0.000 C 
BRANCH  13  14
ATOM     14  C   UNL     1     -21.843  11.903 -29.494  1.00  0.00    -0.000 C 
BRANCH  14  15
ATOM     15  C   UNL     1     -21.365  10.528 -29.986  1.00  0.00    -0.000 C 
BRANCH  15  16
ATOM     16  C   UNL     1     -22.432   9.435 -29.817  1.00  0.00    -0.000 C 
BRANCH  16  17
ATOM     17  C   UNL     1     -23.771   9.987 -29.304  1.00  0.00    -0.003 C 
ATOM     18  C   UNL     1     -24.078   9.470 -27.901  1.00  0.00     0.004 C 
ENDBRANCH  16  17
ENDBRANCH  15  16
ENDBRANCH  14  15
ENDBRANCH  13  14
ENDBRANCH  12  13
ENDBRANCH  11  12
ENDBRANCH   1  11
TORSDOF 14
ENDMDL
MODEL 8
REMARK VINA RESULT:    -4.685     11.971     13.748
REMARK INTER + INTRA:         -10.629
REMARK INTER:                  -8.667
REMARK INTRA:                  -1.962
REMARK UNBOUND:                -2.110
REMARK SMILES CCCCCCCCCCCCCCCC(=O)[O-]
REMARK SMILES IDX 9 1 10 2 11 3 12 4 13 5 14 6 15 7 16 8 17 9 18 10 8 11 7 12
REMARK SMILES IDX 6 13 5 14 4 15 3 16 2 17 1 18
REMARK H PARENT
REMARK Flexibility Score: inf
ROOT
ATOM      1  C   UNL     1      -8.846  11.493 -33.023  1.00  0.00     0.000 C 
ENDROOT
BRANCH   1   2
ATOM      2  C   UNL     1      -9.131  11.983 -31.591  1.00  0.00     0.000 C 
BRANCH   2   3
ATOM      3  C   UNL     1     -10.625  11.931 -31.226  1.00  0.00     0.000 C 
BRANCH   3   4
ATOM      4  C   UNL     1     -10.896  11.086 -29.970  1.00  0.00     0.000 C 
BRANCH   4   5
ATOM      5  C   UNL     1      -9.629  10.408 -29.427  1.00  0.00     0.000 C 
BRANCH   5   6
ATOM      6  C   UNL     1      -9.424  10.738 -27.942  1.00  0.00     0.006 C 
BRANCH   6   7
ATOM      7  C   UNL     1     -10.138   9.740 -27.019  1.00  0.00     0.053 C 
BRANCH   7   8
ATOM      8  C   UNL     1     -11.241  10.391 -26.242  1.00  0.00     0.041 C 
ATOM      9  O   UNL     1     -12.036   9.690 -25.563  1.00  0.00    -0.550 OA
ATOM     10  O   UNL     1     -11.369  11.774 -26.239  1.00  0.00    -0.550 OA
ENDBRANCH   7   8
ENDBRANCH   6   7
ENDBRANCH   5   6
ENDBRANCH   4   5
ENDBRANCH   3   4
ENDBRANCH   2   3
ENDBRANCH   1   2
BRANCH   1  11
ATOM     11  C   UNL     1      -8.205  10.097 -33.125  1.00  0.00     0.000 C 
BRANCH  11  12
ATOM     12  C   UNL     1      -9.054   9.105 -33.938  1.00  0.00    -0.000 C 
BRANCH  12  13
ATOM     13  C   UNL     1     -10.319   8.658 -33.187  1.00  0.00    -0.000 C 
BRANCH  13  14
ATOM     14  C   UNL     1     -10.009   7.731 -32.002  1.00  0.00    -0.000 C 
BRANCH  14  15
ATOM     15  C   UNL     1     -10.831   6.436 -32.090  1.00  0.00    -0.000 C 
BRANCH  15  16
ATOM     16  C   UNL     1     -11.714   6.210 -30.852  1.00  0.00    -0.000 C 
BRANCH  16  17
ATOM     17  C   UNL     1     -11.839   7.466 -29.977  1.00  0.00    -0.003 C 
ATOM     18  C   UNL     1     -12.370   7.119 -28.589  1.00  0.00     0.004 C 
ENDBRANCH  16  17
ENDBRANCH  15  16
ENDBRANCH  14  15
ENDBRANCH  13  14
ENDBRANCH  12  13
ENDBRANCH  11  12
ENDBRANCH   1  11
TORSDOF 14
ENDMDL
MODEL 9
REMARK VINA RESULT:    -4.671      1.176      1.931
REMARK INTER + INTRA:         -10.605
REMARK INTER:                  -9.256
REMARK INTRA:                  -1.349
REMARK UNBOUND:                -2.110
REMARK SMILES CCCCCCCCCCCCCCCC(=O)[O-]
REMARK SMILES IDX 9 1 10 2 11 3 12 4 13 5 14 6 15 7 16 8 17 9 18 10 8 11 7 12
REMARK SMILES IDX 6 13 5 14 4 15 3 16 2 17 1 18
REMARK H PARENT
REMARK Flexibility Score: inf
ROOT
ATOM      1  C   UNL     1     -24.657   8.513 -33.562  1.00  0.00     0.000 C 
ENDROOT
BRANCH   1   2
ATOM      2  C   UNL     1     -25.159   9.966 -33.465  1.00  0.00     0.000 C 
BRANCH   2   3
ATOM      3  C   UNL     1     -24.260  10.852 -32.586  1.00  0.00     0.000 C 
BRANCH   3   4
ATOM      4  C   UNL     1     -23.496  11.909 -33.401  1.00  0.00     0.000 C 
BRANCH   4   5
ATOM      5  C   UNL     1     -23.024  13.093 -32.544  1.00  0.00     0.000 C 
BRANCH   5   6
ATOM      6  C   UNL     1     -21.597  12.861 -32.027  1.00  0.00     0.006 C 
BRANCH   6   7
ATOM      7  C   UNL     1     -21.531  12.824 -30.494  1.00  0.00     0.053 C 
BRANCH   7   8
ATOM      8  C   UNL     1     -20.199  13.282 -29.983  1.00  0.00     0.041 C 
ATOM      9  O   UNL     1     -19.195  13.277 -30.741  1.00  0.00    -0.550 OA
ATOM     10  O   UNL     1     -20.075  13.747 -28.680  1.00  0.00    -0.550 OA
ENDBRANCH   7   8
ENDBRANCH   6   7
ENDBRANCH   5   6
ENDBRANCH   4   5
ENDBRANCH   3   4
ENDBRANCH   2   3
ENDBRANCH   1   2
BRANCH   1  11
ATOM     11  C   UNL     1     -25.454   7.486 -32.736  1.00  0.00     0.000 C 
BRANCH  11  12
ATOM     12  C   UNL     1     -24.569   6.661 -31.787  1.00  0.00    -0.000 C 
BRANCH  12  13
ATOM     13  C   UNL     1     -24.282   7.391 -30.465  1.00  0.00    -0.000 C 
BRANCH  13  14
ATOM     14  C   UNL     1     -22.927   8.117 -30.470  1.00  0.00    -0.000 C 
BRANCH  14  15
ATOM     15  C   UNL     1     -22.689   8.841 -29.136  1.00  0.00    -0.000 C 
BRANCH  15  16
ATOM     16  C   UNL     1     -23.743   9.924 -28.854  1.00  0.00    -0.000 C 
BRANCH  16  17
ATOM     17  C   UNL     1     -24.332   9.822 -27.439  1.00  0.00    -0.003 C 
ATOM     18  C   UNL     1     -23.310   9.259 -26.457  1.00  0.00     0.004 C 
ENDBRANCH  16  17
ENDBRANCH  15  16
ENDBRANCH  14  15
ENDBRANCH  13  14
ENDBRANCH  12  13
ENDBRANCH  11  12
ENDBRANCH   1  11
TORSDOF 14
ENDMDL
