MODEL 1
REMARK VINA RESULT:    -4.643      0.000      0.000
REMARK INTER + INTRA:          -9.960
REMARK INTER:                  -8.171
REMARK INTRA:                  -1.788
REMARK UNBOUND:                -1.788
REMARK SMILES CCCCCCCCCCCCCCC(=O)[O-]
REMARK SMILES IDX 9 1 10 2 11 3 12 4 13 5 14 6 15 7 16 8 17 9 8 10 7 11 6 12
REMARK SMILES IDX 5 13 4 14 3 15 2 16 1 17
REMARK H PARENT
REMARK Flexibility Score: inf
ROOT
ATOM      1  C   UNL     1      43.138  61.171  49.768  1.00  0.00     0.000 C 
ENDROOT
BRANCH   1   2
ATOM      2  C   UNL     1      41.945  61.238  48.803  1.00  0.00     0.000 C 
BRANCH   2   3
ATOM      3  C   UNL     1      41.527  59.834  48.349  1.00  0.00     0.000 C 
BRANCH   3   4
ATOM      4  C   UNL     1      41.526  58.851  49.530  1.00  0.00     0.000 C 
BRANCH   4   5
ATOM      5  C   UNL     1      40.894  57.493  49.175  1.00  0.00     0.006 C 
BRANCH   5   6
ATOM      6  C   UNL     1      39.760  57.573  48.140  1.00  0.00     0.053 C 
BRANCH   6   7
ATOM      7  C   UNL     1      40.054  56.751  46.923  1.00  0.00     0.041 C 
ATOM      8  O   UNL     1      40.505  57.298  45.881  1.00  0.00    -0.550 OA
ATOM      9  O   UNL     1      39.797  55.386  46.927  1.00  0.00    -0.550 OA
ENDBRANCH   6   7
ENDBRANCH   5   6
ENDBRANCH   4   5
ENDBRANCH   3   4
ENDBRANCH   2   3
ENDBRANCH   1   2
BRANCH   1  10
ATOM     10  C   UNL     1      44.463  60.856  49.055  1.00  0.00     0.000 C 
BRANCH  10  11
ATOM     11  C   UNL     1      45.344  59.878  49.852  1.00  0.00    -0.000 C 
BRANCH  11  12
ATOM     12  C   UNL     1      44.974  58.407  49.595  1.00  0.00    -0.000 C 
BRANCH  12  13
ATOM     13  C   UNL     1      45.989  57.689  48.692  1.00  0.00    -0.000 C 
BRANCH  13  14
ATOM     14  C   UNL     1      45.281  56.714  47.738  1.00  0.00    -0.000 C 
BRANCH  14  15
ATOM     15  C   UNL     1      43.903  57.239  47.283  1.00  0.00    -0.000 C 
BRANCH  15  16
ATOM     16  C   UNL     1      43.980  58.235  46.113  1.00  0.00    -0.003 C 
ATOM     17  C   UNL     1      43.706  57.588  44.757  1.00  0.00     0.004 C 
ENDBRANCH  15  16
ENDBRANCH  14  15
ENDBRANCH  13  14
ENDBRANCH  12  13
ENDBRANCH  11  12
ENDBRANCH  10  11
ENDBRANCH   1  10
TORSDOF 13
ENDMDL
MODEL 2
REMARK VINA RESULT:    -4.585      2.606      5.626
REMARK INTER + INTRA:          -9.858
REMARK INTER:                  -8.084
REMARK INTRA:                  -1.774
REMARK UNBOUND:                -1.788
REMARK SMILES CCCCCCCCCCCCCCC(=O)[O-]
REMARK SMILES IDX 9 1 10 2 11 3 12 4 13 5 14 6 15 7 16 8 17 9 8 10 7 11 6 12
REMARK SMILES IDX 5 13 4 14 3 15 2 16 1 17
REMARK H PARENT
REMARK Flexibility Score: inf
ROOT
ATOM      1  C   UNL     1      42.518  57.204  44.698  1.00  0.00     0.000 C 
ENDROOT
BRANCH   1   2
ATOM      2  C   UNL     1      43.874  57.898  44.887  1.00  0.00     0.000 C 
BRANCH   2   3
ATOM      3  C   UNL     1      44.165  58.139  46.374  1.00  0.00     0.000 C 
BRANCH   3   4
ATOM      4  C   UNL     1      44.188  56.815  47.152  1.00  0.00     0.000 C 
BRANCH   4   5
ATOM      5  C   UNL     1      44.706  56.977  48.592  1.00  0.00     0.006 C 
BRANCH   5   6
ATOM      6  C   UNL     1      45.855  57.987  48.741  1.00  0.00     0.053 C 
BRANCH   6   7
ATOM      7  C   UNL     1      45.576  59.000  49.808  1.00  0.00     0.041 C 
ATOM      8  O   UNL     1      45.245  60.175  49.497  1.00  0.00    -0.550 OA
ATOM      9  O   UNL     1      45.713  58.657  51.147  1.00  0.00    -0.550 OA
ENDBRANCH   6   7
ENDBRANCH   5   6
ENDBRANCH   4   5
ENDBRANCH   3   4
ENDBRANCH   2   3
ENDBRANCH   1   2
BRANCH   1  10
ATOM     10  C   UNL     1      41.360  57.968  45.360  1.00  0.00     0.000 C 
BRANCH  10  11
ATOM     11  C   UNL     1      40.295  57.028  45.951  1.00  0.00    -0.000 C 
BRANCH  11  12
ATOM     12  C   UNL     1      40.492  56.786  47.457  1.00  0.00    -0.000 C 
BRANCH  12  13
ATOM     13  C   UNL     1      39.873  57.894  48.323  1.00  0.00    -0.000 C 
BRANCH  13  14
ATOM     14  C   UNL     1      40.725  58.151  49.577  1.00  0.00    -0.000 C 
BRANCH  14  15
ATOM     15  C   UNL     1      42.043  58.885  49.247  1.00  0.00    -0.000 C 
BRANCH  15  16
ATOM     16  C   UNL     1      41.852  60.117  48.347  1.00  0.00    -0.003 C 
ATOM     17  C   UNL     1      41.947  61.437  49.111  1.00  0.00     0.004 C 
ENDBRANCH  15  16
ENDBRANCH  14  15
ENDBRANCH  13  14
ENDBRANCH  12  13
ENDBRANCH  11  12
ENDBRANCH  10  11
ENDBRANCH   1  10
TORSDOF 13
ENDMDL
MODEL 3
REMARK VINA RESULT:    -4.585      2.542      4.932
REMARK INTER + INTRA:          -9.857
REMARK INTER:                  -8.134
REMARK INTRA:                  -1.723
REMARK UNBOUND:                -1.788
REMARK SMILES CCCCCCCCCCCCCCC(=O)[O-]
REMARK SMILES IDX 9 1 10 2 11 3 12 4 13 5 14 6 15 7 16 8 17 9 8 10 7 11 6 12
REMARK SMILES IDX 5 13 4 14 3 15 2 16 1 17
REMARK H PARENT
REMARK Flexibility Score: inf
ROOT
ATOM      1  C   UNL     1      39.653  57.643  48.195  1.00  0.00     0.000 C 
ENDROOT
BRANCH   1   2
ATOM      2  C   UNL     1      40.361  57.963  49.519  1.00  0.00     0.000 C 
BRANCH   2   3
ATOM      3  C   UNL     1      41.667  58.730  49.272  1.00  0.00     0.000 C 
BRANCH   3   4
ATOM      4  C   UNL     1      41.443  59.899  48.300  1.00  0.00     0.000 C 
BRANCH   4   5
ATOM      5  C   UNL     1      42.472  61.029  48.480  1.00  0.00     0.006 C 
BRANCH   5   6
ATOM      6  C   UNL     1      43.282  60.947  49.784  1.00  0.00     0.053 C 
BRANCH   6   7
ATOM      7  C   UNL     1      44.737  60.707  49.525  1.00  0.00     0.041 C 
ATOM      8  O   UNL     1      45.451  61.615  49.021  1.00  0.00    -0.550 OA
ATOM      9  O   UNL     1      45.299  59.468  49.808  1.00  0.00    -0.550 OA
ENDBRANCH   6   7
ENDBRANCH   5   6
ENDBRANCH   4   5
ENDBRANCH   3   4
ENDBRANCH   2   3
ENDBRANCH   1   2
BRANCH   1  10
ATOM     10  C   UNL     1      40.355  56.532  47.397  1.00  0.00     0.000 C 
BRANCH  10  11
ATOM     11  C   UNL     1      40.383  56.819  45.886  1.00  0.00    -0.000 C 
BRANCH  11  12
ATOM     12  C   UNL     1      41.477  57.828  45.498  1.00  0.00    -0.000 C 
BRANCH  12  13
ATOM     13  C   UNL     1      42.694  57.162  44.839  1.00  0.00    -0.000 C 
BRANCH  13  14
ATOM     14  C   UNL     1      43.988  57.916  45.185  1.00  0.00    -0.000 C 
BRANCH  14  15
ATOM     15  C   UNL     1      44.123  58.179  46.700  1.00  0.00    -0.000 C 
BRANCH  15  16
ATOM     16  C   UNL     1      44.199  56.895  47.542  1.00  0.00    -0.003 C 
ATOM     17  C   UNL     1      45.613  56.578  48.025  1.00  0.00     0.004 C 
ENDBRANCH  15  16
ENDBRANCH  14  15
ENDBRANCH  13  14
ENDBRANCH  12  13
ENDBRANCH  11  12
ENDBRANCH  10  11
ENDBRANCH   1  10
TORSDOF 13
ENDMDL
MODEL 4
REMARK VINA RESULT:    -4.538      2.293      5.296
REMARK INTER + INTRA:          -9.775
REMARK INTER:                  -8.435
REMARK INTRA:                  -1.340
REMARK UNBOUND:                -1.788
REMARK SMILES CCCCCCCCCCCCCCC(=O)[O-]
REMARK SMILES IDX 9 1 10 2 11 3 12 4 13 5 14 6 15 7 16 8 17 9 8 10 7 11 6 12
REMARK SMILES IDX 5 13 4 14 3 15 2 16 1 17
REMARK H PARENT
REMARK Flexibility Score: inf
ROOT
ATOM      1  C   UNL     1      40.462  57.024  46.119  1.00  0.00     0.000 C 
ENDROOT
BRANCH   1   2
ATOM      2  C   UNL     1      41.498  57.971  45.495  1.00  0.00     0.000 C 
BRANCH   2   3
ATOM      3  C   UNL     1      42.527  57.190  44.667  1.00  0.00     0.000 C 
BRANCH   3   4
ATOM      4  C   UNL     1      43.958  57.636  45.005  1.00  0.00     0.000 C 
BRANCH   4   5
ATOM      5  C   UNL     1      44.090  58.182  46.438  1.00  0.00     0.006 C 
BRANCH   5   6
ATOM      6  C   UNL     1      44.297  57.102  47.511  1.00  0.00     0.053 C 
BRANCH   6   7
ATOM      7  C   UNL     1      45.202  57.570  48.609  1.00  0.00     0.041 C 
ATOM      8  O   UNL     1      46.452  57.553  48.452  1.00  0.00    -0.550 OA
ATOM      9  O   UNL     1      44.666  57.992  49.819  1.00  0.00    -0.550 OA
ENDBRANCH   6   7
ENDBRANCH   5   6
ENDBRANCH   4   5
ENDBRANCH   3   4
ENDBRANCH   2   3
ENDBRANCH   1   2
BRANCH   1  10
ATOM     10  C   UNL     1      40.655  56.847  47.634  1.00  0.00     0.000 C 
BRANCH  10  11
ATOM     11  C   UNL     1      40.259  58.103  48.429  1.00  0.00    -0.000 C 
BRANCH  11  12
ATOM     12  C   UNL     1      41.475  58.830  49.028  1.00  0.00    -0.000 C 
BRANCH  12  13
ATOM     13  C   UNL     1      41.858  60.095  48.244  1.00  0.00    -0.000 C 
BRANCH  13  14
ATOM     14  C   UNL     1      41.874  61.327  49.162  1.00  0.00    -0.000 C 
BRANCH  14  15
ATOM     15  C   UNL     1      43.245  61.530  49.843  1.00  0.00    -0.000 C 
BRANCH  15  16
ATOM     16  C   UNL     1      44.432  61.053  48.990  1.00  0.00    -0.003 C 
ATOM     17  C   UNL     1      45.613  62.021  49.012  1.00  0.00     0.004 C 
ENDBRANCH  15  16
ENDBRANCH  14  15
ENDBRANCH  13  14
ENDBRANCH  12  13
ENDBRANCH  11  12
ENDBRANCH  10  11
ENDBRANCH   1  10
TORSDOF 13
ENDMDL
MODEL 5
REMARK VINA RESULT:    -4.471      0.911      4.051
REMARK INTER + INTRA:          -9.657
REMARK INTER:                  -8.106
REMARK INTRA:                  -1.551
REMARK UNBOUND:                -1.788
REMARK SMILES CCCCCCCCCCCCCCC(=O)[O-]
REMARK SMILES IDX 9 1 10 2 11 3 12 4 13 5 14 6 15 7 16 8 17 9 8 10 7 11 6 12
REMARK SMILES IDX 5 13 4 14 3 15 2 16 1 17
REMARK H PARENT
REMARK Flexibility Score: inf
ROOT
ATOM      1  C   UNL     1      45.963  57.738  48.730  1.00  0.00     0.000 C 
ENDROOT
BRANCH   1   2
ATOM      2  C   UNL     1      45.339  56.538  48.002  1.00  0.00     0.000 C 
BRANCH   2   3
ATOM      3  C   UNL     1      44.010  56.927  47.341  1.00  0.00     0.000 C 
BRANCH   3   4
ATOM      4  C   UNL     1      44.174  58.185  46.475  1.00  0.00     0.000 C 
BRANCH   4   5
ATOM      5  C   UNL     1      43.662  57.990  45.036  1.00  0.00     0.006 C 
BRANCH   5   6
ATOM      6  C   UNL     1      42.641  56.852  44.877  1.00  0.00     0.053 C 
BRANCH   6   7
ATOM      7  C   UNL     1      41.256  57.286  45.246  1.00  0.00     0.041 C 
ATOM      8  O   UNL     1      40.662  56.752  46.220  1.00  0.00    -0.550 OA
ATOM      9  O   UNL     1      40.608  58.258  44.493  1.00  0.00    -0.550 OA
ENDBRANCH   6   7
ENDBRANCH   5   6
ENDBRANCH   4   5
ENDBRANCH   3   4
ENDBRANCH   2   3
ENDBRANCH   1   2
BRANCH   1  10
ATOM     10  C   UNL     1      44.986  58.415  49.707  1.00  0.00     0.000 C 
BRANCH  10  11
ATOM     11  C   UNL     1      45.273  59.916  49.882  1.00  0.00    -0.000 C 
BRANCH  11  12
ATOM     12  C   UNL     1      44.364  60.796  49.008  1.00  0.00    -0.000 C 
BRANCH  12  13
ATOM     13  C   UNL     1      43.230  61.457  49.808  1.00  0.00    -0.000 C 
BRANCH  13  14
ATOM     14  C   UNL     1      41.882  61.295  49.087  1.00  0.00    -0.000 C 
BRANCH  14  15
ATOM     15  C   UNL     1      41.888  60.109  48.099  1.00  0.00    -0.000 C 
BRANCH  15  16
ATOM     16  C   UNL     1      40.924  58.976  48.491  1.00  0.00    -0.003 C 
ATOM     17  C   UNL     1      41.496  58.047  49.559  1.00  0.00     0.004 C 
ENDBRANCH  15  16
ENDBRANCH  14  15
ENDBRANCH  13  14
ENDBRANCH  12  13
ENDBRANCH  11  12
ENDBRANCH  10  11
ENDBRANCH   1  10
TORSDOF 13
ENDMDL
MODEL 6
REMARK VINA RESULT:    -4.438      1.416      3.857
REMARK INTER + INTRA:          -9.599
REMARK INTER:                  -8.124
REMARK INTRA:                  -1.475
REMARK UNBOUND:                -1.788
REMARK SMILES CCCCCCCCCCCCCCC(=O)[O-]
REMARK SMILES IDX 9 1 10 2 11 3 12 4 13 5 14 6 15 7 16 8 17 9 8 10 7 11 6 12
REMARK SMILES IDX 5 13 4 14 3 15 2 16 1 17
REMARK H PARENT
REMARK Flexibility Score: inf
ROOT
ATOM      1  C   UNL     1      44.099  58.280  46.270  1.00  0.00     0.000 C 
ENDROOT
BRANCH   1   2
ATOM      2  C   UNL     1      43.915  57.634  44.889  1.00  0.00     0.000 C 
BRANCH   2   3
ATOM      3  C   UNL     1      42.528  56.991  44.764  1.00  0.00     0.000 C 
BRANCH   3   4
ATOM      4  C   UNL     1      41.423  57.986  45.150  1.00  0.00     0.000 C 
BRANCH   4   5
ATOM      5  C   UNL     1      40.303  57.339  45.986  1.00  0.00     0.006 C 
BRANCH   5   6
ATOM      6  C   UNL     1      40.790  56.646  47.268  1.00  0.00     0.053 C 
BRANCH   6   7
ATOM      7  C   UNL     1      40.402  57.408  48.498  1.00  0.00     0.041 C 
ATOM      8  O   UNL     1      39.198  57.717  48.700  1.00  0.00    -0.550 OA
ATOM      9  O   UNL     1      41.376  57.806  49.406  1.00  0.00    -0.550 OA
ENDBRANCH   6   7
ENDBRANCH   5   6
ENDBRANCH   4   5
ENDBRANCH   3   4
ENDBRANCH   2   3
ENDBRANCH   1   2
BRANCH   1  10
ATOM     10  C   UNL     1      44.357  57.248  47.381  1.00  0.00     0.000 C 
BRANCH  10  11
ATOM     11  C   UNL     1      45.378  57.744  48.420  1.00  0.00    -0.000 C 
BRANCH  11  12
ATOM     12  C   UNL     1      44.709  58.430  49.623  1.00  0.00    -0.000 C 
BRANCH  12  13
ATOM     13  C   UNL     1      45.197  59.872  49.832  1.00  0.00    -0.000 C 
BRANCH  13  14
ATOM     14  C   UNL     1      44.349  60.863  49.020  1.00  0.00    -0.000 C 
BRANCH  14  15
ATOM     15  C   UNL     1      43.135  61.385  49.818  1.00  0.00    -0.000 C 
BRANCH  15  16
ATOM     16  C   UNL     1      41.817  61.352  49.025  1.00  0.00    -0.003 C 
ATOM     17  C   UNL     1      41.895  60.484  47.771  1.00  0.00     0.004 C 
ENDBRANCH  15  16
ENDBRANCH  14  15
ENDBRANCH  13  14
ENDBRANCH  12  13
ENDBRANCH  11  12
ENDBRANCH  10  11
ENDBRANCH   1  10
TORSDOF 13
ENDMDL
MODEL 7
REMARK VINA RESULT:    -4.437      2.106      5.262
REMARK INTER + INTRA:          -9.598
REMARK INTER:                  -8.138
REMARK INTRA:                  -1.460
REMARK UNBOUND:                -1.788
REMARK SMILES CCCCCCCCCCCCCCC(=O)[O-]
REMARK SMILES IDX 9 1 10 2 11 3 12 4 13 5 14 6 15 7 16 8 17 9 8 10 7 11 6 12
REMARK SMILES IDX 5 13 4 14 3 15 2 16 1 17
REMARK H PARENT
REMARK Flexibility Score: inf
ROOT
ATOM      1  C   UNL     1      44.162  56.841  47.541  1.00  0.00     0.000 C 
ENDROOT
BRANCH   1   2
ATOM      2  C   UNL     1      45.592  56.591  48.043  1.00  0.00     0.000 C 
BRANCH   2   3
ATOM      3  C   UNL     1      46.152  57.834  48.747  1.00  0.00     0.000 C 
BRANCH   3   4
ATOM      4  C   UNL     1      45.194  58.323  49.844  1.00  0.00     0.000 C 
BRANCH   4   5
ATOM      5  C   UNL     1      45.043  59.855  49.865  1.00  0.00     0.006 C 
BRANCH   5   6
ATOM      6  C   UNL     1      44.270  60.431  48.668  1.00  0.00     0.053 C 
BRANCH   6   7
ATOM      7  C   UNL     1      42.963  61.033  49.082  1.00  0.00     0.041 C 
ATOM      8  O   UNL     1      42.868  61.654  50.175  1.00  0.00    -0.550 OA
ATOM      9  O   UNL     1      41.840  60.880  48.278  1.00  0.00    -0.550 OA
ENDBRANCH   6   7
ENDBRANCH   5   6
ENDBRANCH   4   5
ENDBRANCH   3   4
ENDBRANCH   2   3
ENDBRANCH   1   2
BRANCH   1  10
ATOM     10  C   UNL     1      44.103  57.866  46.397  1.00  0.00     0.000 C 
BRANCH  10  11
ATOM     11  C   UNL     1      42.962  57.578  45.406  1.00  0.00    -0.000 C 
BRANCH  11  12
ATOM     12  C   UNL     1      41.639  58.247  45.818  1.00  0.00    -0.000 C 
BRANCH  12  13
ATOM     13  C   UNL     1      40.478  57.247  45.933  1.00  0.00    -0.000 C 
BRANCH  13  14
ATOM     14  C   UNL     1      40.373  56.689  47.361  1.00  0.00    -0.000 C 
BRANCH  14  15
ATOM     15  C   UNL     1      39.454  57.546  48.258  1.00  0.00    -0.000 C 
BRANCH  15  16
ATOM     16  C   UNL     1      40.186  58.199  49.442  1.00  0.00    -0.003 C 
ATOM     17  C   UNL     1      41.643  57.758  49.562  1.00  0.00     0.004 C 
ENDBRANCH  15  16
ENDBRANCH  14  15
ENDBRANCH  13  14
ENDBRANCH  12  13
ENDBRANCH  11  12
ENDBRANCH  10  11
ENDBRANCH   1  10
TORSDOF 13
ENDMDL
MODEL 8
REMARK VINA RESULT:    -4.412      1.138      3.959
REMARK INTER + INTRA:          -9.553
REMARK INTER:                  -7.976
REMARK INTRA:                  -1.577
REMARK UNBOUND:                -1.788
REMARK SMILES CCCCCCCCCCCCCCC(=O)[O-]
REMARK SMILES IDX 9 1 10 2 11 3 12 4 13 5 14 6 15 7 16 8 17 9 8 10 7 11 6 12
REMARK SMILES IDX 5 13 4 14 3 15 2 16 1 17
REMARK H PARENT
REMARK Flexibility Score: inf
ROOT
ATOM      1  C   UNL     1      44.455  60.686  49.027  1.00  0.00     0.000 C 
ENDROOT
BRANCH   1   2
ATOM      2  C   UNL     1      45.168  59.428  49.544  1.00  0.00     0.000 C 
BRANCH   2   3
ATOM      3  C   UNL     1      45.412  58.428  48.407  1.00  0.00     0.000 C 
BRANCH   3   4
ATOM      4  C   UNL     1      44.580  57.152  48.608  1.00  0.00     0.000 C 
BRANCH   4   5
ATOM      5  C   UNL     1      43.709  56.810  47.386  1.00  0.00     0.006 C 
BRANCH   5   6
ATOM      6  C   UNL     1      43.829  57.808  46.223  1.00  0.00     0.053 C 
BRANCH   6   7
ATOM      7  C   UNL     1      42.817  57.543  45.151  1.00  0.00     0.041 C 
ATOM      8  O   UNL     1      43.147  56.923  44.105  1.00  0.00    -0.550 OA
ATOM      9  O   UNL     1      41.516  58.010  45.291  1.00  0.00    -0.550 OA
ENDBRANCH   6   7
ENDBRANCH   5   6
ENDBRANCH   4   5
ENDBRANCH   3   4
ENDBRANCH   2   3
ENDBRANCH   1   2
BRANCH   1  10
ATOM     10  C   UNL     1      43.132  60.963  49.760  1.00  0.00     0.000 C 
BRANCH  10  11
ATOM     11  C   UNL     1      41.934  61.057  48.798  1.00  0.00    -0.000 C 
BRANCH  11  12
ATOM     12  C   UNL     1      41.490  59.681  48.273  1.00  0.00    -0.000 C 
BRANCH  12  13
ATOM     13  C   UNL     1      41.411  58.619  49.380  1.00  0.00    -0.000 C 
BRANCH  13  14
ATOM     14  C   UNL     1      39.990  58.044  49.489  1.00  0.00    -0.000 C 
BRANCH  14  15
ATOM     15  C   UNL     1      39.503  57.434  48.156  1.00  0.00    -0.000 C 
BRANCH  15  16
ATOM     16  C   UNL     1      40.372  56.266  47.660  1.00  0.00    -0.003 C 
ATOM     17  C   UNL     1      39.581  55.227  46.869  1.00  0.00     0.004 C 
ENDBRANCH  15  16
ENDBRANCH  14  15
ENDBRANCH  13  14
ENDBRANCH  12  13
ENDBRANCH  11  12
ENDBRANCH  10  11
ENDBRANCH   1  10
TORSDOF 13
ENDMDL
MODEL 9
REMARK VINA RESULT:    -4.304      1.664      4.589
REMARK INTER + INTRA:          -9.364
REMARK INTER:                  -7.808
REMARK INTRA:                  -1.555
REMARK UNBOUND:                -1.788
REMARK SMILES CCCCCCCCCCCCCCC(=O)[O-]
REMARK SMILES IDX 9 1 10 2 11 3 12 4 13 5 14 6 15 7 16 8 17 9 8 10 7 11 6 12
REMARK SMILES IDX 5 13 4 14 3 15 2 16 1 17
REMARK H PARENT
REMARK Flexibility Score: inf
ROOT
ATOM      1  C   UNL     1      45.318  56.635  47.995  1.00  0.00     0.000 C 
ENDROOT
BRANCH   1   2
ATOM      2  C   UNL     1      46.032  57.789  48.714  1.00  0.00     0.000 C 
BRANCH   2   3
ATOM      3  C   UNL     1      45.142  58.388  49.810  1.00  0.00     0.000 C 
BRANCH   3   4
ATOM      4  C   UNL     1      45.331  59.910  49.903  1.00  0.00     0.000 C 
BRANCH   4   5
ATOM      5  C   UNL     1      44.384  60.687  48.971  1.00  0.00     0.006 C 
BRANCH   5   6
ATOM      6  C   UNL     1      42.948  60.825  49.500  1.00  0.00     0.053 C 
BRANCH   6   7
ATOM      7  C   UNL     1      42.002  59.898  48.800  1.00  0.00     0.041 C 
ATOM      8  O   UNL     1      41.552  60.191  47.661  1.00  0.00    -0.550 OA
ATOM      9  O   UNL     1      41.591  58.725  49.421  1.00  0.00    -0.550 OA
ENDBRANCH   6   7
ENDBRANCH   5   6
ENDBRANCH   4   5
ENDBRANCH   3   4
ENDBRANCH   2   3
ENDBRANCH   1   2
BRANCH   1  10
ATOM     10  C   UNL     1      43.962  57.051  47.403  1.00  0.00     0.000 C 
BRANCH  10  11
ATOM     11  C   UNL     1      44.095  58.166  46.352  1.00  0.00    -0.000 C 
BRANCH  11  12
ATOM     12  C   UNL     1      43.714  57.694  44.939  1.00  0.00    -0.000 C 
BRANCH  12  13
ATOM     13  C   UNL     1      42.350  56.988  44.896  1.00  0.00    -0.000 C 
BRANCH  13  14
ATOM     14  C   UNL     1      41.206  57.987  45.134  1.00  0.00    -0.000 C 
BRANCH  14  15
ATOM     15  C   UNL     1      40.024  57.351  45.896  1.00  0.00    -0.000 C 
BRANCH  15  16
ATOM     16  C   UNL     1      40.459  56.412  47.034  1.00  0.00    -0.003 C 
ATOM     17  C   UNL     1      39.681  55.098  47.056  1.00  0.00     0.004 C 
ENDBRANCH  15  16
ENDBRANCH  14  15
ENDBRANCH  13  14
ENDBRANCH  12  13
ENDBRANCH  11  12
ENDBRANCH  10  11
ENDBRANCH   1  10
TORSDOF 13
ENDMDL
