MODEL 1
REMARK VINA RESULT:    -4.539      0.000      0.000
REMARK INTER + INTRA:          -4.671
REMARK INTER:                  -4.671
REMARK INTRA:                   0.000
REMARK UNBOUND:                 0.000
REMARK SMILES Nc1ncnc2nc[nH]c12
REMARK SMILES IDX 8 1 7 2 6 3 5 4 4 5 3 6 2 7 10 8 9 9 1 11
REMARK H PARENT 9 10 1 12 1 13
REMARK Flexibility Score: inf
ROOT
ATOM      1  C   UNL     1     -12.085   4.245  -5.042  1.00  0.00     0.199 A 
ATOM      2  N   UNL     1     -12.641   5.353  -4.480  1.00  0.00    -0.217 NA
ATOM      3  C   UNL     1     -12.092   6.344  -5.200  1.00  0.00     0.182 A 
ATOM      4  N   UNL     1     -12.312   7.672  -5.047  1.00  0.00    -0.215 NA
ATOM      5  C   UNL     1     -11.656   8.536  -5.881  1.00  0.00     0.226 A 
ATOM      6  N   UNL     1     -10.801   8.061  -6.842  1.00  0.00    -0.217 NA
ATOM      7  C   UNL     1     -10.577   6.721  -6.998  1.00  0.00     0.152 A 
ATOM      8  C   UNL     1     -11.252   5.855  -6.142  1.00  0.00     0.127 A 
ATOM      9  N   UNL     1     -11.230   4.519  -6.060  1.00  0.00    -0.340 N 
ATOM     10  H   UNL     1     -10.690   3.839  -6.637  1.00  0.00     0.168 HD
ENDROOT
BRANCH   7  11
ATOM     11  N   UNL     1      -9.681   6.250  -8.006  1.00  0.00    -0.382 N 
ATOM     12  H   UNL     1     -10.010   5.630  -8.778  1.00  0.00     0.158 HD
ATOM     13  H   UNL     1      -8.675   6.525  -7.979  1.00  0.00     0.158 HD
ENDBRANCH   7  11
TORSDOF 1
ENDMDL
MODEL 2
REMARK VINA RESULT:    -4.521      1.048      2.935
REMARK INTER + INTRA:          -4.653
REMARK INTER:                  -4.653
REMARK INTRA:                   0.000
REMARK UNBOUND:                 0.000
REMARK SMILES Nc1ncnc2nc[nH]c12
REMARK SMILES IDX 8 1 7 2 6 3 5 4 4 5 3 6 2 7 10 8 9 9 1 11
REMARK H PARENT 9 10 1 12 1 13
REMARK Flexibility Score: inf
ROOT
ATOM      1  C   UNL     1     -11.289   8.574  -6.388  1.00  0.00     0.199 A 
ATOM      2  N   UNL     1     -12.087   8.383  -5.301  1.00  0.00    -0.217 NA
ATOM      3  C   UNL     1     -12.069   7.047  -5.165  1.00  0.00     0.182 A 
ATOM      4  N   UNL     1     -12.714   6.323  -4.218  1.00  0.00    -0.215 NA
ATOM      5  C   UNL     1     -12.575   4.962  -4.241  1.00  0.00     0.226 A 
ATOM      6  N   UNL     1     -11.802   4.357  -5.199  1.00  0.00    -0.217 NA
ATOM      7  C   UNL     1     -11.151   5.086  -6.154  1.00  0.00     0.152 A 
ATOM      8  C   UNL     1     -11.302   6.470  -6.118  1.00  0.00     0.127 A 
ATOM      9  N   UNL     1     -10.795   7.423  -6.910  1.00  0.00    -0.340 N 
ATOM     10  H   UNL     1     -10.166   7.318  -7.736  1.00  0.00     0.168 HD
ENDROOT
BRANCH   7  11
ATOM     11  N   UNL     1     -10.352   4.435  -7.142  1.00  0.00    -0.382 N 
ATOM     12  H   UNL     1     -10.620   3.506  -7.533  1.00  0.00     0.158 HD
ATOM     13  H   UNL     1      -9.477   4.889  -7.489  1.00  0.00     0.158 HD
ENDBRANCH   7  11
TORSDOF 1
ENDMDL
MODEL 3
REMARK VINA RESULT:    -4.154      4.817      5.869
REMARK INTER + INTRA:          -4.275
REMARK INTER:                  -4.275
REMARK INTRA:                   0.000
REMARK UNBOUND:                 0.000
REMARK SMILES Nc1ncnc2nc[nH]c12
REMARK SMILES IDX 8 1 7 2 6 3 5 4 4 5 3 6 2 7 10 8 9 9 1 11
REMARK H PARENT 9 10 1 12 1 13
REMARK Flexibility Score: inf
ROOT
ATOM      1  C   UNL     1     -13.498  12.580  -7.012  1.00  0.00     0.199 A 
ATOM      2  N   UNL     1     -12.935  13.079  -5.877  1.00  0.00    -0.217 NA
ATOM      3  C   UNL     1     -11.770  12.413  -5.820  1.00  0.00     0.182 A 
ATOM      4  N   UNL     1     -10.814  12.538  -4.868  1.00  0.00    -0.215 NA
ATOM      5  C   UNL     1      -9.688  11.769  -4.979  1.00  0.00     0.226 A 
ATOM      6  N   UNL     1      -9.540  10.900  -6.029  1.00  0.00    -0.217 NA
ATOM      7  C   UNL     1     -10.503  10.773  -6.991  1.00  0.00     0.152 A 
ATOM      8  C   UNL     1     -11.643  11.562  -6.863  1.00  0.00     0.127 A 
ATOM      9  N   UNL     1     -12.732  11.650  -7.637  1.00  0.00    -0.340 N 
ATOM     10  H   UNL     1     -12.952  11.132  -8.516  1.00  0.00     0.168 HD
ENDROOT
BRANCH   7  11
ATOM     11  N   UNL     1     -10.327   9.861  -8.076  1.00  0.00    -0.382 N 
ATOM     12  H   UNL     1     -11.084   9.692  -8.773  1.00  0.00     0.158 HD
ATOM     13  H   UNL     1      -9.424   9.347  -8.184  1.00  0.00     0.158 HD
ENDBRANCH   7  11
TORSDOF 1
ENDMDL
MODEL 4
REMARK VINA RESULT:    -4.149      4.073      6.132
REMARK INTER + INTRA:          -4.270
REMARK INTER:                  -4.270
REMARK INTRA:                   0.000
REMARK UNBOUND:                 0.000
REMARK SMILES Nc1ncnc2nc[nH]c12
REMARK SMILES IDX 8 1 7 2 6 3 5 4 4 5 3 6 2 7 10 8 9 9 1 11
REMARK H PARENT 9 10 1 12 1 13
REMARK Flexibility Score: inf
ROOT
ATOM      1  C   UNL     1      -8.871  13.006  -6.250  1.00  0.00     0.199 A 
ATOM      2  N   UNL     1      -8.711  11.911  -5.458  1.00  0.00    -0.217 NA
ATOM      3  C   UNL     1      -9.870  11.257  -5.637  1.00  0.00     0.182 A 
ATOM      4  N   UNL     1     -10.232  10.083  -5.065  1.00  0.00    -0.215 NA
ATOM      5  C   UNL     1     -11.463   9.569  -5.370  1.00  0.00     0.226 A 
ATOM      6  N   UNL     1     -12.299  10.231  -6.232  1.00  0.00    -0.217 NA
ATOM      7  C   UNL     1     -11.936  11.416  -6.810  1.00  0.00     0.152 A 
ATOM      8  C   UNL     1     -10.681  11.926  -6.489  1.00  0.00     0.127 A 
ATOM      9  N   UNL     1     -10.066  13.044  -6.893  1.00  0.00    -0.340 N 
ATOM     10  H   UNL     1     -10.412  13.779  -7.548  1.00  0.00     0.168 HD
ENDROOT
BRANCH   7  11
ATOM     11  N   UNL     1     -12.823  12.087  -7.705  1.00  0.00    -0.382 N 
ATOM     12  H   UNL     1     -13.462  12.843  -7.373  1.00  0.00     0.158 HD
ATOM     13  H   UNL     1     -12.842  11.825  -8.715  1.00  0.00     0.158 HD
ENDBRANCH   7  11
TORSDOF 1
ENDMDL
MODEL 5
REMARK VINA RESULT:    -4.148      3.488      5.548
REMARK INTER + INTRA:          -4.269
REMARK INTER:                  -4.269
REMARK INTRA:                   0.000
REMARK UNBOUND:                 0.000
REMARK SMILES Nc1ncnc2nc[nH]c12
REMARK SMILES IDX 8 1 7 2 6 3 5 4 4 5 3 6 2 7 10 8 9 9 1 11
REMARK H PARENT 9 10 1 12 1 13
REMARK Flexibility Score: inf
ROOT
ATOM      1  C   UNL     1     -13.467  12.967  -7.135  1.00  0.00     0.199 A 
ATOM      2  N   UNL     1     -14.134  11.950  -6.523  1.00  0.00    -0.217 NA
ATOM      3  C   UNL     1     -13.168  11.033  -6.357  1.00  0.00     0.182 A 
ATOM      4  N   UNL     1     -13.302   9.812  -5.786  1.00  0.00    -0.215 NA
ATOM      5  C   UNL     1     -12.195   9.011  -5.707  1.00  0.00     0.226 A 
ATOM      6  N   UNL     1     -10.988   9.442  -6.194  1.00  0.00    -0.217 NA
ATOM      7  C   UNL     1     -10.851  10.674  -6.771  1.00  0.00     0.152 A 
ATOM      8  C   UNL     1     -11.986  11.477  -6.844  1.00  0.00     0.127 A 
ATOM      9  N   UNL     1     -12.151  12.707  -7.346  1.00  0.00    -0.340 N 
ATOM     10  H   UNL     1     -11.444  13.329  -7.794  1.00  0.00     0.168 HD
ENDROOT
BRANCH   7  11
ATOM     11  N   UNL     1      -9.583  11.101  -7.272  1.00  0.00    -0.382 N 
ATOM     12  H   UNL     1      -9.112  10.601  -8.057  1.00  0.00     0.158 HD
ATOM     13  H   UNL     1      -9.109  11.931  -6.851  1.00  0.00     0.158 HD
ENDBRANCH   7  11
TORSDOF 1
ENDMDL
MODEL 6
REMARK VINA RESULT:    -4.142      5.346      6.262
REMARK INTER + INTRA:          -4.263
REMARK INTER:                  -4.263
REMARK INTRA:                   0.000
REMARK UNBOUND:                 0.000
REMARK SMILES Nc1ncnc2nc[nH]c12
REMARK SMILES IDX 8 1 7 2 6 3 5 4 4 5 3 6 2 7 10 8 9 9 1 11
REMARK H PARENT 9 10 1 12 1 13
REMARK Flexibility Score: inf
ROOT
ATOM      1  C   UNL     1     -12.847  12.967  -6.679  1.00  0.00     0.199 A 
ATOM      2  N   UNL     1     -12.857  12.204  -5.551  1.00  0.00    -0.217 NA
ATOM      3  C   UNL     1     -11.564  11.864  -5.425  1.00  0.00     0.182 A 
ATOM      4  N   UNL     1     -11.022  11.096  -4.450  1.00  0.00    -0.215 NA
ATOM      5  C   UNL     1      -9.675  10.858  -4.490  1.00  0.00     0.226 A 
ATOM      6  N   UNL     1      -8.904  11.388  -5.492  1.00  0.00    -0.217 NA
ATOM      7  C   UNL     1      -9.449  12.163  -6.477  1.00  0.00     0.152 A 
ATOM      8  C   UNL     1     -10.821  12.396  -6.423  1.00  0.00     0.127 A 
ATOM      9  N   UNL     1     -11.617  13.103  -7.235  1.00  0.00    -0.340 N 
ATOM     10  H   UNL     1     -11.364  13.637  -8.095  1.00  0.00     0.168 HD
ENDROOT
BRANCH   7  11
ATOM     11  N   UNL     1      -8.627  12.704  -7.512  1.00  0.00    -0.382 N 
ATOM     12  H   UNL     1      -8.367  13.715  -7.528  1.00  0.00     0.158 HD
ATOM     13  H   UNL     1      -8.270  12.084  -8.273  1.00  0.00     0.158 HD
ENDBRANCH   7  11
TORSDOF 1
ENDMDL
MODEL 7
REMARK VINA RESULT:    -4.126      4.205      5.921
REMARK INTER + INTRA:          -4.247
REMARK INTER:                  -4.247
REMARK INTRA:                   0.000
REMARK UNBOUND:                 0.000
REMARK SMILES Nc1ncnc2nc[nH]c12
REMARK SMILES IDX 8 1 7 2 6 3 5 4 4 5 3 6 2 7 10 8 9 9 1 11
REMARK H PARENT 9 10 1 12 1 13
REMARK Flexibility Score: inf
ROOT
ATOM      1  C   UNL     1      -8.679  13.119  -6.212  1.00  0.00     0.199 A 
ATOM      2  N   UNL     1      -9.448  13.125  -5.088  1.00  0.00    -0.217 NA
ATOM      3  C   UNL     1     -10.274  12.088  -5.303  1.00  0.00     0.182 A 
ATOM      4  N   UNL     1     -11.254  11.652  -4.476  1.00  0.00    -0.215 NA
ATOM      5  C   UNL     1     -11.998  10.573  -4.870  1.00  0.00     0.226 A 
ATOM      6  N   UNL     1     -11.750   9.957  -6.070  1.00  0.00    -0.217 NA
ATOM      7  C   UNL     1     -10.761  10.396  -6.905  1.00  0.00     0.152 A 
ATOM      8  C   UNL     1     -10.014  11.495  -6.491  1.00  0.00     0.127 A 
ATOM      9  N   UNL     1      -9.001  12.135  -7.089  1.00  0.00    -0.340 N 
ATOM     10  H   UNL     1      -8.555  11.933  -8.010  1.00  0.00     0.168 HD
ENDROOT
BRANCH   7  11
ATOM     11  N   UNL     1     -10.521   9.739  -8.151  1.00  0.00    -0.382 N 
ATOM     12  H   UNL     1      -9.790  10.079  -8.813  1.00  0.00     0.158 HD
ATOM     13  H   UNL     1     -11.083   8.899  -8.414  1.00  0.00     0.158 HD
ENDBRANCH   7  11
TORSDOF 1
ENDMDL
MODEL 8
REMARK VINA RESULT:    -3.940      1.089      2.954
REMARK INTER + INTRA:          -4.055
REMARK INTER:                  -4.055
REMARK INTRA:                   0.000
REMARK UNBOUND:                 0.000
REMARK SMILES Nc1ncnc2nc[nH]c12
REMARK SMILES IDX 8 1 7 2 6 3 5 4 4 5 3 6 2 7 10 8 9 9 1 11
REMARK H PARENT 9 10 1 12 1 13
REMARK Flexibility Score: inf
ROOT
ATOM      1  C   UNL     1     -10.065   6.091  -7.616  1.00  0.00     0.199 A 
ATOM      2  N   UNL     1     -10.466   7.305  -7.150  1.00  0.00    -0.217 NA
ATOM      3  C   UNL     1     -11.203   6.970  -6.078  1.00  0.00     0.182 A 
ATOM      4  N   UNL     1     -11.844   7.820  -5.240  1.00  0.00    -0.215 NA
ATOM      5  C   UNL     1     -12.550   7.288  -4.196  1.00  0.00     0.226 A 
ATOM      6  N   UNL     1     -12.600   5.930  -4.011  1.00  0.00    -0.217 NA
ATOM      7  C   UNL     1     -11.954   5.071  -4.855  1.00  0.00     0.152 A 
ATOM      8  C   UNL     1     -11.240   5.628  -5.912  1.00  0.00     0.127 A 
ATOM      9  N   UNL     1     -10.523   5.046  -6.881  1.00  0.00    -0.340 N 
ATOM     10  H   UNL     1     -10.348   4.030  -7.043  1.00  0.00     0.168 HD
ENDROOT
BRANCH   7  11
ATOM     11  N   UNL     1     -12.021   3.660  -4.642  1.00  0.00    -0.382 N 
ATOM     12  H   UNL     1     -11.415   3.000  -5.177  1.00  0.00     0.158 HD
ATOM     13  H   UNL     1     -12.685   3.270  -3.938  1.00  0.00     0.158 HD
ENDBRANCH   7  11
TORSDOF 1
ENDMDL
MODEL 9
REMARK VINA RESULT:    -3.741      2.776      4.131
REMARK INTER + INTRA:          -3.851
REMARK INTER:                  -3.851
REMARK INTRA:                   0.000
REMARK UNBOUND:                 0.000
REMARK SMILES Nc1ncnc2nc[nH]c12
REMARK SMILES IDX 8 1 7 2 6 3 5 4 4 5 3 6 2 7 10 8 9 9 1 11
REMARK H PARENT 9 10 1 12 1 13
REMARK Flexibility Score: inf
ROOT
ATOM      1  C   UNL     1     -11.857   8.049  -5.744  1.00  0.00     0.199 A 
ATOM      2  N   UNL     1     -12.811   8.837  -5.177  1.00  0.00    -0.217 NA
ATOM      3  C   UNL     1     -12.365  10.072  -5.458  1.00  0.00     0.182 A 
ATOM      4  N   UNL     1     -12.955  11.242  -5.114  1.00  0.00    -0.215 NA
ATOM      5  C   UNL     1     -12.346  12.408  -5.492  1.00  0.00     0.226 A 
ATOM      6  N   UNL     1     -11.172  12.382  -6.199  1.00  0.00    -0.217 NA
ATOM      7  C   UNL     1     -10.574  11.203  -6.546  1.00  0.00     0.152 A 
ATOM      8  C   UNL     1     -11.206  10.025  -6.155  1.00  0.00     0.127 A 
ATOM      9  N   UNL     1     -10.862   8.746  -6.349  1.00  0.00    -0.340 N 
ATOM     10  H   UNL     1     -10.029   8.363  -6.847  1.00  0.00     0.168 HD
ENDROOT
BRANCH   7  11
ATOM     11  N   UNL     1      -9.351  11.200  -7.283  1.00  0.00    -0.382 N 
ATOM     12  H   UNL     1      -9.341  11.101  -8.321  1.00  0.00     0.158 HD
ATOM     13  H   UNL     1      -8.440  11.300  -6.782  1.00  0.00     0.158 HD
ENDBRANCH   7  11
TORSDOF 1
ENDMDL
