MODEL 1
REMARK VINA RESULT:    -2.951      0.000      0.000
REMARK INTER + INTRA:          -3.037
REMARK INTER:                  -3.037
REMARK INTRA:                   0.000
REMARK UNBOUND:                 0.000
REMARK SMILES CC1(C)[C@@H]2CC[C@@](C)(C2)[C@H]1O
REMARK SMILES IDX 1 1 2 2 4 3 5 4 6 5 7 6 9 7 10 8 8 9 3 10 11 11
REMARK H PARENT 11 12
REMARK Flexibility Score: inf
ROOT
ATOM      1  C   UNL     1     132.613 144.160 140.250  1.00  0.00     0.014 C 
ATOM      2  C   UNL     1     131.888 144.548 138.937  1.00  0.00    -0.006 C 
ATOM      3  C   UNL     1     131.945 146.081 138.619  1.00  0.00    -0.002 C 
ATOM      4  C   UNL     1     131.560 146.926 139.850  1.00  0.00     0.005 C 
ATOM      5  C   UNL     1     130.064 146.617 140.019  1.00  0.00     0.010 C 
ATOM      6  C   UNL     1     129.760 145.720 138.797  1.00  0.00    -0.006 C 
ATOM      7  C   UNL     1     130.709 146.281 137.760  1.00  0.00     0.013 C 
ATOM      8  C   UNL     1     130.343 144.304 139.053  1.00  0.00     0.126 C 
ATOM      9  C   UNL     1     128.284 145.747 138.378  1.00  0.00     0.014 C 
ATOM     10  C   UNL     1     132.558 143.750 137.787  1.00  0.00     0.014 C 
ENDROOT
BRANCH   8  11
ATOM     11  O   UNL     1     129.875 143.395 138.086  1.00  0.00    -0.392 OA
ATOM     12  H   UNL     1     130.162 142.493 138.384  1.00  0.00     0.211 HD
ENDBRANCH   8  11
TORSDOF 1
ENDMDL
MODEL 2
REMARK VINA RESULT:    -2.912      1.480      2.394
REMARK INTER + INTRA:          -2.997
REMARK INTER:                  -2.997
REMARK INTRA:                   0.000
REMARK UNBOUND:                 0.000
REMARK SMILES CC1(C)[C@@H]2CC[C@@](C)(C2)[C@H]1O
REMARK SMILES IDX 1 1 2 2 4 3 5 4 6 5 7 6 9 7 10 8 8 9 3 10 11 11
REMARK H PARENT 11 12
REMARK Flexibility Score: inf
ROOT
ATOM      1  C   UNL     1     132.666 144.505 139.123  1.00  0.00     0.014 C 
ATOM      2  C   UNL     1     131.731 145.736 139.230  1.00  0.00    -0.006 C 
ATOM      3  C   UNL     1     130.713 145.649 140.418  1.00  0.00    -0.002 C 
ATOM      4  C   UNL     1     129.997 144.283 140.445  1.00  0.00     0.005 C 
ATOM      5  C   UNL     1     129.122 144.331 139.183  1.00  0.00     0.010 C 
ATOM      6  C   UNL     1     129.367 145.763 138.653  1.00  0.00    -0.006 C 
ATOM      7  C   UNL     1     129.577 146.535 139.938  1.00  0.00     0.013 C 
ATOM      8  C   UNL     1     130.772 145.824 137.993  1.00  0.00     0.126 C 
ATOM      9  C   UNL     1     128.219 146.291 137.782  1.00  0.00     0.014 C 
ATOM     10  C   UNL     1     132.633 146.986 139.406  1.00  0.00     0.014 C 
ENDROOT
BRANCH   8  11
ATOM     11  O   UNL     1     130.931 147.027 137.281  1.00  0.00    -0.392 OA
ATOM     12  H   UNL     1     131.868 147.040 136.954  1.00  0.00     0.211 HD
ENDBRANCH   8  11
TORSDOF 1
ENDMDL
MODEL 3
REMARK VINA RESULT:    -2.716     10.037     11.878
REMARK INTER + INTRA:          -2.795
REMARK INTER:                  -2.795
REMARK INTRA:                   0.000
REMARK UNBOUND:                 0.000
REMARK SMILES CC1(C)[C@@H]2CC[C@@](C)(C2)[C@H]1O
REMARK SMILES IDX 1 1 2 2 4 3 5 4 6 5 7 6 9 7 10 8 8 9 3 10 11 11
REMARK H PARENT 11 12
REMARK Flexibility Score: inf
ROOT
ATOM      1  C   UNL     1     131.322 136.106 138.394  1.00  0.00     0.014 C 
ATOM      2  C   UNL     1     131.003 134.651 137.970  1.00  0.00    -0.006 C 
ATOM      3  C   UNL     1     131.823 133.574 138.760  1.00  0.00    -0.002 C 
ATOM      4  C   UNL     1     133.324 133.927 138.800  1.00  0.00     0.005 C 
ATOM      5  C   UNL     1     133.754 133.749 137.336  1.00  0.00     0.010 C 
ATOM      6  C   UNL     1     132.468 133.211 136.666  1.00  0.00    -0.006 C 
ATOM      7  C   UNL     1     131.849 132.408 137.788  1.00  0.00     0.013 C 
ATOM      8  C   UNL     1     131.461 134.380 136.495  1.00  0.00     0.126 C 
ATOM      9  C   UNL     1     132.743 132.402 135.390  1.00  0.00     0.014 C 
ATOM     10  C   UNL     1     129.486 134.426 138.201  1.00  0.00     0.014 C 
ENDROOT
BRANCH   8  11
ATOM     11  O   UNL     1     130.390 133.992 135.669  1.00  0.00    -0.392 OA
ATOM     12  H   UNL     1     129.974 133.201 136.098  1.00  0.00     0.211 HD
ENDBRANCH   8  11
TORSDOF 1
ENDMDL
MODEL 4
REMARK VINA RESULT:    -2.709      1.226      2.036
REMARK INTER + INTRA:          -2.788
REMARK INTER:                  -2.788
REMARK INTRA:                   0.000
REMARK UNBOUND:                 0.000
REMARK SMILES CC1(C)[C@@H]2CC[C@@](C)(C2)[C@H]1O
REMARK SMILES IDX 1 1 2 2 4 3 5 4 6 5 7 6 9 7 10 8 8 9 3 10 11 11
REMARK H PARENT 11 12
REMARK Flexibility Score: inf
ROOT
ATOM      1  C   UNL     1     130.826 144.045 141.288  1.00  0.00     0.014 C 
ATOM      2  C   UNL     1     130.852 143.900 139.746  1.00  0.00    -0.006 C 
ATOM      3  C   UNL     1     132.271 144.125 139.119  1.00  0.00    -0.002 C 
ATOM      4  C   UNL     1     132.930 145.409 139.664  1.00  0.00     0.005 C 
ATOM      5  C   UNL     1     132.056 146.521 139.062  1.00  0.00     0.010 C 
ATOM      6  C   UNL     1     131.075 145.734 138.162  1.00  0.00    -0.006 C 
ATOM      7  C   UNL     1     131.936 144.576 137.709  1.00  0.00     0.013 C 
ATOM      8  C   UNL     1     130.017 145.035 139.058  1.00  0.00     0.126 C 
ATOM      9  C   UNL     1     130.497 146.576 137.016  1.00  0.00     0.014 C 
ATOM     10  C   UNL     1     130.353 142.470 139.409  1.00  0.00     0.014 C 
ENDROOT
BRANCH   8  11
ATOM     11  O   UNL     1     128.967 144.522 138.275  1.00  0.00    -0.392 OA
ATOM     12  H   UNL     1     128.663 145.263 137.689  1.00  0.00     0.211 HD
ENDBRANCH   8  11
TORSDOF 1
ENDMDL
MODEL 5
REMARK VINA RESULT:    -2.708      2.819      4.750
REMARK INTER + INTRA:          -2.787
REMARK INTER:                  -2.787
REMARK INTRA:                   0.000
REMARK UNBOUND:                 0.000
REMARK SMILES CC1(C)[C@@H]2CC[C@@](C)(C2)[C@H]1O
REMARK SMILES IDX 1 1 2 2 4 3 5 4 6 5 7 6 9 7 10 8 8 9 3 10 11 11
REMARK H PARENT 11 12
REMARK Flexibility Score: inf
ROOT
ATOM      1  C   UNL     1     134.108 142.779 138.439  1.00  0.00     0.014 C 
ATOM      2  C   UNL     1     132.639 142.839 137.952  1.00  0.00    -0.006 C 
ATOM      3  C   UNL     1     131.687 141.853 138.711  1.00  0.00    -0.002 C 
ATOM      4  C   UNL     1     132.290 140.436 138.788  1.00  0.00     0.005 C 
ATOM      5  C   UNL     1     132.251 139.969 137.325  1.00  0.00     0.010 C 
ATOM      6  C   UNL     1     131.529 141.137 136.614  1.00  0.00    -0.006 C 
ATOM      7  C   UNL     1     130.585 141.617 137.693  1.00  0.00     0.013 C 
ATOM      8  C   UNL     1     132.514 142.329 136.474  1.00  0.00     0.126 C 
ATOM      9  C   UNL     1     130.834 140.716 135.311  1.00  0.00     0.014 C 
ATOM     10  C   UNL     1     132.147 144.297 138.150  1.00  0.00     0.014 C 
ENDROOT
BRANCH   8  11
ATOM     11  O   UNL     1     131.983 143.310 135.617  1.00  0.00    -0.392 OA
ATOM     12  H   UNL     1     132.109 144.183 136.073  1.00  0.00     0.211 HD
ENDBRANCH   8  11
TORSDOF 1
ENDMDL
MODEL 6
REMARK VINA RESULT:    -2.677      8.178      9.448
REMARK INTER + INTRA:          -2.755
REMARK INTER:                  -2.755
REMARK INTRA:                   0.000
REMARK UNBOUND:                 0.000
REMARK SMILES CC1(C)[C@@H]2CC[C@@](C)(C2)[C@H]1O
REMARK SMILES IDX 1 1 2 2 4 3 5 4 6 5 7 6 9 7 10 8 8 9 3 10 11 11
REMARK H PARENT 11 12
REMARK Flexibility Score: inf
ROOT
ATOM      1  C   UNL     1     141.414 143.069 138.742  1.00  0.00     0.014 C 
ATOM      2  C   UNL     1     140.991 144.401 138.075  1.00  0.00    -0.006 C 
ATOM      3  C   UNL     1     139.743 145.071 138.747  1.00  0.00    -0.002 C 
ATOM      4  C   UNL     1     138.602 144.054 138.952  1.00  0.00     0.005 C 
ATOM      5  C   UNL     1     138.155 143.749 137.514  1.00  0.00     0.010 C 
ATOM      6  C   UNL     1     139.025 144.713 136.675  1.00  0.00    -0.006 C 
ATOM      7  C   UNL     1     139.165 145.894 137.610  1.00  0.00     0.013 C 
ATOM      8  C   UNL     1     140.475 144.161 136.614  1.00  0.00     0.126 C 
ATOM      9  C   UNL     1     138.406 145.058 135.313  1.00  0.00     0.014 C 
ATOM     10  C   UNL     1     142.206 145.363 138.154  1.00  0.00     0.014 C 
ENDROOT
BRANCH   8  11
ATOM     11  O   UNL     1     141.232 144.866 135.660  1.00  0.00    -0.392 OA
ATOM     12  H   UNL     1     142.080 144.363 135.544  1.00  0.00     0.211 HD
ENDBRANCH   8  11
TORSDOF 1
ENDMDL
MODEL 7
REMARK VINA RESULT:    -2.672     14.266     15.740
REMARK INTER + INTRA:          -2.750
REMARK INTER:                  -2.750
REMARK INTRA:                   0.000
REMARK UNBOUND:                 0.000
REMARK SMILES CC1(C)[C@@H]2CC[C@@](C)(C2)[C@H]1O
REMARK SMILES IDX 1 1 2 2 4 3 5 4 6 5 7 6 9 7 10 8 8 9 3 10 11 11
REMARK H PARENT 11 12
REMARK Flexibility Score: inf
ROOT
ATOM      1  C   UNL     1     142.994 136.007 137.946  1.00  0.00     0.014 C 
ATOM      2  C   UNL     1     144.335 136.751 137.726  1.00  0.00    -0.006 C 
ATOM      3  C   UNL     1     144.433 138.109 138.502  1.00  0.00    -0.002 C 
ATOM      4  C   UNL     1     143.169 138.969 138.293  1.00  0.00     0.005 C 
ATOM      5  C   UNL     1     143.265 139.358 136.809  1.00  0.00     0.010 C 
ATOM      6  C   UNL     1     144.627 138.762 136.387  1.00  0.00    -0.006 C 
ATOM      7  C   UNL     1     145.429 138.891 137.664  1.00  0.00     0.013 C 
ATOM      8  C   UNL     1     144.481 137.223 136.238  1.00  0.00     0.126 C 
ATOM      9  C   UNL     1     145.251 139.473 135.178  1.00  0.00     0.014 C 
ATOM     10  C   UNL     1     145.470 135.801 138.191  1.00  0.00     0.014 C 
ENDROOT
BRANCH   8  11
ATOM     11  O   UNL     1     145.619 136.677 135.616  1.00  0.00    -0.392 OA
ATOM     12  H   UNL     1     145.297 135.938 135.036  1.00  0.00     0.211 HD
ENDBRANCH   8  11
TORSDOF 1
ENDMDL
MODEL 8
REMARK VINA RESULT:    -2.652      1.645      3.024
REMARK INTER + INTRA:          -2.730
REMARK INTER:                  -2.730
REMARK INTRA:                   0.000
REMARK UNBOUND:                 0.000
REMARK SMILES CC1(C)[C@@H]2CC[C@@](C)(C2)[C@H]1O
REMARK SMILES IDX 1 1 2 2 4 3 5 4 6 5 7 6 9 7 10 8 8 9 3 10 11 11
REMARK H PARENT 11 12
REMARK Flexibility Score: inf
ROOT
ATOM      1  C   UNL     1     130.365 143.247 140.145  1.00  0.00     0.014 C 
ATOM      2  C   UNL     1     130.270 144.619 139.431  1.00  0.00    -0.006 C 
ATOM      3  C   UNL     1     131.213 144.744 138.186  1.00  0.00    -0.002 C 
ATOM      4  C   UNL     1     132.646 144.280 138.517  1.00  0.00     0.005 C 
ATOM      5  C   UNL     1     133.137 145.363 139.491  1.00  0.00     0.010 C 
ATOM      6  C   UNL     1     131.961 146.366 139.507  1.00  0.00    -0.006 C 
ATOM      7  C   UNL     1     131.433 146.243 138.094  1.00  0.00     0.013 C 
ATOM      8  C   UNL     1     130.801 145.771 140.351  1.00  0.00     0.126 C 
ATOM      9  C   UNL     1     132.384 147.789 139.899  1.00  0.00     0.014 C 
ATOM     10  C   UNL     1     128.794 144.806 138.989  1.00  0.00     0.014 C 
ENDROOT
BRANCH   8  11
ATOM     11  O   UNL     1     129.820 146.748 140.600  1.00  0.00    -0.392 OA
ATOM     12  H   UNL     1     129.254 146.794 139.786  1.00  0.00     0.211 HD
ENDBRANCH   8  11
TORSDOF 1
ENDMDL
MODEL 9
REMARK VINA RESULT:    -2.635     11.235     12.468
REMARK INTER + INTRA:          -2.712
REMARK INTER:                  -2.712
REMARK INTRA:                   0.000
REMARK UNBOUND:                 0.000
REMARK SMILES CC1(C)[C@@H]2CC[C@@](C)(C2)[C@H]1O
REMARK SMILES IDX 1 1 2 2 4 3 5 4 6 5 7 6 9 7 10 8 8 9 3 10 11 11
REMARK H PARENT 11 12
REMARK Flexibility Score: inf
ROOT
ATOM      1  C   UNL     1     144.017 146.724 141.301  1.00  0.00     0.014 C 
ATOM      2  C   UNL     1     144.135 146.109 139.884  1.00  0.00    -0.006 C 
ATOM      3  C   UNL     1     143.945 147.152 138.730  1.00  0.00    -0.002 C 
ATOM      4  C   UNL     1     142.694 148.023 138.960  1.00  0.00     0.005 C 
ATOM      5  C   UNL     1     141.543 147.022 138.775  1.00  0.00     0.010 C 
ATOM      6  C   UNL     1     142.281 145.729 138.356  1.00  0.00    -0.006 C 
ATOM      7  C   UNL     1     143.458 146.284 137.584  1.00  0.00     0.013 C 
ATOM      8  C   UNL     1     142.961 145.108 139.605  1.00  0.00     0.126 C 
ATOM      9  C   UNL     1     141.399 144.763 137.551  1.00  0.00     0.014 C 
ATOM     10  C   UNL     1     145.542 145.462 139.778  1.00  0.00     0.014 C 
ENDROOT
BRANCH   8  11
ATOM     11  O   UNL     1     143.425 143.810 139.321  1.00  0.00    -0.392 OA
ATOM     12  H   UNL     1     142.902 143.191 139.893  1.00  0.00     0.211 HD
ENDBRANCH   8  11
TORSDOF 1
ENDMDL
