MODEL 1
REMARK VINA RESULT:    -5.341      0.000      0.000
REMARK INTER + INTRA:         -11.301
REMARK INTER:                  -9.400
REMARK INTRA:                  -1.901
REMARK UNBOUND:                -1.901
REMARK SMILES CCCCCCCCCCCCCCC(=O)[O-]
REMARK SMILES IDX 9 1 10 2 11 3 12 4 13 5 14 6 15 7 16 8 17 9 8 10 7 11 6 12
REMARK SMILES IDX 5 13 4 14 3 15 2 16 1 17
REMARK H PARENT
REMARK Flexibility Score: inf
ROOT
ATOM      1  C   UNL     1      62.019   4.223  22.466  1.00  0.00     0.000 C 
ENDROOT
BRANCH   1   2
ATOM      2  C   UNL     1      63.320   4.689  21.782  1.00  0.00     0.000 C 
BRANCH   2   3
ATOM      3  C   UNL     1      64.612   4.337  22.542  1.00  0.00     0.000 C 
BRANCH   3   4
ATOM      4  C   UNL     1      64.534   2.974  23.251  1.00  0.00     0.000 C 
BRANCH   4   5
ATOM      5  C   UNL     1      65.832   2.619  23.992  1.00  0.00     0.006 C 
BRANCH   5   6
ATOM      6  C   UNL     1      67.008   3.519  23.587  1.00  0.00     0.053 C 
BRANCH   6   7
ATOM      7  C   UNL     1      67.487   4.313  24.762  1.00  0.00     0.041 C 
ATOM      8  O   UNL     1      68.569   4.956  24.696  1.00  0.00    -0.550 OA
ATOM      9  O   UNL     1      66.729   4.359  25.925  1.00  0.00    -0.550 OA
ENDBRANCH   6   7
ENDBRANCH   5   6
ENDBRANCH   4   5
ENDBRANCH   3   4
ENDBRANCH   2   3
ENDBRANCH   1   2
BRANCH   1  10
ATOM     10  C   UNL     1      60.953   3.636  21.518  1.00  0.00     0.000 C 
BRANCH  10  11
ATOM     11  C   UNL     1      61.381   3.523  20.044  1.00  0.00    -0.000 C 
BRANCH  11  12
ATOM     12  C   UNL     1      61.461   2.066  19.557  1.00  0.00    -0.000 C 
BRANCH  12  13
ATOM     13  C   UNL     1      62.685   1.324  20.116  1.00  0.00    -0.000 C 
BRANCH  13  14
ATOM     14  C   UNL     1      63.882   1.339  19.148  1.00  0.00    -0.000 C 
BRANCH  14  15
ATOM     15  C   UNL     1      65.006   2.285  19.604  1.00  0.00    -0.000 C 
BRANCH  15  16
ATOM     16  C   UNL     1      65.555   3.211  18.503  1.00  0.00    -0.003 C 
ATOM     17  C   UNL     1      64.728   4.485  18.327  1.00  0.00     0.004 C 
ENDBRANCH  15  16
ENDBRANCH  14  15
ENDBRANCH  13  14
ENDBRANCH  12  13
ENDBRANCH  11  12
ENDBRANCH  10  11
ENDBRANCH   1  10
TORSDOF 13
ENDMDL
MODEL 2
REMARK VINA RESULT:    -5.283      1.042      2.262
REMARK INTER + INTRA:         -11.200
REMARK INTER:                  -9.283
REMARK INTRA:                  -1.917
REMARK UNBOUND:                -1.901
REMARK SMILES CCCCCCCCCCCCCCC(=O)[O-]
REMARK SMILES IDX 9 1 10 2 11 3 12 4 13 5 14 6 15 7 16 8 17 9 8 10 7 11 6 12
REMARK SMILES IDX 5 13 4 14 3 15 2 16 1 17
REMARK H PARENT
REMARK Flexibility Score: inf
ROOT
ATOM      1  C   UNL     1      63.409   2.513  23.212  1.00  0.00     0.000 C 
ENDROOT
BRANCH   1   2
ATOM      2  C   UNL     1      64.814   1.883  23.146  1.00  0.00     0.000 C 
BRANCH   2   3
ATOM      3  C   UNL     1      65.862   2.542  24.061  1.00  0.00     0.000 C 
BRANCH   3   4
ATOM      4  C   UNL     1      67.146   2.934  23.310  1.00  0.00     0.000 C 
BRANCH   4   5
ATOM      5  C   UNL     1      67.616   4.358  23.645  1.00  0.00     0.006 C 
BRANCH   5   6
ATOM      6  C   UNL     1      66.858   4.964  24.835  1.00  0.00     0.053 C 
BRANCH   6   7
ATOM      7  C   UNL     1      67.587   4.690  26.114  1.00  0.00     0.041 C 
ATOM      8  O   UNL     1      67.030   4.036  27.035  1.00  0.00    -0.550 OA
ATOM      9  O   UNL     1      68.890   5.142  26.281  1.00  0.00    -0.550 OA
ENDBRANCH   6   7
ENDBRANCH   5   6
ENDBRANCH   4   5
ENDBRANCH   3   4
ENDBRANCH   2   3
ENDBRANCH   1   2
BRANCH   1  10
ATOM     10  C   UNL     1      63.349   4.019  22.884  1.00  0.00     0.000 C 
BRANCH  10  11
ATOM     11  C   UNL     1      62.266   4.424  21.868  1.00  0.00    -0.000 C 
BRANCH  11  12
ATOM     12  C   UNL     1      61.448   3.224  21.361  1.00  0.00    -0.000 C 
BRANCH  12  13
ATOM     13  C   UNL     1      61.784   2.855  19.907  1.00  0.00    -0.000 C 
BRANCH  13  14
ATOM     14  C   UNL     1      62.576   1.539  19.798  1.00  0.00    -0.000 C 
BRANCH  14  15
ATOM     15  C   UNL     1      64.019   1.750  19.310  1.00  0.00    -0.000 C 
BRANCH  15  16
ATOM     16  C   UNL     1      64.413   3.221  19.081  1.00  0.00    -0.003 C 
ATOM     17  C   UNL     1      65.613   3.656  19.922  1.00  0.00     0.004 C 
ENDBRANCH  15  16
ENDBRANCH  14  15
ENDBRANCH  13  14
ENDBRANCH  12  13
ENDBRANCH  11  12
ENDBRANCH  10  11
ENDBRANCH   1  10
TORSDOF 13
ENDMDL
MODEL 3
REMARK VINA RESULT:    -5.118      1.622      2.905
REMARK INTER + INTRA:         -10.909
REMARK INTER:                  -9.119
REMARK INTRA:                  -1.790
REMARK UNBOUND:                -1.901
REMARK SMILES CCCCCCCCCCCCCCC(=O)[O-]
REMARK SMILES IDX 9 1 10 2 11 3 12 4 13 5 14 6 15 7 16 8 17 9 8 10 7 11 6 12
REMARK SMILES IDX 5 13 4 14 3 15 2 16 1 17
REMARK H PARENT
REMARK Flexibility Score: inf
ROOT
ATOM      1  C   UNL     1      61.854   2.941  20.062  1.00  0.00     0.000 C 
ENDROOT
BRANCH   1   2
ATOM      2  C   UNL     1      61.396   3.211  21.509  1.00  0.00     0.000 C 
BRANCH   2   3
ATOM      3  C   UNL     1      62.128   4.367  22.214  1.00  0.00     0.000 C 
BRANCH   3   4
ATOM      4  C   UNL     1      63.555   3.992  22.650  1.00  0.00     0.000 C 
BRANCH   4   5
ATOM      5  C   UNL     1      63.612   2.644  23.385  1.00  0.00     0.006 C 
BRANCH   5   6
ATOM      6  C   UNL     1      64.946   1.913  23.173  1.00  0.00     0.053 C 
BRANCH   6   7
ATOM      7  C   UNL     1      66.078   2.721  23.725  1.00  0.00     0.041 C 
ATOM      8  O   UNL     1      67.007   3.113  22.968  1.00  0.00    -0.550 OA
ATOM      9  O   UNL     1      66.100   3.057  25.073  1.00  0.00    -0.550 OA
ENDBRANCH   6   7
ENDBRANCH   5   6
ENDBRANCH   4   5
ENDBRANCH   3   4
ENDBRANCH   2   3
ENDBRANCH   1   2
BRANCH   1  10
ATOM     10  C   UNL     1      62.080   1.456  19.711  1.00  0.00     0.000 C 
BRANCH  10  11
ATOM     11  C   UNL     1      63.469   1.124  19.137  1.00  0.00    -0.000 C 
BRANCH  11  12
ATOM     12  C   UNL     1      64.577   2.032  19.696  1.00  0.00    -0.000 C 
BRANCH  12  13
ATOM     13  C   UNL     1      65.217   2.915  18.613  1.00  0.00    -0.000 C 
BRANCH  13  14
ATOM     14  C   UNL     1      64.903   4.410  18.805  1.00  0.00    -0.000 C 
BRANCH  14  15
ATOM     15  C   UNL     1      65.753   5.061  19.910  1.00  0.00    -0.000 C 
BRANCH  15  16
ATOM     16  C   UNL     1      65.449   6.550  20.162  1.00  0.00    -0.003 C 
ATOM     17  C   UNL     1      66.550   7.258  20.952  1.00  0.00     0.004 C 
ENDBRANCH  15  16
ENDBRANCH  14  15
ENDBRANCH  13  14
ENDBRANCH  12  13
ENDBRANCH  11  12
ENDBRANCH  10  11
ENDBRANCH   1  10
TORSDOF 13
ENDMDL
MODEL 4
REMARK VINA RESULT:    -5.087      3.080      4.934
REMARK INTER + INTRA:         -10.854
REMARK INTER:                  -9.136
REMARK INTRA:                  -1.717
REMARK UNBOUND:                -1.901
REMARK SMILES CCCCCCCCCCCCCCC(=O)[O-]
REMARK SMILES IDX 9 1 10 2 11 3 12 4 13 5 14 6 15 7 16 8 17 9 8 10 7 11 6 12
REMARK SMILES IDX 5 13 4 14 3 15 2 16 1 17
REMARK H PARENT
REMARK Flexibility Score: inf
ROOT
ATOM      1  C   UNL     1      64.701   2.239  19.596  1.00  0.00     0.000 C 
ENDROOT
BRANCH   1   2
ATOM      2  C   UNL     1      65.117   3.293  18.551  1.00  0.00     0.000 C 
BRANCH   2   3
ATOM      3  C   UNL     1      65.075   4.749  19.049  1.00  0.00     0.000 C 
BRANCH   3   4
ATOM      4  C   UNL     1      65.884   4.961  20.340  1.00  0.00     0.000 C 
BRANCH   4   5
ATOM      5  C   UNL     1      66.181   6.443  20.616  1.00  0.00     0.006 C 
BRANCH   5   6
ATOM      6  C   UNL     1      65.249   7.385  19.841  1.00  0.00     0.053 C 
BRANCH   6   7
ATOM      7  C   UNL     1      65.970   8.640  19.462  1.00  0.00     0.041 C 
ATOM      8  O   UNL     1      67.211   8.744  19.659  1.00  0.00    -0.550 OA
ATOM      9  O   UNL     1      65.276   9.690  18.874  1.00  0.00    -0.550 OA
ENDBRANCH   6   7
ENDBRANCH   5   6
ENDBRANCH   4   5
ENDBRANCH   3   4
ENDBRANCH   2   3
ENDBRANCH   1   2
BRANCH   1  10
ATOM     10  C   UNL     1      63.501   1.356  19.196  1.00  0.00     0.000 C 
BRANCH  10  11
ATOM     11  C   UNL     1      62.206   1.617  19.987  1.00  0.00    -0.000 C 
BRANCH  11  12
ATOM     12  C   UNL     1      61.508   2.924  19.572  1.00  0.00    -0.000 C 
BRANCH  12  13
ATOM     13  C   UNL     1      61.068   3.765  20.780  1.00  0.00    -0.000 C 
BRANCH  13  14
ATOM     14  C   UNL     1      61.506   3.152  22.122  1.00  0.00    -0.000 C 
BRANCH  14  15
ATOM     15  C   UNL     1      62.350   4.117  22.972  1.00  0.00    -0.000 C 
BRANCH  15  16
ATOM     16  C   UNL     1      63.866   3.851  22.933  1.00  0.00    -0.003 C 
ATOM     17  C   UNL     1      64.231   2.416  23.311  1.00  0.00     0.004 C 
ENDBRANCH  15  16
ENDBRANCH  14  15
ENDBRANCH  13  14
ENDBRANCH  12  13
ENDBRANCH  11  12
ENDBRANCH  10  11
ENDBRANCH   1  10
TORSDOF 13
ENDMDL
MODEL 5
REMARK VINA RESULT:    -5.032      1.735      3.196
REMARK INTER + INTRA:         -10.757
REMARK INTER:                  -8.621
REMARK INTRA:                  -2.136
REMARK UNBOUND:                -1.901
REMARK SMILES CCCCCCCCCCCCCCC(=O)[O-]
REMARK SMILES IDX 9 1 10 2 11 3 12 4 13 5 14 6 15 7 16 8 17 9 8 10 7 11 6 12
REMARK SMILES IDX 5 13 4 14 3 15 2 16 1 17
REMARK H PARENT
REMARK Flexibility Score: inf
ROOT
ATOM      1  C   UNL     1      64.041   4.230  22.959  1.00  0.00     0.000 C 
ENDROOT
BRANCH   1   2
ATOM      2  C   UNL     1      64.012   2.693  23.084  1.00  0.00     0.000 C 
BRANCH   2   3
ATOM      3  C   UNL     1      65.391   2.034  23.270  1.00  0.00     0.000 C 
BRANCH   3   4
ATOM      4  C   UNL     1      66.389   2.938  24.013  1.00  0.00     0.000 C 
BRANCH   4   5
ATOM      5  C   UNL     1      67.585   3.344  23.137  1.00  0.00     0.006 C 
BRANCH   5   6
ATOM      6  C   UNL     1      68.566   4.269  23.871  1.00  0.00     0.053 C 
BRANCH   6   7
ATOM      7  C   UNL     1      69.869   4.337  23.138  1.00  0.00     0.041 C 
ATOM      8  O   UNL     1      70.439   3.280  22.756  1.00  0.00    -0.550 OA
ATOM      9  O   UNL     1      70.447   5.569  22.860  1.00  0.00    -0.550 OA
ENDBRANCH   6   7
ENDBRANCH   5   6
ENDBRANCH   4   5
ENDBRANCH   3   4
ENDBRANCH   2   3
ENDBRANCH   1   2
BRANCH   1  10
ATOM     10  C   UNL     1      63.819   4.776  21.534  1.00  0.00     0.000 C 
BRANCH  10  11
ATOM     11  C   UNL     1      65.104   5.087  20.746  1.00  0.00    -0.000 C 
BRANCH  11  12
ATOM     12  C   UNL     1      65.573   3.905  19.881  1.00  0.00    -0.000 C 
BRANCH  12  13
ATOM     13  C   UNL     1      64.406   3.183  19.189  1.00  0.00    -0.000 C 
BRANCH  13  14
ATOM     14  C   UNL     1      64.402   1.668  19.460  1.00  0.00    -0.000 C 
BRANCH  14  15
ATOM     15  C   UNL     1      62.993   1.115  19.736  1.00  0.00    -0.000 C 
BRANCH  15  16
ATOM     16  C   UNL     1      61.871   2.169  19.705  1.00  0.00    -0.003 C 
ATOM     17  C   UNL     1      61.008   2.160  20.968  1.00  0.00     0.004 C 
ENDBRANCH  15  16
ENDBRANCH  14  15
ENDBRANCH  13  14
ENDBRANCH  12  13
ENDBRANCH  11  12
ENDBRANCH  10  11
ENDBRANCH   1  10
TORSDOF 13
ENDMDL
MODEL 6
REMARK VINA RESULT:    -4.999     11.047     13.440
REMARK INTER + INTRA:         -10.700
REMARK INTER:                  -8.470
REMARK INTRA:                  -2.230
REMARK UNBOUND:                -1.901
REMARK SMILES CCCCCCCCCCCCCCC(=O)[O-]
REMARK SMILES IDX 9 1 10 2 11 3 12 4 13 5 14 6 15 7 16 8 17 9 8 10 7 11 6 12
REMARK SMILES IDX 5 13 4 14 3 15 2 16 1 17
REMARK H PARENT
REMARK Flexibility Score: inf
ROOT
ATOM      1  C   UNL     1      78.965   5.153  21.253  1.00  0.00     0.000 C 
ENDROOT
BRANCH   1   2
ATOM      2  C   UNL     1      77.856   6.208  21.068  1.00  0.00     0.000 C 
BRANCH   2   3
ATOM      3  C   UNL     1      77.775   7.263  22.186  1.00  0.00     0.000 C 
BRANCH   3   4
ATOM      4  C   UNL     1      76.888   6.818  23.362  1.00  0.00     0.000 C 
BRANCH   4   5
ATOM      5  C   UNL     1      77.689   6.586  24.652  1.00  0.00     0.006 C 
BRANCH   5   6
ATOM      6  C   UNL     1      79.166   6.980  24.508  1.00  0.00     0.053 C 
BRANCH   6   7
ATOM      7  C   UNL     1      79.497   8.114  25.427  1.00  0.00     0.041 C 
ATOM      8  O   UNL     1      78.579   8.730  26.033  1.00  0.00    -0.550 OA
ATOM      9  O   UNL     1      80.821   8.480  25.630  1.00  0.00    -0.550 OA
ENDBRANCH   6   7
ENDBRANCH   5   6
ENDBRANCH   4   5
ENDBRANCH   3   4
ENDBRANCH   2   3
ENDBRANCH   1   2
BRANCH   1  10
ATOM     10  C   UNL     1      78.471   3.697  21.377  1.00  0.00     0.000 C 
BRANCH  10  11
ATOM     11  C   UNL     1      77.864   3.327  22.742  1.00  0.00    -0.000 C 
BRANCH  11  12
ATOM     12  C   UNL     1      76.329   3.231  22.704  1.00  0.00    -0.000 C 
BRANCH  12  13
ATOM     13  C   UNL     1      75.813   2.539  21.432  1.00  0.00    -0.000 C 
BRANCH  13  14
ATOM     14  C   UNL     1      74.749   3.370  20.694  1.00  0.00    -0.000 C 
BRANCH  14  15
ATOM     15  C   UNL     1      74.529   4.755  21.327  1.00  0.00    -0.000 C 
BRANCH  15  16
ATOM     16  C   UNL     1      74.364   5.906  20.317  1.00  0.00    -0.003 C 
ATOM     17  C   UNL     1      74.117   7.258  20.986  1.00  0.00     0.004 C 
ENDBRANCH  15  16
ENDBRANCH  14  15
ENDBRANCH  13  14
ENDBRANCH  12  13
ENDBRANCH  11  12
ENDBRANCH  10  11
ENDBRANCH   1  10
TORSDOF 13
ENDMDL
MODEL 7
REMARK VINA RESULT:    -4.983      1.589      3.591
REMARK INTER + INTRA:         -10.671
REMARK INTER:                  -8.706
REMARK INTRA:                  -1.965
REMARK UNBOUND:                -1.901
REMARK SMILES CCCCCCCCCCCCCCC(=O)[O-]
REMARK SMILES IDX 9 1 10 2 11 3 12 4 13 5 14 6 15 7 16 8 17 9 8 10 7 11 6 12
REMARK SMILES IDX 5 13 4 14 3 15 2 16 1 17
REMARK H PARENT
REMARK Flexibility Score: inf
ROOT
ATOM      1  C   UNL     1      63.758   3.229  19.128  1.00  0.00     0.000 C 
ENDROOT
BRANCH   1   2
ATOM      2  C   UNL     1      65.232   3.516  18.778  1.00  0.00     0.000 C 
BRANCH   2   3
ATOM      3  C   UNL     1      66.097   3.992  19.959  1.00  0.00     0.000 C 
BRANCH   3   4
ATOM      4  C   UNL     1      65.750   5.420  20.413  1.00  0.00     0.000 C 
BRANCH   4   5
ATOM      5  C   UNL     1      66.847   6.044  21.291  1.00  0.00     0.006 C 
BRANCH   5   6
ATOM      6  C   UNL     1      66.873   5.456  22.708  1.00  0.00     0.053 C 
BRANCH   6   7
ATOM      7  C   UNL     1      68.237   4.930  23.031  1.00  0.00     0.041 C 
ATOM      8  O   UNL     1      69.216   5.718  23.125  1.00  0.00    -0.550 OA
ATOM      9  O   UNL     1      68.425   3.571  23.247  1.00  0.00    -0.550 OA
ENDBRANCH   6   7
ENDBRANCH   5   6
ENDBRANCH   4   5
ENDBRANCH   3   4
ENDBRANCH   2   3
ENDBRANCH   1   2
BRANCH   1  10
ATOM     10  C   UNL     1      63.411   1.741  19.339  1.00  0.00     0.000 C 
BRANCH  10  11
ATOM     11  C   UNL     1      61.996   1.471  19.881  1.00  0.00    -0.000 C 
BRANCH  11  12
ATOM     12  C   UNL     1      61.291   2.749  20.367  1.00  0.00    -0.000 C 
BRANCH  12  13
ATOM     13  C   UNL     1      61.368   2.920  21.893  1.00  0.00    -0.000 C 
BRANCH  13  14
ATOM     14  C   UNL     1      62.062   4.230  22.308  1.00  0.00    -0.000 C 
BRANCH  14  15
ATOM     15  C   UNL     1      63.475   4.004  22.873  1.00  0.00    -0.000 C 
BRANCH  15  16
ATOM     16  C   UNL     1      63.924   2.532  22.913  1.00  0.00    -0.003 C 
ATOM     17  C   UNL     1      65.141   2.303  23.810  1.00  0.00     0.004 C 
ENDBRANCH  15  16
ENDBRANCH  14  15
ENDBRANCH  13  14
ENDBRANCH  12  13
ENDBRANCH  11  12
ENDBRANCH  10  11
ENDBRANCH   1  10
TORSDOF 13
ENDMDL
MODEL 8
REMARK VINA RESULT:    -4.925     10.574     12.894
REMARK INTER + INTRA:         -10.569
REMARK INTER:                  -8.471
REMARK INTRA:                  -2.098
REMARK UNBOUND:                -1.901
REMARK SMILES CCCCCCCCCCCCCCC(=O)[O-]
REMARK SMILES IDX 9 1 10 2 11 3 12 4 13 5 14 6 15 7 16 8 17 9 8 10 7 11 6 12
REMARK SMILES IDX 5 13 4 14 3 15 2 16 1 17
REMARK H PARENT
REMARK Flexibility Score: inf
ROOT
ATOM      1  C   UNL     1      75.913   6.454  20.993  1.00  0.00     0.000 C 
ENDROOT
BRANCH   1   2
ATOM      2  C   UNL     1      75.658   7.746  21.794  1.00  0.00     0.000 C 
BRANCH   2   3
ATOM      3  C   UNL     1      75.576   7.555  23.320  1.00  0.00     0.000 C 
BRANCH   3   4
ATOM      4  C   UNL     1      76.455   6.398  23.824  1.00  0.00     0.000 C 
BRANCH   4   5
ATOM      5  C   UNL     1      77.562   6.868  24.780  1.00  0.00     0.006 C 
BRANCH   5   6
ATOM      6  C   UNL     1      78.968   6.522  24.269  1.00  0.00     0.053 C 
BRANCH   6   7
ATOM      7  C   UNL     1      79.761   7.770  24.035  1.00  0.00     0.041 C 
ATOM      8  O   UNL     1      80.950   7.853  24.443  1.00  0.00    -0.550 OA
ATOM      9  O   UNL     1      79.193   8.836  23.350  1.00  0.00    -0.550 OA
ENDBRANCH   6   7
ENDBRANCH   5   6
ENDBRANCH   4   5
ENDBRANCH   3   4
ENDBRANCH   2   3
ENDBRANCH   1   2
BRANCH   1  10
ATOM     10  C   UNL     1      74.663   5.828  20.341  1.00  0.00     0.000 C 
BRANCH  10  11
ATOM     11  C   UNL     1      73.680   5.161  21.319  1.00  0.00    -0.000 C 
BRANCH  11  12
ATOM     12  C   UNL     1      74.271   3.915  22.000  1.00  0.00    -0.000 C 
BRANCH  12  13
ATOM     13  C   UNL     1      74.752   2.864  20.987  1.00  0.00    -0.000 C 
BRANCH  13  14
ATOM     14  C   UNL     1      76.236   2.499  21.171  1.00  0.00    -0.000 C 
BRANCH  14  15
ATOM     15  C   UNL     1      76.823   3.032  22.490  1.00  0.00    -0.000 C 
BRANCH  15  16
ATOM     16  C   UNL     1      78.339   3.303  22.457  1.00  0.00    -0.003 C 
ATOM     17  C   UNL     1      78.750   4.259  21.337  1.00  0.00     0.004 C 
ENDBRANCH  15  16
ENDBRANCH  14  15
ENDBRANCH  13  14
ENDBRANCH  12  13
ENDBRANCH  11  12
ENDBRANCH  10  11
ENDBRANCH   1  10
TORSDOF 13
ENDMDL
MODEL 9
REMARK VINA RESULT:    -4.919      1.791      2.508
REMARK INTER + INTRA:         -10.558
REMARK INTER:                  -8.770
REMARK INTRA:                  -1.788
REMARK UNBOUND:                -1.901
REMARK SMILES CCCCCCCCCCCCCCC(=O)[O-]
REMARK SMILES IDX 9 1 10 2 11 3 12 4 13 5 14 6 15 7 16 8 17 9 8 10 7 11 6 12
REMARK SMILES IDX 5 13 4 14 3 15 2 16 1 17
REMARK H PARENT
REMARK Flexibility Score: inf
ROOT
ATOM      1  C   UNL     1      63.615   3.440  23.180  1.00  0.00     0.000 C 
ENDROOT
BRANCH   1   2
ATOM      2  C   UNL     1      64.407   2.121  23.281  1.00  0.00     0.000 C 
BRANCH   2   3
ATOM      3  C   UNL     1      65.937   2.286  23.305  1.00  0.00     0.000 C 
BRANCH   3   4
ATOM      4  C   UNL     1      66.415   3.261  24.395  1.00  0.00     0.000 C 
BRANCH   4   5
ATOM      5  C   UNL     1      67.410   4.303  23.861  1.00  0.00     0.006 C 
BRANCH   5   6
ATOM      6  C   UNL     1      66.715   5.475  23.155  1.00  0.00     0.053 C 
BRANCH   6   7
ATOM      7  C   UNL     1      67.337   5.723  21.816  1.00  0.00     0.041 C 
ATOM      8  O   UNL     1      67.579   4.760  21.040  1.00  0.00    -0.550 OA
ATOM      9  O   UNL     1      67.634   7.020  21.418  1.00  0.00    -0.550 OA
ENDBRANCH   6   7
ENDBRANCH   5   6
ENDBRANCH   4   5
ENDBRANCH   3   4
ENDBRANCH   2   3
ENDBRANCH   1   2
BRANCH   1  10
ATOM     10  C   UNL     1      62.093   3.279  22.991  1.00  0.00     0.000 C 
BRANCH  10  11
ATOM     11  C   UNL     1      61.504   4.018  21.776  1.00  0.00    -0.000 C 
BRANCH  11  12
ATOM     12  C   UNL     1      61.043   3.061  20.663  1.00  0.00    -0.000 C 
BRANCH  12  13
ATOM     13  C   UNL     1      62.081   2.922  19.539  1.00  0.00    -0.000 C 
BRANCH  13  14
ATOM     14  C   UNL     1      62.721   1.522  19.492  1.00  0.00    -0.000 C 
BRANCH  14  15
ATOM     15  C   UNL     1      64.255   1.563  19.598  1.00  0.00    -0.000 C 
BRANCH  15  16
ATOM     16  C   UNL     1      64.859   2.978  19.653  1.00  0.00    -0.003 C 
ATOM     17  C   UNL     1      65.633   3.347  18.387  1.00  0.00     0.004 C 
ENDBRANCH  15  16
ENDBRANCH  14  15
ENDBRANCH  13  14
ENDBRANCH  12  13
ENDBRANCH  11  12
ENDBRANCH  10  11
ENDBRANCH   1  10
TORSDOF 13
ENDMDL
