MODEL 1
REMARK VINA RESULT:    -3.333      0.000      0.000
REMARK INTER + INTRA:          -4.412
REMARK INTER:                  -4.308
REMARK INTRA:                  -0.104
REMARK UNBOUND:                -0.104
REMARK SMILES CCCCCCC(=O)[O-]
REMARK SMILES IDX 5 1 6 2 7 3 8 4 9 5 4 6 3 7 2 8 1 9
REMARK H PARENT
REMARK Flexibility Score: inf
ROOT
ATOM      1  C   UNL     1     105.756  95.180  90.191  1.00  0.00     0.006 C 
ENDROOT
BRANCH   1   2
ATOM      2  C   UNL     1     105.726  95.827  91.582  1.00  0.00     0.053 C 
BRANCH   2   3
ATOM      3  C   UNL     1     106.702  96.959  91.688  1.00  0.00     0.041 C 
ATOM      4  O   UNL     1     106.711  97.871  90.820  1.00  0.00    -0.550 OA
ATOM      5  O   UNL     1     107.581  97.022  92.762  1.00  0.00    -0.550 OA
ENDBRANCH   2   3
ENDBRANCH   1   2
BRANCH   1   6
ATOM      6  C   UNL     1     104.346  95.008  89.602  1.00  0.00     0.000 C 
BRANCH   6   7
ATOM      7  C   UNL     1     103.619  93.772  90.157  1.00  0.00    -0.000 C 
BRANCH   7   8
ATOM      8  C   UNL     1     102.345  93.432  89.372  1.00  0.00    -0.003 C 
ATOM      9  C   UNL     1     102.124  91.923  89.311  1.00  0.00     0.004 C 
ENDBRANCH   7   8
ENDBRANCH   6   7
ENDBRANCH   1   6
TORSDOF 5
ENDMDL
MODEL 2
REMARK VINA RESULT:    -3.328      4.193      5.311
REMARK INTER + INTRA:          -4.405
REMARK INTER:                  -4.001
REMARK INTRA:                  -0.405
REMARK UNBOUND:                -0.104
REMARK SMILES CCCCCCC(=O)[O-]
REMARK SMILES IDX 5 1 6 2 7 3 8 4 9 5 4 6 3 7 2 8 1 9
REMARK H PARENT
REMARK Flexibility Score: inf
ROOT
ATOM      1  C   UNL     1     108.681  98.224  91.661  1.00  0.00     0.006 C 
ENDROOT
BRANCH   1   2
ATOM      2  C   UNL     1     108.643  99.752  91.529  1.00  0.00     0.053 C 
BRANCH   2   3
ATOM      3  C   UNL     1     108.021 100.183  90.236  1.00  0.00     0.041 C 
ATOM      4  O   UNL     1     108.707 100.796  89.377  1.00  0.00    -0.550 OA
ATOM      5  O   UNL     1     106.692  99.883  89.970  1.00  0.00    -0.550 OA
ENDBRANCH   2   3
ENDBRANCH   1   2
BRANCH   1   6
ATOM      6  C   UNL     1     107.679  97.707  92.707  1.00  0.00     0.000 C 
BRANCH   6   7
ATOM      7  C   UNL     1     106.428  97.083  92.069  1.00  0.00    -0.000 C 
BRANCH   7   8
ATOM      8  C   UNL     1     105.136  97.814  92.461  1.00  0.00    -0.003 C 
ATOM      9  C   UNL     1     105.422  98.942  93.448  1.00  0.00     0.004 C 
ENDBRANCH   7   8
ENDBRANCH   6   7
ENDBRANCH   1   6
TORSDOF 5
ENDMDL
MODEL 3
REMARK VINA RESULT:    -3.324     14.152     15.150
REMARK INTER + INTRA:          -4.399
REMARK INTER:                  -4.305
REMARK INTRA:                  -0.094
REMARK UNBOUND:                -0.104
REMARK SMILES CCCCCCC(=O)[O-]
REMARK SMILES IDX 5 1 6 2 7 3 8 4 9 5 4 6 3 7 2 8 1 9
REMARK H PARENT
REMARK Flexibility Score: inf
ROOT
ATOM      1  C   UNL     1      92.178 102.692  90.252  1.00  0.00     0.006 C 
ENDROOT
BRANCH   1   2
ATOM      2  C   UNL     1      92.249 102.009  91.624  1.00  0.00     0.053 C 
BRANCH   2   3
ATOM      3  C   UNL     1      91.208 100.941  91.768  1.00  0.00     0.041 C 
ATOM      4  O   UNL     1      90.439 100.937  92.766  1.00  0.00    -0.550 OA
ATOM      5  O   UNL     1      91.068  99.969  90.787  1.00  0.00    -0.550 OA
ENDBRANCH   2   3
ENDBRANCH   1   2
BRANCH   1   6
ATOM      6  C   UNL     1      93.573 102.942  89.655  1.00  0.00     0.000 C 
BRANCH   6   7
ATOM      7  C   UNL     1      94.125 104.332  90.006  1.00  0.00    -0.000 C 
BRANCH   7   8
ATOM      8  C   UNL     1      95.586 104.517  89.569  1.00  0.00    -0.003 C 
ATOM      9  C   UNL     1      95.882 105.980  89.250  1.00  0.00     0.004 C 
ENDBRANCH   7   8
ENDBRANCH   6   7
ENDBRANCH   1   6
TORSDOF 5
ENDMDL
MODEL 4
REMARK VINA RESULT:    -3.260     14.373     15.457
REMARK INTER + INTRA:          -4.318
REMARK INTER:                  -4.039
REMARK INTRA:                  -0.279
REMARK UNBOUND:                -0.104
REMARK SMILES CCCCCCC(=O)[O-]
REMARK SMILES IDX 5 1 6 2 7 3 8 4 9 5 4 6 3 7 2 8 1 9
REMARK H PARENT
REMARK Flexibility Score: inf
ROOT
ATOM      1  C   UNL     1      92.133 100.624  90.647  1.00  0.00     0.006 C 
ENDROOT
BRANCH   1   2
ATOM      2  C   UNL     1      91.409 101.247  91.848  1.00  0.00     0.053 C 
BRANCH   2   3
ATOM      3  C   UNL     1      90.206 100.449  92.247  1.00  0.00     0.041 C 
ATOM      4  O   UNL     1      90.341  99.278  92.689  1.00  0.00    -0.550 OA
ATOM      5  O   UNL     1      88.938 101.009  92.158  1.00  0.00    -0.550 OA
ENDBRANCH   2   3
ENDBRANCH   1   2
BRANCH   1   6
ATOM      6  C   UNL     1      92.500 101.672  89.583  1.00  0.00     0.000 C 
BRANCH   6   7
ATOM      7  C   UNL     1      92.397 103.111  90.111  1.00  0.00    -0.000 C 
BRANCH   7   8
ATOM      8  C   UNL     1      93.758 103.818  90.175  1.00  0.00    -0.003 C 
ATOM      9  C   UNL     1      94.462 103.534  91.499  1.00  0.00     0.004 C 
ENDBRANCH   7   8
ENDBRANCH   6   7
ENDBRANCH   1   6
TORSDOF 5
ENDMDL
MODEL 5
REMARK VINA RESULT:    -3.257     14.217     15.672
REMARK INTER + INTRA:          -4.314
REMARK INTER:                  -4.024
REMARK INTRA:                  -0.290
REMARK UNBOUND:                -0.104
REMARK SMILES CCCCCCC(=O)[O-]
REMARK SMILES IDX 5 1 6 2 7 3 8 4 9 5 4 6 3 7 2 8 1 9
REMARK H PARENT
REMARK Flexibility Score: inf
ROOT
ATOM      1  C   UNL     1      89.810  98.672  91.983  1.00  0.00     0.006 C 
ENDROOT
BRANCH   1   2
ATOM      2  C   UNL     1      88.875  98.293  90.827  1.00  0.00     0.053 C 
BRANCH   2   3
ATOM      3  C   UNL     1      89.610  97.593  89.725  1.00  0.00     0.041 C 
ATOM      4  O   UNL     1      90.853  97.747  89.594  1.00  0.00    -0.550 OA
ATOM      5  O   UNL     1      88.927  96.748  88.860  1.00  0.00    -0.550 OA
ENDBRANCH   2   3
ENDBRANCH   1   2
BRANCH   1   6
ATOM      6  C   UNL     1      90.004 100.193  92.096  1.00  0.00     0.000 C 
BRANCH   6   7
ATOM      7  C   UNL     1      91.485 100.601  92.119  1.00  0.00    -0.000 C 
BRANCH   7   8
ATOM      8  C   UNL     1      92.426  99.404  92.314  1.00  0.00    -0.003 C 
ATOM      9  C   UNL     1      93.010  99.388  93.724  1.00  0.00     0.004 C 
ENDBRANCH   7   8
ENDBRANCH   6   7
ENDBRANCH   1   6
TORSDOF 5
ENDMDL
MODEL 6
REMARK VINA RESULT:    -3.238      1.628      2.301
REMARK INTER + INTRA:          -4.289
REMARK INTER:                  -4.017
REMARK INTRA:                  -0.272
REMARK UNBOUND:                -0.104
REMARK SMILES CCCCCCC(=O)[O-]
REMARK SMILES IDX 5 1 6 2 7 3 8 4 9 5 4 6 3 7 2 8 1 9
REMARK H PARENT
REMARK Flexibility Score: inf
ROOT
ATOM      1  C   UNL     1     106.066  97.357  90.208  1.00  0.00     0.006 C 
ENDROOT
BRANCH   1   2
ATOM      2  C   UNL     1     106.514  96.900  91.602  1.00  0.00     0.053 C 
BRANCH   2   3
ATOM      3  C   UNL     1     107.646  97.732  92.123  1.00  0.00     0.041 C 
ATOM      4  O   UNL     1     107.759  97.945  93.359  1.00  0.00    -0.550 OA
ATOM      5  O   UNL     1     108.592  98.247  91.246  1.00  0.00    -0.550 OA
ENDBRANCH   2   3
ENDBRANCH   1   2
BRANCH   1   6
ATOM      6  C   UNL     1     105.409  96.220  89.408  1.00  0.00     0.000 C 
BRANCH   6   7
ATOM      7  C   UNL     1     105.489  94.866  90.130  1.00  0.00    -0.000 C 
BRANCH   7   8
ATOM      8  C   UNL     1     104.109  94.230  90.350  1.00  0.00    -0.003 C 
ATOM      9  C   UNL     1     103.554  94.585  91.727  1.00  0.00     0.004 C 
ENDBRANCH   7   8
ENDBRANCH   6   7
ENDBRANCH   1   6
TORSDOF 5
ENDMDL
MODEL 7
REMARK VINA RESULT:    -3.237      1.799      3.118
REMARK INTER + INTRA:          -4.287
REMARK INTER:                  -4.063
REMARK INTRA:                  -0.224
REMARK UNBOUND:                -0.104
REMARK SMILES CCCCCCC(=O)[O-]
REMARK SMILES IDX 5 1 6 2 7 3 8 4 9 5 4 6 3 7 2 8 1 9
REMARK H PARENT
REMARK Flexibility Score: inf
ROOT
ATOM      1  C   UNL     1     105.358  98.139  92.455  1.00  0.00     0.006 C 
ENDROOT
BRANCH   1   2
ATOM      2  C   UNL     1     106.515  98.677  91.602  1.00  0.00     0.053 C 
BRANCH   2   3
ATOM      3  C   UNL     1     107.785  98.781  92.390  1.00  0.00     0.041 C 
ATOM      4  O   UNL     1     108.090  97.884  93.220  1.00  0.00    -0.550 OA
ATOM      5  O   UNL     1     108.645  99.852  92.187  1.00  0.00    -0.550 OA
ENDBRANCH   2   3
ENDBRANCH   1   2
BRANCH   1   6
ATOM      6  C   UNL     1     104.647  96.952  91.783  1.00  0.00     0.000 C 
BRANCH   6   7
ATOM      7  C   UNL     1     105.556  95.722  91.640  1.00  0.00    -0.000 C 
BRANCH   7   8
ATOM      8  C   UNL     1     105.524  95.123  90.227  1.00  0.00    -0.003 C 
ATOM      9  C   UNL     1     104.372  94.133  90.076  1.00  0.00     0.004 C 
ENDBRANCH   7   8
ENDBRANCH   6   7
ENDBRANCH   1   6
TORSDOF 5
ENDMDL
MODEL 8
REMARK VINA RESULT:    -3.223     14.390     15.366
REMARK INTER + INTRA:          -4.269
REMARK INTER:                  -4.039
REMARK INTRA:                  -0.230
REMARK UNBOUND:                -0.104
REMARK SMILES CCCCCCC(=O)[O-]
REMARK SMILES IDX 5 1 6 2 7 3 8 4 9 5 4 6 3 7 2 8 1 9
REMARK H PARENT
REMARK Flexibility Score: inf
ROOT
ATOM      1  C   UNL     1      92.379  99.638  92.421  1.00  0.00     0.006 C 
ENDROOT
BRANCH   1   2
ATOM      2  C   UNL     1      91.186  99.201  91.560  1.00  0.00     0.053 C 
BRANCH   2   3
ATOM      3  C   UNL     1      89.934  99.067  92.372  1.00  0.00     0.041 C 
ATOM      4  O   UNL     1      89.229  98.027  92.281  1.00  0.00    -0.550 OA
ATOM      5  O   UNL     1      89.562 100.077  93.250  1.00  0.00    -0.550 OA
ENDBRANCH   2   3
ENDBRANCH   1   2
BRANCH   1   6
ATOM      6  C   UNL     1      93.081 100.882  91.851  1.00  0.00     0.000 C 
BRANCH   6   7
ATOM      7  C   UNL     1      92.119 102.064  91.650  1.00  0.00    -0.000 C 
BRANCH   7   8
ATOM      8  C   UNL     1      92.261 102.713  90.266  1.00  0.00    -0.003 C 
ATOM      9  C   UNL     1      93.492 103.613  90.206  1.00  0.00     0.004 C 
ENDBRANCH   7   8
ENDBRANCH   6   7
ENDBRANCH   1   6
TORSDOF 5
ENDMDL
MODEL 9
REMARK VINA RESULT:    -3.188      4.465      6.162
REMARK INTER + INTRA:          -4.225
REMARK INTER:                  -3.888
REMARK INTRA:                  -0.337
REMARK UNBOUND:                -0.104
REMARK SMILES CCCCCCC(=O)[O-]
REMARK SMILES IDX 5 1 6 2 7 3 8 4 9 5 4 6 3 7 2 8 1 9
REMARK H PARENT
REMARK Flexibility Score: inf
ROOT
ATOM      1  C   UNL     1     107.726  97.876  93.124  1.00  0.00     0.006 C 
ENDROOT
BRANCH   1   2
ATOM      2  C   UNL     1     106.528  97.509  92.239  1.00  0.00     0.053 C 
BRANCH   2   3
ATOM      3  C   UNL     1     105.320  98.331  92.569  1.00  0.00     0.041 C 
ATOM      4  O   UNL     1     104.216  98.084  92.017  1.00  0.00    -0.550 OA
ATOM      5  O   UNL     1     105.408  99.351  93.507  1.00  0.00    -0.550 OA
ENDBRANCH   2   3
ENDBRANCH   1   2
BRANCH   1   6
ATOM      6  C   UNL     1     108.951  98.300  92.296  1.00  0.00     0.000 C 
BRANCH   6   7
ATOM      7  C   UNL     1     108.945  99.799  91.956  1.00  0.00    -0.000 C 
BRANCH   7   8
ATOM      8  C   UNL     1     109.036 100.064  90.447  1.00  0.00    -0.003 C 
ATOM      9  C   UNL     1     107.648 100.122  89.814  1.00  0.00     0.004 C 
ENDBRANCH   7   8
ENDBRANCH   6   7
ENDBRANCH   1   6
TORSDOF 5
ENDMDL
