MODEL 1
REMARK VINA RESULT:    -5.599      0.000      0.000
REMARK INTER + INTRA:         -13.270
REMARK INTER:                 -10.836
REMARK INTRA:                  -2.434
REMARK UNBOUND:                -2.434
REMARK SMILES CCCCCCCCCCCCCCCCCC(=O)[O-]
REMARK SMILES IDX 10 1 11 2 12 3 13 4 14 5 15 6 16 7 17 8 18 9 19 10 20 11
REMARK SMILES IDX 9 12 8 13 7 14 6 15 5 16 4 17 3 18 2 19 1 20
REMARK H PARENT
REMARK Flexibility Score: inf
ROOT
ATOM      1  C   UNL     1      48.647  52.891  26.074  1.00  0.00     0.000 C 
ENDROOT
BRANCH   1   2
ATOM      2  C   UNL     1      49.568  53.508  25.004  1.00  0.00     0.000 C 
BRANCH   2   3
ATOM      3  C   UNL     1      50.054  52.482  23.965  1.00  0.00     0.000 C 
BRANCH   3   4
ATOM      4  C   UNL     1      49.577  52.807  22.539  1.00  0.00     0.000 C 
BRANCH   4   5
ATOM      5  C   UNL     1      49.936  51.722  21.502  1.00  0.00     0.000 C 
BRANCH   5   6
ATOM      6  C   UNL     1      51.392  51.247  21.643  1.00  0.00     0.000 C 
BRANCH   6   7
ATOM      7  C   UNL     1      52.405  52.300  21.166  1.00  0.00     0.006 C 
BRANCH   7   8
ATOM      8  C   UNL     1      53.341  52.764  22.291  1.00  0.00     0.053 C 
BRANCH   8   9
ATOM      9  C   UNL     1      52.962  54.136  22.752  1.00  0.00     0.041 C 
ATOM     10  O   UNL     1      52.995  54.425  23.976  1.00  0.00    -0.550 OA
ATOM     11  O   UNL     1      52.614  55.109  21.824  1.00  0.00    -0.550 OA
ENDBRANCH   8   9
ENDBRANCH   7   8
ENDBRANCH   6   7
ENDBRANCH   5   6
ENDBRANCH   4   5
ENDBRANCH   3   4
ENDBRANCH   2   3
ENDBRANCH   1   2
BRANCH   1  12
ATOM     12  C   UNL     1      47.202  53.421  26.081  1.00  0.00     0.000 C 
BRANCH  12  13
ATOM     13  C   UNL     1      46.183  52.402  25.548  1.00  0.00    -0.000 C 
BRANCH  13  14
ATOM     14  C   UNL     1      46.161  52.400  24.012  1.00  0.00    -0.000 C 
BRANCH  14  15
ATOM     15  C   UNL     1      46.611  51.058  23.411  1.00  0.00    -0.000 C 
BRANCH  15  16
ATOM     16  C   UNL     1      47.139  50.081  24.477  1.00  0.00    -0.000 C 
BRANCH  16  17
ATOM     17  C   UNL     1      48.399  49.331  24.014  1.00  0.00    -0.000 C 
BRANCH  17  18
ATOM     18  C   UNL     1      48.444  47.879  24.523  1.00  0.00    -0.000 C 
BRANCH  18  19
ATOM     19  C   UNL     1      49.863  47.289  24.491  1.00  0.00    -0.003 C 
ATOM     20  C   UNL     1      50.782  48.013  23.509  1.00  0.00     0.004 C 
ENDBRANCH  18  19
ENDBRANCH  17  18
ENDBRANCH  16  17
ENDBRANCH  15  16
ENDBRANCH  14  15
ENDBRANCH  13  14
ENDBRANCH  12  13
ENDBRANCH   1  12
TORSDOF 16
ENDMDL
MODEL 2
REMARK VINA RESULT:    -5.375      2.383      6.013
REMARK INTER + INTRA:         -12.836
REMARK INTER:                 -11.087
REMARK INTRA:                  -1.749
REMARK UNBOUND:                -2.434
REMARK SMILES CCCCCCCCCCCCCCCCCC(=O)[O-]
REMARK SMILES IDX 10 1 11 2 12 3 13 4 14 5 15 6 16 7 17 8 18 9 19 10 20 11
REMARK SMILES IDX 9 12 8 13 7 14 6 15 5 16 4 17 3 18 2 19 1 20
REMARK H PARENT
REMARK Flexibility Score: inf
ROOT
ATOM      1  C   UNL     1      49.624  53.401  24.784  1.00  0.00     0.000 C 
ENDROOT
BRANCH   1   2
ATOM      2  C   UNL     1      48.848  52.842  25.991  1.00  0.00     0.000 C 
BRANCH   2   3
ATOM      3  C   UNL     1      47.342  53.147  25.931  1.00  0.00     0.000 C 
BRANCH   3   4
ATOM      4  C   UNL     1      46.483  51.880  25.775  1.00  0.00     0.000 C 
BRANCH   4   5
ATOM      5  C   UNL     1      46.757  51.100  24.472  1.00  0.00     0.000 C 
BRANCH   5   6
ATOM      6  C   UNL     1      47.262  49.674  24.747  1.00  0.00     0.000 C 
BRANCH   6   7
ATOM      7  C   UNL     1      48.425  49.270  23.827  1.00  0.00     0.006 C 
BRANCH   7   8
ATOM      8  C   UNL     1      49.182  48.039  24.344  1.00  0.00     0.053 C 
BRANCH   8   9
ATOM      9  C   UNL     1      50.488  47.892  23.629  1.00  0.00     0.041 C 
ATOM     10  O   UNL     1      50.769  48.646  22.661  1.00  0.00    -0.550 OA
ATOM     11  O   UNL     1      51.414  46.951  24.060  1.00  0.00    -0.550 OA
ENDBRANCH   8   9
ENDBRANCH   7   8
ENDBRANCH   6   7
ENDBRANCH   5   6
ENDBRANCH   4   5
ENDBRANCH   3   4
ENDBRANCH   2   3
ENDBRANCH   1   2
BRANCH   1  12
ATOM     12  C   UNL     1      50.003  52.364  23.711  1.00  0.00     0.000 C 
BRANCH  12  13
ATOM     13  C   UNL     1      49.703  52.838  22.281  1.00  0.00    -0.000 C 
BRANCH  13  14
ATOM     14  C   UNL     1      50.210  51.821  21.247  1.00  0.00    -0.000 C 
BRANCH  14  15
ATOM     15  C   UNL     1      51.646  51.349  21.530  1.00  0.00    -0.000 C 
BRANCH  15  16
ATOM     16  C   UNL     1      52.693  52.443  21.252  1.00  0.00    -0.000 C 
BRANCH  16  17
ATOM     17  C   UNL     1      53.282  53.033  22.543  1.00  0.00    -0.000 C 
BRANCH  17  18
ATOM     18  C   UNL     1      53.052  54.551  22.660  1.00  0.00    -0.000 C 
BRANCH  18  19
ATOM     19  C   UNL     1      52.150  55.096  21.541  1.00  0.00    -0.003 C 
ATOM     20  C   UNL     1      52.682  56.393  20.934  1.00  0.00     0.004 C 
ENDBRANCH  18  19
ENDBRANCH  17  18
ENDBRANCH  16  17
ENDBRANCH  15  16
ENDBRANCH  14  15
ENDBRANCH  13  14
ENDBRANCH  12  13
ENDBRANCH   1  12
TORSDOF 16
ENDMDL
MODEL 3
REMARK VINA RESULT:    -5.292      2.746      5.932
REMARK INTER + INTRA:         -12.675
REMARK INTER:                 -10.750
REMARK INTRA:                  -1.925
REMARK UNBOUND:                -2.434
REMARK SMILES CCCCCCCCCCCCCCCCCC(=O)[O-]
REMARK SMILES IDX 10 1 11 2 12 3 13 4 14 5 15 6 16 7 17 8 18 9 19 10 20 11
REMARK SMILES IDX 9 12 8 13 7 14 6 15 5 16 4 17 3 18 2 19 1 20
REMARK H PARENT
REMARK Flexibility Score: inf
ROOT
ATOM      1  C   UNL     1      49.275  53.124  24.814  1.00  0.00     0.000 C 
ENDROOT
BRANCH   1   2
ATOM      2  C   UNL     1      48.518  52.976  26.146  1.00  0.00     0.000 C 
BRANCH   2   3
ATOM      3  C   UNL     1      47.001  53.189  26.003  1.00  0.00     0.000 C 
BRANCH   3   4
ATOM      4  C   UNL     1      46.259  51.915  25.564  1.00  0.00     0.000 C 
BRANCH   4   5
ATOM      5  C   UNL     1      46.012  51.833  24.042  1.00  0.00     0.000 C 
BRANCH   5   6
ATOM      6  C   UNL     1      46.941  50.814  23.361  1.00  0.00     0.000 C 
BRANCH   6   7
ATOM      7  C   UNL     1      47.644  49.889  24.367  1.00  0.00     0.006 C 
BRANCH   7   8
ATOM      8  C   UNL     1      48.893  49.220  23.776  1.00  0.00     0.053 C 
BRANCH   8   9
ATOM      9  C   UNL     1      49.059  47.842  24.333  1.00  0.00     0.041 C 
ATOM     10  O   UNL     1      50.208  47.347  24.469  1.00  0.00    -0.550 OA
ATOM     11  O   UNL     1      47.945  47.120  24.744  1.00  0.00    -0.550 OA
ENDBRANCH   8   9
ENDBRANCH   7   8
ENDBRANCH   6   7
ENDBRANCH   5   6
ENDBRANCH   4   5
ENDBRANCH   3   4
ENDBRANCH   2   3
ENDBRANCH   1   2
BRANCH   1  12
ATOM     12  C   UNL     1      50.529  54.016  24.866  1.00  0.00     0.000 C 
BRANCH  12  13
ATOM     13  C   UNL     1      51.793  53.311  24.353  1.00  0.00    -0.000 C 
BRANCH  13  14
ATOM     14  C   UNL     1      52.914  54.325  24.080  1.00  0.00    -0.000 C 
BRANCH  14  15
ATOM     15  C   UNL     1      53.349  54.351  22.606  1.00  0.00    -0.000 C 
BRANCH  15  16
ATOM     16  C   UNL     1      52.154  54.433  21.639  1.00  0.00    -0.000 C 
BRANCH  16  17
ATOM     17  C   UNL     1      52.179  53.321  20.577  1.00  0.00    -0.000 C 
BRANCH  17  18
ATOM     18  C   UNL     1      52.617  51.963  21.153  1.00  0.00    -0.000 C 
BRANCH  18  19
ATOM     19  C   UNL     1      51.484  50.924  21.138  1.00  0.00    -0.003 C 
ATOM     20  C   UNL     1      50.124  51.531  21.479  1.00  0.00     0.004 C 
ENDBRANCH  18  19
ENDBRANCH  17  18
ENDBRANCH  16  17
ENDBRANCH  15  16
ENDBRANCH  14  15
ENDBRANCH  13  14
ENDBRANCH  12  13
ENDBRANCH   1  12
TORSDOF 16
ENDMDL
MODEL 4
REMARK VINA RESULT:    -5.246      2.369      6.193
REMARK INTER + INTRA:         -12.586
REMARK INTER:                 -10.073
REMARK INTRA:                  -2.513
REMARK UNBOUND:                -2.434
REMARK SMILES CCCCCCCCCCCCCCCCCC(=O)[O-]
REMARK SMILES IDX 10 1 11 2 12 3 13 4 14 5 15 6 16 7 17 8 18 9 19 10 20 11
REMARK SMILES IDX 9 12 8 13 7 14 6 15 5 16 4 17 3 18 2 19 1 20
REMARK H PARENT
REMARK Flexibility Score: inf
ROOT
ATOM      1  C   UNL     1      50.949  50.971  21.565  1.00  0.00     0.000 C 
ENDROOT
BRANCH   1   2
ATOM      2  C   UNL     1      50.782  49.583  22.211  1.00  0.00     0.000 C 
BRANCH   2   3
ATOM      3  C   UNL     1      49.315  49.233  22.512  1.00  0.00     0.000 C 
BRANCH   3   4
ATOM      4  C   UNL     1      49.021  49.143  24.020  1.00  0.00     0.000 C 
BRANCH   4   5
ATOM      5  C   UNL     1      47.582  49.556  24.397  1.00  0.00     0.000 C 
BRANCH   5   6
ATOM      6  C   UNL     1      47.051  50.686  23.499  1.00  0.00     0.000 C 
BRANCH   6   7
ATOM      7  C   UNL     1      46.263  51.746  24.285  1.00  0.00     0.006 C 
BRANCH   7   8
ATOM      8  C   UNL     1      46.605  51.741  25.782  1.00  0.00     0.053 C 
BRANCH   8   9
ATOM      9  C   UNL     1      47.056  53.099  26.218  1.00  0.00     0.041 C 
ATOM     10  O   UNL     1      48.147  53.239  26.829  1.00  0.00    -0.550 OA
ATOM     11  O   UNL     1      46.290  54.217  25.910  1.00  0.00    -0.550 OA
ENDBRANCH   8   9
ENDBRANCH   7   8
ENDBRANCH   6   7
ENDBRANCH   5   6
ENDBRANCH   4   5
ENDBRANCH   3   4
ENDBRANCH   2   3
ENDBRANCH   1   2
BRANCH   1  12
ATOM     12  C   UNL     1      49.656  51.796  21.437  1.00  0.00     0.000 C 
BRANCH  12  13
ATOM     13  C   UNL     1      49.659  53.062  22.306  1.00  0.00    -0.000 C 
BRANCH  13  14
ATOM     14  C   UNL     1      49.983  52.722  23.769  1.00  0.00    -0.000 C 
BRANCH  14  15
ATOM     15  C   UNL     1      51.117  53.586  24.345  1.00  0.00    -0.000 C 
BRANCH  15  16
ATOM     16  C   UNL     1      52.491  52.897  24.250  1.00  0.00    -0.000 C 
BRANCH  16  17
ATOM     17  C   UNL     1      53.325  53.413  23.065  1.00  0.00    -0.000 C 
BRANCH  17  18
ATOM     18  C   UNL     1      52.884  54.809  22.593  1.00  0.00    -0.000 C 
BRANCH  18  19
ATOM     19  C   UNL     1      52.381  54.807  21.141  1.00  0.00    -0.003 C 
ATOM     20  C   UNL     1      52.257  56.214  20.558  1.00  0.00     0.004 C 
ENDBRANCH  18  19
ENDBRANCH  17  18
ENDBRANCH  16  17
ENDBRANCH  15  16
ENDBRANCH  14  15
ENDBRANCH  13  14
ENDBRANCH  12  13
ENDBRANCH   1  12
TORSDOF 16
ENDMDL
MODEL 5
REMARK VINA RESULT:    -5.130      1.217      3.554
REMARK INTER + INTRA:         -12.363
REMARK INTER:                 -10.171
REMARK INTRA:                  -2.192
REMARK UNBOUND:                -2.434
REMARK SMILES CCCCCCCCCCCCCCCCCC(=O)[O-]
REMARK SMILES IDX 10 1 11 2 12 3 13 4 14 5 15 6 16 7 17 8 18 9 19 10 20 11
REMARK SMILES IDX 9 12 8 13 7 14 6 15 5 16 4 17 3 18 2 19 1 20
REMARK H PARENT
REMARK Flexibility Score: inf
ROOT
ATOM      1  C   UNL     1      49.153  49.042  23.924  1.00  0.00     0.000 C 
ENDROOT
BRANCH   1   2
ATOM      2  C   UNL     1      49.497  49.128  22.426  1.00  0.00     0.000 C 
BRANCH   2   3
ATOM      3  C   UNL     1      50.897  49.708  22.163  1.00  0.00     0.000 C 
BRANCH   3   4
ATOM      4  C   UNL     1      50.883  50.865  21.149  1.00  0.00     0.000 C 
BRANCH   4   5
ATOM      5  C   UNL     1      52.229  51.611  21.039  1.00  0.00     0.000 C 
BRANCH   5   6
ATOM      6  C   UNL     1      52.037  53.112  20.762  1.00  0.00     0.000 C 
BRANCH   6   7
ATOM      7  C   UNL     1      52.565  53.996  21.903  1.00  0.00     0.006 C 
BRANCH   7   8
ATOM      8  C   UNL     1      53.631  53.287  22.751  1.00  0.00     0.053 C 
BRANCH   8   9
ATOM      9  C   UNL     1      53.336  53.456  24.208  1.00  0.00     0.041 C 
ATOM     10  O   UNL     1      53.614  52.538  25.022  1.00  0.00    -0.550 OA
ATOM     11  O   UNL     1      52.794  54.648  24.673  1.00  0.00    -0.550 OA
ENDBRANCH   8   9
ENDBRANCH   7   8
ENDBRANCH   6   7
ENDBRANCH   5   6
ENDBRANCH   4   5
ENDBRANCH   3   4
ENDBRANCH   2   3
ENDBRANCH   1   2
BRANCH   1  12
ATOM     12  C   UNL     1      47.770  49.596  24.313  1.00  0.00     0.000 C 
BRANCH  12  13
ATOM     13  C   UNL     1      47.239  50.643  23.324  1.00  0.00    -0.000 C 
BRANCH  13  14
ATOM     14  C   UNL     1      46.288  51.627  24.024  1.00  0.00    -0.000 C 
BRANCH  14  15
ATOM     15  C   UNL     1      45.876  51.160  25.429  1.00  0.00    -0.000 C 
BRANCH  15  16
ATOM     16  C   UNL     1      46.227  52.188  26.520  1.00  0.00    -0.000 C 
BRANCH  16  17
ATOM     17  C   UNL     1      47.148  53.305  26.001  1.00  0.00    -0.000 C 
BRANCH  17  18
ATOM     18  C   UNL     1      48.628  53.059  26.344  1.00  0.00    -0.000 C 
BRANCH  18  19
ATOM     19  C   UNL     1      49.581  53.645  25.290  1.00  0.00    -0.003 C 
ATOM     20  C   UNL     1      49.814  52.697  24.114  1.00  0.00     0.004 C 
ENDBRANCH  18  19
ENDBRANCH  17  18
ENDBRANCH  16  17
ENDBRANCH  15  16
ENDBRANCH  14  15
ENDBRANCH  13  14
ENDBRANCH  12  13
ENDBRANCH   1  12
TORSDOF 16
ENDMDL
MODEL 6
REMARK VINA RESULT:    -5.093      2.729      5.339
REMARK INTER + INTRA:         -12.290
REMARK INTER:                 -10.305
REMARK INTRA:                  -1.986
REMARK UNBOUND:                -2.434
REMARK SMILES CCCCCCCCCCCCCCCCCC(=O)[O-]
REMARK SMILES IDX 10 1 11 2 12 3 13 4 14 5 15 6 16 7 17 8 18 9 19 10 20 11
REMARK SMILES IDX 9 12 8 13 7 14 6 15 5 16 4 17 3 18 2 19 1 20
REMARK H PARENT
REMARK Flexibility Score: inf
ROOT
ATOM      1  C   UNL     1      46.808  53.027  26.508  1.00  0.00     0.000 C 
ENDROOT
BRANCH   1   2
ATOM      2  C   UNL     1      46.173  52.423  25.242  1.00  0.00     0.000 C 
BRANCH   2   3
ATOM      3  C   UNL     1      46.206  50.885  25.228  1.00  0.00     0.000 C 
BRANCH   3   4
ATOM      4  C   UNL     1      47.367  50.321  24.391  1.00  0.00     0.000 C 
BRANCH   4   5
ATOM      5  C   UNL     1      47.497  50.966  22.995  1.00  0.00     0.000 C 
BRANCH   5   6
ATOM      6  C   UNL     1      48.944  50.930  22.474  1.00  0.00     0.000 C 
BRANCH   6   7
ATOM      7  C   UNL     1      49.439  49.500  22.204  1.00  0.00     0.006 C 
BRANCH   7   8
ATOM      8  C   UNL     1      50.736  49.176  22.958  1.00  0.00     0.053 C 
BRANCH   8   9
ATOM      9  C   UNL     1      50.579  47.915  23.748  1.00  0.00     0.041 C 
ATOM     10  O   UNL     1      51.561  47.145  23.914  1.00  0.00    -0.550 OA
ATOM     11  O   UNL     1      49.359  47.612  24.338  1.00  0.00    -0.550 OA
ENDBRANCH   8   9
ENDBRANCH   7   8
ENDBRANCH   6   7
ENDBRANCH   5   6
ENDBRANCH   4   5
ENDBRANCH   3   4
ENDBRANCH   2   3
ENDBRANCH   1   2
BRANCH   1  12
ATOM     12  C   UNL     1      48.346  53.079  26.511  1.00  0.00     0.000 C 
BRANCH  12  13
ATOM     13  C   UNL     1      48.936  53.576  25.184  1.00  0.00    -0.000 C 
BRANCH  13  14
ATOM     14  C   UNL     1      50.331  52.977  24.944  1.00  0.00    -0.000 C 
BRANCH  14  15
ATOM     15  C   UNL     1      51.357  54.023  24.479  1.00  0.00    -0.000 C 
BRANCH  15  16
ATOM     16  C   UNL     1      52.751  53.416  24.238  1.00  0.00    -0.000 C 
BRANCH  16  17
ATOM     17  C   UNL     1      53.378  53.888  22.916  1.00  0.00    -0.000 C 
BRANCH  17  18
ATOM     18  C   UNL     1      52.324  54.342  21.890  1.00  0.00    -0.000 C 
BRANCH  18  19
ATOM     19  C   UNL     1      52.060  53.282  20.809  1.00  0.00    -0.003 C 
ATOM     20  C   UNL     1      52.634  51.913  21.173  1.00  0.00     0.004 C 
ENDBRANCH  18  19
ENDBRANCH  17  18
ENDBRANCH  16  17
ENDBRANCH  15  16
ENDBRANCH  14  15
ENDBRANCH  13  14
ENDBRANCH  12  13
ENDBRANCH   1  12
TORSDOF 16
ENDMDL
MODEL 7
REMARK VINA RESULT:    -5.054      1.841      5.070
REMARK INTER + INTRA:         -12.215
REMARK INTER:                 -10.186
REMARK INTRA:                  -2.030
REMARK UNBOUND:                -2.434
REMARK SMILES CCCCCCCCCCCCCCCCCC(=O)[O-]
REMARK SMILES IDX 10 1 11 2 12 3 13 4 14 5 15 6 16 7 17 8 18 9 19 10 20 11
REMARK SMILES IDX 9 12 8 13 7 14 6 15 5 16 4 17 3 18 2 19 1 20
REMARK H PARENT
REMARK Flexibility Score: inf
ROOT
ATOM      1  C   UNL     1      46.500  52.543  26.515  1.00  0.00     0.000 C 
ENDROOT
BRANCH   1   2
ATOM      2  C   UNL     1      46.012  51.369  25.645  1.00  0.00     0.000 C 
BRANCH   2   3
ATOM      3  C   UNL     1      46.214  51.612  24.140  1.00  0.00     0.000 C 
BRANCH   3   4
ATOM      4  C   UNL     1      47.197  50.615  23.502  1.00  0.00     0.000 C 
BRANCH   4   5
ATOM      5  C   UNL     1      47.816  49.622  24.509  1.00  0.00     0.000 C 
BRANCH   5   6
ATOM      6  C   UNL     1      48.910  48.753  23.866  1.00  0.00     0.000 C 
BRANCH   6   7
ATOM      7  C   UNL     1      50.093  49.584  23.343  1.00  0.00     0.006 C 
BRANCH   7   8
ATOM      8  C   UNL     1      50.132  49.650  21.810  1.00  0.00     0.053 C 
BRANCH   8   9
ATOM      9  C   UNL     1      50.715  50.952  21.359  1.00  0.00     0.041 C 
ATOM     10  O   UNL     1      51.903  51.006  20.948  1.00  0.00    -0.550 OA
ATOM     11  O   UNL     1      49.930  52.098  21.350  1.00  0.00    -0.550 OA
ENDBRANCH   8   9
ENDBRANCH   7   8
ENDBRANCH   6   7
ENDBRANCH   5   6
ENDBRANCH   4   5
ENDBRANCH   3   4
ENDBRANCH   2   3
ENDBRANCH   1   2
BRANCH   1  12
ATOM     12  C   UNL     1      47.441  53.536  25.809  1.00  0.00     0.000 C 
BRANCH  12  13
ATOM     13  C   UNL     1      48.928  53.203  26.006  1.00  0.00    -0.000 C 
BRANCH  13  14
ATOM     14  C   UNL     1      49.609  52.916  24.659  1.00  0.00    -0.000 C 
BRANCH  14  15
ATOM     15  C   UNL     1      50.921  53.696  24.475  1.00  0.00    -0.000 C 
BRANCH  15  16
ATOM     16  C   UNL     1      52.130  52.772  24.242  1.00  0.00    -0.000 C 
BRANCH  16  17
ATOM     17  C   UNL     1      53.108  53.336  23.198  1.00  0.00    -0.000 C 
BRANCH  17  18
ATOM     18  C   UNL     1      52.718  54.747  22.723  1.00  0.00    -0.000 C 
BRANCH  18  19
ATOM     19  C   UNL     1      52.212  54.760  21.271  1.00  0.00    -0.003 C 
ATOM     20  C   UNL     1      52.299  56.143  20.629  1.00  0.00     0.004 C 
ENDBRANCH  18  19
ENDBRANCH  17  18
ENDBRANCH  16  17
ENDBRANCH  15  16
ENDBRANCH  14  15
ENDBRANCH  13  14
ENDBRANCH  12  13
ENDBRANCH   1  12
TORSDOF 16
ENDMDL
MODEL 8
REMARK VINA RESULT:    -5.053      1.346      4.126
REMARK INTER + INTRA:         -12.214
REMARK INTER:                  -9.767
REMARK INTRA:                  -2.447
REMARK UNBOUND:                -2.434
REMARK SMILES CCCCCCCCCCCCCCCCCC(=O)[O-]
REMARK SMILES IDX 10 1 11 2 12 3 13 4 14 5 15 6 16 7 17 8 18 9 19 10 20 11
REMARK SMILES IDX 9 12 8 13 7 14 6 15 5 16 4 17 3 18 2 19 1 20
REMARK H PARENT
REMARK Flexibility Score: inf
ROOT
ATOM      1  C   UNL     1      50.680  50.962  21.480  1.00  0.00     0.000 C 
ENDROOT
BRANCH   1   2
ATOM      2  C   UNL     1      49.372  51.771  21.566  1.00  0.00     0.000 C 
BRANCH   2   3
ATOM      3  C   UNL     1      49.520  53.068  22.379  1.00  0.00     0.000 C 
BRANCH   3   4
ATOM      4  C   UNL     1      49.941  52.813  23.837  1.00  0.00     0.000 C 
BRANCH   4   5
ATOM      5  C   UNL     1      51.137  53.673  24.297  1.00  0.00     0.000 C 
BRANCH   5   6
ATOM      6  C   UNL     1      52.477  52.937  24.127  1.00  0.00     0.000 C 
BRANCH   6   7
ATOM      7  C   UNL     1      53.307  53.483  22.955  1.00  0.00     0.006 C 
BRANCH   7   8
ATOM      8  C   UNL     1      52.900  54.910  22.562  1.00  0.00     0.053 C 
BRANCH   8   9
ATOM      9  C   UNL     1      52.408  54.942  21.150  1.00  0.00     0.041 C 
ATOM     10  O   UNL     1      52.207  53.869  20.524  1.00  0.00    -0.550 OA
ATOM     11  O   UNL     1      52.128  56.158  20.539  1.00  0.00    -0.550 OA
ENDBRANCH   8   9
ENDBRANCH   7   8
ENDBRANCH   6   7
ENDBRANCH   5   6
ENDBRANCH   4   5
ENDBRANCH   3   4
ENDBRANCH   2   3
ENDBRANCH   1   2
BRANCH   1  12
ATOM     12  C   UNL     1      50.582  49.502  21.958  1.00  0.00     0.000 C 
BRANCH  12  13
ATOM     13  C   UNL     1      50.379  49.376  23.475  1.00  0.00    -0.000 C 
BRANCH  13  14
ATOM     14  C   UNL     1      49.463  48.187  23.808  1.00  0.00    -0.000 C 
BRANCH  14  15
ATOM     15  C   UNL     1      48.156  48.616  24.493  1.00  0.00    -0.000 C 
BRANCH  15  16
ATOM     16  C   UNL     1      47.608  49.946  23.943  1.00  0.00    -0.000 C 
BRANCH  16  17
ATOM     17  C   UNL     1      47.068  50.863  25.052  1.00  0.00    -0.000 C 
BRANCH  17  18
ATOM     18  C   UNL     1      46.400  52.134  24.496  1.00  0.00    -0.000 C 
BRANCH  18  19
ATOM     19  C   UNL     1      46.241  53.229  25.563  1.00  0.00    -0.003 C 
ATOM     20  C   UNL     1      47.416  53.278  26.538  1.00  0.00     0.004 C 
ENDBRANCH  18  19
ENDBRANCH  17  18
ENDBRANCH  16  17
ENDBRANCH  15  16
ENDBRANCH  14  15
ENDBRANCH  13  14
ENDBRANCH  12  13
ENDBRANCH   1  12
TORSDOF 16
ENDMDL
MODEL 9
REMARK VINA RESULT:    -5.018      2.626      4.821
REMARK INTER + INTRA:         -12.146
REMARK INTER:                  -9.836
REMARK INTRA:                  -2.310
REMARK UNBOUND:                -2.434
REMARK SMILES CCCCCCCCCCCCCCCCCC(=O)[O-]
REMARK SMILES IDX 10 1 11 2 12 3 13 4 14 5 15 6 16 7 17 8 18 9 19 10 20 11
REMARK SMILES IDX 9 12 8 13 7 14 6 15 5 16 4 17 3 18 2 19 1 20
REMARK H PARENT
REMARK Flexibility Score: inf
ROOT
ATOM      1  C   UNL     1      52.331  53.366  24.317  1.00  0.00     0.000 C 
ENDROOT
BRANCH   1   2
ATOM      2  C   UNL     1      53.143  53.330  23.009  1.00  0.00     0.000 C 
BRANCH   2   3
ATOM      3  C   UNL     1      52.432  54.033  21.841  1.00  0.00     0.000 C 
BRANCH   3   4
ATOM      4  C   UNL     1      51.934  53.050  20.767  1.00  0.00     0.000 C 
BRANCH   4   5
ATOM      5  C   UNL     1      52.279  51.576  21.067  1.00  0.00     0.000 C 
BRANCH   5   6
ATOM      6  C   UNL     1      51.024  50.689  21.123  1.00  0.00     0.000 C 
BRANCH   6   7
ATOM      7  C   UNL     1      51.110  49.612  22.217  1.00  0.00     0.006 C 
BRANCH   7   8
ATOM      8  C   UNL     1      49.726  49.131  22.676  1.00  0.00     0.053 C 
BRANCH   8   9
ATOM      9  C   UNL     1      49.863  48.122  23.773  1.00  0.00     0.041 C 
ATOM     10  O   UNL     1      50.995  47.664  24.075  1.00  0.00    -0.550 OA
ATOM     11  O   UNL     1      48.743  47.722  24.491  1.00  0.00    -0.550 OA
ENDBRANCH   8   9
ENDBRANCH   7   8
ENDBRANCH   6   7
ENDBRANCH   5   6
ENDBRANCH   4   5
ENDBRANCH   3   4
ENDBRANCH   2   3
ENDBRANCH   1   2
BRANCH   1  12
ATOM     12  C   UNL     1      50.878  53.851  24.174  1.00  0.00     0.000 C 
BRANCH  12  13
ATOM     13  C   UNL     1      49.864  52.702  24.077  1.00  0.00    -0.000 C 
BRANCH  13  14
ATOM     14  C   UNL     1      48.954  52.875  22.852  1.00  0.00    -0.000 C 
BRANCH  14  15
ATOM     15  C   UNL     1      47.862  51.796  22.762  1.00  0.00    -0.000 C 
BRANCH  15  16
ATOM     16  C   UNL     1      47.136  51.578  24.102  1.00  0.00    -0.000 C 
BRANCH  16  17
ATOM     17  C   UNL     1      45.983  52.572  24.314  1.00  0.00    -0.000 C 
BRANCH  17  18
ATOM     18  C   UNL     1      46.258  53.561  25.462  1.00  0.00    -0.000 C 
BRANCH  18  19
ATOM     19  C   UNL     1      46.763  52.861  26.733  1.00  0.00    -0.003 C 
ATOM     20  C   UNL     1      48.209  53.220  27.069  1.00  0.00     0.004 C 
ENDBRANCH  18  19
ENDBRANCH  17  18
ENDBRANCH  16  17
ENDBRANCH  15  16
ENDBRANCH  14  15
ENDBRANCH  13  14
ENDBRANCH  12  13
ENDBRANCH   1  12
TORSDOF 16
ENDMDL
