MODEL 1
REMARK VINA RESULT:    -4.684      0.000      0.000
REMARK INTER + INTRA:         -11.297
REMARK INTER:                  -9.066
REMARK INTRA:                  -2.232
REMARK UNBOUND:                -2.232
REMARK SMILES CCCCCCCCCCCCCCCCCC(=O)[O-]
REMARK SMILES IDX 10 1 11 2 12 3 13 4 14 5 15 6 16 7 17 8 18 9 19 10 20 11
REMARK SMILES IDX 9 12 8 13 7 14 6 15 5 16 4 17 3 18 2 19 1 20
REMARK H PARENT
REMARK Flexibility Score: inf
ROOT
ATOM      1  C   UNL     1       2.260  50.741  -2.093  1.00  0.00     0.000 C 
ENDROOT
BRANCH   1   2
ATOM      2  C   UNL     1       3.227  51.368  -3.115  1.00  0.00     0.000 C 
BRANCH   2   3
ATOM      3  C   UNL     1       4.146  52.454  -2.516  1.00  0.00     0.000 C 
BRANCH   3   4
ATOM      4  C   UNL     1       5.463  52.607  -3.299  1.00  0.00     0.000 C 
BRANCH   4   5
ATOM      5  C   UNL     1       6.600  53.189  -2.444  1.00  0.00     0.000 C 
BRANCH   5   6
ATOM      6  C   UNL     1       7.399  52.099  -1.705  1.00  0.00     0.000 C 
BRANCH   6   7
ATOM      7  C   UNL     1       8.720  52.629  -1.125  1.00  0.00     0.006 C 
BRANCH   7   8
ATOM      8  C   UNL     1       9.889  51.660  -1.342  1.00  0.00     0.053 C 
BRANCH   8   9
ATOM      9  C   UNL     1      11.191  52.326  -1.030  1.00  0.00     0.041 C 
ATOM     10  O   UNL     1      11.888  52.819  -1.958  1.00  0.00    -0.550 OA
ATOM     11  O   UNL     1      11.653  52.374   0.283  1.00  0.00    -0.550 OA
ENDBRANCH   8   9
ENDBRANCH   7   8
ENDBRANCH   6   7
ENDBRANCH   5   6
ENDBRANCH   4   5
ENDBRANCH   3   4
ENDBRANCH   2   3
ENDBRANCH   1   2
BRANCH   1  12
ATOM     12  C   UNL     1       2.164  51.490  -0.750  1.00  0.00     0.000 C 
BRANCH  12  13
ATOM     13  C   UNL     1       2.326  50.604   0.502  1.00  0.00    -0.000 C 
BRANCH  13  14
ATOM     14  C   UNL     1       3.362  51.103   1.530  1.00  0.00    -0.000 C 
BRANCH  14  15
ATOM     15  C   UNL     1       4.730  51.489   0.937  1.00  0.00    -0.000 C 
BRANCH  15  16
ATOM     16  C   UNL     1       5.182  52.898   1.351  1.00  0.00    -0.000 C 
BRANCH  16  17
ATOM     17  C   UNL     1       3.979  53.842   1.492  1.00  0.00    -0.000 C 
BRANCH  17  18
ATOM     18  C   UNL     1       4.185  55.188   0.769  1.00  0.00    -0.000 C 
BRANCH  18  19
ATOM     19  C   UNL     1       3.372  55.357  -0.528  1.00  0.00    -0.003 C 
ATOM     20  C   UNL     1       1.894  54.997  -0.365  1.00  0.00     0.004 C 
ENDBRANCH  18  19
ENDBRANCH  17  18
ENDBRANCH  16  17
ENDBRANCH  15  16
ENDBRANCH  14  15
ENDBRANCH  13  14
ENDBRANCH  12  13
ENDBRANCH   1  12
TORSDOF 16
ENDMDL
MODEL 2
REMARK VINA RESULT:    -4.607      2.724      5.505
REMARK INTER + INTRA:         -11.148
REMARK INTER:                  -9.329
REMARK INTRA:                  -1.820
REMARK UNBOUND:                -2.232
REMARK SMILES CCCCCCCCCCCCCCCCCC(=O)[O-]
REMARK SMILES IDX 10 1 11 2 12 3 13 4 14 5 15 6 16 7 17 8 18 9 19 10 20 11
REMARK SMILES IDX 9 12 8 13 7 14 6 15 5 16 4 17 3 18 2 19 1 20
REMARK H PARENT
REMARK Flexibility Score: inf
ROOT
ATOM      1  C   UNL     1       3.026  50.830   0.938  1.00  0.00     0.000 C 
ENDROOT
BRANCH   1   2
ATOM      2  C   UNL     1       2.240  51.726  -0.039  1.00  0.00     0.000 C 
BRANCH   2   3
ATOM      3  C   UNL     1       2.023  51.087  -1.428  1.00  0.00     0.000 C 
BRANCH   3   4
ATOM      4  C   UNL     1       2.520  51.990  -2.573  1.00  0.00     0.000 C 
BRANCH   4   5
ATOM      5  C   UNL     1       2.748  51.218  -3.882  1.00  0.00     0.000 C 
BRANCH   5   6
ATOM      6  C   UNL     1       4.154  51.452  -4.466  1.00  0.00     0.000 C 
BRANCH   6   7
ATOM      7  C   UNL     1       5.164  51.910  -3.402  1.00  0.00     0.006 C 
BRANCH   7   8
ATOM      8  C   UNL     1       5.905  53.191  -3.807  1.00  0.00     0.053 C 
BRANCH   8   9
ATOM      9  C   UNL     1       5.154  54.402  -3.350  1.00  0.00     0.041 C 
ATOM     10  O   UNL     1       4.367  54.991  -4.138  1.00  0.00    -0.550 OA
ATOM     11  O   UNL     1       5.350  54.900  -2.066  1.00  0.00    -0.550 OA
ENDBRANCH   8   9
ENDBRANCH   7   8
ENDBRANCH   6   7
ENDBRANCH   5   6
ENDBRANCH   4   5
ENDBRANCH   3   4
ENDBRANCH   2   3
ENDBRANCH   1   2
BRANCH   1  12
ATOM     12  C   UNL     1       4.381  51.405   1.395  1.00  0.00     0.000 C 
BRANCH  12  13
ATOM     13  C   UNL     1       5.109  52.267   0.343  1.00  0.00    -0.000 C 
BRANCH  13  14
ATOM     14  C   UNL     1       6.273  53.120   0.887  1.00  0.00    -0.000 C 
BRANCH  14  15
ATOM     15  C   UNL     1       7.678  52.572   0.577  1.00  0.00    -0.000 C 
BRANCH  15  16
ATOM     16  C   UNL     1       7.952  52.452  -0.930  1.00  0.00    -0.000 C 
BRANCH  16  17
ATOM     17  C   UNL     1       9.164  51.546  -1.199  1.00  0.00    -0.000 C 
BRANCH  17  18
ATOM     18  C   UNL     1      10.161  51.514  -0.025  1.00  0.00    -0.000 C 
BRANCH  18  19
ATOM     19  C   UNL     1      11.504  52.218  -0.296  1.00  0.00    -0.003 C 
ATOM     20  C   UNL     1      11.619  52.770  -1.718  1.00  0.00     0.004 C 
ENDBRANCH  18  19
ENDBRANCH  17  18
ENDBRANCH  16  17
ENDBRANCH  15  16
ENDBRANCH  14  15
ENDBRANCH  13  14
ENDBRANCH  12  13
ENDBRANCH   1  12
TORSDOF 16
ENDMDL
MODEL 3
REMARK VINA RESULT:    -4.586      3.150      6.047
REMARK INTER + INTRA:         -11.108
REMARK INTER:                  -9.006
REMARK INTRA:                  -2.101
REMARK UNBOUND:                -2.232
REMARK SMILES CCCCCCCCCCCCCCCCCC(=O)[O-]
REMARK SMILES IDX 10 1 11 2 12 3 13 4 14 5 15 6 16 7 17 8 18 9 19 10 20 11
REMARK SMILES IDX 9 12 8 13 7 14 6 15 5 16 4 17 3 18 2 19 1 20
REMARK H PARENT
REMARK Flexibility Score: inf
ROOT
ATOM      1  C   UNL     1       2.447  51.158  -1.986  1.00  0.00     0.000 C 
ENDROOT
BRANCH   1   2
ATOM      2  C   UNL     1       1.946  51.478  -0.564  1.00  0.00     0.000 C 
BRANCH   2   3
ATOM      3  C   UNL     1       2.236  50.361   0.461  1.00  0.00     0.000 C 
BRANCH   3   4
ATOM      4  C   UNL     1       3.350  50.748   1.452  1.00  0.00     0.000 C 
BRANCH   4   5
ATOM      5  C   UNL     1       4.459  51.590   0.800  1.00  0.00     0.000 C 
BRANCH   5   6
ATOM      6  C   UNL     1       4.812  52.841   1.628  1.00  0.00     0.000 C 
BRANCH   6   7
ATOM      7  C   UNL     1       3.927  54.048   1.276  1.00  0.00     0.006 C 
BRANCH   7   8
ATOM      8  C   UNL     1       4.333  54.709  -0.048  1.00  0.00     0.053 C 
BRANCH   8   9
ATOM      9  C   UNL     1       3.183  55.464  -0.635  1.00  0.00     0.041 C 
ATOM     10  O   UNL     1       3.389  56.522  -1.288  1.00  0.00    -0.550 OA
ATOM     11  O   UNL     1       1.880  55.019  -0.431  1.00  0.00    -0.550 OA
ENDBRANCH   8   9
ENDBRANCH   7   8
ENDBRANCH   6   7
ENDBRANCH   5   6
ENDBRANCH   4   5
ENDBRANCH   3   4
ENDBRANCH   2   3
ENDBRANCH   1   2
BRANCH   1  12
ATOM     12  C   UNL     1       3.206  52.306  -2.678  1.00  0.00     0.000 C 
BRANCH  12  13
ATOM     13  C   UNL     1       4.056  51.884  -3.894  1.00  0.00    -0.000 C 
BRANCH  13  14
ATOM     14  C   UNL     1       5.566  51.734  -3.618  1.00  0.00    -0.000 C 
BRANCH  14  15
ATOM     15  C   UNL     1       6.088  52.537  -2.413  1.00  0.00    -0.000 C 
BRANCH  15  16
ATOM     16  C   UNL     1       7.457  52.045  -1.918  1.00  0.00    -0.000 C 
BRANCH  16  17
ATOM     17  C   UNL     1       7.797  52.650  -0.547  1.00  0.00    -0.000 C 
BRANCH  17  18
ATOM     18  C   UNL     1       9.304  52.608  -0.230  1.00  0.00    -0.000 C 
BRANCH  18  19
ATOM     19  C   UNL     1      10.172  51.911  -1.295  1.00  0.00    -0.003 C 
ATOM     20  C   UNL     1      11.470  52.660  -1.599  1.00  0.00     0.004 C 
ENDBRANCH  18  19
ENDBRANCH  17  18
ENDBRANCH  16  17
ENDBRANCH  15  16
ENDBRANCH  14  15
ENDBRANCH  13  14
ENDBRANCH  12  13
ENDBRANCH   1  12
TORSDOF 16
ENDMDL
MODEL 4
REMARK VINA RESULT:    -4.514      1.566      3.600
REMARK INTER + INTRA:         -10.969
REMARK INTER:                  -8.845
REMARK INTRA:                  -2.124
REMARK UNBOUND:                -2.232
REMARK SMILES CCCCCCCCCCCCCCCCCC(=O)[O-]
REMARK SMILES IDX 10 1 11 2 12 3 13 4 14 5 15 6 16 7 17 8 18 9 19 10 20 11
REMARK SMILES IDX 9 12 8 13 7 14 6 15 5 16 4 17 3 18 2 19 1 20
REMARK H PARENT
REMARK Flexibility Score: inf
ROOT
ATOM      1  C   UNL     1       3.421  50.927   0.892  1.00  0.00     0.000 C 
ENDROOT
BRANCH   1   2
ATOM      2  C   UNL     1       3.926  52.320   1.315  1.00  0.00     0.000 C 
BRANCH   2   3
ATOM      3  C   UNL     1       5.464  52.439   1.348  1.00  0.00     0.000 C 
BRANCH   3   4
ATOM      4  C   UNL     1       6.063  52.705  -0.046  1.00  0.00     0.000 C 
BRANCH   4   5
ATOM      5  C   UNL     1       7.599  52.674  -0.049  1.00  0.00     0.000 C 
BRANCH   5   6
ATOM      6  C   UNL     1       8.177  52.243  -1.410  1.00  0.00     0.000 C 
BRANCH   6   7
ATOM      7  C   UNL     1       9.488  51.453  -1.269  1.00  0.00     0.006 C 
BRANCH   7   8
ATOM      8  C   UNL     1      10.506  52.159  -0.364  1.00  0.00     0.053 C 
BRANCH   8   9
ATOM      9  C   UNL     1      11.207  53.250  -1.109  1.00  0.00     0.041 C 
ATOM     10  O   UNL     1      12.013  52.967  -2.035  1.00  0.00    -0.550 OA
ATOM     11  O   UNL     1      10.996  54.581  -0.757  1.00  0.00    -0.550 OA
ENDBRANCH   8   9
ENDBRANCH   7   8
ENDBRANCH   6   7
ENDBRANCH   5   6
ENDBRANCH   4   5
ENDBRANCH   3   4
ENDBRANCH   2   3
ENDBRANCH   1   2
BRANCH   1  12
ATOM     12  C   UNL     1       2.218  50.939  -0.071  1.00  0.00     0.000 C 
BRANCH  12  13
ATOM     13  C   UNL     1       1.879  52.320  -0.669  1.00  0.00    -0.000 C 
BRANCH  13  14
ATOM     14  C   UNL     1       2.099  52.448  -2.190  1.00  0.00    -0.000 C 
BRANCH  14  15
ATOM     15  C   UNL     1       2.511  51.144  -2.898  1.00  0.00    -0.000 C 
BRANCH  15  16
ATOM     16  C   UNL     1       3.536  51.374  -4.019  1.00  0.00    -0.000 C 
BRANCH  16  17
ATOM     17  C   UNL     1       4.936  51.628  -3.441  1.00  0.00    -0.000 C 
BRANCH  17  18
ATOM     18  C   UNL     1       5.638  52.843  -4.081  1.00  0.00    -0.000 C 
BRANCH  18  19
ATOM     19  C   UNL     1       5.373  54.188  -3.379  1.00  0.00    -0.003 C 
ATOM     20  C   UNL     1       6.620  55.068  -3.274  1.00  0.00     0.004 C 
ENDBRANCH  18  19
ENDBRANCH  17  18
ENDBRANCH  16  17
ENDBRANCH  15  16
ENDBRANCH  14  15
ENDBRANCH  13  14
ENDBRANCH  12  13
ENDBRANCH   1  12
TORSDOF 16
ENDMDL
MODEL 5
REMARK VINA RESULT:    -4.501      2.441      5.564
REMARK INTER + INTRA:         -10.943
REMARK INTER:                  -9.258
REMARK INTRA:                  -1.684
REMARK UNBOUND:                -2.232
REMARK SMILES CCCCCCCCCCCCCCCCCC(=O)[O-]
REMARK SMILES IDX 10 1 11 2 12 3 13 4 14 5 15 6 16 7 17 8 18 9 19 10 20 11
REMARK SMILES IDX 9 12 8 13 7 14 6 15 5 16 4 17 3 18 2 19 1 20
REMARK H PARENT
REMARK Flexibility Score: inf
ROOT
ATOM      1  C   UNL     1       2.190  50.900  -2.969  1.00  0.00     0.000 C 
ENDROOT
BRANCH   1   2
ATOM      2  C   UNL     1       2.317  51.415  -1.523  1.00  0.00     0.000 C 
BRANCH   2   3
ATOM      3  C   UNL     1       2.189  50.306  -0.456  1.00  0.00     0.000 C 
BRANCH   3   4
ATOM      4  C   UNL     1       2.831  50.704   0.885  1.00  0.00     0.000 C 
BRANCH   4   5
ATOM      5  C   UNL     1       3.643  52.006   0.793  1.00  0.00     0.000 C 
BRANCH   5   6
ATOM      6  C   UNL     1       5.109  51.817   1.223  1.00  0.00     0.000 C 
BRANCH   6   7
ATOM      7  C   UNL     1       5.804  53.150   1.544  1.00  0.00     0.006 C 
BRANCH   7   8
ATOM      8  C   UNL     1       4.836  54.340   1.522  1.00  0.00     0.053 C 
BRANCH   8   9
ATOM      9  C   UNL     1       5.510  55.559   0.978  1.00  0.00     0.041 C 
ATOM     10  O   UNL     1       6.756  55.562   0.790  1.00  0.00    -0.550 OA
ATOM     11  O   UNL     1       4.767  56.706   0.710  1.00  0.00    -0.550 OA
ENDBRANCH   8   9
ENDBRANCH   7   8
ENDBRANCH   6   7
ENDBRANCH   5   6
ENDBRANCH   4   5
ENDBRANCH   3   4
ENDBRANCH   2   3
ENDBRANCH   1   2
BRANCH   1  12
ATOM     12  C   UNL     1       3.018  51.681  -4.009  1.00  0.00     0.000 C 
BRANCH  12  13
ATOM     13  C   UNL     1       4.512  51.301  -4.068  1.00  0.00    -0.000 C 
BRANCH  13  14
ATOM     14  C   UNL     1       5.487  52.405  -3.611  1.00  0.00    -0.000 C 
BRANCH  14  15
ATOM     15  C   UNL     1       6.369  52.032  -2.405  1.00  0.00    -0.000 C 
BRANCH  15  16
ATOM     16  C   UNL     1       7.189  53.220  -1.878  1.00  0.00    -0.000 C 
BRANCH  16  17
ATOM     17  C   UNL     1       8.571  52.760  -1.388  1.00  0.00    -0.000 C 
BRANCH  17  18
ATOM     18  C   UNL     1       9.571  53.923  -1.238  1.00  0.00    -0.000 C 
BRANCH  18  19
ATOM     19  C   UNL     1      10.961  53.519  -0.711  1.00  0.00    -0.003 C 
ATOM     20  C   UNL     1      11.663  52.485  -1.593  1.00  0.00     0.004 C 
ENDBRANCH  18  19
ENDBRANCH  17  18
ENDBRANCH  16  17
ENDBRANCH  15  16
ENDBRANCH  14  15
ENDBRANCH  13  14
ENDBRANCH  12  13
ENDBRANCH   1  12
TORSDOF 16
ENDMDL
MODEL 6
REMARK VINA RESULT:    -4.475      1.176      2.667
REMARK INTER + INTRA:         -10.893
REMARK INTER:                  -9.011
REMARK INTRA:                  -1.882
REMARK UNBOUND:                -2.232
REMARK SMILES CCCCCCCCCCCCCCCCCC(=O)[O-]
REMARK SMILES IDX 10 1 11 2 12 3 13 4 14 5 15 6 16 7 17 8 18 9 19 10 20 11
REMARK SMILES IDX 9 12 8 13 7 14 6 15 5 16 4 17 3 18 2 19 1 20
REMARK H PARENT
REMARK Flexibility Score: inf
ROOT
ATOM      1  C   UNL     1       4.038  52.318  -3.189  1.00  0.00     0.000 C 
ENDROOT
BRANCH   1   2
ATOM      2  C   UNL     1       5.516  51.905  -3.330  1.00  0.00     0.000 C 
BRANCH   2   3
ATOM      3  C   UNL     1       6.506  52.939  -2.752  1.00  0.00     0.000 C 
BRANCH   3   4
ATOM      4  C   UNL     1       7.287  52.391  -1.543  1.00  0.00     0.000 C 
BRANCH   4   5
ATOM      5  C   UNL     1       8.732  52.909  -1.484  1.00  0.00     0.000 C 
BRANCH   5   6
ATOM      6  C   UNL     1       9.751  51.783  -1.226  1.00  0.00     0.000 C 
BRANCH   6   7
ATOM      7  C   UNL     1      11.191  52.308  -1.111  1.00  0.00     0.006 C 
BRANCH   7   8
ATOM      8  C   UNL     1      11.720  52.267   0.329  1.00  0.00     0.053 C 
BRANCH   8   9
ATOM      9  C   UNL     1      11.062  53.320   1.163  1.00  0.00     0.041 C 
ATOM     10  O   UNL     1      11.377  54.532   1.015  1.00  0.00    -0.550 OA
ATOM     11  O   UNL     1      10.125  52.961   2.128  1.00  0.00    -0.550 OA
ENDBRANCH   8   9
ENDBRANCH   7   8
ENDBRANCH   6   7
ENDBRANCH   5   6
ENDBRANCH   4   5
ENDBRANCH   3   4
ENDBRANCH   2   3
ENDBRANCH   1   2
BRANCH   1  12
ATOM     12  C   UNL     1       3.024  51.279  -3.707  1.00  0.00     0.000 C 
BRANCH  12  13
ATOM     13  C   UNL     1       2.085  50.696  -2.632  1.00  0.00    -0.000 C 
BRANCH  13  14
ATOM     14  C   UNL     1       2.150  51.391  -1.257  1.00  0.00    -0.000 C 
BRANCH  14  15
ATOM     15  C   UNL     1       2.183  50.437  -0.049  1.00  0.00    -0.000 C 
BRANCH  15  16
ATOM     16  C   UNL     1       3.074  50.952   1.092  1.00  0.00    -0.000 C 
BRANCH  16  17
ATOM     17  C   UNL     1       4.399  51.508   0.547  1.00  0.00    -0.000 C 
BRANCH  17  18
ATOM     18  C   UNL     1       4.943  52.684   1.381  1.00  0.00    -0.000 C 
BRANCH  18  19
ATOM     19  C   UNL     1       4.089  53.965   1.330  1.00  0.00    -0.003 C 
ATOM     20  C   UNL     1       3.870  54.487  -0.090  1.00  0.00     0.004 C 
ENDBRANCH  18  19
ENDBRANCH  17  18
ENDBRANCH  16  17
ENDBRANCH  15  16
ENDBRANCH  14  15
ENDBRANCH  13  14
ENDBRANCH  12  13
ENDBRANCH   1  12
TORSDOF 16
ENDMDL
MODEL 7
REMARK VINA RESULT:    -4.457      3.273      5.755
REMARK INTER + INTRA:         -10.857
REMARK INTER:                  -8.410
REMARK INTRA:                  -2.446
REMARK UNBOUND:                -2.232
REMARK SMILES CCCCCCCCCCCCCCCCCC(=O)[O-]
REMARK SMILES IDX 10 1 11 2 12 3 13 4 14 5 15 6 16 7 17 8 18 9 19 10 20 11
REMARK SMILES IDX 9 12 8 13 7 14 6 15 5 16 4 17 3 18 2 19 1 20
REMARK H PARENT
REMARK Flexibility Score: inf
ROOT
ATOM      1  C   UNL     1       1.875  51.300  -0.864  1.00  0.00     0.000 C 
ENDROOT
BRANCH   1   2
ATOM      2  C   UNL     1       2.608  50.390   0.141  1.00  0.00     0.000 C 
BRANCH   2   3
ATOM      3  C   UNL     1       3.065  51.120   1.422  1.00  0.00     0.000 C 
BRANCH   3   4
ATOM      4  C   UNL     1       4.597  51.244   1.512  1.00  0.00     0.000 C 
BRANCH   4   5
ATOM      5  C   UNL     1       5.115  52.598   1.003  1.00  0.00     0.000 C 
BRANCH   5   6
ATOM      6  C   UNL     1       4.058  53.713   1.116  1.00  0.00     0.000 C 
BRANCH   6   7
ATOM      7  C   UNL     1       3.793  54.411  -0.228  1.00  0.00     0.006 C 
BRANCH   7   8
ATOM      8  C   UNL     1       2.634  55.413  -0.153  1.00  0.00     0.053 C 
BRANCH   8   9
ATOM      9  C   UNL     1       3.149  56.817  -0.183  1.00  0.00     0.041 C 
ATOM     10  O   UNL     1       4.152  57.138   0.510  1.00  0.00    -0.550 OA
ATOM     11  O   UNL     1       2.500  57.781  -0.950  1.00  0.00    -0.550 OA
ENDBRANCH   8   9
ENDBRANCH   7   8
ENDBRANCH   6   7
ENDBRANCH   5   6
ENDBRANCH   4   5
ENDBRANCH   3   4
ENDBRANCH   2   3
ENDBRANCH   1   2
BRANCH   1  12
ATOM     12  C   UNL     1       2.132  50.967  -2.346  1.00  0.00     0.000 C 
BRANCH  12  13
ATOM     13  C   UNL     1       2.936  52.031  -3.121  1.00  0.00    -0.000 C 
BRANCH  13  14
ATOM     14  C   UNL     1       3.912  51.474  -4.178  1.00  0.00    -0.000 C 
BRANCH  14  15
ATOM     15  C   UNL     1       5.399  51.760  -3.901  1.00  0.00    -0.000 C 
BRANCH  15  16
ATOM     16  C   UNL     1       5.667  52.163  -2.443  1.00  0.00    -0.000 C 
BRANCH  16  17
ATOM     17  C   UNL     1       7.169  52.105  -2.123  1.00  0.00    -0.000 C 
BRANCH  17  18
ATOM     18  C   UNL     1       7.754  53.479  -1.742  1.00  0.00    -0.000 C 
BRANCH  18  19
ATOM     19  C   UNL     1       7.452  54.612  -2.741  1.00  0.00    -0.003 C 
ATOM     20  C   UNL     1       6.653  55.762  -2.124  1.00  0.00     0.004 C 
ENDBRANCH  18  19
ENDBRANCH  17  18
ENDBRANCH  16  17
ENDBRANCH  15  16
ENDBRANCH  14  15
ENDBRANCH  13  14
ENDBRANCH  12  13
ENDBRANCH   1  12
TORSDOF 16
ENDMDL
MODEL 8
REMARK VINA RESULT:    -4.438      1.487      2.607
REMARK INTER + INTRA:         -10.820
REMARK INTER:                  -8.143
REMARK INTRA:                  -2.677
REMARK UNBOUND:                -2.232
REMARK SMILES CCCCCCCCCCCCCCCCCC(=O)[O-]
REMARK SMILES IDX 10 1 11 2 12 3 13 4 14 5 15 6 16 7 17 8 18 9 19 10 20 11
REMARK SMILES IDX 9 12 8 13 7 14 6 15 5 16 4 17 3 18 2 19 1 20
REMARK H PARENT
REMARK Flexibility Score: inf
ROOT
ATOM      1  C   UNL     1       2.181  50.466  -0.444  1.00  0.00     0.000 C 
ENDROOT
BRANCH   1   2
ATOM      2  C   UNL     1       1.876  51.926  -0.832  1.00  0.00     0.000 C 
BRANCH   2   3
ATOM      3  C   UNL     1       2.736  52.449  -2.003  1.00  0.00     0.000 C 
BRANCH   3   4
ATOM      4  C   UNL     1       3.066  51.347  -3.027  1.00  0.00     0.000 C 
BRANCH   4   5
ATOM      5  C   UNL     1       4.375  51.614  -3.786  1.00  0.00     0.000 C 
BRANCH   5   6
ATOM      6  C   UNL     1       5.275  52.636  -3.066  1.00  0.00     0.000 C 
BRANCH   6   7
ATOM      7  C   UNL     1       6.525  51.988  -2.448  1.00  0.00     0.006 C 
BRANCH   7   8
ATOM      8  C   UNL     1       7.535  53.024  -1.939  1.00  0.00     0.053 C 
BRANCH   8   9
ATOM      9  C   UNL     1       8.539  52.382  -1.035  1.00  0.00     0.041 C 
ATOM     10  O   UNL     1       9.324  51.504  -1.485  1.00  0.00    -0.550 OA
ATOM     11  O   UNL     1       8.586  52.727   0.312  1.00  0.00    -0.550 OA
ENDBRANCH   8   9
ENDBRANCH   7   8
ENDBRANCH   6   7
ENDBRANCH   5   6
ENDBRANCH   4   5
ENDBRANCH   3   4
ENDBRANCH   2   3
ENDBRANCH   1   2
BRANCH   1  12
ATOM     12  C   UNL     1       2.447  50.238   1.057  1.00  0.00     0.000 C 
BRANCH  12  13
ATOM     13  C   UNL     1       3.290  51.334   1.741  1.00  0.00    -0.000 C 
BRANCH  13  14
ATOM     14  C   UNL     1       4.719  51.504   1.187  1.00  0.00    -0.000 C 
BRANCH  14  15
ATOM     15  C   UNL     1       5.155  52.962   0.951  1.00  0.00    -0.000 C 
BRANCH  15  16
ATOM     16  C   UNL     1       4.144  53.981   1.499  1.00  0.00    -0.000 C 
BRANCH  16  17
ATOM     17  C   UNL     1       3.815  55.050   0.446  1.00  0.00    -0.000 C 
BRANCH  17  18
ATOM     18  C   UNL     1       5.069  55.606  -0.257  1.00  0.00    -0.000 C 
BRANCH  18  19
ATOM     19  C   UNL     1       5.931  56.548   0.605  1.00  0.00    -0.003 C 
ATOM     20  C   UNL     1       7.306  55.969   0.940  1.00  0.00     0.004 C 
ENDBRANCH  18  19
ENDBRANCH  17  18
ENDBRANCH  16  17
ENDBRANCH  15  16
ENDBRANCH  14  15
ENDBRANCH  13  14
ENDBRANCH  12  13
ENDBRANCH   1  12
TORSDOF 16
ENDMDL
MODEL 9
REMARK VINA RESULT:    -4.396      2.111      5.102
REMARK INTER + INTRA:         -10.740
REMARK INTER:                  -8.776
REMARK INTRA:                  -1.964
REMARK UNBOUND:                -2.232
REMARK SMILES CCCCCCCCCCCCCCCCCC(=O)[O-]
REMARK SMILES IDX 10 1 11 2 12 3 13 4 14 5 15 6 16 7 17 8 18 9 19 10 20 11
REMARK SMILES IDX 9 12 8 13 7 14 6 15 5 16 4 17 3 18 2 19 1 20
REMARK H PARENT
REMARK Flexibility Score: inf
ROOT
ATOM      1  C   UNL     1       2.264  50.726  -2.368  1.00  0.00     0.000 C 
ENDROOT
BRANCH   1   2
ATOM      2  C   UNL     1       2.142  51.585  -1.095  1.00  0.00     0.000 C 
BRANCH   2   3
ATOM      3  C   UNL     1       2.115  50.760   0.210  1.00  0.00     0.000 C 
BRANCH   3   4
ATOM      4  C   UNL     1       3.309  51.078   1.129  1.00  0.00     0.000 C 
BRANCH   4   5
ATOM      5  C   UNL     1       4.468  51.760   0.386  1.00  0.00     0.000 C 
BRANCH   5   6
ATOM      6  C   UNL     1       4.652  53.230   0.805  1.00  0.00     0.000 C 
BRANCH   6   7
ATOM      7  C   UNL     1       5.920  53.447   1.647  1.00  0.00     0.006 C 
BRANCH   7   8
ATOM      8  C   UNL     1       6.616  52.130   2.013  1.00  0.00     0.053 C 
BRANCH   8   9
ATOM      9  C   UNL     1       7.703  52.368   3.012  1.00  0.00     0.041 C 
ATOM     10  O   UNL     1       8.335  53.460   3.012  1.00  0.00    -0.550 OA
ATOM     11  O   UNL     1       8.044  51.372   3.922  1.00  0.00    -0.550 OA
ENDBRANCH   8   9
ENDBRANCH   7   8
ENDBRANCH   6   7
ENDBRANCH   5   6
ENDBRANCH   4   5
ENDBRANCH   3   4
ENDBRANCH   2   3
ENDBRANCH   1   2
BRANCH   1  12
ATOM     12  C   UNL     1       2.847  51.461  -3.591  1.00  0.00     0.000 C 
BRANCH  12  13
ATOM     13  C   UNL     1       3.932  52.506  -3.264  1.00  0.00    -0.000 C 
BRANCH  13  14
ATOM     14  C   UNL     1       5.377  51.969  -3.250  1.00  0.00    -0.000 C 
BRANCH  14  15
ATOM     15  C   UNL     1       6.472  53.051  -3.267  1.00  0.00    -0.000 C 
BRANCH  15  16
ATOM     16  C   UNL     1       7.202  53.180  -1.921  1.00  0.00    -0.000 C 
BRANCH  16  17
ATOM     17  C   UNL     1       7.717  51.814  -1.440  1.00  0.00    -0.000 C 
BRANCH  17  18
ATOM     18  C   UNL     1       9.253  51.704  -1.482  1.00  0.00    -0.000 C 
BRANCH  18  19
ATOM     19  C   UNL     1      10.002  53.050  -1.424  1.00  0.00    -0.003 C 
ATOM     20  C   UNL     1      11.519  52.901  -1.545  1.00  0.00     0.004 C 
ENDBRANCH  18  19
ENDBRANCH  17  18
ENDBRANCH  16  17
ENDBRANCH  15  16
ENDBRANCH  14  15
ENDBRANCH  13  14
ENDBRANCH  12  13
ENDBRANCH   1  12
TORSDOF 16
ENDMDL
