MODEL 1
REMARK VINA RESULT:    -2.668      0.000      0.000
REMARK INTER + INTRA:          -2.668
REMARK INTER:                  -2.668
REMARK INTRA:                   0.000
REMARK UNBOUND:                 0.000
REMARK SMILES CC(=O)[O-]
REMARK SMILES IDX 1 1 2 2 3 3 4 4
REMARK H PARENT
REMARK Flexibility Score: inf
ROOT
ATOM      1  C   UNL     1       3.402   6.408  27.915  1.00  0.00     0.063 C 
ATOM      2  C   UNL     1       4.020   7.388  26.976  1.00  0.00     0.038 C 
ATOM      3  O   UNL     1       5.227   7.266  26.640  1.00  0.00    -0.550 OA
ATOM      4  O   UNL     1       3.252   8.407  26.427  1.00  0.00    -0.550 OA
ENDROOT
TORSDOF 0
ENDMDL
MODEL 2
REMARK VINA RESULT:    -2.616      1.406      1.772
REMARK INTER + INTRA:          -2.616
REMARK INTER:                  -2.616
REMARK INTRA:                   0.000
REMARK UNBOUND:                 0.000
REMARK SMILES CC(=O)[O-]
REMARK SMILES IDX 1 1 2 2 3 3 4 4
REMARK H PARENT
REMARK Flexibility Score: inf
ROOT
ATOM      1  C   UNL     1       3.416   8.481  26.316  1.00  0.00     0.063 C 
ATOM      2  C   UNL     1       4.108   7.371  27.031  1.00  0.00     0.038 C 
ATOM      3  O   UNL     1       5.332   7.157  26.830  1.00  0.00    -0.550 OA
ATOM      4  O   UNL     1       3.418   6.604  27.962  1.00  0.00    -0.550 OA
ENDROOT
TORSDOF 0
ENDMDL
MODEL 3
REMARK VINA RESULT:    -2.468      1.550      2.037
REMARK INTER + INTRA:          -2.468
REMARK INTER:                  -2.468
REMARK INTRA:                   0.000
REMARK UNBOUND:                 0.000
REMARK SMILES CC(=O)[O-]
REMARK SMILES IDX 1 1 2 2 3 3 4 4
REMARK H PARENT
REMARK Flexibility Score: inf
ROOT
ATOM      1  C   UNL     1       5.061   7.290  26.410  1.00  0.00     0.063 C 
ATOM      2  C   UNL     1       3.679   7.678  26.814  1.00  0.00     0.038 C 
ATOM      3  O   UNL     1       3.119   8.670  26.279  1.00  0.00    -0.550 OA
ATOM      4  O   UNL     1       2.983   6.913  27.742  1.00  0.00    -0.550 OA
ENDROOT
TORSDOF 0
ENDMDL
MODEL 4
REMARK VINA RESULT:    -2.203      9.129      9.640
REMARK INTER + INTRA:          -2.203
REMARK INTER:                  -2.203
REMARK INTRA:                   0.000
REMARK UNBOUND:                 0.000
REMARK SMILES CC(=O)[O-]
REMARK SMILES IDX 1 1 2 2 3 3 4 4
REMARK H PARENT
REMARK Flexibility Score: inf
ROOT
ATOM      1  C   UNL     1      -1.948   8.400  21.343  1.00  0.00     0.063 C 
ATOM      2  C   UNL     1      -3.136   9.154  20.849  1.00  0.00     0.038 C 
ATOM      3  O   UNL     1      -4.115   8.536  20.355  1.00  0.00    -0.550 OA
ATOM      4  O   UNL     1      -3.190  10.536  20.983  1.00  0.00    -0.550 OA
ENDROOT
TORSDOF 0
ENDMDL
MODEL 5
REMARK VINA RESULT:    -2.177      9.125      9.750
REMARK INTER + INTRA:          -2.177
REMARK INTER:                  -2.177
REMARK INTRA:                   0.000
REMARK UNBOUND:                 0.000
REMARK SMILES CC(=O)[O-]
REMARK SMILES IDX 1 1 2 2 3 3 4 4
REMARK H PARENT
REMARK Flexibility Score: inf
ROOT
ATOM      1  C   UNL     1      -3.269  10.484  21.352  1.00  0.00     0.063 C 
ATOM      2  C   UNL     1      -3.176   9.059  20.924  1.00  0.00     0.038 C 
ATOM      3  O   UNL     1      -4.151   8.506  20.351  1.00  0.00    -0.550 OA
ATOM      4  O   UNL     1      -1.993   8.352  21.106  1.00  0.00    -0.550 OA
ENDROOT
TORSDOF 0
ENDMDL
MODEL 6
REMARK VINA RESULT:    -2.127      3.400      3.997
REMARK INTER + INTRA:          -2.127
REMARK INTER:                  -2.127
REMARK INTRA:                   0.000
REMARK UNBOUND:                 0.000
REMARK SMILES CC(=O)[O-]
REMARK SMILES IDX 1 1 2 2 3 3 4 4
REMARK H PARENT
REMARK Flexibility Score: inf
ROOT
ATOM      1  C   UNL     1       1.421  11.075  25.826  1.00  0.00     0.063 C 
ATOM      2  C   UNL     1       1.858   9.770  25.253  1.00  0.00     0.038 C 
ATOM      3  O   UNL     1       2.656   9.036  25.892  1.00  0.00    -0.550 OA
ATOM      4  O   UNL     1       1.343   9.334  24.039  1.00  0.00    -0.550 OA
ENDROOT
TORSDOF 0
ENDMDL
MODEL 7
REMARK VINA RESULT:    -2.125      8.513      8.927
REMARK INTER + INTRA:          -2.125
REMARK INTER:                  -2.125
REMARK INTRA:                   0.000
REMARK UNBOUND:                 0.000
REMARK SMILES CC(=O)[O-]
REMARK SMILES IDX 1 1 2 2 3 3 4 4
REMARK H PARENT
REMARK Flexibility Score: inf
ROOT
ATOM      1  C   UNL     1      -3.831   8.835  20.592  1.00  0.00     0.063 C 
ATOM      2  C   UNL     1      -2.594   9.003  21.407  1.00  0.00     0.038 C 
ATOM      3  O   UNL     1      -1.625   8.214  21.253  1.00  0.00    -0.550 OA
ATOM      4  O   UNL     1      -2.485  10.063  22.298  1.00  0.00    -0.550 OA
ENDROOT
TORSDOF 0
ENDMDL
MODEL 8
REMARK VINA RESULT:    -2.109      6.869      7.463
REMARK INTER + INTRA:          -2.109
REMARK INTER:                  -2.109
REMARK INTRA:                   0.000
REMARK UNBOUND:                 0.000
REMARK SMILES CC(=O)[O-]
REMARK SMILES IDX 1 1 2 2 3 3 4 4
REMARK H PARENT
REMARK Flexibility Score: inf
ROOT
ATOM      1  C   UNL     1       5.018  14.138  24.405  1.00  0.00     0.063 C 
ATOM      2  C   UNL     1       3.529  14.073  24.367  1.00  0.00     0.038 C 
ATOM      3  O   UNL     1       2.879  14.897  23.671  1.00  0.00    -0.550 OA
ATOM      4  O   UNL     1       2.857  13.070  25.054  1.00  0.00    -0.550 OA
ENDROOT
TORSDOF 0
ENDMDL
MODEL 9
REMARK VINA RESULT:    -2.050      8.756      9.321
REMARK INTER + INTRA:          -2.050
REMARK INTER:                  -2.050
REMARK INTRA:                   0.000
REMARK UNBOUND:                 0.000
REMARK SMILES CC(=O)[O-]
REMARK SMILES IDX 1 1 2 2 3 3 4 4
REMARK H PARENT
REMARK Flexibility Score: inf
ROOT
ATOM      1  C   UNL     1      -3.326   9.338  20.759  1.00  0.00     0.063 C 
ATOM      2  C   UNL     1      -2.956  10.390  21.749  1.00  0.00     0.038 C 
ATOM      3  O   UNL     1      -2.353  10.075  22.808  1.00  0.00    -0.550 OA
ATOM      4  O   UNL     1      -3.226  11.726  21.480  1.00  0.00    -0.550 OA
ENDROOT
TORSDOF 0
ENDMDL
