MODEL 1
REMARK VINA RESULT:    -4.133      0.000      0.000
REMARK INTER + INTRA:          -5.493
REMARK INTER:                  -5.341
REMARK INTRA:                  -0.152
REMARK UNBOUND:                -0.152
REMARK SMILES CCCCCCC(=O)[O-]
REMARK SMILES IDX 5 1 6 2 7 3 8 4 9 5 4 6 3 7 2 8 1 9
REMARK H PARENT
REMARK Flexibility Score: inf
ROOT
ATOM      1  C   UNL     1      19.665  26.806  36.277  1.00  0.00     0.006 C 
ENDROOT
BRANCH   1   2
ATOM      2  C   UNL     1      19.044  25.405  36.349  1.00  0.00     0.053 C 
BRANCH   2   3
ATOM      3  C   UNL     1      19.310  24.612  35.106  1.00  0.00     0.041 C 
ATOM      4  O   UNL     1      18.362  24.039  34.506  1.00  0.00    -0.550 OA
ATOM      5  O   UNL     1      20.598  24.529  34.594  1.00  0.00    -0.550 OA
ENDBRANCH   2   3
ENDBRANCH   1   2
BRANCH   1   6
ATOM      6  C   UNL     1      18.720  27.889  36.824  1.00  0.00     0.000 C 
BRANCH   6   7
ATOM      7  C   UNL     1      19.445  29.211  37.125  1.00  0.00    -0.000 C 
BRANCH   7   8
ATOM      8  C   UNL     1      20.857  29.261  36.525  1.00  0.00    -0.003 C 
ATOM      9  C   UNL     1      21.258  30.693  36.182  1.00  0.00     0.004 C 
ENDBRANCH   7   8
ENDBRANCH   6   7
ENDBRANCH   1   6
TORSDOF 5
ENDMDL
MODEL 2
REMARK VINA RESULT:    -3.765      1.423      2.028
REMARK INTER + INTRA:          -5.017
REMARK INTER:                  -4.941
REMARK INTRA:                  -0.076
REMARK UNBOUND:                -0.152
REMARK SMILES CCCCCCC(=O)[O-]
REMARK SMILES IDX 5 1 6 2 7 3 8 4 9 5 4 6 3 7 2 8 1 9
REMARK H PARENT
REMARK Flexibility Score: inf
ROOT
ATOM      1  C   UNL     1      19.327  27.972  36.659  1.00  0.00     0.006 C 
ENDROOT
BRANCH   1   2
ATOM      2  C   UNL     1      19.603  26.514  36.272  1.00  0.00     0.053 C 
BRANCH   2   3
ATOM      3  C   UNL     1      18.340  25.714  36.168  1.00  0.00     0.041 C 
ATOM      4  O   UNL     1      17.340  26.015  36.872  1.00  0.00    -0.550 OA
ATOM      5  O   UNL     1      18.256  24.656  35.273  1.00  0.00    -0.550 OA
ENDBRANCH   2   3
ENDBRANCH   1   2
BRANCH   1   6
ATOM      6  C   UNL     1      20.623  28.785  36.820  1.00  0.00     0.000 C 
BRANCH   6   7
ATOM      7  C   UNL     1      20.371  30.301  36.852  1.00  0.00    -0.000 C 
BRANCH   7   8
ATOM      8  C   UNL     1      21.426  31.093  36.066  1.00  0.00    -0.003 C 
ATOM      9  C   UNL     1      21.143  32.592  36.123  1.00  0.00     0.004 C 
ENDBRANCH   7   8
ENDBRANCH   6   7
ENDBRANCH   1   6
TORSDOF 5
ENDMDL
MODEL 3
REMARK VINA RESULT:    -3.733     14.795     16.405
REMARK INTER + INTRA:          -4.977
REMARK INTER:                  -4.594
REMARK INTRA:                  -0.383
REMARK UNBOUND:                -0.152
REMARK SMILES CCCCCCC(=O)[O-]
REMARK SMILES IDX 5 1 6 2 7 3 8 4 9 5 4 6 3 7 2 8 1 9
REMARK H PARENT
REMARK Flexibility Score: inf
ROOT
ATOM      1  C   UNL     1      20.332  24.869  19.639  1.00  0.00     0.006 C 
ENDROOT
BRANCH   1   2
ATOM      2  C   UNL     1      19.224  24.006  20.257  1.00  0.00     0.053 C 
BRANCH   2   3
ATOM      3  C   UNL     1      19.449  23.769  21.719  1.00  0.00     0.041 C 
ATOM      4  O   UNL     1      20.466  24.248  22.288  1.00  0.00    -0.550 OA
ATOM      5  O   UNL     1      18.523  23.047  22.459  1.00  0.00    -0.550 OA
ENDBRANCH   2   3
ENDBRANCH   1   2
BRANCH   1   6
ATOM      6  C   UNL     1      20.989  24.189  18.426  1.00  0.00     0.000 C 
BRANCH   6   7
ATOM      7  C   UNL     1      21.383  22.730  18.707  1.00  0.00    -0.000 C 
BRANCH   7   8
ATOM      8  C   UNL     1      22.511  22.610  19.741  1.00  0.00    -0.003 C 
ATOM      9  C   UNL     1      22.191  21.541  20.782  1.00  0.00     0.004 C 
ENDBRANCH   7   8
ENDBRANCH   6   7
ENDBRANCH   1   6
TORSDOF 5
ENDMDL
MODEL 4
REMARK VINA RESULT:    -3.712      1.519      2.215
REMARK INTER + INTRA:          -4.949
REMARK INTER:                  -5.009
REMARK INTRA:                   0.060
REMARK UNBOUND:                -0.152
REMARK SMILES CCCCCCC(=O)[O-]
REMARK SMILES IDX 5 1 6 2 7 3 8 4 9 5 4 6 3 7 2 8 1 9
REMARK H PARENT
REMARK Flexibility Score: inf
ROOT
ATOM      1  C   UNL     1      17.654  25.207  35.812  1.00  0.00     0.006 C 
ENDROOT
BRANCH   1   2
ATOM      2  C   UNL     1      18.501  24.360  34.854  1.00  0.00     0.053 C 
BRANCH   2   3
ATOM      3  C   UNL     1      19.931  24.279  35.293  1.00  0.00     0.041 C 
ATOM      4  O   UNL     1      20.855  24.618  34.508  1.00  0.00    -0.550 OA
ATOM      5  O   UNL     1      20.243  23.861  36.581  1.00  0.00    -0.550 OA
ENDBRANCH   2   3
ENDBRANCH   1   2
BRANCH   1   6
ATOM      6  C   UNL     1      18.456  26.370  36.421  1.00  0.00     0.000 C 
BRANCH   6   7
ATOM      7  C   UNL     1      17.654  27.680  36.470  1.00  0.00    -0.000 C 
BRANCH   7   8
ATOM      8  C   UNL     1      18.440  28.831  37.114  1.00  0.00    -0.003 C 
ATOM      9  C   UNL     1      19.939  28.544  37.109  1.00  0.00     0.004 C 
ENDBRANCH   7   8
ENDBRANCH   6   7
ENDBRANCH   1   6
TORSDOF 5
ENDMDL
MODEL 5
REMARK VINA RESULT:    -3.710     14.960     16.501
REMARK INTER + INTRA:          -4.947
REMARK INTER:                  -4.574
REMARK INTRA:                  -0.373
REMARK UNBOUND:                -0.152
REMARK SMILES CCCCCCC(=O)[O-]
REMARK SMILES IDX 5 1 6 2 7 3 8 4 9 5 4 6 3 7 2 8 1 9
REMARK H PARENT
REMARK Flexibility Score: inf
ROOT
ATOM      1  C   UNL     1      21.354  22.335  21.039  1.00  0.00     0.006 C 
ENDROOT
BRANCH   1   2
ATOM      2  C   UNL     1      20.550  23.505  21.620  1.00  0.00     0.053 C 
BRANCH   2   3
ATOM      3  C   UNL     1      19.102  23.159  21.790  1.00  0.00     0.041 C 
ATOM      4  O   UNL     1      18.542  23.308  22.908  1.00  0.00    -0.550 OA
ATOM      5  O   UNL     1      18.362  22.703  20.706  1.00  0.00    -0.550 OA
ENDBRANCH   2   3
ENDBRANCH   1   2
BRANCH   1   6
ATOM      6  C   UNL     1      22.193  22.756  19.820  1.00  0.00     0.000 C 
BRANCH   6   7
ATOM      7  C   UNL     1      21.372  22.790  18.520  1.00  0.00    -0.000 C 
BRANCH   7   8
ATOM      8  C   UNL     1      21.123  24.218  18.014  1.00  0.00    -0.003 C 
ATOM      9  C   UNL     1      19.634  24.552  18.024  1.00  0.00     0.004 C 
ENDBRANCH   7   8
ENDBRANCH   6   7
ENDBRANCH   1   6
TORSDOF 5
ENDMDL
MODEL 6
REMARK VINA RESULT:    -3.697     15.440     16.970
REMARK INTER + INTRA:          -4.930
REMARK INTER:                  -4.485
REMARK INTRA:                  -0.444
REMARK UNBOUND:                -0.152
REMARK SMILES CCCCCCC(=O)[O-]
REMARK SMILES IDX 5 1 6 2 7 3 8 4 9 5 4 6 3 7 2 8 1 9
REMARK H PARENT
REMARK Flexibility Score: inf
ROOT
ATOM      1  C   UNL     1      22.282  22.724  19.856  1.00  0.00     0.006 C 
ENDROOT
BRANCH   1   2
ATOM      2  C   UNL     1      21.512  22.053  21.000  1.00  0.00     0.053 C 
BRANCH   2   3
ATOM      3  C   UNL     1      20.303  22.842  21.399  1.00  0.00     0.041 C 
ATOM      4  O   UNL     1      19.165  22.302  21.396  1.00  0.00    -0.550 OA
ATOM      5  O   UNL     1      20.435  24.164  21.804  1.00  0.00    -0.550 OA
ENDBRANCH   2   3
ENDBRANCH   1   2
BRANCH   1   6
ATOM      6  C   UNL     1      21.454  22.794  18.561  1.00  0.00     0.000 C 
BRANCH   6   7
ATOM      7  C   UNL     1      21.103  24.236  18.160  1.00  0.00    -0.000 C 
BRANCH   7   8
ATOM      8  C   UNL     1      19.590  24.466  18.042  1.00  0.00    -0.003 C 
ATOM      9  C   UNL     1      18.835  23.141  17.985  1.00  0.00     0.004 C 
ENDBRANCH   7   8
ENDBRANCH   6   7
ENDBRANCH   1   6
TORSDOF 5
ENDMDL
MODEL 7
REMARK VINA RESULT:    -3.677      5.917      7.081
REMARK INTER + INTRA:          -4.904
REMARK INTER:                  -4.561
REMARK INTRA:                  -0.343
REMARK UNBOUND:                -0.152
REMARK SMILES CCCCCCC(=O)[O-]
REMARK SMILES IDX 5 1 6 2 7 3 8 4 9 5 4 6 3 7 2 8 1 9
REMARK H PARENT
REMARK Flexibility Score: inf
ROOT
ATOM      1  C   UNL     1      19.951  33.059  36.419  1.00  0.00     0.006 C 
ENDROOT
BRANCH   1   2
ATOM      2  C   UNL     1      21.310  32.432  36.758  1.00  0.00     0.053 C 
BRANCH   2   3
ATOM      3  C   UNL     1      22.102  32.113  35.528  1.00  0.00     0.041 C 
ATOM      4  O   UNL     1      21.811  31.105  34.831  1.00  0.00    -0.550 OA
ATOM      5  O   UNL     1      23.142  32.944  35.132  1.00  0.00    -0.550 OA
ENDBRANCH   2   3
ENDBRANCH   1   2
BRANCH   1   6
ATOM      6  C   UNL     1      20.085  34.518  35.952  1.00  0.00     0.000 C 
BRANCH   6   7
ATOM      7  C   UNL     1      19.623  34.719  34.499  1.00  0.00    -0.000 C 
BRANCH   7   8
ATOM      8  C   UNL     1      20.792  34.975  33.537  1.00  0.00    -0.003 C 
ATOM      9  C   UNL     1      20.613  34.196  32.236  1.00  0.00     0.004 C 
ENDBRANCH   7   8
ENDBRANCH   6   7
ENDBRANCH   1   6
TORSDOF 5
ENDMDL
MODEL 8
REMARK VINA RESULT:    -3.638     15.472     16.921
REMARK INTER + INTRA:          -4.853
REMARK INTER:                  -4.429
REMARK INTRA:                  -0.424
REMARK UNBOUND:                -0.152
REMARK SMILES CCCCCCC(=O)[O-]
REMARK SMILES IDX 5 1 6 2 7 3 8 4 9 5 4 6 3 7 2 8 1 9
REMARK H PARENT
REMARK Flexibility Score: inf
ROOT
ATOM      1  C   UNL     1      19.874  24.670  20.664  1.00  0.00     0.006 C 
ENDROOT
BRANCH   1   2
ATOM      2  C   UNL     1      19.583  23.310  21.311  1.00  0.00     0.053 C 
BRANCH   2   3
ATOM      3  C   UNL     1      20.743  22.371  21.185  1.00  0.00     0.041 C 
ATOM      4  O   UNL     1      20.603  21.264  20.601  1.00  0.00    -0.550 OA
ATOM      5  O   UNL     1      21.988  22.730  21.686  1.00  0.00    -0.550 OA
ENDBRANCH   2   3
ENDBRANCH   1   2
BRANCH   1   6
ATOM      6  C   UNL     1      19.669  24.644  19.140  1.00  0.00     0.000 C 
BRANCH   6   7
ATOM      7  C   UNL     1      20.997  24.656  18.365  1.00  0.00    -0.000 C 
BRANCH   7   8
ATOM      8  C   UNL     1      21.122  23.478  17.388  1.00  0.00    -0.003 C 
ATOM      9  C   UNL     1      19.858  22.622  17.393  1.00  0.00     0.004 C 
ENDBRANCH   7   8
ENDBRANCH   6   7
ENDBRANCH   1   6
TORSDOF 5
ENDMDL
MODEL 9
REMARK VINA RESULT:    -3.490      3.972      5.736
REMARK INTER + INTRA:          -4.663
REMARK INTER:                  -4.485
REMARK INTRA:                  -0.178
REMARK UNBOUND:                -0.152
REMARK SMILES CCCCCCC(=O)[O-]
REMARK SMILES IDX 5 1 6 2 7 3 8 4 9 5 4 6 3 7 2 8 1 9
REMARK H PARENT
REMARK Flexibility Score: inf
ROOT
ATOM      1  C   UNL     1      20.711  29.558  36.228  1.00  0.00     0.006 C 
ENDROOT
BRANCH   1   2
ATOM      2  C   UNL     1      20.583  30.980  36.788  1.00  0.00     0.053 C 
BRANCH   2   3
ATOM      3  C   UNL     1      21.349  31.974  35.970  1.00  0.00     0.041 C 
ATOM      4  O   UNL     1      22.366  31.611  35.321  1.00  0.00    -0.550 OA
ATOM      5  O   UNL     1      20.923  33.295  35.898  1.00  0.00    -0.550 OA
ENDBRANCH   2   3
ENDBRANCH   1   2
BRANCH   1   6
ATOM      6  C   UNL     1      20.019  28.517  37.125  1.00  0.00     0.000 C 
BRANCH   6   7
ATOM      7  C   UNL     1      19.724  27.201  36.386  1.00  0.00    -0.000 C 
BRANCH   7   8
ATOM      8  C   UNL     1      18.229  26.852  36.373  1.00  0.00    -0.003 C 
ATOM      9  C   UNL     1      17.384  28.039  36.827  1.00  0.00     0.004 C 
ENDBRANCH   7   8
ENDBRANCH   6   7
ENDBRANCH   1   6
TORSDOF 5
ENDMDL
