MODEL 1
REMARK VINA RESULT:    -3.206      0.000      0.000
REMARK INTER + INTRA:          -4.951
REMARK INTER:                  -4.893
REMARK INTRA:                  -0.058
REMARK UNBOUND:                -0.058
REMARK SMILES CC1=CCC[C@@H](C)C(=O)C[C@@H](C(C)C)C(=O)C1
REMARK SMILES IDX 8 1 9 2 6 3 7 4 5 5 4 6 3 7 2 8 1 9 10 11 11 12 15 13 16 14
REMARK SMILES IDX 17 15 12 17 13 18 14 19
REMARK H PARENT
REMARK Flexibility Score: 70.00
ROOT
ATOM      1  C   UNL     1     -14.193   9.625 -16.708  1.00  0.00     0.136 C 
ATOM      2  O   UNL     1     -15.315  10.077 -16.885  1.00  0.00    -0.299 OA
ENDROOT
BRANCH   1   3
ATOM      3  C   UNL     1     -14.054   8.350 -15.892  1.00  0.00     0.053 C 
ATOM      4  C   UNL     1     -12.915   8.421 -14.864  1.00  0.00     0.016 C 
BRANCH   3   5
ATOM      5  C   UNL     1     -14.033   7.086 -16.782  1.00  0.00     0.015 C 
BRANCH   5   6
ATOM      6  C   UNL     1     -12.722   6.841 -17.552  1.00  0.00     0.028 C 
BRANCH   6   7
ATOM      7  C   UNL     1     -12.987   6.728 -19.031  1.00  0.00    -0.028 C 
ATOM      8  C   UNL     1     -12.692   7.688 -19.937  1.00  0.00    -0.070 CG0
ATOM      9  C   UNL     1     -13.099   7.458 -21.371  1.00  0.00     0.039 C 
ATOM     10  G   UNL     1     -11.952   8.967 -19.575  1.00  0.00     0.000 G0
ENDBRANCH   6   7
ENDBRANCH   5   6
ENDBRANCH   3   5
ENDBRANCH   1   3
BRANCH   1  11
ATOM     11  C   UNL     1     -13.019  10.372 -17.303  1.00  0.00     0.087 C 
BRANCH  11  12
ATOM     12  C   UNL     1     -13.374  11.035 -18.661  1.00  0.00     0.066 C 
BRANCH  12  13
ATOM     13  C   UNL     1     -12.780  10.236 -19.815  1.00  0.00     0.140 C 
ATOM     14  O   UNL     1     -12.919  10.654 -20.955  1.00  0.00    -0.299 OA
BRANCH  13  15
ATOM     15  C   UNL     1     -11.954   8.989 -19.578  1.00  0.00     0.106 CG0
ATOM     16  G   UNL     1     -12.693   7.712 -19.949  1.00  0.00     0.000 G0
ENDBRANCH  13  15
ENDBRANCH  12  13
BRANCH  12  17
ATOM     17  C   UNL     1     -12.967  12.543 -18.741  1.00  0.00    -0.006 C 
ATOM     18  C   UNL     1     -13.874  13.406 -17.842  1.00  0.00     0.008 C 
ATOM     19  C   UNL     1     -11.502  12.784 -18.332  1.00  0.00     0.008 C 
ENDBRANCH  12  17
ENDBRANCH  11  12
ENDBRANCH   1  11
TORSDOF 1
ENDMDL
MODEL 2
REMARK VINA RESULT:    -3.200     11.711     13.130
REMARK INTER + INTRA:          -4.942
REMARK INTER:                  -4.551
REMARK INTRA:                  -0.391
REMARK UNBOUND:                -0.058
REMARK SMILES CC1=CCC[C@@H](C)C(=O)C[C@@H](C(C)C)C(=O)C1
REMARK SMILES IDX 8 1 9 2 6 3 7 4 5 5 4 6 3 7 2 8 1 9 10 11 11 12 15 13 16 14
REMARK SMILES IDX 17 15 12 17 13 18 14 19
REMARK H PARENT
REMARK Flexibility Score: 70.00
ROOT
ATOM      1  C   UNL     1      -1.517  11.954 -14.766  1.00  0.00     0.136 C 
ATOM      2  O   UNL     1      -1.786  12.675 -15.715  1.00  0.00    -0.299 OA
ENDROOT
BRANCH   1   3
ATOM      3  C   UNL     1      -0.354  10.986 -14.907  1.00  0.00     0.053 C 
ATOM      4  C   UNL     1       0.822  11.576 -15.699  1.00  0.00     0.016 C 
BRANCH   3   5
ATOM      5  C   UNL     1      -0.812   9.589 -15.387  1.00  0.00     0.015 C 
BRANCH   5   6
ATOM      6  C   UNL     1      -0.766   8.477 -14.322  1.00  0.00     0.028 C 
BRANCH   6   7
ATOM      7  C   UNL     1      -2.159   8.058 -13.931  1.00  0.00    -0.028 C 
ATOM      8  C   UNL     1      -2.703   8.258 -12.709  1.00  0.00    -0.070 CG0
ATOM      9  C   UNL     1      -4.080   7.702 -12.446  1.00  0.00     0.039 C 
ATOM     10  G   UNL     1      -1.998   9.034 -11.607  1.00  0.00     0.000 G0
ENDBRANCH   6   7
ENDBRANCH   5   6
ENDBRANCH   3   5
ENDBRANCH   1   3
BRANCH   1  11
ATOM     11  C   UNL     1      -2.368  12.067 -13.518  1.00  0.00     0.087 C 
BRANCH  11  12
ATOM     12  C   UNL     1      -1.612  11.591 -12.250  1.00  0.00     0.066 C 
BRANCH  12  13
ATOM     13  C   UNL     1      -2.407  10.509 -11.530  1.00  0.00     0.140 C 
ATOM     14  O   UNL     1      -3.437  10.820 -10.950  1.00  0.00    -0.299 OA
BRANCH  13  15
ATOM     15  C   UNL     1      -2.001   9.051 -11.586  1.00  0.00     0.106 CG0
ATOM     16  G   UNL     1      -2.710   8.282 -12.692  1.00  0.00     0.000 G0
ENDBRANCH  13  15
ENDBRANCH  12  13
BRANCH  12  17
ATOM     17  C   UNL     1      -1.231  12.759 -11.280  1.00  0.00    -0.006 C 
ATOM     18  C   UNL     1       0.197  13.265 -11.563  1.00  0.00     0.008 C 
ATOM     19  C   UNL     1      -2.201  13.952 -11.378  1.00  0.00     0.008 C 
ENDBRANCH  12  17
ENDBRANCH  11  12
ENDBRANCH   1  11
TORSDOF 1
ENDMDL
MODEL 3
REMARK VINA RESULT:    -3.172      6.640      8.373
REMARK INTER + INTRA:          -4.899
REMARK INTER:                  -4.566
REMARK INTRA:                  -0.333
REMARK UNBOUND:                -0.058
REMARK SMILES CC1=CCC[C@@H](C)C(=O)C[C@@H](C(C)C)C(=O)C1
REMARK SMILES IDX 8 1 9 2 6 3 7 4 5 5 4 6 3 7 2 8 1 9 10 11 11 12 15 13 16 14
REMARK SMILES IDX 17 15 12 17 13 18 14 19
REMARK H PARENT
REMARK Flexibility Score: 70.00
ROOT
ATOM      1  C   UNL     1      -7.325  11.069 -11.811  1.00  0.00     0.136 C 
ATOM      2  O   UNL     1      -6.528  10.812 -12.701  1.00  0.00    -0.299 OA
ENDROOT
BRANCH   1   3
ATOM      3  C   UNL     1      -7.344  10.172 -10.584  1.00  0.00     0.053 C 
ATOM      4  C   UNL     1      -6.030  10.219  -9.790  1.00  0.00     0.016 C 
BRANCH   3   5
ATOM      5  C   UNL     1      -7.844   8.746 -10.911  1.00  0.00     0.015 C 
BRANCH   5   6
ATOM      6  C   UNL     1      -9.368   8.542 -10.814  1.00  0.00     0.028 C 
BRANCH   6   7
ATOM      7  C   UNL     1      -9.985   8.487 -12.187  1.00  0.00    -0.028 C 
ATOM      8  C   UNL     1     -10.967   9.312 -12.618  1.00  0.00    -0.070 CG0
ATOM      9  C   UNL     1     -11.541   9.074 -13.992  1.00  0.00     0.039 C 
ATOM     10  G   UNL     1     -11.494  10.474 -11.789  1.00  0.00     0.000 G0
ENDBRANCH   6   7
ENDBRANCH   5   6
ENDBRANCH   3   5
ENDBRANCH   1   3
BRANCH   1  11
ATOM     11  C   UNL     1      -8.248  12.256 -11.997  1.00  0.00     0.087 C 
BRANCH  11  12
ATOM     12  C   UNL     1      -9.536  12.134 -11.141  1.00  0.00     0.066 C 
BRANCH  12  13
ATOM     13  C   UNL     1     -10.722  11.747 -12.017  1.00  0.00     0.140 C 
ATOM     14  O   UNL     1     -11.009  12.456 -12.970  1.00  0.00    -0.299 OA
BRANCH  13  15
ATOM     15  C   UNL     1     -11.498  10.466 -11.787  1.00  0.00     0.106 CG0
ATOM     16  G   UNL     1     -10.970   9.300 -12.608  1.00  0.00     0.000 G0
ENDBRANCH  13  15
ENDBRANCH  12  13
BRANCH  12  17
ATOM     17  C   UNL     1      -9.844  13.416 -10.298  1.00  0.00    -0.006 C 
ATOM     18  C   UNL     1      -9.356  13.249  -8.846  1.00  0.00     0.008 C 
ATOM     19  C   UNL     1      -9.199  14.684 -10.888  1.00  0.00     0.008 C 
ENDBRANCH  12  17
ENDBRANCH  11  12
ENDBRANCH   1  11
TORSDOF 1
ENDMDL
MODEL 4
REMARK VINA RESULT:    -3.162      6.732      9.208
REMARK INTER + INTRA:          -4.883
REMARK INTER:                  -4.634
REMARK INTRA:                  -0.250
REMARK UNBOUND:                -0.058
REMARK SMILES CC1=CCC[C@@H](C)C(=O)C[C@@H](C(C)C)C(=O)C1
REMARK SMILES IDX 8 1 9 2 6 3 7 4 5 5 4 6 3 7 2 8 1 9 10 11 11 12 15 13 16 14
REMARK SMILES IDX 17 15 12 17 13 18 14 19
REMARK H PARENT
REMARK Flexibility Score: 70.00
ROOT
ATOM      1  C   UNL     1      -8.148   7.843 -10.823  1.00  0.00     0.136 C 
ATOM      2  O   UNL     1      -7.985   6.768 -10.263  1.00  0.00    -0.299 OA
ENDROOT
BRANCH   1   3
ATOM      3  C   UNL     1      -6.929   8.542 -11.401  1.00  0.00     0.053 C 
ATOM      4  C   UNL     1      -5.776   7.575 -11.709  1.00  0.00     0.016 C 
BRANCH   3   5
ATOM      5  C   UNL     1      -6.520   9.783 -10.575  1.00  0.00     0.015 C 
BRANCH   5   6
ATOM      6  C   UNL     1      -6.844  11.144 -11.221  1.00  0.00     0.028 C 
BRANCH   6   7
ATOM      7  C   UNL     1      -7.823  11.915 -10.376  1.00  0.00    -0.028 C 
ATOM      8  C   UNL     1      -9.073  12.252 -10.767  1.00  0.00    -0.070 CG0
ATOM      9  C   UNL     1      -9.903  13.101  -9.838  1.00  0.00     0.039 C 
ATOM     10  G   UNL     1      -9.679  11.792 -12.085  1.00  0.00     0.000 G0
ENDBRANCH   6   7
ENDBRANCH   5   6
ENDBRANCH   3   5
ENDBRANCH   1   3
BRANCH   1  11
ATOM     11  C   UNL     1      -9.551   8.409 -10.890  1.00  0.00     0.087 C 
BRANCH  11  12
ATOM     12  C   UNL     1      -9.822   9.141 -12.231  1.00  0.00     0.066 C 
BRANCH  12  13
ATOM     13  C   UNL     1     -10.474  10.495 -11.976  1.00  0.00     0.140 C 
ATOM     14  O   UNL     1     -11.636  10.529 -11.598  1.00  0.00    -0.299 OA
BRANCH  13  15
ATOM     15  C   UNL     1      -9.697  11.789 -12.098  1.00  0.00     0.106 CG0
ATOM     16  G   UNL     1      -9.105  12.250 -10.775  1.00  0.00     0.000 G0
ENDBRANCH  13  15
ENDBRANCH  12  13
BRANCH  12  17
ATOM     17  C   UNL     1     -10.655   8.289 -13.245  1.00  0.00    -0.006 C 
ATOM     18  C   UNL     1     -10.824   9.036 -14.582  1.00  0.00     0.008 C 
ATOM     19  C   UNL     1     -10.017   6.916 -13.530  1.00  0.00     0.008 C 
ENDBRANCH  12  17
ENDBRANCH  11  12
ENDBRANCH   1  11
TORSDOF 1
ENDMDL
MODEL 5
REMARK VINA RESULT:    -3.055      8.363     10.482
REMARK INTER + INTRA:          -4.721
REMARK INTER:                  -4.732
REMARK INTRA:                   0.011
REMARK UNBOUND:                -0.058
REMARK SMILES CC1=CCC[C@@H](C)C(=O)C[C@@H](C(C)C)C(=O)C1
REMARK SMILES IDX 8 1 9 2 6 3 7 4 5 5 4 6 3 7 2 8 1 9 10 11 11 12 15 13 16 14
REMARK SMILES IDX 17 15 12 17 13 18 14 19
REMARK H PARENT
REMARK Flexibility Score: 70.00
ROOT
ATOM      1  C   UNL     1      -5.982   7.994 -11.305  1.00  0.00     0.136 C 
ATOM      2  O   UNL     1      -6.002   6.772 -11.266  1.00  0.00    -0.299 OA
ENDROOT
BRANCH   1   3
ATOM      3  C   UNL     1      -4.845   8.670 -12.054  1.00  0.00     0.053 C 
ATOM      4  C   UNL     1      -4.319   7.828 -13.227  1.00  0.00     0.016 C 
BRANCH   3   5
ATOM      5  C   UNL     1      -3.748   9.195 -11.100  1.00  0.00     0.015 C 
BRANCH   5   6
ATOM      6  C   UNL     1      -4.090  10.497 -10.352  1.00  0.00     0.028 C 
BRANCH   6   7
ATOM      7  C   UNL     1      -4.413  11.600 -11.325  1.00  0.00    -0.028 C 
ATOM      8  C   UNL     1      -5.658  12.073 -11.561  1.00  0.00    -0.070 CG0
ATOM      9  C   UNL     1      -5.828  13.122 -12.630  1.00  0.00     0.039 C 
ATOM     10  G   UNL     1      -6.879  11.610 -10.780  1.00  0.00     0.000 G0
ENDBRANCH   6   7
ENDBRANCH   5   6
ENDBRANCH   3   5
ENDBRANCH   1   3
BRANCH   1  11
ATOM     11  C   UNL     1      -7.084   8.750 -10.593  1.00  0.00     0.087 C 
BRANCH  11  12
ATOM     12  C   UNL     1      -8.097   9.378 -11.585  1.00  0.00     0.066 C 
BRANCH  12  13
ATOM     13  C   UNL     1      -7.914  10.890 -11.646  1.00  0.00     0.140 C 
ATOM     14  O   UNL     1      -8.655  11.546 -12.365  1.00  0.00    -0.299 OA
BRANCH  13  15
ATOM     15  C   UNL     1      -6.899  11.606 -10.780  1.00  0.00     0.106 CG0
ATOM     16  G   UNL     1      -5.670  12.054 -11.558  1.00  0.00     0.000 G0
ENDBRANCH  13  15
ENDBRANCH  12  13
BRANCH  12  17
ATOM     17  C   UNL     1      -9.583   8.995 -11.280  1.00  0.00    -0.006 C 
ATOM     18  C   UNL     1     -10.291   8.486 -12.551  1.00  0.00     0.008 C 
ATOM     19  C   UNL     1      -9.706   7.917 -10.187  1.00  0.00     0.008 C 
ENDBRANCH  12  17
ENDBRANCH  11  12
ENDBRANCH   1  11
TORSDOF 1
ENDMDL
MODEL 6
REMARK VINA RESULT:    -3.027     11.559     12.699
REMARK INTER + INTRA:          -4.678
REMARK INTER:                  -4.302
REMARK INTRA:                  -0.375
REMARK UNBOUND:                -0.058
REMARK SMILES CC1=CCC[C@@H](C)C(=O)C[C@@H](C(C)C)C(=O)C1
REMARK SMILES IDX 8 1 9 2 6 3 7 4 5 5 4 6 3 7 2 8 1 9 10 11 11 12 15 13 16 14
REMARK SMILES IDX 17 15 12 17 13 18 14 19
REMARK H PARENT
REMARK Flexibility Score: 70.00
ROOT
ATOM      1  C   UNL     1      -1.961   7.910 -12.432  1.00  0.00     0.136 C 
ATOM      2  O   UNL     1      -1.286   7.002 -11.971  1.00  0.00    -0.299 OA
ENDROOT
BRANCH   1   3
ATOM      3  C   UNL     1      -2.778   7.633 -13.683  1.00  0.00     0.053 C 
ATOM      4  C   UNL     1      -3.747   6.453 -13.515  1.00  0.00     0.016 C 
BRANCH   3   5
ATOM      5  C   UNL     1      -1.897   7.561 -14.952  1.00  0.00     0.015 C 
BRANCH   5   6
ATOM      6  C   UNL     1      -0.536   8.275 -14.852  1.00  0.00     0.028 C 
BRANCH   6   7
ATOM      7  C   UNL     1      -0.536   9.538 -15.674  1.00  0.00    -0.028 C 
ATOM      8  C   UNL     1      -0.491  10.787 -15.157  1.00  0.00    -0.070 CG0
ATOM      9  C   UNL     1      -0.586  11.952 -16.110  1.00  0.00     0.039 C 
ATOM     10  G   UNL     1      -0.325  11.061 -13.670  1.00  0.00     0.000 G0
ENDBRANCH   6   7
ENDBRANCH   5   6
ENDBRANCH   3   5
ENDBRANCH   1   3
BRANCH   1  11
ATOM     11  C   UNL     1      -1.929   9.252 -11.731  1.00  0.00     0.087 C 
BRANCH  11  12
ATOM     12  C   UNL     1      -2.644  10.358 -12.552  1.00  0.00     0.066 C 
BRANCH  12  13
ATOM     13  C   UNL     1      -1.649  11.429 -12.982  1.00  0.00     0.140 C 
ATOM     14  O   UNL     1      -1.888  12.598 -12.713  1.00  0.00    -0.299 OA
BRANCH  13  15
ATOM     15  C   UNL     1      -0.339  11.077 -13.655  1.00  0.00     0.106 CG0
ATOM     16  G   UNL     1      -0.497  10.792 -15.142  1.00  0.00     0.000 G0
ENDBRANCH  13  15
ENDBRANCH  12  13
BRANCH  12  17
ATOM     17  C   UNL     1      -3.873  10.983 -11.813  1.00  0.00    -0.006 C 
ATOM     18  C   UNL     1      -5.177  10.711 -12.587  1.00  0.00     0.008 C 
ATOM     19  C   UNL     1      -4.036  10.450 -10.377  1.00  0.00     0.008 C 
ENDBRANCH  12  17
ENDBRANCH  11  12
ENDBRANCH   1  11
TORSDOF 1
ENDMDL
MODEL 7
REMARK VINA RESULT:    -2.980     11.272     12.486
REMARK INTER + INTRA:          -4.606
REMARK INTER:                  -4.702
REMARK INTRA:                   0.096
REMARK UNBOUND:                -0.058
REMARK SMILES CC1=CCC[C@@H](C)C(=O)C[C@@H](C(C)C)C(=O)C1
REMARK SMILES IDX 8 1 9 2 6 3 7 4 5 5 4 6 3 7 2 8 1 9 10 11 11 12 15 13 16 14
REMARK SMILES IDX 17 15 12 17 13 18 14 19
REMARK H PARENT
REMARK Flexibility Score: 70.00
ROOT
ATOM      1  C   UNL     1      -2.098   9.528 -22.018  1.00  0.00     0.136 C 
ATOM      2  O   UNL     1      -2.686   9.169 -21.008  1.00  0.00    -0.299 OA
ENDROOT
BRANCH   1   3
ATOM      3  C   UNL     1      -0.589   9.363 -22.066  1.00  0.00     0.053 C 
ATOM      4  C   UNL     1      -0.154   7.904 -22.278  1.00  0.00     0.016 C 
BRANCH   3   5
ATOM      5  C   UNL     1       0.115  10.075 -20.889  1.00  0.00     0.015 C 
BRANCH   5   6
ATOM      6  C   UNL     1       0.130  11.614 -20.961  1.00  0.00     0.028 C 
BRANCH   6   7
ATOM      7  C   UNL     1      -0.808  12.203 -19.941  1.00  0.00    -0.028 C 
ATOM      8  C   UNL     1      -1.793  13.084 -20.226  1.00  0.00    -0.070 CG0
ATOM      9  C   UNL     1      -2.593  13.650 -19.080  1.00  0.00     0.039 C 
ATOM     10  G   UNL     1      -2.140  13.506 -21.647  1.00  0.00     0.000 G0
ENDBRANCH   6   7
ENDBRANCH   5   6
ENDBRANCH   3   5
ENDBRANCH   1   3
BRANCH   1  11
ATOM     11  C   UNL     1      -2.914  10.124 -23.146  1.00  0.00     0.087 C 
BRANCH  11  12
ATOM     12  C   UNL     1      -2.510  11.592 -23.447  1.00  0.00     0.066 C 
BRANCH  12  13
ATOM     13  C   UNL     1      -3.049  12.524 -22.369  1.00  0.00     0.140 C 
ATOM     14  O   UNL     1      -4.219  12.420 -22.029  1.00  0.00    -0.299 OA
BRANCH  13  15
ATOM     15  C   UNL     1      -2.155  13.515 -21.653  1.00  0.00     0.106 CG0
ATOM     16  G   UNL     1      -1.798  13.075 -20.241  1.00  0.00     0.000 G0
ENDBRANCH  13  15
ENDBRANCH  12  13
BRANCH  12  17
ATOM     17  C   UNL     1      -2.930  12.069 -24.877  1.00  0.00    -0.006 C 
ATOM     18  C   UNL     1      -3.608  10.929 -25.661  1.00  0.00     0.008 C 
ATOM     19  C   UNL     1      -3.887  13.276 -24.842  1.00  0.00     0.008 C 
ENDBRANCH  12  17
ENDBRANCH  11  12
ENDBRANCH   1  11
TORSDOF 1
ENDMDL
MODEL 8
REMARK VINA RESULT:    -2.972     10.169     11.636
REMARK INTER + INTRA:          -4.594
REMARK INTER:                  -4.471
REMARK INTRA:                  -0.124
REMARK UNBOUND:                -0.058
REMARK SMILES CC1=CCC[C@@H](C)C(=O)C[C@@H](C(C)C)C(=O)C1
REMARK SMILES IDX 8 1 9 2 6 3 7 4 5 5 4 6 3 7 2 8 1 9 10 11 11 12 15 13 16 14
REMARK SMILES IDX 17 15 12 17 13 18 14 19
REMARK H PARENT
REMARK Flexibility Score: 70.00
ROOT
ATOM      1  C   UNL     1      -5.349   8.665 -11.318  1.00  0.00     0.136 C 
ATOM      2  O   UNL     1      -6.044   7.742 -10.919  1.00  0.00    -0.299 OA
ENDROOT
BRANCH   1   3
ATOM      3  C   UNL     1      -4.550   8.461 -12.594  1.00  0.00     0.053 C 
ATOM      4  C   UNL     1      -5.325   7.680 -13.666  1.00  0.00     0.016 C 
BRANCH   3   5
ATOM      5  C   UNL     1      -3.128   7.924 -12.314  1.00  0.00     0.015 C 
BRANCH   5   6
ATOM      6  C   UNL     1      -2.240   8.829 -11.439  1.00  0.00     0.028 C 
BRANCH   6   7
ATOM      7  C   UNL     1      -1.742  10.010 -12.231  1.00  0.00    -0.028 C 
ATOM      8  C   UNL     1      -2.139  11.288 -12.031  1.00  0.00    -0.070 CG0
ATOM      9  C   UNL     1      -1.613  12.348 -12.965  1.00  0.00     0.039 C 
ATOM     10  G   UNL     1      -3.068  11.697 -10.897  1.00  0.00     0.000 G0
ENDBRANCH   6   7
ENDBRANCH   5   6
ENDBRANCH   3   5
ENDBRANCH   1   3
BRANCH   1  11
ATOM     11  C   UNL     1      -5.323   9.943 -10.506  1.00  0.00     0.087 C 
BRANCH  11  12
ATOM     12  C   UNL     1      -5.621  11.193 -11.375  1.00  0.00     0.066 C 
BRANCH  12  13
ATOM     13  C   UNL     1      -4.430  12.145 -11.366  1.00  0.00     0.140 C 
ATOM     14  O   UNL     1      -4.604  13.311 -11.689  1.00  0.00    -0.299 OA
BRANCH  13  15
ATOM     15  C   UNL     1      -3.062  11.704 -10.889  1.00  0.00     0.106 CG0
ATOM     16  G   UNL     1      -2.140  11.302 -12.030  1.00  0.00     0.000 G0
ENDBRANCH  13  15
ENDBRANCH  12  13
BRANCH  12  17
ATOM     17  C   UNL     1      -6.942  11.929 -10.972  1.00  0.00    -0.006 C 
ATOM     18  C   UNL     1      -7.778  12.280 -12.218  1.00  0.00     0.008 C 
ATOM     19  C   UNL     1      -7.816  11.096 -10.015  1.00  0.00     0.008 C 
ENDBRANCH  12  17
ENDBRANCH  11  12
ENDBRANCH   1  11
TORSDOF 1
ENDMDL
MODEL 9
REMARK VINA RESULT:    -2.927     10.558     13.008
REMARK INTER + INTRA:          -4.525
REMARK INTER:                  -4.839
REMARK INTRA:                   0.313
REMARK UNBOUND:                -0.058
REMARK SMILES CC1=CCC[C@@H](C)C(=O)C[C@@H](C(C)C)C(=O)C1
REMARK SMILES IDX 8 1 9 2 6 3 7 4 5 5 4 6 3 7 2 8 1 9 10 11 11 12 15 13 16 14
REMARK SMILES IDX 17 15 12 17 13 18 14 19
REMARK H PARENT
REMARK Flexibility Score: 70.00
ROOT
ATOM      1  C   UNL     1      -4.180  13.987 -24.642  1.00  0.00     0.136 C 
ATOM      2  O   UNL     1      -5.372  13.723 -24.707  1.00  0.00    -0.299 OA
ENDROOT
BRANCH   1   3
ATOM      3  C   UNL     1      -3.778  15.417 -24.323  1.00  0.00     0.053 C 
ATOM      4  C   UNL     1      -3.369  16.215 -25.571  1.00  0.00     0.016 C 
BRANCH   3   5
ATOM      5  C   UNL     1      -2.768  15.494 -23.155  1.00  0.00     0.015 C 
BRANCH   5   6
ATOM      6  C   UNL     1      -3.196  14.772 -21.863  1.00  0.00     0.028 C 
BRANCH   6   7
ATOM      7  C   UNL     1      -1.990  14.371 -21.055  1.00  0.00    -0.028 C 
ATOM      8  C   UNL     1      -1.013  13.546 -21.495  1.00  0.00    -0.070 CG0
ATOM      9  C   UNL     1       0.086  13.171 -20.533  1.00  0.00     0.039 C 
ATOM     10  G   UNL     1      -0.966  13.005 -22.917  1.00  0.00     0.000 G0
ENDBRANCH   6   7
ENDBRANCH   5   6
ENDBRANCH   3   5
ENDBRANCH   1   3
BRANCH   1  11
ATOM     11  C   UNL     1      -3.186  12.874 -24.897  1.00  0.00     0.087 C 
BRANCH  11  12
ATOM     12  C   UNL     1      -3.186  11.818 -23.761  1.00  0.00     0.066 C 
BRANCH  12  13
ATOM     13  C   UNL     1      -1.819  11.759 -23.089  1.00  0.00     0.140 C 
ATOM     14  O   UNL     1      -1.375  10.671 -22.749  1.00  0.00    -0.299 OA
BRANCH  13  15
ATOM     15  C   UNL     1      -0.966  12.997 -22.908  1.00  0.00     0.106 CG0
ATOM     16  G   UNL     1      -1.002  13.537 -21.486  1.00  0.00     0.000 G0
ENDBRANCH  13  15
ENDBRANCH  12  13
BRANCH  12  17
ATOM     17  C   UNL     1      -3.653  10.400 -24.231  1.00  0.00    -0.006 C 
ATOM     18  C   UNL     1      -4.869   9.923 -23.413  1.00  0.00     0.008 C 
ATOM     19  C   UNL     1      -4.023  10.363 -25.725  1.00  0.00     0.008 C 
ENDBRANCH  12  17
ENDBRANCH  11  12
ENDBRANCH   1  11
TORSDOF 1
ENDMDL
