MODEL 1
REMARK VINA RESULT:    -1.859      0.000      0.000
REMARK INTER + INTRA:          -1.805
REMARK INTER:                  -2.239
REMARK INTRA:                   0.434
REMARK UNBOUND:                 0.434
REMARK SMILES O=c1c(O)c(-c2ccc(O)c(O)c2)oc2cc(O)cc(O)c12
REMARK SMILES IDX 5 1 3 2 2 3 1 4 22 5 20 6 19 7 17 8 16 9 15 10 14 11 6 12
REMARK SMILES IDX 7 13 8 14 9 15 13 16 11 17 10 18 12 20 4 22 21 24 18 26
REMARK H PARENT 10 19 12 21 4 23 21 25 18 27
REMARK Flexibility Score: inf
ROOT
ATOM      1  C   UNL     1      89.944  52.881  94.072  1.00  0.00     0.180 A 
ATOM      2  C   UNL     1      89.816  51.572  94.570  1.00  0.00     0.208 A 
ATOM      3  C   UNL     1      89.823  50.496  93.668  1.00  0.00     0.238 A 
ATOM      4  O   UNL     1      89.652  49.332  94.114  1.00  0.00    -0.285 OA
ATOM      5  C   UNL     1      89.976  50.741  92.282  1.00  0.00     0.111 A 
ATOM      6  C   UNL     1      90.037  49.724  91.281  1.00  0.00     0.134 A 
ATOM      7  C   UNL     1      90.058  50.085  89.929  1.00  0.00     0.093 A 
ATOM      8  C   UNL     1      90.086  51.428  89.543  1.00  0.00     0.123 A 
ATOM      9  C   UNL     1      90.086  52.427  90.514  1.00  0.00     0.094 A 
ATOM     10  C   UNL     1      90.029  52.097  91.870  1.00  0.00     0.146 A 
ATOM     11  O   UNL     1      90.020  53.081  92.761  1.00  0.00    -0.452 OA
ENDROOT
BRANCH   1  12
ATOM     12  C   UNL     1      89.971  54.063  94.962  1.00  0.00     0.025 A 
ATOM     13  C   UNL     1      90.077  53.926  96.358  1.00  0.00     0.016 A 
ATOM     14  C   UNL     1      90.125  55.058  97.176  1.00  0.00     0.051 A 
ATOM     15  C   UNL     1      90.080  56.341  96.614  1.00  0.00     0.157 A 
ATOM     16  C   UNL     1      89.948  55.351  94.402  1.00  0.00     0.062 A 
ATOM     17  C   UNL     1      89.994  56.487  95.219  1.00  0.00     0.158 A 
BRANCH  15  18
ATOM     18  O   UNL     1      90.125  57.467  97.434  1.00  0.00    -0.504 OA
ATOM     19  H   UNL     1      90.293  58.392  97.057  1.00  0.00     0.293 HD
ENDBRANCH  15  18
BRANCH  17  20
ATOM     20  O   UNL     1      89.955  57.749  94.628  1.00  0.00    -0.504 OA
ATOM     21  H   UNL     1      90.797  58.263  94.402  1.00  0.00     0.293 HD
ENDBRANCH  17  20
ENDBRANCH   1  12
BRANCH   2  22
ATOM     22  O   UNL     1      89.645  51.355  95.940  1.00  0.00    -0.502 OA
ATOM     23  H   UNL     1      88.965  50.699  96.307  1.00  0.00     0.293 HD
ENDBRANCH   2  22
BRANCH   6  24
ATOM     24  O   UNL     1      90.107  48.356  91.563  1.00  0.00    -0.507 OA
ATOM     25  H   UNL     1      90.960  47.852  91.755  1.00  0.00     0.293 HD
ENDBRANCH   6  24
BRANCH   8  26
ATOM     26  O   UNL     1      90.122  51.779  88.196  1.00  0.00    -0.508 OA
ATOM     27  H   UNL     1      90.208  51.080  87.467  1.00  0.00     0.293 HD
ENDBRANCH   8  26
TORSDOF 6
ENDMDL
MODEL 2
REMARK VINA RESULT:    -1.431      1.337      6.867
REMARK INTER + INTRA:          -1.291
REMARK INTER:                  -1.844
REMARK INTRA:                   0.554
REMARK UNBOUND:                 0.434
REMARK SMILES O=c1c(O)c(-c2ccc(O)c(O)c2)oc2cc(O)cc(O)c12
REMARK SMILES IDX 5 1 3 2 2 3 1 4 22 5 20 6 19 7 17 8 16 9 15 10 14 11 6 12
REMARK SMILES IDX 7 13 8 14 9 15 13 16 11 17 10 18 12 20 4 22 21 24 18 26
REMARK H PARENT 10 19 12 21 4 23 21 25 18 27
REMARK Flexibility Score: inf
ROOT
ATOM      1  C   UNL     1      89.944  51.244  92.142  1.00  0.00     0.180 A 
ATOM      2  C   UNL     1      90.000  50.259  93.144  1.00  0.00     0.208 A 
ATOM      3  C   UNL     1      90.020  50.658  94.490  1.00  0.00     0.238 A 
ATOM      4  O   UNL     1      90.125  49.774  95.380  1.00  0.00    -0.285 OA
ATOM      5  C   UNL     1      89.967  52.034  94.818  1.00  0.00     0.111 A 
ATOM      6  C   UNL     1      89.942  52.550  96.149  1.00  0.00     0.134 A 
ATOM      7  C   UNL     1      90.022  53.932  96.356  1.00  0.00     0.093 A 
ATOM      8  C   UNL     1      90.061  54.820  95.278  1.00  0.00     0.123 A 
ATOM      9  C   UNL     1      90.026  54.329  93.976  1.00  0.00     0.094 A 
ATOM     10  C   UNL     1      89.983  52.953  93.738  1.00  0.00     0.146 A 
ATOM     11  O   UNL     1      89.962  52.528  92.481  1.00  0.00    -0.452 OA
ENDROOT
BRANCH   1  12
ATOM     12  C   UNL     1      89.894  50.901  90.703  1.00  0.00     0.025 A 
ATOM     13  C   UNL     1      89.855  51.898  89.713  1.00  0.00     0.016 A 
ATOM     14  C   UNL     1      89.834  51.550  88.360  1.00  0.00     0.051 A 
ATOM     15  C   UNL     1      89.864  50.203  87.975  1.00  0.00     0.157 A 
ATOM     16  C   UNL     1      89.945  49.552  90.311  1.00  0.00     0.062 A 
ATOM     17  C   UNL     1      89.922  49.200  88.957  1.00  0.00     0.158 A 
BRANCH  15  18
ATOM     18  O   UNL     1      89.838  49.860  86.624  1.00  0.00    -0.504 OA
ATOM     19  H   UNL     1      89.490  50.499  85.921  1.00  0.00     0.293 HD
ENDBRANCH  15  18
BRANCH  17  20
ATOM     20  O   UNL     1      89.960  47.850  88.607  1.00  0.00    -0.504 OA
ATOM     21  H   UNL     1      90.616  47.490  87.926  1.00  0.00     0.293 HD
ENDBRANCH  17  20
ENDBRANCH   1  12
BRANCH   2  22
ATOM     22  O   UNL     1      90.072  48.907  92.798  1.00  0.00    -0.502 OA
ATOM     23  H   UNL     1      89.771  48.560  91.895  1.00  0.00     0.293 HD
ENDBRANCH   2  22
BRANCH   6  24
ATOM     24  O   UNL     1      89.812  51.754  97.292  1.00  0.00    -0.507 OA
ATOM     25  H   UNL     1      89.377  52.051  98.152  1.00  0.00     0.293 HD
ENDBRANCH   6  24
BRANCH   8  26
ATOM     26  O   UNL     1      90.125  56.195  95.493  1.00  0.00    -0.508 OA
ATOM     27  H   UNL     1      89.349  56.805  95.263  1.00  0.00     0.293 HD
ENDBRANCH   8  26
TORSDOF 6
ENDMDL
MODEL 3
REMARK VINA RESULT:    -0.604      0.842      1.529
REMARK INTER + INTRA:          -0.294
REMARK INTER:                  -0.837
REMARK INTRA:                   0.544
REMARK UNBOUND:                 0.434
REMARK SMILES O=c1c(O)c(-c2ccc(O)c(O)c2)oc2cc(O)cc(O)c12
REMARK SMILES IDX 5 1 3 2 2 3 1 4 22 5 20 6 19 7 17 8 16 9 15 10 14 11 6 12
REMARK SMILES IDX 7 13 8 14 9 15 13 16 11 17 10 18 12 20 4 22 21 24 18 26
REMARK H PARENT 10 19 12 21 4 23 21 25 18 27
REMARK Flexibility Score: inf
ROOT
ATOM      1  C   UNL     1      90.017  53.300  94.274  1.00  0.00     0.180 A 
ATOM      2  C   UNL     1      89.896  52.091  94.981  1.00  0.00     0.208 A 
ATOM      3  C   UNL     1      89.882  50.882  94.268  1.00  0.00     0.238 A 
ATOM      4  O   UNL     1      89.719  49.807  94.902  1.00  0.00    -0.285 OA
ATOM      5  C   UNL     1      90.004  50.895  92.857  1.00  0.00     0.111 A 
ATOM      6  C   UNL     1      90.042  49.728  92.036  1.00  0.00     0.134 A 
ATOM      7  C   UNL     1      90.034  49.864  90.642  1.00  0.00     0.093 A 
ATOM      8  C   UNL     1      90.056  51.126  90.042  1.00  0.00     0.123 A 
ATOM      9  C   UNL     1      90.079  52.269  90.836  1.00  0.00     0.094 A 
ATOM     10  C   UNL     1      90.051  52.166  92.229  1.00  0.00     0.146 A 
ATOM     11  O   UNL     1      90.064  53.282  92.947  1.00  0.00    -0.452 OA
ENDROOT
BRANCH   1  12
ATOM     12  C   UNL     1      90.065  54.611  94.958  1.00  0.00     0.025 A 
ATOM     13  C   UNL     1      90.042  55.816  94.234  1.00  0.00     0.016 A 
ATOM     14  C   UNL     1      90.064  57.042  94.904  1.00  0.00     0.051 A 
ATOM     15  C   UNL     1      90.095  57.084  96.304  1.00  0.00     0.157 A 
ATOM     16  C   UNL     1      90.076  54.659  96.363  1.00  0.00     0.062 A 
ATOM     17  C   UNL     1      90.099  55.885  97.037  1.00  0.00     0.158 A 
BRANCH  15  18
ATOM     18  O   UNL     1      90.120  58.310  96.968  1.00  0.00    -0.504 OA
ATOM     19  H   UNL     1      90.962  58.656  97.411  1.00  0.00     0.293 HD
ENDBRANCH  15  18
BRANCH  17  20
ATOM     20  O   UNL     1      90.122  55.892  98.431  1.00  0.00    -0.504 OA
ATOM     21  H   UNL     1      89.574  55.243  98.981  1.00  0.00     0.293 HD
ENDBRANCH  17  20
ENDBRANCH   1  12
BRANCH   2  22
ATOM     22  O   UNL     1      89.755  52.101  96.373  1.00  0.00    -0.502 OA
ATOM     23  H   UNL     1      89.158  51.447  96.864  1.00  0.00     0.293 HD
ENDBRANCH   2  22
BRANCH   6  24
ATOM     24  O   UNL     1      90.115  48.425  92.535  1.00  0.00    -0.507 OA
ATOM     25  H   UNL     1      89.403  47.984  93.097  1.00  0.00     0.293 HD
ENDBRANCH   6  24
BRANCH   8  26
ATOM     26  O   UNL     1      90.063  51.251  88.654  1.00  0.00    -0.508 OA
ATOM     27  H   UNL     1      89.485  51.936  88.181  1.00  0.00     0.293 HD
ENDBRANCH   8  26
TORSDOF 6
ENDMDL
