MODEL 1
REMARK VINA RESULT:    -6.561      0.000      0.000
REMARK INTER + INTRA:          -8.474
REMARK INTER:                  -8.095
REMARK INTRA:                  -0.379
REMARK UNBOUND:                -0.379
REMARK SMILES Oc1cc(O)c2cc(O)c(-c3cc(O)c(O)c(O)c3)[o+]c2c1
REMARK SMILES IDX 10 1 20 2 21 3 22 4 2 5 3 6 4 7 6 8 7 9 8 10 11 11 12 12
REMARK SMILES IDX 13 13 19 14 15 15 17 16 14 17 16 19 18 21 9 23 1 25 5 27
REMARK H PARENT 14 18 16 20 18 22 9 24 1 26 5 28
REMARK Flexibility Score: inf
ROOT
ATOM      1  C   UNL     1      30.491  17.674 -18.544  1.00  0.00     0.402 A 
ATOM      2  O   UNL     1      29.337  17.772 -19.199  1.00  0.00    -0.202 OA
ATOM      3  C   UNL     1      28.458  16.778 -19.282  1.00  0.00     0.368 A 
ATOM      4  C   UNL     1      27.270  16.978 -19.990  1.00  0.00     0.162 A 
ATOM      5  C   UNL     1      26.328  15.955 -20.091  1.00  0.00     0.128 A 
ATOM      6  C   UNL     1      26.573  14.720 -19.480  1.00  0.00     0.093 A 
ATOM      7  C   UNL     1      27.755  14.494 -18.765  1.00  0.00     0.136 A 
ATOM      8  C   UNL     1      28.717  15.532 -18.662  1.00  0.00     0.125 A 
ATOM      9  C   UNL     1      29.935  15.392 -17.976  1.00  0.00     0.078 A 
ATOM     10  C   UNL     1      30.836  16.459 -17.922  1.00  0.00     0.223 A 
ENDROOT
BRANCH   1  11
ATOM     11  C   UNL     1      31.383  18.855 -18.515  1.00  0.00     0.091 A 
ATOM     12  C   UNL     1      32.377  19.046 -19.487  1.00  0.00     0.068 A 
ATOM     13  C   UNL     1      33.224  20.159 -19.428  1.00  0.00     0.162 A 
ATOM     14  C   UNL     1      31.272  19.776 -17.463  1.00  0.00     0.068 A 
ATOM     15  C   UNL     1      33.097  21.091 -18.388  1.00  0.00     0.200 A 
ATOM     16  C   UNL     1      32.113  20.894 -17.392  1.00  0.00     0.162 A 
BRANCH  13  17
ATOM     17  O   UNL     1      34.204  20.346 -20.401  1.00  0.00    -0.504 OA
ATOM     18  H   UNL     1      34.933  19.659 -20.559  1.00  0.00     0.293 HD
ENDBRANCH  13  17
BRANCH  15  19
ATOM     19  O   UNL     1      33.964  22.187 -18.381  1.00  0.00    -0.502 OA
ATOM     20  H   UNL     1      34.719  22.306 -17.722  1.00  0.00     0.293 HD
ENDBRANCH  15  19
BRANCH  16  21
ATOM     21  O   UNL     1      31.935  21.773 -16.322  1.00  0.00    -0.504 OA
ATOM     22  H   UNL     1      31.035  22.031 -15.944  1.00  0.00     0.293 HD
ENDBRANCH  16  21
ENDBRANCH   1  11
BRANCH  10  23
ATOM     23  O   UNL     1      32.067  16.305 -17.284  1.00  0.00    -0.500 OA
ATOM     24  H   UNL     1      32.456  15.389 -17.094  1.00  0.00     0.294 HD
ENDBRANCH  10  23
BRANCH   5  25
ATOM     25  O   UNL     1      25.150  16.173 -20.803  1.00  0.00    -0.507 OA
ATOM     26  H   UNL     1      25.130  16.148 -21.815  1.00  0.00     0.293 HD
ENDBRANCH   5  25
BRANCH   7  27
ATOM     27  O   UNL     1      27.923  13.236 -18.180  1.00  0.00    -0.507 OA
ATOM     28  H   UNL     1      27.874  12.361 -18.683  1.00  0.00     0.293 HD
ENDBRANCH   7  27
TORSDOF 7
ENDMDL
MODEL 2
REMARK VINA RESULT:    -6.340      6.144      8.774
REMARK INTER + INTRA:          -8.201
REMARK INTER:                  -7.821
REMARK INTRA:                  -0.380
REMARK UNBOUND:                -0.379
REMARK SMILES Oc1cc(O)c2cc(O)c(-c3cc(O)c(O)c(O)c3)[o+]c2c1
REMARK SMILES IDX 10 1 20 2 21 3 22 4 2 5 3 6 4 7 6 8 7 9 8 10 11 11 12 12
REMARK SMILES IDX 13 13 19 14 15 15 17 16 14 17 16 19 18 21 9 23 1 25 5 27
REMARK H PARENT 14 18 16 20 18 22 9 24 1 26 5 28
REMARK Flexibility Score: inf
ROOT
ATOM      1  C   UNL     1      30.564  12.523 -23.040  1.00  0.00     0.402 A 
ATOM      2  O   UNL     1      29.455  12.473 -22.305  1.00  0.00    -0.202 OA
ATOM      3  C   UNL     1      28.625  13.502 -22.164  1.00  0.00     0.368 A 
ATOM      4  C   UNL     1      27.483  13.352 -21.375  1.00  0.00     0.162 A 
ATOM      5  C   UNL     1      26.593  14.413 -21.211  1.00  0.00     0.128 A 
ATOM      6  C   UNL     1      26.845  15.637 -21.842  1.00  0.00     0.093 A 
ATOM      7  C   UNL     1      27.983  15.813 -22.639  1.00  0.00     0.136 A 
ATOM      8  C   UNL     1      28.892  14.736 -22.805  1.00  0.00     0.125 A 
ATOM      9  C   UNL     1      30.063  14.826 -23.575  1.00  0.00     0.078 A 
ATOM     10  C   UNL     1      30.914  13.722 -23.688  1.00  0.00     0.223 A 
ENDROOT
BRANCH   1  11
ATOM     11  C   UNL     1      31.402  11.306 -23.128  1.00  0.00     0.091 A 
ATOM     12  C   UNL     1      32.432  11.059 -22.208  1.00  0.00     0.068 A 
ATOM     13  C   UNL     1      33.227   9.912 -22.322  1.00  0.00     0.162 A 
ATOM     14  C   UNL     1      31.202  10.407 -24.186  1.00  0.00     0.068 A 
ATOM     15  C   UNL     1      33.011   9.002 -23.366  1.00  0.00     0.200 A 
ATOM     16  C   UNL     1      31.989   9.256 -24.312  1.00  0.00     0.162 A 
BRANCH  13  17
ATOM     17  O   UNL     1      34.243   9.670 -21.399  1.00  0.00    -0.504 OA
ATOM     18  H   UNL     1      35.071   9.141 -21.649  1.00  0.00     0.293 HD
ENDBRANCH  13  17
BRANCH  15  19
ATOM     19  O   UNL     1      33.828   7.871 -23.430  1.00  0.00    -0.502 OA
ATOM     20  H   UNL     1      34.177   7.473 -24.290  1.00  0.00     0.293 HD
ENDBRANCH  15  19
BRANCH  16  21
ATOM     21  O   UNL     1      31.724   8.401 -25.384  1.00  0.00    -0.504 OA
ATOM     22  H   UNL     1      31.790   8.673 -26.354  1.00  0.00     0.293 HD
ENDBRANCH  16  21
ENDBRANCH   1  11
BRANCH  10  23
ATOM     23  O   UNL     1      32.102  13.825 -24.412  1.00  0.00    -0.500 OA
ATOM     24  H   UNL     1      32.958  14.161 -23.984  1.00  0.00     0.294 HD
ENDBRANCH  10  23
BRANCH   5  25
ATOM     25  O   UNL     1      25.460  14.244 -20.419  1.00  0.00    -0.507 OA
ATOM     26  H   UNL     1      25.389  13.485 -19.752  1.00  0.00     0.293 HD
ENDBRANCH   5  25
BRANCH   7  27
ATOM     27  O   UNL     1      28.161  17.064 -23.238  1.00  0.00    -0.507 OA
ATOM     28  H   UNL     1      27.667  17.378 -24.061  1.00  0.00     0.293 HD
ENDBRANCH   7  27
TORSDOF 7
ENDMDL
MODEL 3
REMARK VINA RESULT:    -6.294      6.037      8.656
REMARK INTER + INTRA:          -8.145
REMARK INTER:                  -7.770
REMARK INTRA:                  -0.375
REMARK UNBOUND:                -0.379
REMARK SMILES Oc1cc(O)c2cc(O)c(-c3cc(O)c(O)c(O)c3)[o+]c2c1
REMARK SMILES IDX 10 1 20 2 21 3 22 4 2 5 3 6 4 7 6 8 7 9 8 10 11 11 12 12
REMARK SMILES IDX 13 13 19 14 15 15 17 16 14 17 16 19 18 21 9 23 1 25 5 27
REMARK H PARENT 14 18 16 20 18 22 9 24 1 26 5 28
REMARK Flexibility Score: inf
ROOT
ATOM      1  C   UNL     1      30.245  12.748 -23.252  1.00  0.00     0.402 A 
ATOM      2  O   UNL     1      29.100  12.750 -22.572  1.00  0.00    -0.202 OA
ATOM      3  C   UNL     1      28.309  13.813 -22.479  1.00  0.00     0.368 A 
ATOM      4  C   UNL     1      27.124  13.717 -21.746  1.00  0.00     0.162 A 
ATOM      5  C   UNL     1      26.272  14.815 -21.633  1.00  0.00     0.128 A 
ATOM      6  C   UNL     1      26.605  16.022 -22.259  1.00  0.00     0.093 A 
ATOM      7  C   UNL     1      27.787  16.145 -23.000  1.00  0.00     0.136 A 
ATOM      8  C   UNL     1      28.657  15.030 -23.114  1.00  0.00     0.125 A 
ATOM      9  C   UNL     1      29.867  15.064 -23.826  1.00  0.00     0.078 A 
ATOM     10  C   UNL     1      30.676  13.926 -23.890  1.00  0.00     0.223 A 
ENDROOT
BRANCH   1  11
ATOM     11  C   UNL     1      31.035  11.496 -23.290  1.00  0.00     0.091 A 
ATOM     12  C   UNL     1      30.972  10.625 -24.388  1.00  0.00     0.068 A 
ATOM     13  C   UNL     1      31.710   9.435 -24.395  1.00  0.00     0.162 A 
ATOM     14  C   UNL     1      31.820  11.142 -22.183  1.00  0.00     0.068 A 
ATOM     15  C   UNL     1      32.513   9.094 -23.297  1.00  0.00     0.200 A 
ATOM     16  C   UNL     1      32.564   9.956 -22.177  1.00  0.00     0.162 A 
BRANCH  13  17
ATOM     17  O   UNL     1      31.648   8.578 -25.493  1.00  0.00    -0.504 OA
ATOM     18  H   UNL     1      30.763   8.310 -25.908  1.00  0.00     0.293 HD
ENDBRANCH  13  17
BRANCH  15  19
ATOM     19  O   UNL     1      33.235   7.899 -23.359  1.00  0.00    -0.502 OA
ATOM     20  H   UNL     1      33.479   7.430 -24.219  1.00  0.00     0.293 HD
ENDBRANCH  15  19
BRANCH  16  21
ATOM     21  O   UNL     1      33.332   9.677 -21.044  1.00  0.00    -0.504 OA
ATOM     22  H   UNL     1      33.571   8.745 -20.738  1.00  0.00     0.293 HD
ENDBRANCH  16  21
ENDBRANCH   1  11
BRANCH  10  23
ATOM     23  O   UNL     1      31.901  13.973 -24.555  1.00  0.00    -0.500 OA
ATOM     24  H   UNL     1      32.749  14.277 -24.088  1.00  0.00     0.294 HD
ENDBRANCH  10  23
BRANCH   5  25
ATOM     25  O   UNL     1      25.095  14.699 -20.896  1.00  0.00    -0.507 OA
ATOM     26  H   UNL     1      24.612  13.814 -20.806  1.00  0.00     0.293 HD
ENDBRANCH   5  25
BRANCH   7  27
ATOM     27  O   UNL     1      28.046  17.381 -23.598  1.00  0.00    -0.507 OA
ATOM     28  H   UNL     1      27.670  17.675 -24.489  1.00  0.00     0.293 HD
ENDBRANCH   7  27
TORSDOF 7
ENDMDL
MODEL 4
REMARK VINA RESULT:    -5.896      3.902      6.685
REMARK INTER + INTRA:          -7.654
REMARK INTER:                  -7.277
REMARK INTRA:                  -0.377
REMARK UNBOUND:                -0.379
REMARK SMILES Oc1cc(O)c2cc(O)c(-c3cc(O)c(O)c(O)c3)[o+]c2c1
REMARK SMILES IDX 10 1 20 2 21 3 22 4 2 5 3 6 4 7 6 8 7 9 8 10 11 11 12 12
REMARK SMILES IDX 13 13 19 14 15 15 17 16 14 17 16 19 18 21 9 23 1 25 5 27
REMARK H PARENT 14 18 16 20 18 22 9 24 1 26 5 28
REMARK Flexibility Score: inf
ROOT
ATOM      1  C   UNL     1      30.692  19.806 -15.779  1.00  0.00     0.402 A 
ATOM      2  O   UNL     1      31.092  20.790 -16.581  1.00  0.00    -0.202 OA
ATOM      3  C   UNL     1      31.766  20.585 -17.708  1.00  0.00     0.368 A 
ATOM      4  C   UNL     1      32.140  21.683 -18.487  1.00  0.00     0.162 A 
ATOM      5  C   UNL     1      32.844  21.497 -19.676  1.00  0.00     0.128 A 
ATOM      6  C   UNL     1      33.179  20.204 -20.093  1.00  0.00     0.093 A 
ATOM      7  C   UNL     1      32.815  19.087 -19.331  1.00  0.00     0.136 A 
ATOM      8  C   UNL     1      32.101  19.272 -18.120  1.00  0.00     0.125 A 
ATOM      9  C   UNL     1      31.706  18.212 -17.286  1.00  0.00     0.078 A 
ATOM     10  C   UNL     1      31.008  18.474 -16.103  1.00  0.00     0.223 A 
ENDROOT
BRANCH   1  11
ATOM     11  C   UNL     1      29.939  20.162 -14.555  1.00  0.00     0.091 A 
ATOM     12  C   UNL     1      30.589  20.359 -13.327  1.00  0.00     0.068 A 
ATOM     13  C   UNL     1      29.856  20.673 -12.177  1.00  0.00     0.162 A 
ATOM     14  C   UNL     1      28.540  20.249 -14.607  1.00  0.00     0.068 A 
ATOM     15  C   UNL     1      28.459  20.783 -12.236  1.00  0.00     0.200 A 
ATOM     16  C   UNL     1      27.794  20.564 -13.465  1.00  0.00     0.162 A 
BRANCH  13  17
ATOM     17  O   UNL     1      30.510  20.874 -10.962  1.00  0.00    -0.504 OA
ATOM     18  H   UNL     1      30.121  20.539 -10.088  1.00  0.00     0.293 HD
ENDBRANCH  13  17
BRANCH  15  19
ATOM     19  O   UNL     1      27.777  21.106 -11.060  1.00  0.00    -0.502 OA
ATOM     20  H   UNL     1      27.816  22.011 -10.614  1.00  0.00     0.293 HD
ENDBRANCH  15  19
BRANCH  16  21
ATOM     21  O   UNL     1      26.406  20.645 -13.597  1.00  0.00    -0.504 OA
ATOM     22  H   UNL     1      25.777  20.863 -12.838  1.00  0.00     0.293 HD
ENDBRANCH  16  21
ENDBRANCH   1  11
BRANCH  10  23
ATOM     23  O   UNL     1      30.660  17.426 -15.250  1.00  0.00    -0.500 OA
ATOM     24  H   UNL     1      30.836  16.458 -15.496  1.00  0.00     0.294 HD
ENDBRANCH  10  23
BRANCH   5  25
ATOM     25  O   UNL     1      33.209  22.605 -20.438  1.00  0.00    -0.507 OA
ATOM     26  H   UNL     1      32.685  23.471 -20.398  1.00  0.00     0.293 HD
ENDBRANCH   5  25
BRANCH   7  27
ATOM     27  O   UNL     1      33.183  17.829 -19.818  1.00  0.00    -0.507 OA
ATOM     28  H   UNL     1      34.050  17.633 -20.297  1.00  0.00     0.293 HD
ENDBRANCH   7  27
TORSDOF 7
ENDMDL
MODEL 5
REMARK VINA RESULT:    -5.820      2.352      6.821
REMARK INTER + INTRA:          -7.560
REMARK INTER:                  -7.419
REMARK INTRA:                  -0.140
REMARK UNBOUND:                -0.379
REMARK SMILES Oc1cc(O)c2cc(O)c(-c3cc(O)c(O)c(O)c3)[o+]c2c1
REMARK SMILES IDX 10 1 20 2 21 3 22 4 2 5 3 6 4 7 6 8 7 9 8 10 11 11 12 12
REMARK SMILES IDX 13 13 19 14 15 15 17 16 14 17 16 19 18 21 9 23 1 25 5 27
REMARK H PARENT 14 18 16 20 18 22 9 24 1 26 5 28
REMARK Flexibility Score: inf
ROOT
ATOM      1  C   UNL     1      30.716  17.375 -19.153  1.00  0.00     0.402 A 
ATOM      2  O   UNL     1      31.232  18.402 -19.825  1.00  0.00    -0.202 OA
ATOM      3  C   UNL     1      31.607  19.538 -19.247  1.00  0.00     0.368 A 
ATOM      4  C   UNL     1      32.142  20.559 -20.037  1.00  0.00     0.162 A 
ATOM      5  C   UNL     1      32.548  21.761 -19.458  1.00  0.00     0.128 A 
ATOM      6  C   UNL     1      32.418  21.947 -18.077  1.00  0.00     0.093 A 
ATOM      7  C   UNL     1      31.886  20.940 -17.263  1.00  0.00     0.136 A 
ATOM      8  C   UNL     1      31.470  19.717 -17.849  1.00  0.00     0.125 A 
ATOM      9  C   UNL     1      30.914  18.657 -17.114  1.00  0.00     0.078 A 
ATOM     10  C   UNL     1      30.522  17.483 -17.763  1.00  0.00     0.223 A 
ENDROOT
BRANCH   1  11
ATOM     11  C   UNL     1      30.346  16.157 -19.909  1.00  0.00     0.091 A 
ATOM     12  C   UNL     1      31.289  15.461 -20.681  1.00  0.00     0.068 A 
ATOM     13  C   UNL     1      30.913  14.324 -21.405  1.00  0.00     0.162 A 
ATOM     14  C   UNL     1      29.014  15.720 -19.902  1.00  0.00     0.068 A 
ATOM     15  C   UNL     1      29.585  13.874 -21.378  1.00  0.00     0.200 A 
ATOM     16  C   UNL     1      28.624  14.584 -20.621  1.00  0.00     0.162 A 
BRANCH  13  17
ATOM     17  O   UNL     1      31.856  13.632 -22.164  1.00  0.00    -0.504 OA
ATOM     18  H   UNL     1      32.659  13.186 -21.734  1.00  0.00     0.293 HD
ENDBRANCH  13  17
BRANCH  15  19
ATOM     19  O   UNL     1      29.265  12.730 -22.114  1.00  0.00    -0.502 OA
ATOM     20  H   UNL     1      28.535  12.080 -21.860  1.00  0.00     0.293 HD
ENDBRANCH  15  19
BRANCH  16  21
ATOM     21  O   UNL     1      27.282  14.203 -20.556  1.00  0.00    -0.504 OA
ATOM     22  H   UNL     1      26.664  14.166 -21.354  1.00  0.00     0.293 HD
ENDBRANCH  16  21
ENDBRANCH   1  11
BRANCH  10  23
ATOM     23  O   UNL     1      29.924  16.449 -17.041  1.00  0.00    -0.500 OA
ATOM     24  H   UNL     1      29.193  16.629 -16.361  1.00  0.00     0.294 HD
ENDBRANCH  10  23
BRANCH   5  25
ATOM     25  O   UNL     1      33.078  22.767 -20.263  1.00  0.00    -0.507 OA
ATOM     26  H   UNL     1      32.481  23.395 -20.788  1.00  0.00     0.293 HD
ENDBRANCH   5  25
BRANCH   7  27
ATOM     27  O   UNL     1      31.793  21.202 -15.893  1.00  0.00    -0.507 OA
ATOM     28  H   UNL     1      32.071  22.070 -15.457  1.00  0.00     0.293 HD
ENDBRANCH   7  27
TORSDOF 7
ENDMDL
MODEL 6
REMARK VINA RESULT:    -5.795      1.162      7.146
REMARK INTER + INTRA:          -7.529
REMARK INTER:                  -7.182
REMARK INTRA:                  -0.347
REMARK UNBOUND:                -0.379
REMARK SMILES Oc1cc(O)c2cc(O)c(-c3cc(O)c(O)c(O)c3)[o+]c2c1
REMARK SMILES IDX 10 1 20 2 21 3 22 4 2 5 3 6 4 7 6 8 7 9 8 10 11 11 12 12
REMARK SMILES IDX 13 13 19 14 15 15 17 16 14 17 16 19 18 21 9 23 1 25 5 27
REMARK H PARENT 14 18 16 20 18 22 9 24 1 26 5 28
REMARK Flexibility Score: inf
ROOT
ATOM      1  C   UNL     1      29.564  17.553 -18.261  1.00  0.00     0.402 A 
ATOM      2  O   UNL     1      30.471  18.012 -19.121  1.00  0.00    -0.202 OA
ATOM      3  C   UNL     1      31.261  19.050 -18.864  1.00  0.00     0.368 A 
ATOM      4  C   UNL     1      32.186  19.455 -19.829  1.00  0.00     0.162 A 
ATOM      5  C   UNL     1      33.031  20.538 -19.586  1.00  0.00     0.128 A 
ATOM      6  C   UNL     1      32.951  21.223 -18.368  1.00  0.00     0.093 A 
ATOM      7  C   UNL     1      32.033  20.837 -17.385  1.00  0.00     0.136 A 
ATOM      8  C   UNL     1      31.171  19.737 -17.630  1.00  0.00     0.125 A 
ATOM      9  C   UNL     1      30.211  19.287 -16.707  1.00  0.00     0.078 A 
ATOM     10  C   UNL     1      29.393  18.198 -17.022  1.00  0.00     0.223 A 
ENDROOT
BRANCH   1  11
ATOM     11  C   UNL     1      28.750  16.382 -18.660  1.00  0.00     0.091 A 
ATOM     12  C   UNL     1      29.007  15.103 -18.142  1.00  0.00     0.068 A 
ATOM     13  C   UNL     1      28.239  14.005 -18.548  1.00  0.00     0.162 A 
ATOM     14  C   UNL     1      27.738  16.540 -19.617  1.00  0.00     0.068 A 
ATOM     15  C   UNL     1      27.211  14.169 -19.489  1.00  0.00     0.200 A 
ATOM     16  C   UNL     1      26.962  15.451 -20.032  1.00  0.00     0.162 A 
BRANCH  13  17
ATOM     17  O   UNL     1      28.495  12.739 -18.025  1.00  0.00    -0.504 OA
ATOM     18  H   UNL     1      28.523  11.916 -18.616  1.00  0.00     0.293 HD
ENDBRANCH  13  17
BRANCH  15  19
ATOM     19  O   UNL     1      26.472  13.041 -19.854  1.00  0.00    -0.502 OA
ATOM     20  H   UNL     1      26.033  12.921 -20.756  1.00  0.00     0.293 HD
ENDBRANCH  15  19
BRANCH  16  21
ATOM     21  O   UNL     1      25.964  15.688 -20.980  1.00  0.00    -0.504 OA
ATOM     22  H   UNL     1      24.975  15.687 -20.773  1.00  0.00     0.293 HD
ENDBRANCH  16  21
ENDBRANCH   1  11
BRANCH  10  23
ATOM     23  O   UNL     1      28.407  17.782 -16.127  1.00  0.00    -0.500 OA
ATOM     24  H   UNL     1      28.631  17.224 -15.310  1.00  0.00     0.294 HD
ENDBRANCH  10  23
BRANCH   5  25
ATOM     25  O   UNL     1      33.946  20.928 -20.561  1.00  0.00    -0.507 OA
ATOM     26  H   UNL     1      34.823  20.438 -20.690  1.00  0.00     0.293 HD
ENDBRANCH   5  25
BRANCH   7  27
ATOM     27  O   UNL     1      32.018  21.569 -16.194  1.00  0.00    -0.507 OA
ATOM     28  H   UNL     1      32.832  22.001 -15.779  1.00  0.00     0.293 HD
ENDBRANCH   7  27
TORSDOF 7
ENDMDL
MODEL 7
REMARK VINA RESULT:    -5.592      6.051      8.881
REMARK INTER + INTRA:          -7.279
REMARK INTER:                  -7.006
REMARK INTRA:                  -0.273
REMARK UNBOUND:                -0.379
REMARK SMILES Oc1cc(O)c2cc(O)c(-c3cc(O)c(O)c(O)c3)[o+]c2c1
REMARK SMILES IDX 10 1 20 2 21 3 22 4 2 5 3 6 4 7 6 8 7 9 8 10 11 11 12 12
REMARK SMILES IDX 13 13 19 14 15 15 17 16 14 17 16 19 18 21 9 23 1 25 5 27
REMARK H PARENT 14 18 16 20 18 22 9 24 1 26 5 28
REMARK Flexibility Score: inf
ROOT
ATOM      1  C   UNL     1      28.927  13.209 -22.987  1.00  0.00     0.402 A 
ATOM      2  O   UNL     1      29.059  12.102 -23.715  1.00  0.00    -0.202 OA
ATOM      3  C   UNL     1      29.734  12.058 -24.860  1.00  0.00     0.368 A 
ATOM      4  C   UNL     1      29.821  10.848 -25.551  1.00  0.00     0.162 A 
ATOM      5  C   UNL     1      30.525  10.770 -26.753  1.00  0.00     0.128 A 
ATOM      6  C   UNL     1      31.149  11.911 -27.269  1.00  0.00     0.093 A 
ATOM      7  C   UNL     1      31.077  13.137 -26.595  1.00  0.00     0.136 A 
ATOM      8  C   UNL     1      30.359  13.219 -25.374  1.00  0.00     0.125 A 
ATOM      9  C   UNL     1      30.224  14.407 -24.636  1.00  0.00     0.078 A 
ATOM     10  C   UNL     1      29.496  14.412 -23.443  1.00  0.00     0.223 A 
ENDROOT
BRANCH   1  11
ATOM     11  C   UNL     1      28.159  13.128 -21.724  1.00  0.00     0.091 A 
ATOM     12  C   UNL     1      28.649  12.425 -20.613  1.00  0.00     0.068 A 
ATOM     13  C   UNL     1      27.898  12.343 -19.435  1.00  0.00     0.162 A 
ATOM     14  C   UNL     1      26.888  13.718 -21.651  1.00  0.00     0.068 A 
ATOM     15  C   UNL     1      26.637  12.953 -19.356  1.00  0.00     0.200 A 
ATOM     16  C   UNL     1      26.126  13.645 -20.479  1.00  0.00     0.162 A 
BRANCH  13  17
ATOM     17  O   UNL     1      28.395  11.649 -18.333  1.00  0.00    -0.504 OA
ATOM     18  H   UNL     1      29.378  11.419 -18.251  1.00  0.00     0.293 HD
ENDBRANCH  13  17
BRANCH  15  19
ATOM     19  O   UNL     1      25.932  12.847 -18.154  1.00  0.00    -0.502 OA
ATOM     20  H   UNL     1      24.983  13.167 -18.026  1.00  0.00     0.293 HD
ENDBRANCH  15  19
BRANCH  16  21
ATOM     21  O   UNL     1      24.876  14.267 -20.477  1.00  0.00    -0.504 OA
ATOM     22  H   UNL     1      24.000  13.777 -20.369  1.00  0.00     0.293 HD
ENDBRANCH  16  21
ENDBRANCH   1  11
BRANCH  10  23
ATOM     23  O   UNL     1      29.320  15.602 -22.735  1.00  0.00    -0.500 OA
ATOM     24  H   UNL     1      28.435  15.834 -22.298  1.00  0.00     0.294 HD
ENDBRANCH  10  23
BRANCH   5  25
ATOM     25  O   UNL     1      30.600   9.554 -27.428  1.00  0.00    -0.507 OA
ATOM     26  H   UNL     1      30.678   8.676 -26.930  1.00  0.00     0.293 HD
ENDBRANCH   5  25
BRANCH   7  27
ATOM     27  O   UNL     1      31.730  14.229 -27.173  1.00  0.00    -0.507 OA
ATOM     28  H   UNL     1      31.607  14.526 -28.131  1.00  0.00     0.293 HD
ENDBRANCH   7  27
TORSDOF 7
ENDMDL
MODEL 8
REMARK VINA RESULT:    -5.495      9.156     12.092
REMARK INTER + INTRA:          -7.158
REMARK INTER:                  -6.789
REMARK INTRA:                  -0.369
REMARK UNBOUND:                -0.379
REMARK SMILES Oc1cc(O)c2cc(O)c(-c3cc(O)c(O)c(O)c3)[o+]c2c1
REMARK SMILES IDX 10 1 20 2 21 3 22 4 2 5 3 6 4 7 6 8 7 9 8 10 11 11 12 12
REMARK SMILES IDX 13 13 19 14 15 15 17 16 14 17 16 19 18 21 9 23 1 25 5 27
REMARK H PARENT 14 18 16 20 18 22 9 24 1 26 5 28
REMARK Flexibility Score: inf
ROOT
ATOM      1  C   UNL     1      30.544  10.557 -25.868  1.00  0.00     0.402 A 
ATOM      2  O   UNL     1      30.923   9.513 -25.134  1.00  0.00    -0.202 OA
ATOM      3  C   UNL     1      31.600   9.628 -23.997  1.00  0.00     0.368 A 
ATOM      4  C   UNL     1      31.951   8.472 -23.295  1.00  0.00     0.162 A 
ATOM      5  C   UNL     1      32.659   8.562 -22.096  1.00  0.00     0.128 A 
ATOM      6  C   UNL     1      33.021   9.817 -21.594  1.00  0.00     0.093 A 
ATOM      7  C   UNL     1      32.681  10.990 -22.278  1.00  0.00     0.136 A 
ATOM      8  C   UNL     1      31.963  10.903 -23.499  1.00  0.00     0.125 A 
ATOM      9  C   UNL     1      31.591  12.024 -24.259  1.00  0.00     0.078 A 
ATOM     10  C   UNL     1      30.888  11.858 -25.455  1.00  0.00     0.223 A 
ENDROOT
BRANCH   1  11
ATOM     11  C   UNL     1      29.783  10.300 -27.112  1.00  0.00     0.091 A 
ATOM     12  C   UNL     1      30.423  10.226 -28.359  1.00  0.00     0.068 A 
ATOM     13  C   UNL     1      29.683  10.004 -29.526  1.00  0.00     0.162 A 
ATOM     14  C   UNL     1      28.387  10.186 -27.055  1.00  0.00     0.068 A 
ATOM     15  C   UNL     1      28.289   9.866 -29.464  1.00  0.00     0.200 A 
ATOM     16  C   UNL     1      27.634   9.963 -28.215  1.00  0.00     0.162 A 
BRANCH  13  17
ATOM     17  O   UNL     1      30.327   9.924 -30.760  1.00  0.00    -0.504 OA
ATOM     18  H   UNL     1      29.826   9.671 -31.604  1.00  0.00     0.293 HD
ENDBRANCH  13  17
BRANCH  15  19
ATOM     19  O   UNL     1      27.599   9.640 -30.658  1.00  0.00    -0.502 OA
ATOM     20  H   UNL     1      28.014   9.725 -31.575  1.00  0.00     0.293 HD
ENDBRANCH  15  19
BRANCH  16  21
ATOM     21  O   UNL     1      26.249   9.848 -28.077  1.00  0.00    -0.504 OA
ATOM     22  H   UNL     1      25.732  10.159 -27.268  1.00  0.00     0.293 HD
ENDBRANCH  16  21
ENDBRANCH   1  11
BRANCH  10  23
ATOM     23  O   UNL     1      30.561  12.968 -26.235  1.00  0.00    -0.500 OA
ATOM     24  H   UNL     1      30.634  12.947 -27.246  1.00  0.00     0.294 HD
ENDBRANCH  10  23
BRANCH   5  25
ATOM     25  O   UNL     1      33.000   7.398 -21.411  1.00  0.00    -0.507 OA
ATOM     26  H   UNL     1      32.625   7.195 -20.493  1.00  0.00     0.293 HD
ENDBRANCH   5  25
BRANCH   7  27
ATOM     27  O   UNL     1      33.075  12.204 -21.708  1.00  0.00    -0.507 OA
ATOM     28  H   UNL     1      33.687  12.288 -20.909  1.00  0.00     0.293 HD
ENDBRANCH   7  27
TORSDOF 7
ENDMDL
MODEL 9
REMARK VINA RESULT:    -5.486      6.544      8.620
REMARK INTER + INTRA:          -7.148
REMARK INTER:                  -6.917
REMARK INTRA:                  -0.231
REMARK UNBOUND:                -0.379
REMARK SMILES Oc1cc(O)c2cc(O)c(-c3cc(O)c(O)c(O)c3)[o+]c2c1
REMARK SMILES IDX 10 1 20 2 21 3 22 4 2 5 3 6 4 7 6 8 7 9 8 10 11 11 12 12
REMARK SMILES IDX 13 13 19 14 15 15 17 16 14 17 16 19 18 21 9 23 1 25 5 27
REMARK H PARENT 14 18 16 20 18 22 9 24 1 26 5 28
REMARK Flexibility Score: inf
ROOT
ATOM      1  C   UNL     1      28.521  13.353 -23.694  1.00  0.00     0.402 A 
ATOM      2  O   UNL     1      28.707  12.790 -22.503  1.00  0.00    -0.202 OA
ATOM      3  C   UNL     1      27.967  13.076 -21.437  1.00  0.00     0.368 A 
ATOM      4  C   UNL     1      28.237  12.429 -20.228  1.00  0.00     0.162 A 
ATOM      5  C   UNL     1      27.474  12.706 -19.094  1.00  0.00     0.128 A 
ATOM      6  C   UNL     1      26.432  13.637 -19.166  1.00  0.00     0.093 A 
ATOM      7  C   UNL     1      26.140  14.299 -20.365  1.00  0.00     0.136 A 
ATOM      8  C   UNL     1      26.916  14.021 -21.520  1.00  0.00     0.125 A 
ATOM      9  C   UNL     1      26.704  14.645 -22.761  1.00  0.00     0.078 A 
ATOM     10  C   UNL     1      27.514  14.323 -23.855  1.00  0.00     0.223 A 
ENDROOT
BRANCH   1  11
ATOM     11  C   UNL     1      29.406  12.944 -24.809  1.00  0.00     0.091 A 
ATOM     12  C   UNL     1      30.309  13.844 -25.394  1.00  0.00     0.068 A 
ATOM     13  C   UNL     1      31.121  13.444 -26.462  1.00  0.00     0.162 A 
ATOM     14  C   UNL     1      29.301  11.647 -25.332  1.00  0.00     0.068 A 
ATOM     15  C   UNL     1      31.032  12.139 -26.968  1.00  0.00     0.200 A 
ATOM     16  C   UNL     1      30.107  11.232 -26.399  1.00  0.00     0.162 A 
BRANCH  13  17
ATOM     17  O   UNL     1      32.022  14.341 -27.033  1.00  0.00    -0.504 OA
ATOM     18  H   UNL     1      32.520  15.023 -26.472  1.00  0.00     0.293 HD
ENDBRANCH  13  17
BRANCH  15  19
ATOM     19  O   UNL     1      31.870  11.789 -28.030  1.00  0.00    -0.502 OA
ATOM     20  H   UNL     1      32.409  10.936 -28.067  1.00  0.00     0.293 HD
ENDBRANCH  15  19
BRANCH  16  21
ATOM     21  O   UNL     1      29.954   9.922 -26.857  1.00  0.00    -0.504 OA
ATOM     22  H   UNL     1      29.437   9.669 -27.687  1.00  0.00     0.293 HD
ENDBRANCH  16  21
ENDBRANCH   1  11
BRANCH  10  23
ATOM     23  O   UNL     1      27.336  14.978 -25.074  1.00  0.00    -0.500 OA
ATOM     24  H   UNL     1      26.860  15.871 -25.134  1.00  0.00     0.294 HD
ENDBRANCH  10  23
BRANCH   5  25
ATOM     25  O   UNL     1      27.759  12.051 -17.897  1.00  0.00    -0.507 OA
ATOM     26  H   UNL     1      27.153  12.135 -17.091  1.00  0.00     0.293 HD
ENDBRANCH   5  25
BRANCH   7  27
ATOM     27  O   UNL     1      25.082  15.211 -20.356  1.00  0.00    -0.507 OA
ATOM     28  H   UNL     1      24.919  15.891 -19.626  1.00  0.00     0.293 HD
ENDBRANCH   7  27
TORSDOF 7
ENDMDL
