MODEL 1
REMARK VINA RESULT:    -3.376      0.000      0.000
REMARK INTER + INTRA:          -4.341
REMARK INTER:                  -4.264
REMARK INTRA:                  -0.077
REMARK UNBOUND:                -0.077
REMARK SMILES CCCCCCO
REMARK SMILES IDX 4 1 3 2 2 3 1 4 5 5 6 6 7 7
REMARK H PARENT 7 8
REMARK Flexibility Score: inf
ROOT
ATOM      1  C   UNL     1      30.367   1.579  24.869  1.00  0.00     0.002 C 
ENDROOT
BRANCH   1   2
ATOM      2  C   UNL     1      30.945   0.887  23.624  1.00  0.00    -0.000 C 
BRANCH   2   3
ATOM      3  C   UNL     1      32.402   0.442  23.818  1.00  0.00    -0.003 C 
ATOM      4  C   UNL     1      32.868   0.698  25.249  1.00  0.00     0.004 C 
ENDBRANCH   2   3
ENDBRANCH   1   2
BRANCH   1   5
ATOM      5  C   UNL     1      29.311   2.638  24.520  1.00  0.00     0.028 C 
BRANCH   5   6
ATOM      6  C   UNL     1      29.545   3.929  25.310  1.00  0.00     0.156 C 
BRANCH   6   7
ATOM      7  O   UNL     1      29.013   5.025  24.616  1.00  0.00    -0.396 OA
ATOM      8  H   UNL     1      29.235   5.833  25.148  1.00  0.00     0.210 HD
ENDBRANCH   6   7
ENDBRANCH   5   6
ENDBRANCH   1   5
TORSDOF 5
ENDMDL
MODEL 2
REMARK VINA RESULT:    -3.321      1.540      2.007
REMARK INTER + INTRA:          -4.272
REMARK INTER:                  -4.159
REMARK INTRA:                  -0.113
REMARK UNBOUND:                -0.077
REMARK SMILES CCCCCCO
REMARK SMILES IDX 4 1 3 2 2 3 1 4 5 5 6 6 7 7
REMARK H PARENT 7 8
REMARK Flexibility Score: inf
ROOT
ATOM      1  C   UNL     1      28.785   2.548  23.927  1.00  0.00     0.002 C 
ENDROOT
BRANCH   1   2
ATOM      2  C   UNL     1      29.562   1.765  22.857  1.00  0.00    -0.000 C 
BRANCH   2   3
ATOM      3  C   UNL     1      30.412   0.634  23.454  1.00  0.00    -0.003 C 
ATOM      4  C   UNL     1      30.106  -0.699  22.777  1.00  0.00     0.004 C 
ENDBRANCH   2   3
ENDBRANCH   1   2
BRANCH   1   5
ATOM      5  C   UNL     1      29.586   2.730  25.224  1.00  0.00     0.028 C 
BRANCH   5   6
ATOM      6  C   UNL     1      29.635   4.203  25.639  1.00  0.00     0.156 C 
BRANCH   6   7
ATOM      7  O   UNL     1      29.012   5.001  24.669  1.00  0.00    -0.396 OA
ATOM      8  H   UNL     1      29.343   4.686  23.787  1.00  0.00     0.210 HD
ENDBRANCH   6   7
ENDBRANCH   5   6
ENDBRANCH   1   5
TORSDOF 5
ENDMDL
MODEL 3
REMARK VINA RESULT:    -3.248      8.677      9.636
REMARK INTER + INTRA:          -4.180
REMARK INTER:                  -4.109
REMARK INTRA:                  -0.071
REMARK UNBOUND:                -0.077
REMARK SMILES CCCCCCO
REMARK SMILES IDX 4 1 3 2 2 3 1 4 5 5 6 6 7 7
REMARK H PARENT 7 8
REMARK Flexibility Score: inf
ROOT
ATOM      1  C   UNL     1      25.948  -1.732  17.515  1.00  0.00     0.002 C 
ENDROOT
BRANCH   1   2
ATOM      2  C   UNL     1      26.453  -2.827  16.562  1.00  0.00    -0.000 C 
BRANCH   2   3
ATOM      3  C   UNL     1      25.374  -3.290  15.572  1.00  0.00    -0.003 C 
ATOM      4  C   UNL     1      23.996  -3.303  16.227  1.00  0.00     0.004 C 
ENDBRANCH   2   3
ENDBRANCH   1   2
BRANCH   1   5
ATOM      5  C   UNL     1      26.865  -0.499  17.536  1.00  0.00     0.028 C 
BRANCH   5   6
ATOM      6  C   UNL     1      27.177  -0.070  18.972  1.00  0.00     0.156 C 
BRANCH   6   7
ATOM      7  O   UNL     1      27.151   1.328  19.077  1.00  0.00    -0.396 OA
ATOM      8  H   UNL     1      27.697   1.564  19.872  1.00  0.00     0.210 HD
ENDBRANCH   6   7
ENDBRANCH   5   6
ENDBRANCH   1   5
TORSDOF 5
ENDMDL
MODEL 4
REMARK VINA RESULT:    -3.083      2.365      3.642
REMARK INTER + INTRA:          -3.971
REMARK INTER:                  -3.885
REMARK INTRA:                  -0.086
REMARK UNBOUND:                -0.077
REMARK SMILES CCCCCCO
REMARK SMILES IDX 4 1 3 2 2 3 1 4 5 5 6 6 7 7
REMARK H PARENT 7 8
REMARK Flexibility Score: inf
ROOT
ATOM      1  C   UNL     1      29.082   1.524  25.517  1.00  0.00     0.002 C 
ENDROOT
BRANCH   1   2
ATOM      2  C   UNL     1      28.302   0.388  24.837  1.00  0.00    -0.000 C 
BRANCH   2   3
ATOM      3  C   UNL     1      26.813   0.387  25.213  1.00  0.00    -0.003 C 
ATOM      4  C   UNL     1      25.975   1.080  24.142  1.00  0.00     0.004 C 
ENDBRANCH   2   3
ENDBRANCH   1   2
BRANCH   1   5
ATOM      5  C   UNL     1      29.325   2.718  24.582  1.00  0.00     0.028 C 
BRANCH   5   6
ATOM      6  C   UNL     1      29.520   4.010  25.379  1.00  0.00     0.156 C 
BRANCH   6   7
ATOM      7  O   UNL     1      29.029   5.106  24.655  1.00  0.00    -0.396 OA
ATOM      8  H   UNL     1      29.103   5.897  25.251  1.00  0.00     0.210 HD
ENDBRANCH   6   7
ENDBRANCH   5   6
ENDBRANCH   1   5
TORSDOF 5
ENDMDL
MODEL 5
REMARK VINA RESULT:    -3.025     10.102     11.019
REMARK INTER + INTRA:          -3.898
REMARK INTER:                  -3.791
REMARK INTRA:                  -0.108
REMARK UNBOUND:                -0.077
REMARK SMILES CCCCCCO
REMARK SMILES IDX 4 1 3 2 2 3 1 4 5 5 6 6 7 7
REMARK H PARENT 7 8
REMARK Flexibility Score: inf
ROOT
ATOM      1  C   UNL     1      25.872  -3.418  16.318  1.00  0.00     0.002 C 
ENDROOT
BRANCH   1   2
ATOM      2  C   UNL     1      26.644  -2.541  17.316  1.00  0.00    -0.000 C 
BRANCH   2   3
ATOM      3  C   UNL     1      25.977  -1.177  17.543  1.00  0.00    -0.003 C 
ATOM      4  C   UNL     1      27.019  -0.089  17.785  1.00  0.00     0.004 C 
ENDBRANCH   2   3
ENDBRANCH   1   2
BRANCH   1   5
ATOM      5  C   UNL     1      24.522  -2.807  15.915  1.00  0.00     0.028 C 
BRANCH   5   6
ATOM      6  C   UNL     1      23.359  -3.700  16.357  1.00  0.00     0.156 C 
BRANCH   6   7
ATOM      7  O   UNL     1      22.137  -3.054  16.129  1.00  0.00    -0.396 OA
ATOM      8  H   UNL     1      22.201  -2.163  16.563  1.00  0.00     0.210 HD
ENDBRANCH   6   7
ENDBRANCH   5   6
ENDBRANCH   1   5
TORSDOF 5
ENDMDL
MODEL 6
REMARK VINA RESULT:    -3.007      1.427      1.561
REMARK INTER + INTRA:          -3.876
REMARK INTER:                  -3.758
REMARK INTRA:                  -0.118
REMARK UNBOUND:                -0.077
REMARK SMILES CCCCCCO
REMARK SMILES IDX 4 1 3 2 2 3 1 4 5 5 6 6 7 7
REMARK H PARENT 7 8
REMARK Flexibility Score: inf
ROOT
ATOM      1  C   UNL     1      30.461   0.858  24.794  1.00  0.00     0.002 C 
ENDROOT
BRANCH   1   2
ATOM      2  C   UNL     1      31.275   0.546  23.528  1.00  0.00    -0.000 C 
BRANCH   2   3
ATOM      3  C   UNL     1      32.788   0.522  23.789  1.00  0.00    -0.003 C 
ATOM      4  C   UNL     1      33.088   0.572  25.284  1.00  0.00     0.004 C 
ENDBRANCH   2   3
ENDBRANCH   1   2
BRANCH   1   5
ATOM      5  C   UNL     1      29.781   2.234  24.735  1.00  0.00     0.028 C 
BRANCH   5   6
ATOM      6  C   UNL     1      29.123   2.464  23.371  1.00  0.00     0.156 C 
BRANCH   6   7
ATOM      7  O   UNL     1      27.727   2.444  23.497  1.00  0.00    -0.396 OA
ATOM      8  H   UNL     1      27.469   1.498  23.652  1.00  0.00     0.210 HD
ENDBRANCH   6   7
ENDBRANCH   5   6
ENDBRANCH   1   5
TORSDOF 5
ENDMDL
MODEL 7
REMARK VINA RESULT:    -2.928      8.273      9.321
REMARK INTER + INTRA:          -3.776
REMARK INTER:                  -3.607
REMARK INTRA:                  -0.169
REMARK UNBOUND:                -0.077
REMARK SMILES CCCCCCO
REMARK SMILES IDX 4 1 3 2 2 3 1 4 5 5 6 6 7 7
REMARK H PARENT 7 8
REMARK Flexibility Score: inf
ROOT
ATOM      1  C   UNL     1      25.820  -1.228  17.498  1.00  0.00     0.002 C 
ENDROOT
BRANCH   1   2
ATOM      2  C   UNL     1      26.992  -0.254  17.703  1.00  0.00    -0.000 C 
BRANCH   2   3
ATOM      3  C   UNL     1      27.164   0.162  19.171  1.00  0.00    -0.003 C 
ATOM      4  C   UNL     1      26.228  -0.629  20.079  1.00  0.00     0.004 C 
ENDBRANCH   2   3
ENDBRANCH   1   2
BRANCH   1   5
ATOM      5  C   UNL     1      26.238  -2.510  16.764  1.00  0.00     0.028 C 
BRANCH   5   6
ATOM      6  C   UNL     1      26.726  -3.575  17.751  1.00  0.00     0.156 C 
BRANCH   6   7
ATOM      7  O   UNL     1      28.022  -3.990  17.415  1.00  0.00    -0.396 OA
ATOM      8  H   UNL     1      28.093  -3.928  16.426  1.00  0.00     0.210 HD
ENDBRANCH   6   7
ENDBRANCH   5   6
ENDBRANCH   1   5
TORSDOF 5
ENDMDL
MODEL 8
REMARK VINA RESULT:    -2.809     22.805     23.853
REMARK INTER + INTRA:          -3.625
REMARK INTER:                  -3.520
REMARK INTRA:                  -0.105
REMARK UNBOUND:                -0.077
REMARK SMILES CCCCCCO
REMARK SMILES IDX 4 1 3 2 2 3 1 4 5 5 6 6 7 7
REMARK H PARENT 7 8
REMARK Flexibility Score: inf
ROOT
ATOM      1  C   UNL     1      18.699  13.052   8.480  1.00  0.00     0.002 C 
ENDROOT
BRANCH   1   2
ATOM      2  C   UNL     1      18.161  14.468   8.744  1.00  0.00    -0.000 C 
BRANCH   2   3
ATOM      3  C   UNL     1      16.824  14.733   8.036  1.00  0.00    -0.003 C 
ATOM      4  C   UNL     1      15.662  14.688   9.025  1.00  0.00     0.004 C 
ENDBRANCH   2   3
ENDBRANCH   1   2
BRANCH   1   5
ATOM      5  C   UNL     1      18.290  12.512   7.102  1.00  0.00     0.028 C 
BRANCH   5   6
ATOM      6  C   UNL     1      18.925  11.144   6.837  1.00  0.00     0.156 C 
BRANCH   6   7
ATOM      7  O   UNL     1      19.482  10.631   8.017  1.00  0.00    -0.396 OA
ATOM      8  H   UNL     1      19.607   9.657   7.873  1.00  0.00     0.210 HD
ENDBRANCH   6   7
ENDBRANCH   5   6
ENDBRANCH   1   5
TORSDOF 5
ENDMDL
MODEL 9
REMARK VINA RESULT:    -2.750      3.981      4.959
REMARK INTER + INTRA:          -3.551
REMARK INTER:                  -3.493
REMARK INTRA:                  -0.058
REMARK UNBOUND:                -0.077
REMARK SMILES CCCCCCO
REMARK SMILES IDX 4 1 3 2 2 3 1 4 5 5 6 6 7 7
REMARK H PARENT 7 8
REMARK Flexibility Score: inf
ROOT
ATOM      1  C   UNL     1      28.856  -0.321  22.080  1.00  0.00     0.002 C 
ENDROOT
BRANCH   1   2
ATOM      2  C   UNL     1      28.315   0.059  20.692  1.00  0.00    -0.000 C 
BRANCH   2   3
ATOM      3  C   UNL     1      27.350  -0.993  20.126  1.00  0.00    -0.003 C 
ATOM      4  C   UNL     1      27.110  -0.773  18.635  1.00  0.00     0.004 C 
ENDBRANCH   2   3
ENDBRANCH   1   2
BRANCH   1   5
ATOM      5  C   UNL     1      28.514   0.722  23.153  1.00  0.00     0.028 C 
BRANCH   5   6
ATOM      6  C   UNL     1      29.283   2.026  22.918  1.00  0.00     0.156 C 
BRANCH   6   7
ATOM      7  O   UNL     1      28.424   3.126  23.053  1.00  0.00    -0.396 OA
ATOM      8  H   UNL     1      28.875   3.765  23.664  1.00  0.00     0.210 HD
ENDBRANCH   6   7
ENDBRANCH   5   6
ENDBRANCH   1   5
TORSDOF 5
ENDMDL
