MODEL 1
REMARK VINA RESULT:    -4.304      0.000      0.000
REMARK INTER + INTRA:         -10.634
REMARK INTER:                  -7.827
REMARK INTRA:                  -2.807
REMARK UNBOUND:                -2.807
REMARK SMILES CCCCCC=CCC=CCCCCCCCC(=O)[O-]
REMARK SMILES IDX 11 1 12 2 13 3 14 4 15 5 16 6 17 7 18 8 19 9 20 10 10 11
REMARK SMILES IDX 9 12 8 13 7 14 6 15 5 16 4 17 3 18 2 19 1 20
REMARK H PARENT
REMARK Flexibility Score: inf
ROOT
ATOM      1  C   UNL     1       8.773  -6.588   6.335  1.00  0.00     0.027 C 
ENDROOT
BRANCH   1   2
ATOM      2  C   UNL     1       7.597  -7.491   5.911  1.00  0.00     0.004 C 
BRANCH   2   3
ATOM      3  C   UNL     1       7.805  -8.977   6.248  1.00  0.00     0.000 C 
BRANCH   3   4
ATOM      4  C   UNL     1       6.676  -9.553   7.118  1.00  0.00     0.000 C 
BRANCH   4   5
ATOM      5  C   UNL     1       5.399  -8.691   7.092  1.00  0.00     0.000 C 
BRANCH   5   6
ATOM      6  C   UNL     1       4.139  -9.357   7.682  1.00  0.00     0.006 C 
BRANCH   6   7
ATOM      7  C   UNL     1       2.819  -8.896   7.035  1.00  0.00     0.053 C 
BRANCH   7   8
ATOM      8  C   UNL     1       2.595  -7.420   7.188  1.00  0.00     0.041 C 
ATOM      9  O   UNL     1       2.530  -6.902   8.334  1.00  0.00    -0.550 OA
ATOM     10  O   UNL     1       2.496  -6.611   6.062  1.00  0.00    -0.550 OA
ENDBRANCH   7   8
ENDBRANCH   6   7
ENDBRANCH   5   6
ENDBRANCH   4   5
ENDBRANCH   3   4
ENDBRANCH   2   3
ENDBRANCH   1   2
BRANCH   1  11
ATOM     11  C   UNL     1       9.513  -7.141   7.529  1.00  0.00    -0.031 C 
ATOM     12  C   UNL     1       9.347  -6.714   8.795  1.00  0.00    -0.027 C 
BRANCH  12  13
ATOM     13  C   UNL     1       8.356  -5.660   9.224  1.00  0.00     0.054 C 
BRANCH  13  14
ATOM     14  C   UNL     1       7.069  -6.279   9.709  1.00  0.00    -0.027 C 
ATOM     15  C   UNL     1       5.851  -6.016   9.198  1.00  0.00    -0.031 C 
BRANCH  15  16
ATOM     16  C   UNL     1       5.593  -5.126   8.010  1.00  0.00     0.027 C 
BRANCH  16  17
ATOM     17  C   UNL     1       5.260  -3.700   8.464  1.00  0.00     0.004 C 
BRANCH  17  18
ATOM     18  C   UNL     1       6.433  -2.748   8.183  1.00  0.00     0.000 C 
BRANCH  18  19
ATOM     19  C   UNL     1       6.953  -2.059   9.454  1.00  0.00    -0.003 C 
ATOM     20  C   UNL     1       6.354  -2.644  10.733  1.00  0.00     0.004 C 
ENDBRANCH  18  19
ENDBRANCH  17  18
ENDBRANCH  16  17
ENDBRANCH  15  16
ENDBRANCH  13  14
ENDBRANCH  12  13
ENDBRANCH   1  11
TORSDOF 14
ENDMDL
MODEL 2
REMARK VINA RESULT:    -4.255      1.950      3.308
REMARK INTER + INTRA:         -10.545
REMARK INTER:                  -8.267
REMARK INTRA:                  -2.278
REMARK UNBOUND:                -2.807
REMARK SMILES CCCCCC=CCC=CCCCCCCCC(=O)[O-]
REMARK SMILES IDX 11 1 12 2 13 3 14 4 15 5 16 6 17 7 18 8 19 9 20 10 10 11
REMARK SMILES IDX 9 12 8 13 7 14 6 15 5 16 4 17 3 18 2 19 1 20
REMARK H PARENT
REMARK Flexibility Score: inf
ROOT
ATOM      1  C   UNL     1       9.482  -5.944   9.162  1.00  0.00     0.027 C 
ENDROOT
BRANCH   1   2
ATOM      2  C   UNL     1       9.220  -7.337   8.553  1.00  0.00     0.004 C 
BRANCH   2   3
ATOM      3  C   UNL     1       9.008  -7.317   7.030  1.00  0.00     0.000 C 
BRANCH   3   4
ATOM      4  C   UNL     1       7.682  -7.968   6.607  1.00  0.00     0.000 C 
BRANCH   4   5
ATOM      5  C   UNL     1       6.895  -8.554   7.794  1.00  0.00     0.000 C 
BRANCH   5   6
ATOM      6  C   UNL     1       5.698  -7.710   8.277  1.00  0.00     0.006 C 
BRANCH   6   7
ATOM      7  C   UNL     1       4.735  -7.277   7.156  1.00  0.00     0.053 C 
BRANCH   7   8
ATOM      8  C   UNL     1       3.594  -6.451   7.672  1.00  0.00     0.041 C 
ATOM      9  O   UNL     1       2.569  -7.009   8.148  1.00  0.00    -0.550 OA
ATOM     10  O   UNL     1       3.677  -5.064   7.662  1.00  0.00    -0.550 OA
ENDBRANCH   7   8
ENDBRANCH   6   7
ENDBRANCH   5   6
ENDBRANCH   4   5
ENDBRANCH   3   4
ENDBRANCH   2   3
ENDBRANCH   1   2
BRANCH   1  11
ATOM     11  C   UNL     1       8.999  -4.831   8.264  1.00  0.00    -0.031 C 
ATOM     12  C   UNL     1       7.805  -4.221   8.379  1.00  0.00    -0.027 C 
BRANCH  12  13
ATOM     13  C   UNL     1       6.790  -4.513   9.457  1.00  0.00     0.054 C 
BRANCH  13  14
ATOM     14  C   UNL     1       5.944  -3.301   9.760  1.00  0.00    -0.027 C 
ATOM     15  C   UNL     1       6.249  -2.363  10.677  1.00  0.00    -0.031 C 
BRANCH  15  16
ATOM     16  C   UNL     1       7.521  -2.332  11.483  1.00  0.00     0.027 C 
BRANCH  16  17
ATOM     17  C   UNL     1       7.219  -2.495  12.978  1.00  0.00     0.004 C 
BRANCH  17  18
ATOM     18  C   UNL     1       8.025  -3.657  13.577  1.00  0.00     0.000 C 
BRANCH  18  19
ATOM     19  C   UNL     1       8.779  -4.466  12.511  1.00  0.00    -0.003 C 
ATOM     20  C   UNL     1      10.253  -4.672  12.857  1.00  0.00     0.004 C 
ENDBRANCH  18  19
ENDBRANCH  17  18
ENDBRANCH  16  17
ENDBRANCH  15  16
ENDBRANCH  13  14
ENDBRANCH  12  13
ENDBRANCH   1  11
TORSDOF 14
ENDMDL
MODEL 3
REMARK VINA RESULT:    -4.156      8.967     11.721
REMARK INTER + INTRA:         -10.365
REMARK INTER:                  -7.587
REMARK INTRA:                  -2.778
REMARK UNBOUND:                -2.807
REMARK SMILES CCCCCC=CCC=CCCCCCCCC(=O)[O-]
REMARK SMILES IDX 11 1 12 2 13 3 14 4 15 5 16 6 17 7 18 8 19 9 20 10 10 11
REMARK SMILES IDX 9 12 8 13 7 14 6 15 5 16 4 17 3 18 2 19 1 20
REMARK H PARENT
REMARK Flexibility Score: inf
ROOT
ATOM      1  C   UNL     1      12.108  -2.525  17.980  1.00  0.00     0.027 C 
ENDROOT
BRANCH   1   2
ATOM      2  C   UNL     1      11.084  -3.348  18.788  1.00  0.00     0.004 C 
BRANCH   2   3
ATOM      3  C   UNL     1      10.647  -4.647  18.091  1.00  0.00     0.000 C 
BRANCH   3   4
ATOM      4  C   UNL     1       9.311  -4.501  17.346  1.00  0.00     0.000 C 
BRANCH   4   5
ATOM      5  C   UNL     1       9.425  -4.810  15.841  1.00  0.00     0.000 C 
BRANCH   5   6
ATOM      6  C   UNL     1      10.862  -4.855  15.281  1.00  0.00     0.006 C 
BRANCH   6   7
ATOM      7  C   UNL     1      10.989  -4.360  13.828  1.00  0.00     0.053 C 
BRANCH   7   8
ATOM      8  C   UNL     1      12.050  -5.098  13.066  1.00  0.00     0.041 C 
ATOM      9  O   UNL     1      11.983  -5.193  11.811  1.00  0.00    -0.550 OA
ATOM     10  O   UNL     1      13.134  -5.649  13.739  1.00  0.00    -0.550 OA
ENDBRANCH   7   8
ENDBRANCH   6   7
ENDBRANCH   5   6
ENDBRANCH   4   5
ENDBRANCH   3   4
ENDBRANCH   2   3
ENDBRANCH   1   2
BRANCH   1  11
ATOM     11  C   UNL     1      11.445  -1.656  16.939  1.00  0.00    -0.031 C 
ATOM     12  C   UNL     1      12.098  -1.009  15.956  1.00  0.00    -0.027 C 
BRANCH  12  13
ATOM     13  C   UNL     1      13.584  -1.097  15.707  1.00  0.00     0.054 C 
BRANCH  13  14
ATOM     14  C   UNL     1      13.965  -2.433  15.120  1.00  0.00    -0.027 C 
ATOM     15  C   UNL     1      14.941  -3.230  15.596  1.00  0.00    -0.031 C 
BRANCH  15  16
ATOM     16  C   UNL     1      15.748  -2.950  16.838  1.00  0.00     0.027 C 
BRANCH  16  17
ATOM     17  C   UNL     1      15.693  -4.144  17.799  1.00  0.00     0.004 C 
BRANCH  17  18
ATOM     18  C   UNL     1      15.163  -5.398  17.087  1.00  0.00     0.000 C 
BRANCH  18  19
ATOM     19  C   UNL     1      14.011  -6.069  17.850  1.00  0.00    -0.003 C 
ATOM     20  C   UNL     1      13.239  -7.073  16.994  1.00  0.00     0.004 C 
ENDBRANCH  18  19
ENDBRANCH  17  18
ENDBRANCH  16  17
ENDBRANCH  15  16
ENDBRANCH  13  14
ENDBRANCH  12  13
ENDBRANCH   1  11
TORSDOF 14
ENDMDL
MODEL 4
REMARK VINA RESULT:    -4.135      2.686      4.832
REMARK INTER + INTRA:         -10.326
REMARK INTER:                  -7.614
REMARK INTRA:                  -2.712
REMARK UNBOUND:                -2.807
REMARK SMILES CCCCCC=CCC=CCCCCCCCC(=O)[O-]
REMARK SMILES IDX 11 1 12 2 13 3 14 4 15 5 16 6 17 7 18 8 19 9 20 10 10 11
REMARK SMILES IDX 9 12 8 13 7 14 6 15 5 16 4 17 3 18 2 19 1 20
REMARK H PARENT
REMARK Flexibility Score: inf
ROOT
ATOM      1  C   UNL     1       7.268  -2.206   9.106  1.00  0.00     0.027 C 
ENDROOT
BRANCH   1   2
ATOM      2  C   UNL     1       7.354  -2.776   7.675  1.00  0.00     0.004 C 
BRANCH   2   3
ATOM      3  C   UNL     1       6.037  -2.671   6.887  1.00  0.00     0.000 C 
BRANCH   3   4
ATOM      4  C   UNL     1       5.473  -4.044   6.488  1.00  0.00     0.000 C 
BRANCH   4   5
ATOM      5  C   UNL     1       4.313  -4.502   7.392  1.00  0.00     0.000 C 
BRANCH   5   6
ATOM      6  C   UNL     1       4.597  -5.751   8.251  1.00  0.00     0.006 C 
BRANCH   6   7
ATOM      7  C   UNL     1       5.962  -6.410   7.978  1.00  0.00     0.053 C 
BRANCH   7   8
ATOM      8  C   UNL     1       6.047  -7.798   8.541  1.00  0.00     0.041 C 
ATOM      9  O   UNL     1       7.168  -8.311   8.803  1.00  0.00    -0.550 OA
ATOM     10  O   UNL     1       4.886  -8.513   8.811  1.00  0.00    -0.550 OA
ENDBRANCH   7   8
ENDBRANCH   6   7
ENDBRANCH   5   6
ENDBRANCH   4   5
ENDBRANCH   3   4
ENDBRANCH   2   3
ENDBRANCH   1   2
BRANCH   1  11
ATOM     11  C   UNL     1       6.456  -3.089  10.022  1.00  0.00    -0.031 C 
ATOM     12  C   UNL     1       6.980  -3.949  10.916  1.00  0.00    -0.027 C 
BRANCH  12  13
ATOM     13  C   UNL     1       8.455  -4.121  11.182  1.00  0.00     0.054 C 
BRANCH  13  14
ATOM     14  C   UNL     1       8.907  -5.530  10.891  1.00  0.00    -0.027 C 
ATOM     15  C   UNL     1       9.565  -5.911   9.779  1.00  0.00    -0.031 C 
BRANCH  15  16
ATOM     16  C   UNL     1      10.026  -4.974   8.692  1.00  0.00     0.027 C 
BRANCH  16  17
ATOM     17  C   UNL     1      11.485  -4.558   8.919  1.00  0.00     0.004 C 
BRANCH  17  18
ATOM     18  C   UNL     1      11.569  -3.118   9.447  1.00  0.00     0.000 C 
BRANCH  18  19
ATOM     19  C   UNL     1      12.614  -2.955  10.560  1.00  0.00    -0.003 C 
ATOM     20  C   UNL     1      12.144  -3.517  11.901  1.00  0.00     0.004 C 
ENDBRANCH  18  19
ENDBRANCH  17  18
ENDBRANCH  16  17
ENDBRANCH  15  16
ENDBRANCH  13  14
ENDBRANCH  12  13
ENDBRANCH   1  11
TORSDOF 14
ENDMDL
MODEL 5
REMARK VINA RESULT:    -4.123     11.490     14.212
REMARK INTER + INTRA:         -10.304
REMARK INTER:                  -7.464
REMARK INTRA:                  -2.840
REMARK UNBOUND:                -2.807
REMARK SMILES CCCCCC=CCC=CCCCCCCCC(=O)[O-]
REMARK SMILES IDX 11 1 12 2 13 3 14 4 15 5 16 6 17 7 18 8 19 9 20 10 10 11
REMARK SMILES IDX 9 12 8 13 7 14 6 15 5 16 4 17 3 18 2 19 1 20
REMARK H PARENT
REMARK Flexibility Score: inf
ROOT
ATOM      1  C   UNL     1      13.630  -2.461  17.850  1.00  0.00     0.027 C 
ENDROOT
BRANCH   1   2
ATOM      2  C   UNL     1      14.511  -2.382  19.114  1.00  0.00     0.004 C 
BRANCH   2   3
ATOM      3  C   UNL     1      15.260  -3.687  19.429  1.00  0.00     0.000 C 
BRANCH   3   4
ATOM      4  C   UNL     1      16.747  -3.624  19.047  1.00  0.00     0.000 C 
BRANCH   4   5
ATOM      5  C   UNL     1      17.415  -5.012  19.004  1.00  0.00     0.000 C 
BRANCH   5   6
ATOM      6  C   UNL     1      17.783  -5.526  17.596  1.00  0.00     0.006 C 
BRANCH   6   7
ATOM      7  C   UNL     1      18.471  -6.904  17.587  1.00  0.00     0.053 C 
BRANCH   7   8
ATOM      8  C   UNL     1      17.911  -7.813  16.534  1.00  0.00     0.041 C 
ATOM      9  O   UNL     1      17.162  -7.355  15.629  1.00  0.00    -0.550 OA
ATOM     10  O   UNL     1      18.246  -9.162  16.528  1.00  0.00    -0.550 OA
ENDBRANCH   7   8
ENDBRANCH   6   7
ENDBRANCH   5   6
ENDBRANCH   4   5
ENDBRANCH   3   4
ENDBRANCH   2   3
ENDBRANCH   1   2
BRANCH   1  11
ATOM     11  C   UNL     1      14.414  -2.182  16.591  1.00  0.00    -0.031 C 
ATOM     12  C   UNL     1      14.833  -3.126  15.728  1.00  0.00    -0.027 C 
BRANCH  12  13
ATOM     13  C   UNL     1      14.534  -4.600  15.852  1.00  0.00     0.054 C 
BRANCH  13  14
ATOM     14  C   UNL     1      13.392  -5.008  14.955  1.00  0.00    -0.027 C 
ATOM     15  C   UNL     1      12.159  -5.336  15.384  1.00  0.00    -0.031 C 
BRANCH  15  16
ATOM     16  C   UNL     1      11.703  -5.266  16.819  1.00  0.00     0.027 C 
BRANCH  16  17
ATOM     17  C   UNL     1      11.866  -6.628  17.505  1.00  0.00     0.004 C 
BRANCH  17  18
ATOM     18  C   UNL     1      12.550  -6.474  18.872  1.00  0.00     0.000 C 
BRANCH  18  19
ATOM     19  C   UNL     1      13.926  -7.154  18.926  1.00  0.00    -0.003 C 
ATOM     20  C   UNL     1      14.294  -7.852  17.616  1.00  0.00     0.004 C 
ENDBRANCH  18  19
ENDBRANCH  17  18
ENDBRANCH  16  17
ENDBRANCH  15  16
ENDBRANCH  13  14
ENDBRANCH  12  13
ENDBRANCH   1  11
TORSDOF 14
ENDMDL
MODEL 6
REMARK VINA RESULT:    -4.118     11.900     14.337
REMARK INTER + INTRA:         -10.296
REMARK INTER:                  -7.287
REMARK INTRA:                  -3.010
REMARK UNBOUND:                -2.807
REMARK SMILES CCCCCC=CCC=CCCCCCCCC(=O)[O-]
REMARK SMILES IDX 11 1 12 2 13 3 14 4 15 5 16 6 17 7 18 8 19 9 20 10 10 11
REMARK SMILES IDX 9 12 8 13 7 14 6 15 5 16 4 17 3 18 2 19 1 20
REMARK H PARENT
REMARK Flexibility Score: inf
ROOT
ATOM      1  C   UNL     1      14.309  -4.913  15.794  1.00  0.00     0.027 C 
ENDROOT
BRANCH   1   2
ATOM      2  C   UNL     1      14.911  -3.504  15.616  1.00  0.00     0.004 C 
BRANCH   2   3
ATOM      3  C   UNL     1      14.906  -2.662  16.903  1.00  0.00     0.000 C 
BRANCH   3   4
ATOM      4  C   UNL     1      14.926  -3.524  18.176  1.00  0.00     0.000 C 
BRANCH   4   5
ATOM      5  C   UNL     1      16.158  -3.258  19.061  1.00  0.00     0.000 C 
BRANCH   5   6
ATOM      6  C   UNL     1      17.088  -4.469  19.284  1.00  0.00     0.006 C 
BRANCH   6   7
ATOM      7  C   UNL     1      16.840  -5.642  18.317  1.00  0.00     0.053 C 
BRANCH   7   8
ATOM      8  C   UNL     1      17.851  -5.691  17.210  1.00  0.00     0.041 C 
ATOM      9  O   UNL     1      17.565  -6.236  16.110  1.00  0.00    -0.550 OA
ATOM     10  O   UNL     1      19.098  -5.100  17.379  1.00  0.00    -0.550 OA
ENDBRANCH   7   8
ENDBRANCH   6   7
ENDBRANCH   5   6
ENDBRANCH   4   5
ENDBRANCH   3   4
ENDBRANCH   2   3
ENDBRANCH   1   2
BRANCH   1  11
ATOM     11  C   UNL     1      12.988  -5.061  15.078  1.00  0.00    -0.031 C 
ATOM     12  C   UNL     1      11.796  -5.176  15.692  1.00  0.00    -0.027 C 
BRANCH  12  13
ATOM     13  C   UNL     1      11.587  -5.115  17.186  1.00  0.00     0.054 C 
BRANCH  13  14
ATOM     14  C   UNL     1      11.131  -6.445  17.732  1.00  0.00    -0.027 C 
ATOM     15  C   UNL     1      11.948  -7.385  18.245  1.00  0.00    -0.031 C 
BRANCH  15  16
ATOM     16  C   UNL     1      13.434  -7.221  18.430  1.00  0.00     0.027 C 
BRANCH  16  17
ATOM     17  C   UNL     1      13.796  -7.208  19.920  1.00  0.00     0.004 C 
BRANCH  17  18
ATOM     18  C   UNL     1      13.404  -5.871  20.568  1.00  0.00     0.000 C 
BRANCH  18  19
ATOM     19  C   UNL     1      14.401  -5.420  21.645  1.00  0.00    -0.003 C 
ATOM     20  C   UNL     1      14.155  -3.987  22.117  1.00  0.00     0.004 C 
ENDBRANCH  18  19
ENDBRANCH  17  18
ENDBRANCH  16  17
ENDBRANCH  15  16
ENDBRANCH  13  14
ENDBRANCH  12  13
ENDBRANCH   1  11
TORSDOF 14
ENDMDL
MODEL 7
REMARK VINA RESULT:    -4.106      1.760      2.472
REMARK INTER + INTRA:         -10.274
REMARK INTER:                  -7.511
REMARK INTRA:                  -2.764
REMARK UNBOUND:                -2.807
REMARK SMILES CCCCCC=CCC=CCCCCCCCC(=O)[O-]
REMARK SMILES IDX 11 1 12 2 13 3 14 4 15 5 16 6 17 7 18 8 19 9 20 10 10 11
REMARK SMILES IDX 9 12 8 13 7 14 6 15 5 16 4 17 3 18 2 19 1 20
REMARK H PARENT
REMARK Flexibility Score: inf
ROOT
ATOM      1  C   UNL     1       7.376  -7.833   8.260  1.00  0.00     0.027 C 
ENDROOT
BRANCH   1   2
ATOM      2  C   UNL     1       7.301  -8.801   7.062  1.00  0.00     0.004 C 
BRANCH   2   3
ATOM      3  C   UNL     1       7.283  -8.095   5.696  1.00  0.00     0.000 C 
BRANCH   3   4
ATOM      4  C   UNL     1       5.924  -8.211   4.986  1.00  0.00     0.000 C 
BRANCH   4   5
ATOM      5  C   UNL     1       5.274  -9.597   5.156  1.00  0.00     0.000 C 
BRANCH   5   6
ATOM      6  C   UNL     1       3.822  -9.589   5.675  1.00  0.00     0.006 C 
BRANCH   6   7
ATOM      7  C   UNL     1       3.307  -8.198   6.090  1.00  0.00     0.053 C 
BRANCH   7   8
ATOM      8  C   UNL     1       3.210  -8.047   7.579  1.00  0.00     0.041 C 
ATOM      9  O   UNL     1       3.909  -8.769   8.339  1.00  0.00    -0.550 OA
ATOM     10  O   UNL     1       2.375  -7.081   8.128  1.00  0.00    -0.550 OA
ENDBRANCH   7   8
ENDBRANCH   6   7
ENDBRANCH   5   6
ENDBRANCH   4   5
ENDBRANCH   3   4
ENDBRANCH   2   3
ENDBRANCH   1   2
BRANCH   1  11
ATOM     11  C   UNL     1       8.748  -7.224   8.414  1.00  0.00    -0.031 C 
ATOM     12  C   UNL     1       9.056  -5.949   8.111  1.00  0.00    -0.027 C 
BRANCH  12  13
ATOM     13  C   UNL     1       8.068  -4.917   7.625  1.00  0.00     0.054 C 
BRANCH  13  14
ATOM     14  C   UNL     1       7.519  -4.100   8.768  1.00  0.00    -0.027 C 
ATOM     15  C   UNL     1       6.228  -4.087   9.152  1.00  0.00    -0.031 C 
BRANCH  15  16
ATOM     16  C   UNL     1       5.147  -4.949   8.553  1.00  0.00     0.027 C 
BRANCH  16  17
ATOM     17  C   UNL     1       4.348  -4.164   7.505  1.00  0.00     0.004 C 
BRANCH  17  18
ATOM     18  C   UNL     1       4.545  -4.763   6.104  1.00  0.00     0.000 C 
BRANCH  18  19
ATOM     19  C   UNL     1       4.916  -3.704   5.055  1.00  0.00    -0.003 C 
ATOM     20  C   UNL     1       5.514  -2.441   5.673  1.00  0.00     0.004 C 
ENDBRANCH  18  19
ENDBRANCH  17  18
ENDBRANCH  16  17
ENDBRANCH  15  16
ENDBRANCH  13  14
ENDBRANCH  12  13
ENDBRANCH   1  11
TORSDOF 14
ENDMDL
MODEL 8
REMARK VINA RESULT:    -4.081     11.060     13.921
REMARK INTER + INTRA:         -10.229
REMARK INTER:                  -7.128
REMARK INTRA:                  -3.101
REMARK UNBOUND:                -2.807
REMARK SMILES CCCCCC=CCC=CCCCCCCCC(=O)[O-]
REMARK SMILES IDX 11 1 12 2 13 3 14 4 15 5 16 6 17 7 18 8 19 9 20 10 10 11
REMARK SMILES IDX 9 12 8 13 7 14 6 15 5 16 4 17 3 18 2 19 1 20
REMARK H PARENT
REMARK Flexibility Score: inf
ROOT
ATOM      1  C   UNL     1      13.776  -4.907  20.238  1.00  0.00     0.027 C 
ENDROOT
BRANCH   1   2
ATOM      2  C   UNL     1      15.116  -4.385  19.679  1.00  0.00     0.004 C 
BRANCH   2   3
ATOM      3  C   UNL     1      14.985  -3.076  18.883  1.00  0.00     0.000 C 
BRANCH   3   4
ATOM      4  C   UNL     1      15.705  -3.132  17.526  1.00  0.00     0.000 C 
BRANCH   4   5
ATOM      5  C   UNL     1      15.923  -4.571  17.021  1.00  0.00     0.000 C 
BRANCH   5   6
ATOM      6  C   UNL     1      15.154  -4.947  15.738  1.00  0.00     0.006 C 
BRANCH   6   7
ATOM      7  C   UNL     1      13.754  -4.311  15.631  1.00  0.00     0.053 C 
BRANCH   7   8
ATOM      8  C   UNL     1      12.823  -5.125  14.783  1.00  0.00     0.041 C 
ATOM      9  O   UNL     1      11.635  -5.326  15.155  1.00  0.00    -0.550 OA
ATOM     10  O   UNL     1      13.254  -5.631  13.562  1.00  0.00    -0.550 OA
ENDBRANCH   7   8
ENDBRANCH   6   7
ENDBRANCH   5   6
ENDBRANCH   4   5
ENDBRANCH   3   4
ENDBRANCH   2   3
ENDBRANCH   1   2
BRANCH   1  11
ATOM     11  C   UNL     1      12.667  -4.836  19.217  1.00  0.00    -0.031 C 
ATOM     12  C   UNL     1      12.208  -5.888  18.514  1.00  0.00    -0.027 C 
BRANCH  12  13
ATOM     13  C   UNL     1      12.690  -7.309  18.678  1.00  0.00     0.054 C 
BRANCH  13  14
ATOM     14  C   UNL     1      13.526  -7.746  17.502  1.00  0.00    -0.027 C 
ATOM     15  C   UNL     1      14.847  -8.006  17.553  1.00  0.00    -0.031 C 
BRANCH  15  16
ATOM     16  C   UNL     1      15.677  -7.980  18.810  1.00  0.00     0.027 C 
BRANCH  16  17
ATOM     17  C   UNL     1      17.168  -7.855  18.471  1.00  0.00     0.004 C 
BRANCH  17  18
ATOM     18  C   UNL     1      17.388  -7.877  16.951  1.00  0.00     0.000 C 
BRANCH  18  19
ATOM     19  C   UNL     1      18.275  -9.047  16.499  1.00  0.00    -0.003 C 
ATOM     20  C   UNL     1      18.161 -10.266  17.414  1.00  0.00     0.004 C 
ENDBRANCH  18  19
ENDBRANCH  17  18
ENDBRANCH  16  17
ENDBRANCH  15  16
ENDBRANCH  13  14
ENDBRANCH  12  13
ENDBRANCH   1  11
TORSDOF 14
ENDMDL
MODEL 9
REMARK VINA RESULT:    -4.075     11.991     14.531
REMARK INTER + INTRA:         -10.216
REMARK INTER:                  -7.048
REMARK INTRA:                  -3.169
REMARK UNBOUND:                -2.807
REMARK SMILES CCCCCC=CCC=CCCCCCCCC(=O)[O-]
REMARK SMILES IDX 11 1 12 2 13 3 14 4 15 5 16 6 17 7 18 8 19 9 20 10 10 11
REMARK SMILES IDX 9 12 8 13 7 14 6 15 5 16 4 17 3 18 2 19 1 20
REMARK H PARENT
REMARK Flexibility Score: inf
ROOT
ATOM      1  C   UNL     1      15.060  -3.103  19.661  1.00  0.00     0.027 C 
ENDROOT
BRANCH   1   2
ATOM      2  C   UNL     1      14.913  -4.302  20.620  1.00  0.00     0.004 C 
BRANCH   2   3
ATOM      3  C   UNL     1      16.130  -5.243  20.626  1.00  0.00     0.000 C 
BRANCH   3   4
ATOM      4  C   UNL     1      17.306  -4.697  19.801  1.00  0.00     0.000 C 
BRANCH   4   5
ATOM      5  C   UNL     1      17.844  -5.712  18.776  1.00  0.00     0.000 C 
BRANCH   5   6
ATOM      6  C   UNL     1      17.505  -7.189  19.067  1.00  0.00     0.006 C 
BRANCH   6   7
ATOM      7  C   UNL     1      17.069  -7.993  17.827  1.00  0.00     0.053 C 
BRANCH   7   8
ATOM      8  C   UNL     1      17.893  -7.666  16.617  1.00  0.00     0.041 C 
ATOM      9  O   UNL     1      19.086  -8.062  16.534  1.00  0.00    -0.550 OA
ATOM     10  O   UNL     1      17.330  -6.956  15.563  1.00  0.00    -0.550 OA
ENDBRANCH   7   8
ENDBRANCH   6   7
ENDBRANCH   5   6
ENDBRANCH   4   5
ENDBRANCH   3   4
ENDBRANCH   2   3
ENDBRANCH   1   2
BRANCH   1  11
ATOM     11  C   UNL     1      13.905  -3.003  18.694  1.00  0.00    -0.031 C 
ATOM     12  C   UNL     1      13.816  -3.686  17.538  1.00  0.00    -0.027 C 
BRANCH  12  13
ATOM     13  C   UNL     1      14.825  -4.699  17.057  1.00  0.00     0.054 C 
BRANCH  13  14
ATOM     14  C   UNL     1      14.151  -5.886  16.414  1.00  0.00    -0.027 C 
ATOM     15  C   UNL     1      13.623  -6.926  17.087  1.00  0.00    -0.031 C 
BRANCH  15  16
ATOM     16  C   UNL     1      13.549  -7.027  18.589  1.00  0.00     0.027 C 
BRANCH  16  17
ATOM     17  C   UNL     1      12.183  -6.549  19.097  1.00  0.00     0.004 C 
BRANCH  17  18
ATOM     18  C   UNL     1      11.092  -6.790  18.044  1.00  0.00     0.000 C 
BRANCH  18  19
ATOM     19  C   UNL     1      10.337  -5.505  17.669  1.00  0.00    -0.003 C 
ATOM     20  C   UNL     1      10.489  -5.138  16.194  1.00  0.00     0.004 C 
ENDBRANCH  18  19
ENDBRANCH  17  18
ENDBRANCH  16  17
ENDBRANCH  15  16
ENDBRANCH  13  14
ENDBRANCH  12  13
ENDBRANCH   1  11
TORSDOF 14
ENDMDL
