MODEL 1
REMARK VINA RESULT:    -4.939      0.000      0.000
REMARK INTER + INTRA:          -8.410
REMARK INTER:                  -7.538
REMARK INTRA:                  -0.872
REMARK UNBOUND:                -0.872
REMARK SMILES CC(=O)CCC=C(C)CCC=C(C)CCC=C(C)C
REMARK SMILES IDX 10 1 11 2 12 3 13 4 14 5 15 6 16 7 18 8 17 9 19 10 9 11 7 12
REMARK SMILES IDX 6 13 8 14 5 15 4 16 2 17 3 18 1 19
REMARK H PARENT
REMARK Flexibility Score: inf
ROOT
ATOM      1  C   UNL     1      28.125  35.495  20.385  1.00  0.00     0.032 C 
ENDROOT
BRANCH   1   2
ATOM      2  C   UNL     1      28.076  35.104  21.845  1.00  0.00    -0.028 C 
ATOM      3  C   UNL     1      28.501  33.910  22.329  1.00  0.00    -0.077 C 
ATOM      4  C   UNL     1      29.101  32.855  21.413  1.00  0.00     0.039 C 
BRANCH   3   5
ATOM      5  C   UNL     1      28.306  33.582  23.803  1.00  0.00     0.034 C 
BRANCH   5   6
ATOM      6  C   UNL     1      28.952  32.233  24.199  1.00  0.00     0.032 C 
BRANCH   6   7
ATOM      7  C   UNL     1      27.898  31.225  24.592  1.00  0.00    -0.028 C 
ATOM      8  C   UNL     1      28.680  29.531  22.891  1.00  0.00     0.039 C 
ATOM      9  C   UNL     1      27.733  30.023  23.976  1.00  0.00    -0.080 C 
ATOM     10  C   UNL     1      26.622  29.120  24.445  1.00  0.00     0.039 C 
ENDBRANCH   6   7
ENDBRANCH   5   6
ENDBRANCH   3   5
ENDBRANCH   1   2
BRANCH   1  11
ATOM     11  C   UNL     1      28.017  37.012  20.249  1.00  0.00     0.034 C 
BRANCH  11  12
ATOM     12  C   UNL     1      26.833  37.398  19.380  1.00  0.00    -0.077 C 
ATOM     13  C   UNL     1      26.712  38.613  18.791  1.00  0.00    -0.028 C 
ATOM     14  C   UNL     1      25.779  36.350  19.084  1.00  0.00     0.039 C 
BRANCH  13  15
ATOM     15  C   UNL     1      27.695  39.754  18.946  1.00  0.00     0.035 C 
BRANCH  15  16
ATOM     16  C   UNL     1      27.017  41.054  19.398  1.00  0.00     0.079 C 
BRANCH  16  17
ATOM     17  C   UNL     1      27.552  42.261  18.667  1.00  0.00     0.130 C 
ATOM     18  O   UNL     1      28.518  42.144  17.924  1.00  0.00    -0.300 OA
ATOM     19  C   UNL     1      26.871  43.595  18.801  1.00  0.00     0.087 C 
ENDBRANCH  16  17
ENDBRANCH  15  16
ENDBRANCH  13  15
ENDBRANCH  11  12
ENDBRANCH   1  11
TORSDOF 9
ENDMDL
MODEL 2
REMARK VINA RESULT:    -4.900      2.676      3.629
REMARK INTER + INTRA:          -8.350
REMARK INTER:                  -7.437
REMARK INTRA:                  -0.913
REMARK UNBOUND:                -0.872
REMARK SMILES CC(=O)CCC=C(C)CCC=C(C)CCC=C(C)C
REMARK SMILES IDX 10 1 11 2 12 3 13 4 14 5 15 6 16 7 18 8 17 9 19 10 9 11 7 12
REMARK SMILES IDX 6 13 8 14 5 15 4 16 2 17 3 18 1 19
REMARK H PARENT
REMARK Flexibility Score: inf
ROOT
ATOM      1  C   UNL     1      28.357  35.800  21.128  1.00  0.00     0.032 C 
ENDROOT
BRANCH   1   2
ATOM      2  C   UNL     1      28.622  34.359  21.499  1.00  0.00    -0.028 C 
ATOM      3  C   UNL     1      28.339  33.819  22.710  1.00  0.00    -0.077 C 
ATOM      4  C   UNL     1      27.687  34.644  23.810  1.00  0.00     0.039 C 
BRANCH   3   5
ATOM      5  C   UNL     1      28.748  32.383  23.010  1.00  0.00     0.034 C 
BRANCH   5   6
ATOM      6  C   UNL     1      28.566  32.016  24.502  1.00  0.00     0.032 C 
BRANCH   6   7
ATOM      7  C   UNL     1      27.544  30.917  24.666  1.00  0.00    -0.028 C 
ATOM      8  C   UNL     1      28.634  30.019  26.759  1.00  0.00     0.039 C 
ATOM      9  C   UNL     1      27.592  29.979  25.651  1.00  0.00    -0.080 C 
ATOM     10  C   UNL     1      26.525  28.915  25.685  1.00  0.00     0.039 C 
ENDBRANCH   6   7
ENDBRANCH   5   6
ENDBRANCH   3   5
ENDBRANCH   1   2
BRANCH   1  11
ATOM     11  C   UNL     1      28.197  35.927  19.614  1.00  0.00     0.034 C 
BRANCH  11  12
ATOM     12  C   UNL     1      27.497  37.223  19.247  1.00  0.00    -0.077 C 
ATOM     13  C   UNL     1      26.150  37.332  19.135  1.00  0.00    -0.028 C 
ATOM     14  C   UNL     1      28.332  38.477  19.082  1.00  0.00     0.039 C 
BRANCH  13  15
ATOM     15  C   UNL     1      25.170  36.191  19.312  1.00  0.00     0.035 C 
BRANCH  15  16
ATOM     16  C   UNL     1      23.874  36.634  20.004  1.00  0.00     0.079 C 
BRANCH  16  17
ATOM     17  C   UNL     1      24.129  37.231  21.366  1.00  0.00     0.130 C 
ATOM     18  O   UNL     1      24.811  36.622  22.179  1.00  0.00    -0.300 OA
ATOM     19  C   UNL     1      23.599  38.596  21.708  1.00  0.00     0.087 C 
ENDBRANCH  16  17
ENDBRANCH  15  16
ENDBRANCH  13  15
ENDBRANCH  11  12
ENDBRANCH   1  11
TORSDOF 9
ENDMDL
MODEL 3
REMARK VINA RESULT:    -4.855      3.574      9.186
REMARK INTER + INTRA:          -8.282
REMARK INTER:                  -6.977
REMARK INTRA:                  -1.305
REMARK UNBOUND:                -0.872
REMARK SMILES CC(=O)CCC=C(C)CCC=C(C)CCC=C(C)C
REMARK SMILES IDX 10 1 11 2 12 3 13 4 14 5 15 6 16 7 18 8 17 9 19 10 9 11 7 12
REMARK SMILES IDX 6 13 8 14 5 15 4 16 2 17 3 18 1 19
REMARK H PARENT
REMARK Flexibility Score: inf
ROOT
ATOM      1  C   UNL     1      28.506  34.652  20.958  1.00  0.00     0.032 C 
ENDROOT
BRANCH   1   2
ATOM      2  C   UNL     1      28.715  36.013  20.333  1.00  0.00    -0.028 C 
ATOM      3  C   UNL     1      27.787  36.660  19.585  1.00  0.00    -0.077 C 
ATOM      4  C   UNL     1      26.413  36.055  19.335  1.00  0.00     0.039 C 
BRANCH   3   5
ATOM      5  C   UNL     1      28.144  37.980  18.915  1.00  0.00     0.034 C 
BRANCH   5   6
ATOM      6  C   UNL     1      26.906  38.878  18.681  1.00  0.00     0.032 C 
BRANCH   6   7
ATOM      7  C   UNL     1      26.922  40.070  19.609  1.00  0.00    -0.028 C 
ATOM      8  C   UNL     1      25.290  39.016  21.222  1.00  0.00     0.039 C 
ATOM      9  C   UNL     1      26.159  40.165  20.732  1.00  0.00    -0.080 C 
ATOM     10  C   UNL     1      26.245  41.424  21.556  1.00  0.00     0.039 C 
ENDBRANCH   6   7
ENDBRANCH   5   6
ENDBRANCH   3   5
ENDBRANCH   1   2
BRANCH   1  11
ATOM     11  C   UNL     1      29.060  34.642  22.381  1.00  0.00     0.034 C 
BRANCH  11  12
ATOM     12  C   UNL     1      27.953  34.414  23.395  1.00  0.00    -0.077 C 
ATOM     13  C   UNL     1      27.903  33.329  24.206  1.00  0.00    -0.028 C 
ATOM     14  C   UNL     1      26.900  35.490  23.573  1.00  0.00     0.039 C 
BRANCH  13  15
ATOM     15  C   UNL     1      28.897  32.187  24.189  1.00  0.00     0.035 C 
BRANCH  15  16
ATOM     16  C   UNL     1      28.240  30.844  23.844  1.00  0.00     0.079 C 
BRANCH  16  17
ATOM     17  C   UNL     1      27.512  30.246  25.023  1.00  0.00     0.130 C 
ATOM     18  O   UNL     1      27.986  30.348  26.146  1.00  0.00    -0.300 OA
ATOM     19  C   UNL     1      26.179  29.577  24.832  1.00  0.00     0.087 C 
ENDBRANCH  16  17
ENDBRANCH  15  16
ENDBRANCH  13  15
ENDBRANCH  11  12
ENDBRANCH   1  11
TORSDOF 9
ENDMDL
MODEL 4
REMARK VINA RESULT:    -4.731      3.378      8.689
REMARK INTER + INTRA:          -8.093
REMARK INTER:                  -6.098
REMARK INTRA:                  -1.995
REMARK UNBOUND:                -0.872
REMARK SMILES CC(=O)CCC=C(C)CCC=C(C)CCC=C(C)C
REMARK SMILES IDX 10 1 11 2 12 3 13 4 14 5 15 6 16 7 18 8 17 9 19 10 9 11 7 12
REMARK SMILES IDX 6 13 8 14 5 15 4 16 2 17 3 18 1 19
REMARK H PARENT
REMARK Flexibility Score: inf
ROOT
ATOM      1  C   UNL     1      25.449  38.603  20.807  1.00  0.00     0.032 C 
ENDROOT
BRANCH   1   2
ATOM      2  C   UNL     1      26.786  39.246  21.101  1.00  0.00    -0.028 C 
ATOM      3  C   UNL     1      27.677  39.621  20.150  1.00  0.00    -0.077 C 
ATOM      4  C   UNL     1      27.375  39.443  18.670  1.00  0.00     0.039 C 
BRANCH   3   5
ATOM      5  C   UNL     1      29.039  40.161  20.564  1.00  0.00     0.034 C 
BRANCH   5   6
ATOM      6  C   UNL     1      28.961  41.605  21.113  1.00  0.00     0.032 C 
BRANCH   6   7
ATOM      7  C   UNL     1      28.522  42.569  20.036  1.00  0.00    -0.028 C 
ATOM      8  C   UNL     1      26.256  42.935  21.087  1.00  0.00     0.039 C 
ATOM      9  C   UNL     1      27.287  43.136  19.985  1.00  0.00    -0.080 C 
ATOM     10  C   UNL     1      26.964  44.058  18.838  1.00  0.00     0.039 C 
ENDBRANCH   6   7
ENDBRANCH   5   6
ENDBRANCH   3   5
ENDBRANCH   1   2
BRANCH   1  11
ATOM     11  C   UNL     1      25.536  37.095  21.029  1.00  0.00     0.034 C 
BRANCH  11  12
ATOM     12  C   UNL     1      25.824  36.367  19.728  1.00  0.00    -0.077 C 
ATOM     13  C   UNL     1      27.027  35.812  19.440  1.00  0.00    -0.028 C 
ATOM     14  C   UNL     1      24.692  36.176  18.739  1.00  0.00     0.039 C 
BRANCH  13  15
ATOM     15  C   UNL     1      28.247  35.873  20.336  1.00  0.00     0.035 C 
BRANCH  15  16
ATOM     16  C   UNL     1      28.976  34.526  20.425  1.00  0.00     0.079 C 
BRANCH  16  17
ATOM     17  C   UNL     1      28.648  33.782  21.696  1.00  0.00     0.130 C 
ATOM     18  O   UNL     1      28.747  32.563  21.730  1.00  0.00    -0.300 OA
ATOM     19  C   UNL     1      28.255  34.535  22.937  1.00  0.00     0.087 C 
ENDBRANCH  16  17
ENDBRANCH  15  16
ENDBRANCH  13  15
ENDBRANCH  11  12
ENDBRANCH   1  11
TORSDOF 9
ENDMDL
MODEL 5
REMARK VINA RESULT:    -4.716      4.630     10.190
REMARK INTER + INTRA:          -8.070
REMARK INTER:                  -7.348
REMARK INTRA:                  -0.722
REMARK UNBOUND:                -0.872
REMARK SMILES CC(=O)CCC=C(C)CCC=C(C)CCC=C(C)C
REMARK SMILES IDX 10 1 11 2 12 3 13 4 14 5 15 6 16 7 18 8 17 9 19 10 9 11 7 12
REMARK SMILES IDX 6 13 8 14 5 15 4 16 2 17 3 18 1 19
REMARK H PARENT
REMARK Flexibility Score: inf
ROOT
ATOM      1  C   UNL     1      28.187  32.169  24.081  1.00  0.00     0.032 C 
ENDROOT
BRANCH   1   2
ATOM      2  C   UNL     1      28.664  32.406  22.665  1.00  0.00    -0.028 C 
ATOM      3  C   UNL     1      28.672  33.617  22.056  1.00  0.00    -0.077 C 
ATOM      4  C   UNL     1      28.213  34.871  22.785  1.00  0.00     0.039 C 
BRANCH   3   5
ATOM      5  C   UNL     1      29.073  33.722  20.590  1.00  0.00     0.034 C 
BRANCH   5   6
ATOM      6  C   UNL     1      27.962  34.353  19.717  1.00  0.00     0.032 C 
BRANCH   6   7
ATOM      7  C   UNL     1      28.300  35.782  19.364  1.00  0.00    -0.028 C 
ATOM      8  C   UNL     1      25.938  36.586  19.751  1.00  0.00     0.039 C 
ATOM      9  C   UNL     1      27.386  36.789  19.327  1.00  0.00    -0.080 C 
ATOM     10  C   UNL     1      27.848  38.166  18.928  1.00  0.00     0.039 C 
ENDBRANCH   6   7
ENDBRANCH   5   6
ENDBRANCH   3   5
ENDBRANCH   1   2
BRANCH   1  11
ATOM     11  C   UNL     1      28.783  30.871  24.620  1.00  0.00     0.034 C 
BRANCH  11  12
ATOM     12  C   UNL     1      28.218  29.666  23.888  1.00  0.00    -0.077 C 
ATOM     13  C   UNL     1      27.047  29.074  24.229  1.00  0.00    -0.028 C 
ATOM     14  C   UNL     1      28.950  29.153  22.665  1.00  0.00     0.039 C 
BRANCH  13  15
ATOM     15  C   UNL     1      26.172  29.490  25.393  1.00  0.00     0.035 C 
BRANCH  15  16
ATOM     16  C   UNL     1      26.445  28.661  26.656  1.00  0.00     0.079 C 
BRANCH  16  17
ATOM     17  C   UNL     1      25.173  28.166  27.299  1.00  0.00     0.130 C 
ATOM     18  O   UNL     1      25.103  27.012  27.699  1.00  0.00    -0.300 OA
ATOM     19  C   UNL     1      24.011  29.099  27.503  1.00  0.00     0.087 C 
ENDBRANCH  16  17
ENDBRANCH  15  16
ENDBRANCH  13  15
ENDBRANCH  11  12
ENDBRANCH   1  11
TORSDOF 9
ENDMDL
MODEL 6
REMARK VINA RESULT:    -4.656      1.580      2.052
REMARK INTER + INTRA:          -7.978
REMARK INTER:                  -6.908
REMARK INTRA:                  -1.070
REMARK UNBOUND:                -0.872
REMARK SMILES CC(=O)CCC=C(C)CCC=C(C)CCC=C(C)C
REMARK SMILES IDX 10 1 11 2 12 3 13 4 14 5 15 6 16 7 18 8 17 9 19 10 9 11 7 12
REMARK SMILES IDX 6 13 8 14 5 15 4 16 2 17 3 18 1 19
REMARK H PARENT
REMARK Flexibility Score: inf
ROOT
ATOM      1  C   UNL     1      26.862  36.407  21.461  1.00  0.00     0.032 C 
ENDROOT
BRANCH   1   2
ATOM      2  C   UNL     1      27.797  35.445  22.158  1.00  0.00    -0.028 C 
ATOM      3  C   UNL     1      27.639  35.017  23.434  1.00  0.00    -0.077 C 
ATOM      4  C   UNL     1      26.454  35.467  24.277  1.00  0.00     0.039 C 
BRANCH   3   5
ATOM      5  C   UNL     1      28.702  34.131  24.071  1.00  0.00     0.034 C 
BRANCH   5   6
ATOM      6  C   UNL     1      28.739  32.714  23.452  1.00  0.00     0.032 C 
BRANCH   6   7
ATOM      7  C   UNL     1      27.978  31.731  24.309  1.00  0.00    -0.028 C 
ATOM      8  C   UNL     1      28.693  29.748  22.919  1.00  0.00     0.039 C 
ATOM      9  C   UNL     1      27.908  30.397  24.050  1.00  0.00    -0.080 C 
ATOM     10  C   UNL     1      27.088  29.527  24.968  1.00  0.00     0.039 C 
ENDBRANCH   6   7
ENDBRANCH   5   6
ENDBRANCH   3   5
ENDBRANCH   1   2
BRANCH   1  11
ATOM     11  C   UNL     1      27.586  37.091  20.304  1.00  0.00     0.034 C 
BRANCH  11  12
ATOM     12  C   UNL     1      26.620  37.441  19.186  1.00  0.00    -0.077 C 
ATOM     13  C   UNL     1      26.706  38.584  18.463  1.00  0.00    -0.028 C 
ATOM     14  C   UNL     1      25.562  36.427  18.799  1.00  0.00     0.039 C 
BRANCH  13  15
ATOM     15  C   UNL     1      27.728  39.679  18.689  1.00  0.00     0.035 C 
BRANCH  15  16
ATOM     16  C   UNL     1      27.128  40.907  19.386  1.00  0.00     0.079 C 
BRANCH  16  17
ATOM     17  C   UNL     1      26.995  40.709  20.876  1.00  0.00     0.130 C 
ATOM     18  O   UNL     1      25.899  40.468  21.362  1.00  0.00    -0.300 OA
ATOM     19  C   UNL     1      28.211  40.751  21.759  1.00  0.00     0.087 C 
ENDBRANCH  16  17
ENDBRANCH  15  16
ENDBRANCH  13  15
ENDBRANCH  11  12
ENDBRANCH   1  11
TORSDOF 9
ENDMDL
MODEL 7
REMARK VINA RESULT:    -4.637      5.163     11.104
REMARK INTER + INTRA:          -7.949
REMARK INTER:                  -7.050
REMARK INTRA:                  -0.899
REMARK UNBOUND:                -0.872
REMARK SMILES CC(=O)CCC=C(C)CCC=C(C)CCC=C(C)C
REMARK SMILES IDX 10 1 11 2 12 3 13 4 14 5 15 6 16 7 18 8 17 9 19 10 9 11 7 12
REMARK SMILES IDX 6 13 8 14 5 15 4 16 2 17 3 18 1 19
REMARK H PARENT
REMARK Flexibility Score: inf
ROOT
ATOM      1  C   UNL     1      28.098  31.781  24.629  1.00  0.00     0.032 C 
ENDROOT
BRANCH   1   2
ATOM      2  C   UNL     1      28.512  32.036  23.198  1.00  0.00    -0.028 C 
ATOM      3  C   UNL     1      28.478  33.252  22.599  1.00  0.00    -0.077 C 
ATOM      4  C   UNL     1      28.031  34.493  23.357  1.00  0.00     0.039 C 
BRANCH   3   5
ATOM      5  C   UNL     1      28.817  33.374  21.119  1.00  0.00     0.034 C 
BRANCH   5   6
ATOM      6  C   UNL     1      28.893  34.846  20.650  1.00  0.00     0.032 C 
BRANCH   6   7
ATOM      7  C   UNL     1      27.752  35.175  19.716  1.00  0.00    -0.028 C 
ATOM      8  C   UNL     1      27.081  37.225  21.027  1.00  0.00     0.039 C 
ATOM      9  C   UNL     1      26.896  36.215  19.903  1.00  0.00    -0.080 C 
ATOM     10  C   UNL     1      25.779  36.416  18.913  1.00  0.00     0.039 C 
ENDBRANCH   6   7
ENDBRANCH   5   6
ENDBRANCH   3   5
ENDBRANCH   1   2
BRANCH   1  11
ATOM     11  C   UNL     1      27.755  30.305  24.817  1.00  0.00     0.034 C 
BRANCH  11  12
ATOM     12  C   UNL     1      28.462  29.732  26.033  1.00  0.00    -0.077 C 
ATOM     13  C   UNL     1      28.746  28.413  26.171  1.00  0.00    -0.028 C 
ATOM     14  C   UNL     1      28.951  30.686  27.103  1.00  0.00     0.039 C 
BRANCH  13  15
ATOM     15  C   UNL     1      28.369  27.336  25.176  1.00  0.00     0.035 C 
BRANCH  15  16
ATOM     16  C   UNL     1      28.577  25.922  25.737  1.00  0.00     0.079 C 
BRANCH  16  17
ATOM     17  C   UNL     1      27.271  25.235  26.050  1.00  0.00     0.130 C 
ATOM     18  O   UNL     1      26.908  24.282  25.373  1.00  0.00    -0.300 OA
ATOM     19  C   UNL     1      26.441  25.677  27.223  1.00  0.00     0.087 C 
ENDBRANCH  16  17
ENDBRANCH  15  16
ENDBRANCH  13  15
ENDBRANCH  11  12
ENDBRANCH   1  11
TORSDOF 9
ENDMDL
MODEL 8
REMARK VINA RESULT:    -4.510      3.407      9.221
REMARK INTER + INTRA:          -7.755
REMARK INTER:                  -6.477
REMARK INTRA:                  -1.277
REMARK UNBOUND:                -0.872
REMARK SMILES CC(=O)CCC=C(C)CCC=C(C)CCC=C(C)C
REMARK SMILES IDX 10 1 11 2 12 3 13 4 14 5 15 6 16 7 18 8 17 9 19 10 9 11 7 12
REMARK SMILES IDX 6 13 8 14 5 15 4 16 2 17 3 18 1 19
REMARK H PARENT
REMARK Flexibility Score: inf
ROOT
ATOM      1  C   UNL     1      27.608  36.153  21.524  1.00  0.00     0.032 C 
ENDROOT
BRANCH   1   2
ATOM      2  C   UNL     1      27.650  37.239  20.473  1.00  0.00    -0.028 C 
ATOM      3  C   UNL     1      26.655  37.480  19.585  1.00  0.00    -0.077 C 
ATOM      4  C   UNL     1      25.370  36.665  19.599  1.00  0.00     0.039 C 
BRANCH   3   5
ATOM      5  C   UNL     1      26.849  38.530  18.500  1.00  0.00     0.034 C 
BRANCH   5   6
ATOM      6  C   UNL     1      27.936  39.568  18.869  1.00  0.00     0.032 C 
BRANCH   6   7
ATOM      7  C   UNL     1      27.317  40.909  19.184  1.00  0.00    -0.028 C 
ATOM      8  C   UNL     1      27.611  40.619  21.675  1.00  0.00     0.039 C 
ATOM      9  C   UNL     1      27.118  41.372  20.448  1.00  0.00    -0.080 C 
ATOM     10  C   UNL     1      26.461  42.716  20.627  1.00  0.00     0.039 C 
ENDBRANCH   6   7
ENDBRANCH   5   6
ENDBRANCH   3   5
ENDBRANCH   1   2
BRANCH   1  11
ATOM     11  C   UNL     1      28.937  35.401  21.550  1.00  0.00     0.034 C 
BRANCH  11  12
ATOM     12  C   UNL     1      28.761  33.968  21.078  1.00  0.00    -0.077 C 
ATOM     13  C   UNL     1      28.814  32.902  21.914  1.00  0.00    -0.028 C 
ATOM     14  C   UNL     1      28.425  33.720  19.622  1.00  0.00     0.039 C 
BRANCH  13  15
ATOM     15  C   UNL     1      29.095  32.978  23.400  1.00  0.00     0.035 C 
BRANCH  15  16
ATOM     16  C   UNL     1      27.995  32.312  24.239  1.00  0.00     0.079 C 
BRANCH  16  17
ATOM     17  C   UNL     1      28.490  31.078  24.952  1.00  0.00     0.130 C 
ATOM     18  O   UNL     1      28.505  30.003  24.368  1.00  0.00    -0.300 OA
ATOM     19  C   UNL     1      29.018  31.172  26.356  1.00  0.00     0.087 C 
ENDBRANCH  16  17
ENDBRANCH  15  16
ENDBRANCH  13  15
ENDBRANCH  11  12
ENDBRANCH   1  11
TORSDOF 9
ENDMDL
MODEL 9
REMARK VINA RESULT:    -4.413      6.108     12.206
REMARK INTER + INTRA:          -7.607
REMARK INTER:                  -6.674
REMARK INTRA:                  -0.933
REMARK UNBOUND:                -0.872
REMARK SMILES CC(=O)CCC=C(C)CCC=C(C)CCC=C(C)C
REMARK SMILES IDX 10 1 11 2 12 3 13 4 14 5 15 6 16 7 18 8 17 9 19 10 9 11 7 12
REMARK SMILES IDX 6 13 8 14 5 15 4 16 2 17 3 18 1 19
REMARK H PARENT
REMARK Flexibility Score: inf
ROOT
ATOM      1  C   UNL     1      28.379  26.910  25.959  1.00  0.00     0.032 C 
ENDROOT
BRANCH   1   2
ATOM      2  C   UNL     1      28.546  27.914  24.840  1.00  0.00    -0.028 C 
ATOM      3  C   UNL     1      28.369  29.250  24.983  1.00  0.00    -0.077 C 
ATOM      4  C   UNL     1      28.004  29.860  26.328  1.00  0.00     0.039 C 
BRANCH   3   5
ATOM      5  C   UNL     1      28.458  30.158  23.763  1.00  0.00     0.034 C 
BRANCH   5   6
ATOM      6  C   UNL     1      28.510  31.656  24.143  1.00  0.00     0.032 C 
BRANCH   6   7
ATOM      7  C   UNL     1      28.765  32.513  22.926  1.00  0.00    -0.028 C 
ATOM      8  C   UNL     1      27.629  34.531  23.932  1.00  0.00     0.039 C 
ATOM      9  C   UNL     1      28.329  33.796  22.798  1.00  0.00    -0.080 C 
ATOM     10  C   UNL     1      28.624  34.532  21.517  1.00  0.00     0.039 C 
ENDBRANCH   6   7
ENDBRANCH   5   6
ENDBRANCH   3   5
ENDBRANCH   1   2
BRANCH   1  11
ATOM     11  C   UNL     1      26.941  26.397  25.988  1.00  0.00     0.034 C 
BRANCH  11  12
ATOM     12  C   UNL     1      26.893  24.931  26.379  1.00  0.00    -0.077 C 
ATOM     13  C   UNL     1      26.164  24.467  27.424  1.00  0.00    -0.028 C 
ATOM     14  C   UNL     1      27.622  23.925  25.512  1.00  0.00     0.039 C 
BRANCH  13  15
ATOM     15  C   UNL     1      25.344  25.329  28.361  1.00  0.00     0.035 C 
BRANCH  15  16
ATOM     16  C   UNL     1      23.911  25.544  27.856  1.00  0.00     0.079 C 
BRANCH  16  17
ATOM     17  C   UNL     1      23.408  26.937  28.145  1.00  0.00     0.130 C 
ATOM     18  O   UNL     1      22.307  27.092  28.657  1.00  0.00    -0.300 OA
ATOM     19  C   UNL     1      24.273  28.132  27.859  1.00  0.00     0.087 C 
ENDBRANCH  16  17
ENDBRANCH  15  16
ENDBRANCH  13  15
ENDBRANCH  11  12
ENDBRANCH   1  11
TORSDOF 9
ENDMDL
