MODEL 1
REMARK VINA RESULT:    -3.200      0.000      0.000
REMARK INTER + INTRA:          -3.842
REMARK INTER:                  -3.761
REMARK INTRA:                  -0.081
REMARK UNBOUND:                -0.081
REMARK SMILES O=C([O-])CCC(=O)[O-]
REMARK SMILES IDX 4 1 2 2 1 3 3 4 5 5 6 6 7 7 8 8
REMARK H PARENT
REMARK Flexibility Score: inf
ROOT
ATOM      1  C   UNL     1      28.169  29.289 -12.214  1.00  0.00     0.059 C 
ENDROOT
BRANCH   1   2
ATOM      2  C   UNL     1      28.232  29.808 -10.811  1.00  0.00     0.042 C 
ATOM      3  O   UNL     1      28.780  30.915 -10.570  1.00  0.00    -0.550 OA
ATOM      4  O   UNL     1      27.731  29.043  -9.765  1.00  0.00    -0.550 OA
ENDBRANCH   1   2
BRANCH   1   5
ATOM      5  C   UNL     1      28.369  30.428 -13.215  1.00  0.00     0.059 C 
BRANCH   5   6
ATOM      6  C   UNL     1      27.147  30.602 -14.060  1.00  0.00     0.042 C 
ATOM      7  O   UNL     1      27.092  30.088 -15.208  1.00  0.00    -0.550 OA
ATOM      8  O   UNL     1      26.048  31.291 -13.560  1.00  0.00    -0.550 OA
ENDBRANCH   5   6
ENDBRANCH   1   5
TORSDOF 3
ENDMDL
MODEL 2
REMARK VINA RESULT:    -3.167      0.158      3.893
REMARK INTER + INTRA:          -3.804
REMARK INTER:                  -3.706
REMARK INTRA:                  -0.098
REMARK UNBOUND:                -0.081
REMARK SMILES O=C([O-])CCC(=O)[O-]
REMARK SMILES IDX 4 1 2 2 1 3 3 4 5 5 6 6 7 7 8 8
REMARK H PARENT
REMARK Flexibility Score: inf
ROOT
ATOM      1  C   UNL     1      28.407  30.450 -13.151  1.00  0.00     0.059 C 
ENDROOT
BRANCH   1   2
ATOM      2  C   UNL     1      27.166  30.574 -13.977  1.00  0.00     0.042 C 
ATOM      3  O   UNL     1      27.146  30.143 -15.159  1.00  0.00    -0.550 OA
ATOM      4  O   UNL     1      26.046  31.213 -13.457  1.00  0.00    -0.550 OA
ENDBRANCH   1   2
BRANCH   1   5
ATOM      5  C   UNL     1      28.290  29.271 -12.184  1.00  0.00     0.059 C 
BRANCH   5   6
ATOM      6  C   UNL     1      28.137  29.760 -10.778  1.00  0.00     0.042 C 
ATOM      7  O   UNL     1      28.514  30.920 -10.467  1.00  0.00    -0.550 OA
ATOM      8  O   UNL     1      27.533  28.952  -9.822  1.00  0.00    -0.550 OA
ENDBRANCH   5   6
ENDBRANCH   1   5
TORSDOF 3
ENDMDL
MODEL 3
REMARK VINA RESULT:    -3.137      0.172      3.974
REMARK INTER + INTRA:          -3.768
REMARK INTER:                  -3.699
REMARK INTRA:                  -0.068
REMARK UNBOUND:                -0.081
REMARK SMILES O=C([O-])CCC(=O)[O-]
REMARK SMILES IDX 4 1 2 2 1 3 3 4 5 5 6 6 7 7 8 8
REMARK H PARENT
REMARK Flexibility Score: inf
ROOT
ATOM      1  C   UNL     1      28.253  30.409 -13.243  1.00  0.00     0.059 C 
ENDROOT
BRANCH   1   2
ATOM      2  C   UNL     1      27.080  30.610 -14.150  1.00  0.00     0.042 C 
ATOM      3  O   UNL     1      26.110  31.324 -13.783  1.00  0.00    -0.550 OA
ATOM      4  O   UNL     1      27.036  29.968 -15.382  1.00  0.00    -0.550 OA
ENDBRANCH   1   2
BRANCH   1   5
ATOM      5  C   UNL     1      27.996  29.242 -12.288  1.00  0.00     0.059 C 
BRANCH   5   6
ATOM      6  C   UNL     1      28.150  29.686 -10.867  1.00  0.00     0.042 C 
ATOM      7  O   UNL     1      27.797  28.929  -9.925  1.00  0.00    -0.550 OA
ATOM      8  O   UNL     1      28.730  30.916 -10.582  1.00  0.00    -0.550 OA
ENDBRANCH   5   6
ENDBRANCH   1   5
TORSDOF 3
ENDMDL
MODEL 4
REMARK VINA RESULT:    -2.988      1.558      1.882
REMARK INTER + INTRA:          -3.593
REMARK INTER:                  -3.513
REMARK INTRA:                  -0.080
REMARK UNBOUND:                -0.081
REMARK SMILES O=C([O-])CCC(=O)[O-]
REMARK SMILES IDX 4 1 2 2 1 3 3 4 5 5 6 6 7 7 8 8
REMARK H PARENT
REMARK Flexibility Score: inf
ROOT
ATOM      1  C   UNL     1      28.341  30.552 -13.522  1.00  0.00     0.059 C 
ENDROOT
BRANCH   1   2
ATOM      2  C   UNL     1      28.474  29.593 -12.381  1.00  0.00     0.042 C 
ATOM      3  O   UNL     1      29.288  29.826 -11.449  1.00  0.00    -0.550 OA
ATOM      4  O   UNL     1      27.735  28.416 -12.373  1.00  0.00    -0.550 OA
ENDBRANCH   1   2
BRANCH   1   5
ATOM      5  C   UNL     1      27.050  30.286 -14.297  1.00  0.00     0.059 C 
BRANCH   5   6
ATOM      6  C   UNL     1      25.963  31.205 -13.834  1.00  0.00     0.042 C 
ATOM      7  O   UNL     1      25.488  32.067 -14.618  1.00  0.00    -0.550 OA
ATOM      8  O   UNL     1      25.442  31.074 -12.553  1.00  0.00    -0.550 OA
ENDBRANCH   5   6
ENDBRANCH   1   5
TORSDOF 3
ENDMDL
MODEL 5
REMARK VINA RESULT:    -2.971      1.205      3.877
REMARK INTER + INTRA:          -3.573
REMARK INTER:                  -3.484
REMARK INTRA:                  -0.089
REMARK UNBOUND:                -0.081
REMARK SMILES O=C([O-])CCC(=O)[O-]
REMARK SMILES IDX 4 1 2 2 1 3 3 4 5 5 6 6 7 7 8 8
REMARK H PARENT
REMARK Flexibility Score: inf
ROOT
ATOM      1  C   UNL     1      26.362  30.590 -12.412  1.00  0.00     0.059 C 
ENDROOT
BRANCH   1   2
ATOM      2  C   UNL     1      26.535  30.895 -13.867  1.00  0.00     0.042 C 
ATOM      3  O   UNL     1      27.497  30.398 -14.508  1.00  0.00    -0.550 OA
ATOM      4  O   UNL     1      25.660  31.769 -14.502  1.00  0.00    -0.550 OA
ENDBRANCH   1   2
BRANCH   1   5
ATOM      5  C   UNL     1      27.370  29.529 -11.965  1.00  0.00     0.059 C 
BRANCH   5   6
ATOM      6  C   UNL     1      28.487  30.161 -11.195  1.00  0.00     0.042 C 
ATOM      7  O   UNL     1      29.681  29.989 -11.555  1.00  0.00    -0.550 OA
ATOM      8  O   UNL     1      28.206  30.980 -10.109  1.00  0.00    -0.550 OA
ENDBRANCH   5   6
ENDBRANCH   1   5
TORSDOF 3
ENDMDL
MODEL 6
REMARK VINA RESULT:    -2.959      1.591      2.055
REMARK INTER + INTRA:          -3.559
REMARK INTER:                  -3.480
REMARK INTRA:                  -0.078
REMARK UNBOUND:                -0.081
REMARK SMILES O=C([O-])CCC(=O)[O-]
REMARK SMILES IDX 4 1 2 2 1 3 3 4 5 5 6 6 7 7 8 8
REMARK H PARENT
REMARK Flexibility Score: inf
ROOT
ATOM      1  C   UNL     1      28.259  30.530 -13.516  1.00  0.00     0.059 C 
ENDROOT
BRANCH   1   2
ATOM      2  C   UNL     1      28.437  29.566 -12.385  1.00  0.00     0.042 C 
ATOM      3  O   UNL     1      29.264  29.812 -11.469  1.00  0.00    -0.550 OA
ATOM      4  O   UNL     1      27.725  28.373 -12.370  1.00  0.00    -0.550 OA
ENDBRANCH   1   2
BRANCH   1   5
ATOM      5  C   UNL     1      26.927  30.280 -14.227  1.00  0.00     0.059 C 
BRANCH   5   6
ATOM      6  C   UNL     1      25.892  31.253 -13.755  1.00  0.00     0.042 C 
ATOM      7  O   UNL     1      25.480  31.212 -12.566  1.00  0.00    -0.550 OA
ATOM      8  O   UNL     1      25.420  32.237 -14.615  1.00  0.00    -0.550 OA
ENDBRANCH   5   6
ENDBRANCH   1   5
TORSDOF 3
ENDMDL
MODEL 7
REMARK VINA RESULT:    -2.826      1.665      2.124
REMARK INTER + INTRA:          -3.403
REMARK INTER:                  -3.359
REMARK INTRA:                  -0.044
REMARK UNBOUND:                -0.081
REMARK SMILES O=C([O-])CCC(=O)[O-]
REMARK SMILES IDX 4 1 2 2 1 3 3 4 5 5 6 6 7 7 8 8
REMARK H PARENT
REMARK Flexibility Score: inf
ROOT
ATOM      1  C   UNL     1      27.103  30.330 -12.878  1.00  0.00     0.059 C 
ENDROOT
BRANCH   1   2
ATOM      2  C   UNL     1      28.444  30.055 -12.273  1.00  0.00     0.042 C 
ATOM      3  O   UNL     1      28.531  29.647 -11.086  1.00  0.00    -0.550 OA
ATOM      4  O   UNL     1      29.599  30.298 -13.006  1.00  0.00    -0.550 OA
ENDBRANCH   1   2
BRANCH   1   5
ATOM      5  C   UNL     1      27.219  30.467 -14.397  1.00  0.00     0.059 C 
BRANCH   5   6
ATOM      6  C   UNL     1      26.093  29.752 -15.075  1.00  0.00     0.042 C 
ATOM      7  O   UNL     1      26.242  28.566 -15.470  1.00  0.00    -0.550 OA
ATOM      8  O   UNL     1      24.862  30.379 -15.223  1.00  0.00    -0.550 OA
ENDBRANCH   5   6
ENDBRANCH   1   5
TORSDOF 3
ENDMDL
MODEL 8
REMARK VINA RESULT:    -2.825      2.256      4.046
REMARK INTER + INTRA:          -3.401
REMARK INTER:                  -3.305
REMARK INTRA:                  -0.096
REMARK UNBOUND:                -0.081
REMARK SMILES O=C([O-])CCC(=O)[O-]
REMARK SMILES IDX 4 1 2 2 1 3 3 4 5 5 6 6 7 7 8 8
REMARK H PARENT
REMARK Flexibility Score: inf
ROOT
ATOM      1  C   UNL     1      25.000  30.785 -13.631  1.00  0.00     0.059 C 
ENDROOT
BRANCH   1   2
ATOM      2  C   UNL     1      24.526  32.201 -13.717  1.00  0.00     0.042 C 
ATOM      3  O   UNL     1      24.357  32.745 -14.839  1.00  0.00    -0.550 OA
ATOM      4  O   UNL     1      24.319  32.936 -12.556  1.00  0.00    -0.550 OA
ENDBRANCH   1   2
BRANCH   1   5
ATOM      5  C   UNL     1      26.297  30.703 -12.823  1.00  0.00     0.059 C 
BRANCH   5   6
ATOM      6  C   UNL     1      27.463  30.462 -13.729  1.00  0.00     0.042 C 
ATOM      7  O   UNL     1      27.286  30.332 -14.968  1.00  0.00    -0.550 OA
ATOM      8  O   UNL     1      28.752  30.431 -13.209  1.00  0.00    -0.550 OA
ENDBRANCH   5   6
ENDBRANCH   1   5
TORSDOF 3
ENDMDL
MODEL 9
REMARK VINA RESULT:    -2.621      1.946      3.857
REMARK INTER + INTRA:          -3.161
REMARK INTER:                  -3.059
REMARK INTRA:                  -0.102
REMARK UNBOUND:                -0.081
REMARK SMILES O=C([O-])CCC(=O)[O-]
REMARK SMILES IDX 4 1 2 2 1 3 3 4 5 5 6 6 7 7 8 8
REMARK H PARENT
REMARK Flexibility Score: inf
ROOT
ATOM      1  C   UNL     1      25.842  30.821 -11.785  1.00  0.00     0.059 C 
ENDROOT
BRANCH   1   2
ATOM      2  C   UNL     1      25.221  31.644 -12.869  1.00  0.00     0.042 C 
ATOM      3  O   UNL     1      25.557  31.468 -14.069  1.00  0.00    -0.550 OA
ATOM      4  O   UNL     1      24.307  32.640 -12.548  1.00  0.00    -0.550 OA
ENDBRANCH   1   2
BRANCH   1   5
ATOM      5  C   UNL     1      26.766  29.759 -12.382  1.00  0.00     0.059 C 
BRANCH   5   6
ATOM      6  C   UNL     1      28.197  30.092 -12.102  1.00  0.00     0.042 C 
ATOM      7  O   UNL     1      28.679  29.901 -10.955  1.00  0.00    -0.550 OA
ATOM      8  O   UNL     1      29.013  30.567 -13.122  1.00  0.00    -0.550 OA
ENDBRANCH   5   6
ENDBRANCH   1   5
TORSDOF 3
ENDMDL
