MODEL 1
REMARK VINA RESULT:    -5.143      0.000      0.000
REMARK INTER + INTRA:         -15.294
REMARK INTER:                 -12.961
REMARK INTRA:                  -2.333
REMARK UNBOUND:                -2.333
REMARK SMILES CCCCCCCCCCCCCCCCCCCCCCCCCCCC(=O)[O-]
REMARK SMILES IDX 15 1 16 2 17 3 18 4 19 5 20 6 21 7 22 8 23 9 24 10 25 11
REMARK SMILES IDX 26 12 27 13 28 14 29 15 30 16 14 17 13 18 12 19 11 20 10 21
REMARK SMILES IDX 9 22 8 23 7 24 6 25 5 26 4 27 3 28 2 29 1 30
REMARK H PARENT
REMARK Flexibility Score: inf
ROOT
ATOM      1  C   UNL     1    -129.099 105.548  39.932  1.00  0.00     0.000 C 
ENDROOT
BRANCH   1   2
ATOM      2  C   UNL     1    -129.275 106.235  41.294  1.00  0.00     0.000 C 
BRANCH   2   3
ATOM      3  C   UNL     1    -127.989 106.950  41.727  1.00  0.00     0.000 C 
BRANCH   3   4
ATOM      4  C   UNL     1    -128.257 108.279  42.452  1.00  0.00     0.000 C 
BRANCH   4   5
ATOM      5  C   UNL     1    -129.754 108.629  42.584  1.00  0.00     0.000 C 
BRANCH   5   6
ATOM      6  C   UNL     1    -130.115 109.166  43.983  1.00  0.00     0.000 C 
BRANCH   6   7
ATOM      7  C   UNL     1    -129.388 110.487  44.307  1.00  0.00     0.000 C 
BRANCH   7   8
ATOM      8  C   UNL     1    -129.377 111.501  43.144  1.00  0.00     0.000 C 
BRANCH   8   9
ATOM      9  C   UNL     1    -129.387 112.977  43.591  1.00  0.00     0.000 C 
BRANCH   9  10
ATOM     10  C   UNL     1    -130.139 113.883  42.599  1.00  0.00     0.000 C 
BRANCH  10  11
ATOM     11  C   UNL     1    -129.415 115.216  42.347  1.00  0.00     0.000 C 
BRANCH  11  12
ATOM     12  C   UNL     1    -130.228 116.431  42.817  1.00  0.00     0.006 C 
BRANCH  12  13
ATOM     13  C   UNL     1    -129.440 117.255  43.839  1.00  0.00     0.053 C 
BRANCH  13  14
ATOM     14  C   UNL     1    -129.940 117.011  45.230  1.00  0.00     0.041 C 
ATOM     15  O   UNL     1    -130.280 117.978  45.961  1.00  0.00    -0.550 OA
ATOM     16  O   UNL     1    -130.076 115.710  45.704  1.00  0.00    -0.550 OA
ENDBRANCH  13  14
ENDBRANCH  12  13
ENDBRANCH  11  12
ENDBRANCH  10  11
ENDBRANCH   9  10
ENDBRANCH   8   9
ENDBRANCH   7   8
ENDBRANCH   6   7
ENDBRANCH   5   6
ENDBRANCH   4   5
ENDBRANCH   3   4
ENDBRANCH   2   3
ENDBRANCH   1   2
BRANCH   1  17
ATOM     17  C   UNL     1    -129.443 106.467  38.743  1.00  0.00     0.000 C 
BRANCH  17  18
ATOM     18  C   UNL     1    -130.232 107.741  39.102  1.00  0.00     0.000 C 
BRANCH  18  19
ATOM     19  C   UNL     1    -129.408 109.028  38.930  1.00  0.00     0.000 C 
BRANCH  19  20
ATOM     20  C   UNL     1    -130.097 110.257  39.541  1.00  0.00     0.000 C 
BRANCH  20  21
ATOM     21  C   UNL     1    -129.243 111.529  39.445  1.00  0.00     0.000 C 
BRANCH  21  22
ATOM     22  C   UNL     1    -128.537 111.606  38.084  1.00  0.00    -0.000 C 
BRANCH  22  23
ATOM     23  C   UNL     1    -128.347 113.049  37.593  1.00  0.00    -0.000 C 
BRANCH  23  24
ATOM     24  C   UNL     1    -128.353 113.159  36.059  1.00  0.00    -0.000 C 
BRANCH  24  25
ATOM     25  C   UNL     1    -129.612 113.881  35.530  1.00  0.00    -0.000 C 
BRANCH  25  26
ATOM     26  C   UNL     1    -129.704 113.892  33.994  1.00  0.00    -0.000 C 
BRANCH  26  27
ATOM     27  C   UNL     1    -131.140 113.685  33.483  1.00  0.00    -0.000 C 
BRANCH  27  28
ATOM     28  C   UNL     1    -132.175 113.685  34.619  1.00  0.00    -0.000 C 
BRANCH  28  29
ATOM     29  C   UNL     1    -133.597 113.992  34.123  1.00  0.00    -0.003 C 
ATOM     30  C   UNL     1    -133.909 113.223  32.844  1.00  0.00     0.004 C 
ENDBRANCH  28  29
ENDBRANCH  27  28
ENDBRANCH  26  27
ENDBRANCH  25  26
ENDBRANCH  24  25
ENDBRANCH  23  24
ENDBRANCH  22  23
ENDBRANCH  21  22
ENDBRANCH  20  21
ENDBRANCH  19  20
ENDBRANCH  18  19
ENDBRANCH  17  18
ENDBRANCH   1  17
TORSDOF 26
ENDMDL
MODEL 2
REMARK VINA RESULT:    -4.865      3.668      8.498
REMARK INTER + INTRA:         -14.593
REMARK INTER:                 -12.561
REMARK INTRA:                  -2.033
REMARK UNBOUND:                -2.333
REMARK SMILES CCCCCCCCCCCCCCCCCCCCCCCCCCCC(=O)[O-]
REMARK SMILES IDX 15 1 16 2 17 3 18 4 19 5 20 6 21 7 22 8 23 9 24 10 25 11
REMARK SMILES IDX 26 12 27 13 28 14 29 15 30 16 14 17 13 18 12 19 11 20 10 21
REMARK SMILES IDX 9 22 8 23 7 24 6 25 5 26 4 27 3 28 2 29 1 30
REMARK H PARENT
REMARK Flexibility Score: inf
ROOT
ATOM      1  C   UNL     1    -129.928 107.001  40.464  1.00  0.00     0.000 C 
ENDROOT
BRANCH   1   2
ATOM      2  C   UNL     1    -129.727 107.722  39.123  1.00  0.00     0.000 C 
BRANCH   2   3
ATOM      3  C   UNL     1    -130.178 109.185  39.205  1.00  0.00     0.000 C 
BRANCH   3   4
ATOM      4  C   UNL     1    -129.034 110.145  39.573  1.00  0.00     0.000 C 
BRANCH   4   5
ATOM      5  C   UNL     1    -128.390 110.845  38.358  1.00  0.00     0.000 C 
BRANCH   5   6
ATOM      6  C   UNL     1    -128.598 112.371  38.375  1.00  0.00     0.000 C 
BRANCH   6   7
ATOM      7  C   UNL     1    -127.962 113.061  37.150  1.00  0.00     0.000 C 
BRANCH   7   8
ATOM      8  C   UNL     1    -128.911 113.197  35.942  1.00  0.00     0.000 C 
BRANCH   8   9
ATOM      9  C   UNL     1    -129.343 114.646  35.636  1.00  0.00     0.000 C 
BRANCH   9  10
ATOM     10  C   UNL     1    -130.068 114.767  34.283  1.00  0.00     0.000 C 
BRANCH  10  11
ATOM     11  C   UNL     1    -130.707 113.444  33.833  1.00  0.00     0.000 C 
BRANCH  11  12
ATOM     12  C   UNL     1    -132.183 113.328  34.242  1.00  0.00     0.006 C 
BRANCH  12  13
ATOM     13  C   UNL     1    -133.025 112.758  33.097  1.00  0.00     0.053 C 
BRANCH  13  14
ATOM     14  C   UNL     1    -134.331 113.482  32.976  1.00  0.00     0.041 C 
ATOM     15  O   UNL     1    -134.473 114.625  33.485  1.00  0.00    -0.550 OA
ATOM     16  O   UNL     1    -135.380 112.915  32.259  1.00  0.00    -0.550 OA
ENDBRANCH  13  14
ENDBRANCH  12  13
ENDBRANCH  11  12
ENDBRANCH  10  11
ENDBRANCH   9  10
ENDBRANCH   8   9
ENDBRANCH   7   8
ENDBRANCH   6   7
ENDBRANCH   5   6
ENDBRANCH   4   5
ENDBRANCH   3   4
ENDBRANCH   2   3
ENDBRANCH   1   2
BRANCH   1  17
ATOM     17  C   UNL     1    -128.622 106.846  41.269  1.00  0.00     0.000 C 
BRANCH  17  18
ATOM     18  C   UNL     1    -128.377 107.929  42.338  1.00  0.00     0.000 C 
BRANCH  18  19
ATOM     19  C   UNL     1    -129.669 108.629  42.792  1.00  0.00     0.000 C 
BRANCH  19  20
ATOM     20  C   UNL     1    -129.401 109.804  43.745  1.00  0.00     0.000 C 
BRANCH  20  21
ATOM     21  C   UNL     1    -129.341 111.158  43.022  1.00  0.00     0.000 C 
BRANCH  21  22
ATOM     22  C   UNL     1    -128.920 112.270  43.993  1.00  0.00    -0.000 C 
BRANCH  22  23
ATOM     23  C   UNL     1    -129.863 113.482  43.953  1.00  0.00    -0.000 C 
BRANCH  23  24
ATOM     24  C   UNL     1    -130.132 113.977  42.521  1.00  0.00    -0.000 C 
BRANCH  24  25
ATOM     25  C   UNL     1    -129.325 115.250  42.183  1.00  0.00    -0.000 C 
BRANCH  25  26
ATOM     26  C   UNL     1    -130.061 116.550  42.551  1.00  0.00    -0.000 C 
BRANCH  26  27
ATOM     27  C   UNL     1    -129.105 117.668  43.002  1.00  0.00    -0.000 C 
BRANCH  27  28
ATOM     28  C   UNL     1    -129.283 118.034  44.484  1.00  0.00    -0.000 C 
BRANCH  28  29
ATOM     29  C   UNL     1    -129.861 116.875  45.312  1.00  0.00    -0.003 C 
ATOM     30  C   UNL     1    -130.777 117.394  46.415  1.00  0.00     0.004 C 
ENDBRANCH  28  29
ENDBRANCH  27  28
ENDBRANCH  26  27
ENDBRANCH  25  26
ENDBRANCH  24  25
ENDBRANCH  23  24
ENDBRANCH  22  23
ENDBRANCH  21  22
ENDBRANCH  20  21
ENDBRANCH  19  20
ENDBRANCH  18  19
ENDBRANCH  17  18
ENDBRANCH   1  17
TORSDOF 26
ENDMDL
MODEL 3
REMARK VINA RESULT:    -4.757      1.101      2.575
REMARK INTER + INTRA:         -14.321
REMARK INTER:                 -11.525
REMARK INTRA:                  -2.796
REMARK UNBOUND:                -2.333
REMARK SMILES CCCCCCCCCCCCCCCCCCCCCCCCCCCC(=O)[O-]
REMARK SMILES IDX 15 1 16 2 17 3 18 4 19 5 20 6 21 7 22 8 23 9 24 10 25 11
REMARK SMILES IDX 26 12 27 13 28 14 29 15 30 16 14 17 13 18 12 19 11 20 10 21
REMARK SMILES IDX 9 22 8 23 7 24 6 25 5 26 4 27 3 28 2 29 1 30
REMARK H PARENT
REMARK Flexibility Score: inf
ROOT
ATOM      1  C   UNL     1    -131.229 108.963  38.699  1.00  0.00     0.000 C 
ENDROOT
BRANCH   1   2
ATOM      2  C   UNL     1    -131.181 107.469  39.051  1.00  0.00     0.000 C 
BRANCH   2   3
ATOM      3  C   UNL     1    -129.751 106.923  38.964  1.00  0.00     0.000 C 
BRANCH   3   4
ATOM      4  C   UNL     1    -129.374 106.035  40.162  1.00  0.00     0.000 C 
BRANCH   4   5
ATOM      5  C   UNL     1    -129.341 106.785  41.510  1.00  0.00     0.000 C 
BRANCH   5   6
ATOM      6  C   UNL     1    -128.109 107.700  41.649  1.00  0.00     0.000 C 
BRANCH   6   7
ATOM      7  C   UNL     1    -128.224 108.654  42.856  1.00  0.00     0.000 C 
BRANCH   7   8
ATOM      8  C   UNL     1    -129.661 109.133  43.146  1.00  0.00     0.000 C 
BRANCH   8   9
ATOM      9  C   UNL     1    -129.740 110.430  43.977  1.00  0.00     0.000 C 
BRANCH   9  10
ATOM     10  C   UNL     1    -128.793 111.523  43.449  1.00  0.00     0.000 C 
BRANCH  10  11
ATOM     11  C   UNL     1    -129.546 112.732  42.872  1.00  0.00     0.000 C 
BRANCH  11  12
ATOM     12  C   UNL     1    -129.391 113.994  43.733  1.00  0.00     0.006 C 
BRANCH  12  13
ATOM     13  C   UNL     1    -130.117 115.183  43.098  1.00  0.00     0.053 C 
BRANCH  13  14
ATOM     14  C   UNL     1    -129.733 116.469  43.764  1.00  0.00     0.041 C 
ATOM     15  O   UNL     1    -129.980 116.649  44.986  1.00  0.00    -0.550 OA
ATOM     16  O   UNL     1    -129.060 117.453  43.048  1.00  0.00    -0.550 OA
ENDBRANCH  13  14
ENDBRANCH  12  13
ENDBRANCH  11  12
ENDBRANCH  10  11
ENDBRANCH   9  10
ENDBRANCH   8   9
ENDBRANCH   7   8
ENDBRANCH   6   7
ENDBRANCH   5   6
ENDBRANCH   4   5
ENDBRANCH   3   4
ENDBRANCH   2   3
ENDBRANCH   1   2
BRANCH   1  17
ATOM     17  C   UNL     1    -131.025 109.879  39.922  1.00  0.00     0.000 C 
BRANCH  17  18
ATOM     18  C   UNL     1    -129.770 110.773  39.871  1.00  0.00     0.000 C 
BRANCH  18  19
ATOM     19  C   UNL     1    -128.615 110.144  39.074  1.00  0.00     0.000 C 
BRANCH  19  20
ATOM     20  C   UNL     1    -128.024 111.105  38.032  1.00  0.00     0.000 C 
BRANCH  20  21
ATOM     21  C   UNL     1    -128.242 112.582  38.390  1.00  0.00     0.000 C 
BRANCH  21  22
ATOM     22  C   UNL     1    -128.066 113.471  37.150  1.00  0.00    -0.000 C 
BRANCH  22  23
ATOM     23  C   UNL     1    -128.955 113.036  35.975  1.00  0.00    -0.000 C 
BRANCH  23  24
ATOM     24  C   UNL     1    -129.003 114.083  34.849  1.00  0.00    -0.000 C 
BRANCH  24  25
ATOM     25  C   UNL     1    -130.438 114.586  34.581  1.00  0.00    -0.000 C 
BRANCH  25  26
ATOM     26  C   UNL     1    -131.233 113.674  33.629  1.00  0.00    -0.000 C 
BRANCH  26  27
ATOM     27  C   UNL     1    -132.730 113.613  33.975  1.00  0.00    -0.000 C 
BRANCH  27  28
ATOM     28  C   UNL     1    -133.520 112.712  33.013  1.00  0.00    -0.000 C 
BRANCH  28  29
ATOM     29  C   UNL     1    -134.937 113.241  32.738  1.00  0.00    -0.003 C 
ATOM     30  C   UNL     1    -135.161 113.456  31.245  1.00  0.00     0.004 C 
ENDBRANCH  28  29
ENDBRANCH  27  28
ENDBRANCH  26  27
ENDBRANCH  25  26
ENDBRANCH  24  25
ENDBRANCH  23  24
ENDBRANCH  22  23
ENDBRANCH  21  22
ENDBRANCH  20  21
ENDBRANCH  19  20
ENDBRANCH  18  19
ENDBRANCH  17  18
ENDBRANCH   1  17
TORSDOF 26
ENDMDL
MODEL 4
REMARK VINA RESULT:    -4.507      4.012      7.736
REMARK INTER + INTRA:         -13.690
REMARK INTER:                 -10.808
REMARK INTRA:                  -2.882
REMARK UNBOUND:                -2.333
REMARK SMILES CCCCCCCCCCCCCCCCCCCCCCCCCCCC(=O)[O-]
REMARK SMILES IDX 15 1 16 2 17 3 18 4 19 5 20 6 21 7 22 8 23 9 24 10 25 11
REMARK SMILES IDX 26 12 27 13 28 14 29 15 30 16 14 17 13 18 12 19 11 20 10 21
REMARK SMILES IDX 9 22 8 23 7 24 6 25 5 26 4 27 3 28 2 29 1 30
REMARK H PARENT
REMARK Flexibility Score: inf
ROOT
ATOM      1  C   UNL     1    -131.280 108.293  39.049  1.00  0.00     0.000 C 
ENDROOT
BRANCH   1   2
ATOM      2  C   UNL     1    -129.974 107.500  38.902  1.00  0.00     0.000 C 
BRANCH   2   3
ATOM      3  C   UNL     1    -130.191 106.012  39.200  1.00  0.00     0.000 C 
BRANCH   3   4
ATOM      4  C   UNL     1    -129.433 105.534  40.451  1.00  0.00     0.000 C 
BRANCH   4   5
ATOM      5  C   UNL     1    -128.159 106.348  40.759  1.00  0.00     0.000 C 
BRANCH   5   6
ATOM      6  C   UNL     1    -128.187 106.985  42.162  1.00  0.00     0.000 C 
BRANCH   6   7
ATOM      7  C   UNL     1    -128.313 108.521  42.104  1.00  0.00     0.000 C 
BRANCH   7   8
ATOM      8  C   UNL     1    -129.272 109.115  43.156  1.00  0.00     0.000 C 
BRANCH   8   9
ATOM      9  C   UNL     1    -130.692 108.512  43.130  1.00  0.00     0.000 C 
BRANCH   9  10
ATOM     10  C   UNL     1    -131.258 108.289  44.544  1.00  0.00     0.000 C 
BRANCH  10  11
ATOM     11  C   UNL     1    -130.176 108.358  45.634  1.00  0.00     0.000 C 
BRANCH  11  12
ATOM     12  C   UNL     1    -130.752 108.669  47.023  1.00  0.00     0.006 C 
BRANCH  12  13
ATOM     13  C   UNL     1    -130.559 107.484  47.973  1.00  0.00     0.053 C 
BRANCH  13  14
ATOM     14  C   UNL     1    -129.439 107.740  48.935  1.00  0.00     0.041 C 
ATOM     15  O   UNL     1    -129.566 108.605  49.841  1.00  0.00    -0.550 OA
ATOM     16  O   UNL     1    -128.270 106.989  48.860  1.00  0.00    -0.550 OA
ENDBRANCH  13  14
ENDBRANCH  12  13
ENDBRANCH  11  12
ENDBRANCH  10  11
ENDBRANCH   9  10
ENDBRANCH   8   9
ENDBRANCH   7   8
ENDBRANCH   6   7
ENDBRANCH   5   6
ENDBRANCH   4   5
ENDBRANCH   3   4
ENDBRANCH   2   3
ENDBRANCH   1   2
BRANCH   1  17
ATOM     17  C   UNL     1    -131.049 109.793  39.327  1.00  0.00     0.000 C 
BRANCH  17  18
ATOM     18  C   UNL     1    -129.591 110.270  39.186  1.00  0.00     0.000 C 
BRANCH  18  19
ATOM     19  C   UNL     1    -129.298 111.552  39.984  1.00  0.00     0.000 C 
BRANCH  19  20
ATOM     20  C   UNL     1    -130.349 111.824  41.071  1.00  0.00     0.000 C 
BRANCH  20  21
ATOM     21  C   UNL     1    -129.763 112.520  42.308  1.00  0.00     0.000 C 
BRANCH  21  22
ATOM     22  C   UNL     1    -130.402 113.902  42.504  1.00  0.00    -0.000 C 
BRANCH  22  23
ATOM     23  C   UNL     1    -129.361 115.023  42.648  1.00  0.00    -0.000 C 
BRANCH  23  24
ATOM     24  C   UNL     1    -129.999 116.422  42.696  1.00  0.00    -0.000 C 
BRANCH  24  25
ATOM     25  C   UNL     1    -129.023 117.491  43.235  1.00  0.00    -0.000 C 
BRANCH  25  26
ATOM     26  C   UNL     1    -129.422 118.033  44.619  1.00  0.00    -0.000 C 
BRANCH  26  27
ATOM     27  C   UNL     1    -130.524 117.196  45.292  1.00  0.00    -0.000 C 
BRANCH  27  28
ATOM     28  C   UNL     1    -130.665 117.505  46.790  1.00  0.00    -0.000 C 
BRANCH  28  29
ATOM     29  C   UNL     1    -131.529 118.748  47.058  1.00  0.00    -0.003 C 
ATOM     30  C   UNL     1    -132.981 118.360  47.316  1.00  0.00     0.004 C 
ENDBRANCH  28  29
ENDBRANCH  27  28
ENDBRANCH  26  27
ENDBRANCH  25  26
ENDBRANCH  24  25
ENDBRANCH  23  24
ENDBRANCH  22  23
ENDBRANCH  21  22
ENDBRANCH  20  21
ENDBRANCH  19  20
ENDBRANCH  18  19
ENDBRANCH  17  18
ENDBRANCH   1  17
TORSDOF 26
ENDMDL
MODEL 5
REMARK VINA RESULT:    -4.494      3.494      8.431
REMARK INTER + INTRA:         -13.658
REMARK INTER:                 -11.655
REMARK INTRA:                  -2.003
REMARK UNBOUND:                -2.333
REMARK SMILES CCCCCCCCCCCCCCCCCCCCCCCCCCCC(=O)[O-]
REMARK SMILES IDX 15 1 16 2 17 3 18 4 19 5 20 6 21 7 22 8 23 9 24 10 25 11
REMARK SMILES IDX 26 12 27 13 28 14 29 15 30 16 14 17 13 18 12 19 11 20 10 21
REMARK SMILES IDX 9 22 8 23 7 24 6 25 5 26 4 27 3 28 2 29 1 30
REMARK H PARENT
REMARK Flexibility Score: inf
ROOT
ATOM      1  C   UNL     1    -129.601 107.757  42.423  1.00  0.00     0.000 C 
ENDROOT
BRANCH   1   2
ATOM      2  C   UNL     1    -128.669 107.028  41.444  1.00  0.00     0.000 C 
BRANCH   2   3
ATOM      3  C   UNL     1    -129.439 106.516  40.221  1.00  0.00     0.000 C 
BRANCH   3   4
ATOM      4  C   UNL     1    -129.548 107.563  39.099  1.00  0.00     0.000 C 
BRANCH   4   5
ATOM      5  C   UNL     1    -130.917 108.271  39.035  1.00  0.00     0.000 C 
BRANCH   5   6
ATOM      6  C   UNL     1    -130.840 109.749  39.461  1.00  0.00     0.000 C 
BRANCH   6   7
ATOM      7  C   UNL     1    -129.384 110.232  39.632  1.00  0.00     0.000 C 
BRANCH   7   8
ATOM      8  C   UNL     1    -129.126 111.656  39.098  1.00  0.00     0.000 C 
BRANCH   8   9
ATOM      9  C   UNL     1    -128.606 111.704  37.647  1.00  0.00     0.000 C 
BRANCH   9  10
ATOM     10  C   UNL     1    -128.347 113.142  37.165  1.00  0.00     0.000 C 
BRANCH  10  11
ATOM     11  C   UNL     1    -128.571 113.311  35.654  1.00  0.00     0.000 C 
BRANCH  11  12
ATOM     12  C   UNL     1    -129.807 114.162  35.328  1.00  0.00     0.006 C 
BRANCH  12  13
ATOM     13  C   UNL     1    -130.239 113.964  33.872  1.00  0.00     0.053 C 
BRANCH  13  14
ATOM     14  C   UNL     1    -131.688 113.592  33.786  1.00  0.00     0.041 C 
ATOM     15  O   UNL     1    -132.514 114.061  34.612  1.00  0.00    -0.550 OA
ATOM     16  O   UNL     1    -132.136 112.761  32.763  1.00  0.00    -0.550 OA
ENDBRANCH  13  14
ENDBRANCH  12  13
ENDBRANCH  11  12
ENDBRANCH  10  11
ENDBRANCH   9  10
ENDBRANCH   8   9
ENDBRANCH   7   8
ENDBRANCH   6   7
ENDBRANCH   5   6
ENDBRANCH   4   5
ENDBRANCH   3   4
ENDBRANCH   2   3
ENDBRANCH   1   2
BRANCH   1  17
ATOM     17  C   UNL     1    -128.891 108.873  43.215  1.00  0.00     0.000 C 
BRANCH  17  18
ATOM     18  C   UNL     1    -129.383 110.304  42.921  1.00  0.00     0.000 C 
BRANCH  18  19
ATOM     19  C   UNL     1    -129.312 111.228  44.148  1.00  0.00     0.000 C 
BRANCH  19  20
ATOM     20  C   UNL     1    -128.974 112.680  43.776  1.00  0.00     0.000 C 
BRANCH  20  21
ATOM     21  C   UNL     1    -129.904 113.252  42.697  1.00  0.00     0.000 C 
BRANCH  21  22
ATOM     22  C   UNL     1    -130.195 114.736  42.965  1.00  0.00    -0.000 C 
BRANCH  22  23
ATOM     23  C   UNL     1    -129.307 115.675  42.136  1.00  0.00    -0.000 C 
BRANCH  23  24
ATOM     24  C   UNL     1    -128.904 116.944  42.908  1.00  0.00    -0.000 C 
BRANCH  24  25
ATOM     25  C   UNL     1    -130.071 117.514  43.743  1.00  0.00    -0.000 C 
BRANCH  25  26
ATOM     26  C   UNL     1    -129.854 117.378  45.261  1.00  0.00    -0.000 C 
BRANCH  26  27
ATOM     27  C   UNL     1    -130.025 118.712  46.008  1.00  0.00    -0.000 C 
BRANCH  27  28
ATOM     28  C   UNL     1    -130.896 118.574  47.266  1.00  0.00    -0.000 C 
BRANCH  28  29
ATOM     29  C   UNL     1    -132.267 117.944  46.969  1.00  0.00    -0.003 C 
ATOM     30  C   UNL     1    -133.400 118.865  47.412  1.00  0.00     0.004 C 
ENDBRANCH  28  29
ENDBRANCH  27  28
ENDBRANCH  26  27
ENDBRANCH  25  26
ENDBRANCH  24  25
ENDBRANCH  23  24
ENDBRANCH  22  23
ENDBRANCH  21  22
ENDBRANCH  20  21
ENDBRANCH  19  20
ENDBRANCH  18  19
ENDBRANCH  17  18
ENDBRANCH   1  17
TORSDOF 26
ENDMDL
MODEL 6
REMARK VINA RESULT:    -4.413      1.409      3.298
REMARK INTER + INTRA:         -13.454
REMARK INTER:                 -11.986
REMARK INTRA:                  -1.468
REMARK UNBOUND:                -2.333
REMARK SMILES CCCCCCCCCCCCCCCCCCCCCCCCCCCC(=O)[O-]
REMARK SMILES IDX 15 1 16 2 17 3 18 4 19 5 20 6 21 7 22 8 23 9 24 10 25 11
REMARK SMILES IDX 26 12 27 13 28 14 29 15 30 16 14 17 13 18 12 19 11 20 10 21
REMARK SMILES IDX 9 22 8 23 7 24 6 25 5 26 4 27 3 28 2 29 1 30
REMARK H PARENT
REMARK Flexibility Score: inf
ROOT
ATOM      1  C   UNL     1    -129.924 109.313  40.598  1.00  0.00     0.000 C 
ENDROOT
BRANCH   1   2
ATOM      2  C   UNL     1    -129.230 108.331  41.552  1.00  0.00     0.000 C 
BRANCH   2   3
ATOM      3  C   UNL     1    -128.771 109.033  42.836  1.00  0.00     0.000 C 
BRANCH   3   4
ATOM      4  C   UNL     1    -129.729 110.150  43.284  1.00  0.00     0.000 C 
BRANCH   4   5
ATOM      5  C   UNL     1    -129.088 111.553  43.304  1.00  0.00     0.000 C 
BRANCH   5   6
ATOM      6  C   UNL     1    -129.731 112.512  42.283  1.00  0.00     0.000 C 
BRANCH   6   7
ATOM      7  C   UNL     1    -130.328 113.766  42.956  1.00  0.00     0.000 C 
BRANCH   7   8
ATOM      8  C   UNL     1    -129.333 114.936  43.102  1.00  0.00     0.000 C 
BRANCH   8   9
ATOM      9  C   UNL     1    -129.822 116.263  42.489  1.00  0.00     0.000 C 
BRANCH   9  10
ATOM     10  C   UNL     1    -128.829 117.416  42.720  1.00  0.00     0.000 C 
BRANCH  10  11
ATOM     11  C   UNL     1    -129.089 118.168  44.036  1.00  0.00     0.000 C 
BRANCH  11  12
ATOM     12  C   UNL     1    -130.068 117.428  44.959  1.00  0.00     0.006 C 
BRANCH  12  13
ATOM     13  C   UNL     1    -130.433 118.288  46.172  1.00  0.00     0.053 C 
BRANCH  13  14
ATOM     14  C   UNL     1    -131.547 117.667  46.959  1.00  0.00     0.041 C 
ATOM     15  O   UNL     1    -131.471 116.465  47.324  1.00  0.00    -0.550 OA
ATOM     16  O   UNL     1    -132.649 118.430  47.330  1.00  0.00    -0.550 OA
ENDBRANCH  13  14
ENDBRANCH  12  13
ENDBRANCH  11  12
ENDBRANCH  10  11
ENDBRANCH   9  10
ENDBRANCH   8   9
ENDBRANCH   7   8
ENDBRANCH   6   7
ENDBRANCH   5   6
ENDBRANCH   4   5
ENDBRANCH   3   4
ENDBRANCH   2   3
ENDBRANCH   1   2
BRANCH   1  17
ATOM     17  C   UNL     1    -129.046 109.711  39.395  1.00  0.00     0.000 C 
BRANCH  17  18
ATOM     18  C   UNL     1    -129.290 111.128  38.842  1.00  0.00     0.000 C 
BRANCH  18  19
ATOM     19  C   UNL     1    -128.119 111.652  37.994  1.00  0.00     0.000 C 
BRANCH  19  20
ATOM     20  C   UNL     1    -128.281 113.132  37.612  1.00  0.00     0.000 C 
BRANCH  20  21
ATOM     21  C   UNL     1    -128.345 113.354  36.094  1.00  0.00     0.000 C 
BRANCH  21  22
ATOM     22  C   UNL     1    -129.804 113.443  35.622  1.00  0.00    -0.000 C 
BRANCH  22  23
ATOM     23  C   UNL     1    -129.952 114.193  34.289  1.00  0.00    -0.000 C 
BRANCH  23  24
ATOM     24  C   UNL     1    -131.006 113.558  33.366  1.00  0.00    -0.000 C 
BRANCH  24  25
ATOM     25  C   UNL     1    -132.271 113.123  34.137  1.00  0.00    -0.000 C 
BRANCH  25  26
ATOM     26  C   UNL     1    -133.218 114.294  34.458  1.00  0.00    -0.000 C 
BRANCH  26  27
ATOM     27  C   UNL     1    -134.426 114.359  33.508  1.00  0.00    -0.000 C 
BRANCH  27  28
ATOM     28  C   UNL     1    -134.727 113.006  32.845  1.00  0.00    -0.000 C 
BRANCH  28  29
ATOM     29  C   UNL     1    -135.042 113.140  31.346  1.00  0.00    -0.003 C 
ATOM     30  C   UNL     1    -135.418 114.576  30.993  1.00  0.00     0.004 C 
ENDBRANCH  28  29
ENDBRANCH  27  28
ENDBRANCH  26  27
ENDBRANCH  25  26
ENDBRANCH  24  25
ENDBRANCH  23  24
ENDBRANCH  22  23
ENDBRANCH  21  22
ENDBRANCH  20  21
ENDBRANCH  19  20
ENDBRANCH  18  19
ENDBRANCH  17  18
ENDBRANCH   1  17
TORSDOF 26
ENDMDL
MODEL 7
REMARK VINA RESULT:    -4.313      3.018      8.655
REMARK INTER + INTRA:         -13.200
REMARK INTER:                 -11.165
REMARK INTRA:                  -2.035
REMARK UNBOUND:                -2.333
REMARK SMILES CCCCCCCCCCCCCCCCCCCCCCCCCCCC(=O)[O-]
REMARK SMILES IDX 15 1 16 2 17 3 18 4 19 5 20 6 21 7 22 8 23 9 24 10 25 11
REMARK SMILES IDX 26 12 27 13 28 14 29 15 30 16 14 17 13 18 12 19 11 20 10 21
REMARK SMILES IDX 9 22 8 23 7 24 6 25 5 26 4 27 3 28 2 29 1 30
REMARK H PARENT
REMARK Flexibility Score: inf
ROOT
ATOM      1  C   UNL     1    -130.080 109.937  39.277  1.00  0.00     0.000 C 
ENDROOT
BRANCH   1   2
ATOM      2  C   UNL     1    -128.546 109.895  39.316  1.00  0.00     0.000 C 
BRANCH   2   3
ATOM      3  C   UNL     1    -127.936 110.880  38.311  1.00  0.00     0.000 C 
BRANCH   3   4
ATOM      4  C   UNL     1    -128.627 112.254  38.324  1.00  0.00     0.000 C 
BRANCH   4   5
ATOM      5  C   UNL     1    -128.134 113.212  37.220  1.00  0.00     0.000 C 
BRANCH   5   6
ATOM      6  C   UNL     1    -128.899 113.032  35.895  1.00  0.00     0.000 C 
BRANCH   6   7
ATOM      7  C   UNL     1    -129.000 114.348  35.096  1.00  0.00     0.000 C 
BRANCH   7   8
ATOM      8  C   UNL     1    -130.369 114.572  34.421  1.00  0.00     0.000 C 
BRANCH   8   9
ATOM      9  C   UNL     1    -130.759 113.481  33.402  1.00  0.00     0.000 C 
BRANCH   9  10
ATOM     10  C   UNL     1    -131.987 112.670  33.853  1.00  0.00     0.000 C 
BRANCH  10  11
ATOM     11  C   UNL     1    -133.211 112.896  32.951  1.00  0.00     0.000 C 
BRANCH  11  12
ATOM     12  C   UNL     1    -134.077 114.079  33.410  1.00  0.00     0.006 C 
BRANCH  12  13
ATOM     13  C   UNL     1    -133.858 114.372  34.897  1.00  0.00     0.053 C 
BRANCH  13  14
ATOM     14  C   UNL     1    -133.790 115.847  35.151  1.00  0.00     0.041 C 
ATOM     15  O   UNL     1    -134.618 116.624  34.607  1.00  0.00    -0.550 OA
ATOM     16  O   UNL     1    -132.839 116.361  36.027  1.00  0.00    -0.550 OA
ENDBRANCH  13  14
ENDBRANCH  12  13
ENDBRANCH  11  12
ENDBRANCH  10  11
ENDBRANCH   9  10
ENDBRANCH   8   9
ENDBRANCH   7   8
ENDBRANCH   6   7
ENDBRANCH   5   6
ENDBRANCH   4   5
ENDBRANCH   3   4
ENDBRANCH   2   3
ENDBRANCH   1   2
BRANCH   1  17
ATOM     17  C   UNL     1    -130.719 108.542  39.128  1.00  0.00     0.000 C 
BRANCH  17  18
ATOM     18  C   UNL     1    -129.729 107.361  39.129  1.00  0.00     0.000 C 
BRANCH  18  19
ATOM     19  C   UNL     1    -129.763 106.548  40.434  1.00  0.00     0.000 C 
BRANCH  19  20
ATOM     20  C   UNL     1    -128.447 106.640  41.221  1.00  0.00     0.000 C 
BRANCH  20  21
ATOM     21  C   UNL     1    -128.367 107.890  42.109  1.00  0.00     0.000 C 
BRANCH  21  22
ATOM     22  C   UNL     1    -129.757 108.265  42.642  1.00  0.00    -0.000 C 
BRANCH  22  23
ATOM     23  C   UNL     1    -129.703 109.334  43.744  1.00  0.00    -0.000 C 
BRANCH  23  24
ATOM     24  C   UNL     1    -129.339 110.726  43.201  1.00  0.00    -0.000 C 
BRANCH  24  25
ATOM     25  C   UNL     1    -129.469 111.825  44.278  1.00  0.00    -0.000 C 
BRANCH  25  26
ATOM     26  C   UNL     1    -128.966 113.201  43.805  1.00  0.00    -0.000 C 
BRANCH  26  27
ATOM     27  C   UNL     1    -129.924 114.345  44.179  1.00  0.00    -0.000 C 
BRANCH  27  28
ATOM     28  C   UNL     1    -129.238 115.435  45.018  1.00  0.00    -0.000 C 
BRANCH  28  29
ATOM     29  C   UNL     1    -129.724 116.849  44.659  1.00  0.00    -0.003 C 
ATOM     30  C   UNL     1    -130.446 117.495  45.837  1.00  0.00     0.004 C 
ENDBRANCH  28  29
ENDBRANCH  27  28
ENDBRANCH  26  27
ENDBRANCH  25  26
ENDBRANCH  24  25
ENDBRANCH  23  24
ENDBRANCH  22  23
ENDBRANCH  21  22
ENDBRANCH  20  21
ENDBRANCH  19  20
ENDBRANCH  18  19
ENDBRANCH  17  18
ENDBRANCH   1  17
TORSDOF 26
ENDMDL
MODEL 8
REMARK VINA RESULT:    -4.210      3.175      7.291
REMARK INTER + INTRA:         -12.942
REMARK INTER:                 -10.221
REMARK INTRA:                  -2.721
REMARK UNBOUND:                -2.333
REMARK SMILES CCCCCCCCCCCCCCCCCCCCCCCCCCCC(=O)[O-]
REMARK SMILES IDX 15 1 16 2 17 3 18 4 19 5 20 6 21 7 22 8 23 9 24 10 25 11
REMARK SMILES IDX 26 12 27 13 28 14 29 15 30 16 14 17 13 18 12 19 11 20 10 21
REMARK SMILES IDX 9 22 8 23 7 24 6 25 5 26 4 27 3 28 2 29 1 30
REMARK H PARENT
REMARK Flexibility Score: inf
ROOT
ATOM      1  C   UNL     1    -130.824 110.357  38.760  1.00  0.00     0.000 C 
ENDROOT
BRANCH   1   2
ATOM      2  C   UNL     1    -129.486 110.875  39.307  1.00  0.00     0.000 C 
BRANCH   2   3
ATOM      3  C   UNL     1    -129.625 111.350  40.758  1.00  0.00     0.000 C 
BRANCH   3   4
ATOM      4  C   UNL     1    -130.081 112.814  40.869  1.00  0.00     0.000 C 
BRANCH   4   5
ATOM      5  C   UNL     1    -130.033 113.377  42.306  1.00  0.00     0.000 C 
BRANCH   5   6
ATOM      6  C   UNL     1    -129.292 112.444  43.282  1.00  0.00     0.000 C 
BRANCH   6   7
ATOM      7  C   UNL     1    -129.195 113.043  44.701  1.00  0.00     0.000 C 
BRANCH   7   8
ATOM      8  C   UNL     1    -130.055 114.305  44.912  1.00  0.00     0.000 C 
BRANCH   8   9
ATOM      9  C   UNL     1    -129.544 115.241  46.027  1.00  0.00     0.000 C 
BRANCH   9  10
ATOM     10  C   UNL     1    -130.684 116.029  46.697  1.00  0.00     0.000 C 
BRANCH  10  11
ATOM     11  C   UNL     1    -130.493 117.551  46.593  1.00  0.00     0.000 C 
BRANCH  11  12
ATOM     12  C   UNL     1    -130.453 118.046  45.140  1.00  0.00     0.006 C 
BRANCH  12  13
ATOM     13  C   UNL     1    -129.011 118.144  44.634  1.00  0.00     0.053 C 
BRANCH  13  14
ATOM     14  C   UNL     1    -128.934 117.858  43.166  1.00  0.00     0.041 C 
ATOM     15  O   UNL     1    -128.157 118.521  42.430  1.00  0.00    -0.550 OA
ATOM     16  O   UNL     1    -129.686 116.824  42.616  1.00  0.00    -0.550 OA
ENDBRANCH  13  14
ENDBRANCH  12  13
ENDBRANCH  11  12
ENDBRANCH  10  11
ENDBRANCH   9  10
ENDBRANCH   8   9
ENDBRANCH   7   8
ENDBRANCH   6   7
ENDBRANCH   5   6
ENDBRANCH   4   5
ENDBRANCH   3   4
ENDBRANCH   2   3
ENDBRANCH   1   2
BRANCH   1  17
ATOM     17  C   UNL     1    -131.343 109.114  39.511  1.00  0.00     0.000 C 
BRANCH  17  18
ATOM     18  C   UNL     1    -131.197 107.780  38.754  1.00  0.00     0.000 C 
BRANCH  18  19
ATOM     19  C   UNL     1    -129.770 107.207  38.816  1.00  0.00     0.000 C 
BRANCH  19  20
ATOM     20  C   UNL     1    -129.697 105.886  39.597  1.00  0.00     0.000 C 
BRANCH  20  21
ATOM     21  C   UNL     1    -128.917 106.012  40.913  1.00  0.00     0.000 C 
BRANCH  21  22
ATOM     22  C   UNL     1    -128.521 107.473  41.169  1.00  0.00    -0.000 C 
BRANCH  22  23
ATOM     23  C   UNL     1    -128.322 107.783  42.660  1.00  0.00    -0.000 C 
BRANCH  23  24
ATOM     24  C   UNL     1    -129.186 108.962  43.141  1.00  0.00    -0.000 C 
BRANCH  24  25
ATOM     25  C   UNL     1    -130.693 108.627  43.121  1.00  0.00    -0.000 C 
BRANCH  25  26
ATOM     26  C   UNL     1    -131.237 108.196  44.495  1.00  0.00    -0.000 C 
BRANCH  26  27
ATOM     27  C   UNL     1    -130.860 109.177  45.618  1.00  0.00    -0.000 C 
BRANCH  27  28
ATOM     28  C   UNL     1    -131.069 108.578  47.018  1.00  0.00    -0.000 C 
BRANCH  28  29
ATOM     29  C   UNL     1    -129.802 107.898  47.564  1.00  0.00    -0.003 C 
ATOM     30  C   UNL     1    -129.873 107.746  49.080  1.00  0.00     0.004 C 
ENDBRANCH  28  29
ENDBRANCH  27  28
ENDBRANCH  26  27
ENDBRANCH  25  26
ENDBRANCH  24  25
ENDBRANCH  23  24
ENDBRANCH  22  23
ENDBRANCH  21  22
ENDBRANCH  20  21
ENDBRANCH  19  20
ENDBRANCH  18  19
ENDBRANCH  17  18
ENDBRANCH   1  17
TORSDOF 26
ENDMDL
MODEL 9
REMARK VINA RESULT:    -4.173      3.040      8.260
REMARK INTER + INTRA:         -12.849
REMARK INTER:                 -10.828
REMARK INTRA:                  -2.021
REMARK UNBOUND:                -2.333
REMARK SMILES CCCCCCCCCCCCCCCCCCCCCCCCCCCC(=O)[O-]
REMARK SMILES IDX 15 1 16 2 17 3 18 4 19 5 20 6 21 7 22 8 23 9 24 10 25 11
REMARK SMILES IDX 26 12 27 13 28 14 29 15 30 16 14 17 13 18 12 19 11 20 10 21
REMARK SMILES IDX 9 22 8 23 7 24 6 25 5 26 4 27 3 28 2 29 1 30
REMARK H PARENT
REMARK Flexibility Score: inf
ROOT
ATOM      1  C   UNL     1    -130.640 109.127  39.480  1.00  0.00     0.000 C 
ENDROOT
BRANCH   1   2
ATOM      2  C   UNL     1    -129.869 110.455  39.481  1.00  0.00     0.000 C 
BRANCH   2   3
ATOM      3  C   UNL     1    -128.391 110.240  39.133  1.00  0.00     0.000 C 
BRANCH   3   4
ATOM      4  C   UNL     1    -127.890 111.189  38.032  1.00  0.00     0.000 C 
BRANCH   4   5
ATOM      5  C   UNL     1    -128.582 112.568  38.032  1.00  0.00     0.000 C 
BRANCH   5   6
ATOM      6  C   UNL     1    -128.162 113.442  36.834  1.00  0.00     0.000 C 
BRANCH   6   7
ATOM      7  C   UNL     1    -129.024 113.172  35.584  1.00  0.00     0.000 C 
BRANCH   7   8
ATOM      8  C   UNL     1    -129.582 114.446  34.917  1.00  0.00     0.000 C 
BRANCH   8   9
ATOM      9  C   UNL     1    -130.476 114.179  33.689  1.00  0.00     0.000 C 
BRANCH   9  10
ATOM     10  C   UNL     1    -131.365 112.935  33.872  1.00  0.00     0.000 C 
BRANCH  10  11
ATOM     11  C   UNL     1    -132.615 112.963  32.977  1.00  0.00     0.000 C 
BRANCH  11  12
ATOM     12  C   UNL     1    -133.726 113.862  33.538  1.00  0.00     0.006 C 
BRANCH  12  13
ATOM     13  C   UNL     1    -133.467 114.201  35.009  1.00  0.00     0.053 C 
BRANCH  13  14
ATOM     14  C   UNL     1    -133.568 115.677  35.248  1.00  0.00     0.041 C 
ATOM     15  O   UNL     1    -132.711 116.264  35.958  1.00  0.00    -0.550 OA
ATOM     16  O   UNL     1    -134.584 116.413  34.647  1.00  0.00    -0.550 OA
ENDBRANCH  13  14
ENDBRANCH  12  13
ENDBRANCH  11  12
ENDBRANCH  10  11
ENDBRANCH   9  10
ENDBRANCH   8   9
ENDBRANCH   7   8
ENDBRANCH   6   7
ENDBRANCH   5   6
ENDBRANCH   4   5
ENDBRANCH   3   4
ENDBRANCH   2   3
ENDBRANCH   1   2
BRANCH   1  17
ATOM     17  C   UNL     1    -129.731 107.900  39.688  1.00  0.00     0.000 C 
BRANCH  17  18
ATOM     18  C   UNL     1    -129.293 107.645  41.143  1.00  0.00     0.000 C 
BRANCH  18  19
ATOM     19  C   UNL     1    -130.430 107.854  42.158  1.00  0.00     0.000 C 
BRANCH  19  20
ATOM     20  C   UNL     1    -129.991 108.683  43.375  1.00  0.00     0.000 C 
BRANCH  20  21
ATOM     21  C   UNL     1    -128.843 109.651  43.055  1.00  0.00     0.000 C 
BRANCH  21  22
ATOM     22  C   UNL     1    -129.367 111.089  42.933  1.00  0.00    -0.000 C 
BRANCH  22  23
ATOM     23  C   UNL     1    -129.331 111.851  44.267  1.00  0.00    -0.000 C 
BRANCH  23  24
ATOM     24  C   UNL     1    -128.941 113.329  44.095  1.00  0.00    -0.000 C 
BRANCH  24  25
ATOM     25  C   UNL     1    -130.049 114.147  43.397  1.00  0.00    -0.000 C 
BRANCH  25  26
ATOM     26  C   UNL     1    -129.500 115.274  42.504  1.00  0.00    -0.000 C 
BRANCH  26  27
ATOM     27  C   UNL     1    -130.129 116.642  42.819  1.00  0.00    -0.000 C 
BRANCH  27  28
ATOM     28  C   UNL     1    -129.730 117.168  44.206  1.00  0.00    -0.000 C 
BRANCH  28  29
ATOM     29  C   UNL     1    -128.968 118.502  44.136  1.00  0.00    -0.003 C 
ATOM     30  C   UNL     1    -128.337 118.699  42.762  1.00  0.00     0.004 C 
ENDBRANCH  28  29
ENDBRANCH  27  28
ENDBRANCH  26  27
ENDBRANCH  25  26
ENDBRANCH  24  25
ENDBRANCH  23  24
ENDBRANCH  22  23
ENDBRANCH  21  22
ENDBRANCH  20  21
ENDBRANCH  19  20
ENDBRANCH  18  19
ENDBRANCH  17  18
ENDBRANCH   1  17
TORSDOF 26
ENDMDL
