MODEL 1
REMARK VINA RESULT:    -6.499      0.000      0.000
REMARK INTER + INTRA:         -11.380
REMARK INTER:                  -9.919
REMARK INTRA:                  -1.461
REMARK UNBOUND:                -1.461
REMARK SMILES CC(=O)CCC=C(C)CCC=C(C)CCC=C(C)C
REMARK SMILES IDX 10 1 11 2 12 3 13 4 14 5 15 6 16 7 18 8 17 9 19 10 9 11 7 12
REMARK SMILES IDX 6 13 8 14 5 15 4 16 2 17 3 18 1 19
REMARK H PARENT
REMARK Flexibility Score: inf
ROOT
ATOM      1  C   UNL     1      -4.263  27.571  29.367  1.00  0.00     0.032 C 
ENDROOT
BRANCH   1   2
ATOM      2  C   UNL     1      -4.888  28.902  29.033  1.00  0.00    -0.028 C 
ATOM      3  C   UNL     1      -4.366  29.796  28.162  1.00  0.00    -0.077 C 
ATOM      4  C   UNL     1      -3.047  29.555  27.467  1.00  0.00     0.039 C 
BRANCH   3   5
ATOM      5  C   UNL     1      -5.136  31.067  27.870  1.00  0.00     0.034 C 
BRANCH   5   6
ATOM      6  C   UNL     1      -4.204  32.166  27.344  1.00  0.00     0.032 C 
BRANCH   6   7
ATOM      7  C   UNL     1      -4.995  33.313  26.770  1.00  0.00    -0.028 C 
ATOM      8  C   UNL     1      -3.824  33.220  24.556  1.00  0.00     0.039 C 
ATOM      9  C   UNL     1      -4.818  33.815  25.527  1.00  0.00    -0.080 C 
ATOM     10  C   UNL     1      -5.663  34.987  25.098  1.00  0.00     0.039 C 
ENDBRANCH   6   7
ENDBRANCH   5   6
ENDBRANCH   3   5
ENDBRANCH   1   2
BRANCH   1  11
ATOM     11  C   UNL     1      -3.890  27.510  30.851  1.00  0.00     0.034 C 
BRANCH  11  12
ATOM     12  C   UNL     1      -2.850  28.562  31.183  1.00  0.00    -0.077 C 
ATOM     13  C   UNL     1      -1.526  28.381  30.970  1.00  0.00    -0.028 C 
ATOM     14  C   UNL     1      -3.300  29.834  31.850  1.00  0.00     0.039 C 
BRANCH  13  15
ATOM     15  C   UNL     1      -0.917  27.160  30.327  1.00  0.00     0.035 C 
BRANCH  15  16
ATOM     16  C   UNL     1      -0.473  27.460  28.891  1.00  0.00     0.079 C 
BRANCH  16  17
ATOM     17  C   UNL     1      -0.433  26.196  28.073  1.00  0.00     0.130 C 
ATOM     18  O   UNL     1       0.578  25.507  28.077  1.00  0.00    -0.300 OA
ATOM     19  C   UNL     1      -1.607  25.765  27.244  1.00  0.00     0.087 C 
ENDBRANCH  16  17
ENDBRANCH  15  16
ENDBRANCH  13  15
ENDBRANCH  11  12
ENDBRANCH   1  11
TORSDOF 9
ENDMDL
MODEL 2
REMARK VINA RESULT:    -6.403      1.059      2.017
REMARK INTER + INTRA:         -11.234
REMARK INTER:                 -10.702
REMARK INTRA:                  -0.531
REMARK UNBOUND:                -1.461
REMARK SMILES CC(=O)CCC=C(C)CCC=C(C)CCC=C(C)C
REMARK SMILES IDX 10 1 11 2 12 3 13 4 14 5 15 6 16 7 18 8 17 9 19 10 9 11 7 12
REMARK SMILES IDX 6 13 8 14 5 15 4 16 2 17 3 18 1 19
REMARK H PARENT
REMARK Flexibility Score: inf
ROOT
ATOM      1  C   UNL     1      -3.745  29.252  27.903  1.00  0.00     0.032 C 
ENDROOT
BRANCH   1   2
ATOM      2  C   UNL     1      -4.014  30.639  27.375  1.00  0.00    -0.028 C 
ATOM      3  C   UNL     1      -5.066  31.407  27.738  1.00  0.00    -0.077 C 
ATOM      4  C   UNL     1      -6.125  30.907  28.693  1.00  0.00     0.039 C 
BRANCH   3   5
ATOM      5  C   UNL     1      -5.176  32.809  27.178  1.00  0.00     0.034 C 
BRANCH   5   6
ATOM      6  C   UNL     1      -3.969  33.144  26.292  1.00  0.00     0.032 C 
BRANCH   6   7
ATOM      7  C   UNL     1      -4.368  33.208  24.840  1.00  0.00    -0.028 C 
ATOM      8  C   UNL     1      -5.441  35.461  25.070  1.00  0.00     0.039 C 
ATOM      9  C   UNL     1      -5.053  34.231  24.282  1.00  0.00    -0.080 C 
ATOM     10  C   UNL     1      -5.411  34.144  22.821  1.00  0.00     0.039 C 
ENDBRANCH   6   7
ENDBRANCH   5   6
ENDBRANCH   3   5
ENDBRANCH   1   2
BRANCH   1  11
ATOM     11  C   UNL     1      -3.498  29.291  29.414  1.00  0.00     0.034 C 
BRANCH  11  12
ATOM     12  C   UNL     1      -3.624  27.903  30.011  1.00  0.00    -0.077 C 
ATOM     13  C   UNL     1      -2.557  27.180  30.423  1.00  0.00    -0.028 C 
ATOM     14  C   UNL     1      -4.988  27.270  30.081  1.00  0.00     0.039 C 
BRANCH  13  15
ATOM     15  C   UNL     1      -1.129  27.665  30.404  1.00  0.00     0.035 C 
BRANCH  15  16
ATOM     16  C   UNL     1      -0.627  27.837  28.966  1.00  0.00     0.079 C 
BRANCH  16  17
ATOM     17  C   UNL     1      -0.512  26.500  28.282  1.00  0.00     0.130 C 
ATOM     18  O   UNL     1       0.497  25.828  28.438  1.00  0.00    -0.300 OA
ATOM     19  C   UNL     1      -1.610  25.976  27.403  1.00  0.00     0.087 C 
ENDBRANCH  16  17
ENDBRANCH  15  16
ENDBRANCH  13  15
ENDBRANCH  11  12
ENDBRANCH   1  11
TORSDOF 9
ENDMDL
MODEL 3
REMARK VINA RESULT:    -6.391      3.216      7.763
REMARK INTER + INTRA:         -11.214
REMARK INTER:                 -10.579
REMARK INTRA:                  -0.635
REMARK UNBOUND:                -1.461
REMARK SMILES CC(=O)CCC=C(C)CCC=C(C)CCC=C(C)C
REMARK SMILES IDX 10 1 11 2 12 3 13 4 14 5 15 6 16 7 18 8 17 9 19 10 9 11 7 12
REMARK SMILES IDX 6 13 8 14 5 15 4 16 2 17 3 18 1 19
REMARK H PARENT
REMARK Flexibility Score: inf
ROOT
ATOM      1  C   UNL     1      -6.041  30.901  27.883  1.00  0.00     0.032 C 
ENDROOT
BRANCH   1   2
ATOM      2  C   UNL     1      -4.794  30.129  28.235  1.00  0.00    -0.028 C 
ATOM      3  C   UNL     1      -4.634  29.406  29.367  1.00  0.00    -0.077 C 
ATOM      4  C   UNL     1      -5.703  29.350  30.434  1.00  0.00     0.039 C 
BRANCH   3   5
ATOM      5  C   UNL     1      -3.353  28.625  29.561  1.00  0.00     0.034 C 
BRANCH   5   6
ATOM      6  C   UNL     1      -2.698  28.299  28.212  1.00  0.00     0.032 C 
BRANCH   6   7
ATOM      7  C   UNL     1      -1.342  27.670  28.410  1.00  0.00    -0.028 C 
ATOM      8  C   UNL     1      -1.954  25.581  27.169  1.00  0.00     0.039 C 
ATOM      9  C   UNL     1      -1.001  26.438  27.970  1.00  0.00    -0.080 C 
ATOM     10  C   UNL     1       0.385  25.927  28.269  1.00  0.00     0.039 C 
ENDBRANCH   6   7
ENDBRANCH   5   6
ENDBRANCH   3   5
ENDBRANCH   1   2
BRANCH   1  11
ATOM     11  C   UNL     1      -5.769  32.407  27.917  1.00  0.00     0.034 C 
BRANCH  11  12
ATOM     12  C   UNL     1      -4.581  32.753  27.040  1.00  0.00    -0.077 C 
ATOM     13  C   UNL     1      -4.686  32.954  25.705  1.00  0.00    -0.028 C 
ATOM     14  C   UNL     1      -3.213  32.802  27.665  1.00  0.00     0.039 C 
BRANCH  13  15
ATOM     15  C   UNL     1      -5.979  32.925  24.929  1.00  0.00     0.035 C 
BRANCH  15  16
ATOM     16  C   UNL     1      -5.747  33.310  23.464  1.00  0.00     0.079 C 
BRANCH  16  17
ATOM     17  C   UNL     1      -5.763  34.807  23.300  1.00  0.00     0.130 C 
ATOM     18  O   UNL     1      -6.109  35.512  24.237  1.00  0.00    -0.300 OA
ATOM     19  C   UNL     1      -5.372  35.454  22.004  1.00  0.00     0.087 C 
ENDBRANCH  16  17
ENDBRANCH  15  16
ENDBRANCH  13  15
ENDBRANCH  11  12
ENDBRANCH   1  11
TORSDOF 9
ENDMDL
MODEL 4
REMARK VINA RESULT:    -6.200      3.021      7.263
REMARK INTER + INTRA:         -10.923
REMARK INTER:                 -10.363
REMARK INTRA:                  -0.560
REMARK UNBOUND:                -1.461
REMARK SMILES CC(=O)CCC=C(C)CCC=C(C)CCC=C(C)C
REMARK SMILES IDX 10 1 11 2 12 3 13 4 14 5 15 6 16 7 18 8 17 9 19 10 9 11 7 12
REMARK SMILES IDX 6 13 8 14 5 15 4 16 2 17 3 18 1 19
REMARK H PARENT
REMARK Flexibility Score: inf
ROOT
ATOM      1  C   UNL     1      -5.754  29.409  29.623  1.00  0.00     0.032 C 
ENDROOT
BRANCH   1   2
ATOM      2  C   UNL     1      -4.473  29.051  30.336  1.00  0.00    -0.028 C 
ATOM      3  C   UNL     1      -3.945  27.807  30.383  1.00  0.00    -0.077 C 
ATOM      4  C   UNL     1      -4.639  26.622  29.753  1.00  0.00     0.039 C 
BRANCH   3   5
ATOM      5  C   UNL     1      -2.616  27.603  31.079  1.00  0.00     0.034 C 
BRANCH   5   6
ATOM      6  C   UNL     1      -1.476  28.260  30.291  1.00  0.00     0.032 C 
BRANCH   6   7
ATOM      7  C   UNL     1      -0.513  27.224  29.771  1.00  0.00    -0.028 C 
ATOM      8  C   UNL     1      -1.702  26.990  27.577  1.00  0.00     0.039 C 
ATOM      9  C   UNL     1      -0.617  26.624  28.563  1.00  0.00    -0.080 C 
ATOM     10  C   UNL     1       0.404  25.581  28.189  1.00  0.00     0.039 C 
ENDBRANCH   6   7
ENDBRANCH   5   6
ENDBRANCH   3   5
ENDBRANCH   1   2
BRANCH   1  11
ATOM     11  C   UNL     1      -5.644  30.797  28.986  1.00  0.00     0.034 C 
BRANCH  11  12
ATOM     12  C   UNL     1      -4.803  30.740  27.726  1.00  0.00    -0.077 C 
ATOM     13  C   UNL     1      -4.731  31.763  26.842  1.00  0.00    -0.028 C 
ATOM     14  C   UNL     1      -4.075  29.463  27.402  1.00  0.00     0.039 C 
BRANCH  13  15
ATOM     15  C   UNL     1      -5.412  33.098  27.013  1.00  0.00     0.035 C 
BRANCH  15  16
ATOM     16  C   UNL     1      -4.752  34.166  26.134  1.00  0.00     0.079 C 
BRANCH  16  17
ATOM     17  C   UNL     1      -5.551  34.384  24.875  1.00  0.00     0.130 C 
ATOM     18  O   UNL     1      -5.745  35.522  24.474  1.00  0.00    -0.300 OA
ATOM     19  C   UNL     1      -6.123  33.230  24.105  1.00  0.00     0.087 C 
ENDBRANCH  16  17
ENDBRANCH  15  16
ENDBRANCH  13  15
ENDBRANCH  11  12
ENDBRANCH   1  11
TORSDOF 9
ENDMDL
MODEL 5
REMARK VINA RESULT:    -4.975      2.400      7.004
REMARK INTER + INTRA:          -9.054
REMARK INTER:                  -8.689
REMARK INTRA:                  -0.365
REMARK UNBOUND:                -1.461
REMARK SMILES CC(=O)CCC=C(C)CCC=C(C)CCC=C(C)C
REMARK SMILES IDX 10 1 11 2 12 3 13 4 14 5 15 6 16 7 18 8 17 9 19 10 9 11 7 12
REMARK SMILES IDX 6 13 8 14 5 15 4 16 2 17 3 18 1 19
REMARK H PARENT
REMARK Flexibility Score: inf
ROOT
ATOM      1  C   UNL     1      -3.195  29.025  27.296  1.00  0.00     0.032 C 
ENDROOT
BRANCH   1   2
ATOM      2  C   UNL     1      -2.069  28.593  28.202  1.00  0.00    -0.028 C 
ATOM      3  C   UNL     1      -1.487  27.372  28.172  1.00  0.00    -0.077 C 
ATOM      4  C   UNL     1      -1.963  26.285  27.237  1.00  0.00     0.039 C 
BRANCH   3   5
ATOM      5  C   UNL     1      -0.319  27.097  29.095  1.00  0.00     0.034 C 
BRANCH   5   6
ATOM      6  C   UNL     1      -0.792  26.918  30.543  1.00  0.00     0.032 C 
BRANCH   6   7
ATOM      7  C   UNL     1      -1.501  28.154  31.034  1.00  0.00    -0.028 C 
ATOM      8  C   UNL     1      -3.779  27.142  30.776  1.00  0.00     0.039 C 
ATOM      9  C   UNL     1      -2.845  28.279  31.120  1.00  0.00    -0.080 C 
ATOM     10  C   UNL     1      -3.415  29.588  31.601  1.00  0.00     0.039 C 
ENDBRANCH   6   7
ENDBRANCH   5   6
ENDBRANCH   3   5
ENDBRANCH   1   2
BRANCH   1  11
ATOM     11  C   UNL     1      -3.533  30.501  27.525  1.00  0.00     0.034 C 
BRANCH  11  12
ATOM     12  C   UNL     1      -4.998  30.664  27.879  1.00  0.00    -0.077 C 
ATOM     13  C   UNL     1      -5.718  31.761  27.546  1.00  0.00    -0.028 C 
ATOM     14  C   UNL     1      -5.665  29.594  28.701  1.00  0.00     0.039 C 
BRANCH  13  15
ATOM     15  C   UNL     1      -5.193  32.922  26.740  1.00  0.00     0.035 C 
BRANCH  15  16
ATOM     16  C   UNL     1      -5.789  32.923  25.328  1.00  0.00     0.079 C 
BRANCH  16  17
ATOM     17  C   UNL     1      -4.888  33.659  24.372  1.00  0.00     0.130 C 
ATOM     18  O   UNL     1      -3.736  33.280  24.216  1.00  0.00    -0.300 OA
ATOM     19  C   UNL     1      -5.371  34.859  23.610  1.00  0.00     0.087 C 
ENDBRANCH  16  17
ENDBRANCH  15  16
ENDBRANCH  13  15
ENDBRANCH  11  12
ENDBRANCH   1  11
TORSDOF 9
ENDMDL
MODEL 6
REMARK VINA RESULT:    -4.696      2.175      3.772
REMARK INTER + INTRA:          -8.628
REMARK INTER:                  -7.424
REMARK INTRA:                  -1.205
REMARK UNBOUND:                -1.461
REMARK SMILES CC(=O)CCC=C(C)CCC=C(C)CCC=C(C)C
REMARK SMILES IDX 10 1 11 2 12 3 13 4 14 5 15 6 16 7 18 8 17 9 19 10 9 11 7 12
REMARK SMILES IDX 6 13 8 14 5 15 4 16 2 17 3 18 1 19
REMARK H PARENT
REMARK Flexibility Score: inf
ROOT
ATOM      1  C   UNL     1      -2.680  29.519  27.935  1.00  0.00     0.032 C 
ENDROOT
BRANCH   1   2
ATOM      2  C   UNL     1      -3.986  30.046  27.394  1.00  0.00    -0.028 C 
ATOM      3  C   UNL     1      -4.317  31.356  27.334  1.00  0.00    -0.077 C 
ATOM      4  C   UNL     1      -3.403  32.434  27.868  1.00  0.00     0.039 C 
BRANCH   3   5
ATOM      5  C   UNL     1      -5.636  31.748  26.704  1.00  0.00     0.034 C 
BRANCH   5   6
ATOM      6  C   UNL     1      -5.647  33.236  26.329  1.00  0.00     0.032 C 
BRANCH   6   7
ATOM      7  C   UNL     1      -6.125  33.430  24.913  1.00  0.00    -0.028 C 
ATOM      8  C   UNL     1      -3.808  33.414  23.959  1.00  0.00     0.039 C 
ATOM      9  C   UNL     1      -5.309  33.539  23.841  1.00  0.00    -0.080 C 
ATOM     10  C   UNL     1      -5.930  33.763  22.486  1.00  0.00     0.039 C 
ENDBRANCH   6   7
ENDBRANCH   5   6
ENDBRANCH   3   5
ENDBRANCH   1   2
BRANCH   1  11
ATOM     11  C   UNL     1      -2.332  28.176  27.286  1.00  0.00     0.034 C 
BRANCH  11  12
ATOM     12  C   UNL     1      -1.951  27.156  28.341  1.00  0.00    -0.077 C 
ATOM     13  C   UNL     1      -2.821  26.701  29.272  1.00  0.00    -0.028 C 
ATOM     14  C   UNL     1      -0.523  26.685  28.405  1.00  0.00     0.039 C 
BRANCH  13  15
ATOM     15  C   UNL     1      -4.277  27.087  29.351  1.00  0.00     0.035 C 
BRANCH  15  16
ATOM     16  C   UNL     1      -4.649  27.531  30.771  1.00  0.00     0.079 C 
BRANCH  16  17
ATOM     17  C   UNL     1      -4.410  29.008  30.944  1.00  0.00     0.130 C 
ATOM     18  O   UNL     1      -5.259  29.804  30.570  1.00  0.00    -0.300 OA
ATOM     19  C   UNL     1      -3.145  29.526  31.561  1.00  0.00     0.087 C 
ENDBRANCH  16  17
ENDBRANCH  15  16
ENDBRANCH  13  15
ENDBRANCH  11  12
ENDBRANCH   1  11
TORSDOF 9
ENDMDL
MODEL 7
REMARK VINA RESULT:    -4.331      3.273      7.690
REMARK INTER + INTRA:          -8.070
REMARK INTER:                  -7.207
REMARK INTRA:                  -0.863
REMARK UNBOUND:                -1.461
REMARK SMILES CC(=O)CCC=C(C)CCC=C(C)CCC=C(C)C
REMARK SMILES IDX 10 1 11 2 12 3 13 4 14 5 15 6 16 7 18 8 17 9 19 10 9 11 7 12
REMARK SMILES IDX 6 13 8 14 5 15 4 16 2 17 3 18 1 19
REMARK H PARENT
REMARK Flexibility Score: inf
ROOT
ATOM      1  C   UNL     1      -4.184  31.004  27.255  1.00  0.00     0.032 C 
ENDROOT
BRANCH   1   2
ATOM      2  C   UNL     1      -4.839  29.889  28.032  1.00  0.00    -0.028 C 
ATOM      3  C   UNL     1      -4.241  28.716  28.340  1.00  0.00    -0.077 C 
ATOM      4  C   UNL     1      -2.842  28.388  27.874  1.00  0.00     0.039 C 
BRANCH   3   5
ATOM      5  C   UNL     1      -4.995  27.711  29.185  1.00  0.00     0.034 C 
BRANCH   5   6
ATOM      6  C   UNL     1      -4.186  27.320  30.429  1.00  0.00     0.032 C 
BRANCH   6   7
ATOM      7  C   UNL     1      -3.840  28.536  31.249  1.00  0.00    -0.028 C 
ATOM      8  C   UNL     1      -1.375  28.285  30.871  1.00  0.00     0.039 C 
ATOM      9  C   UNL     1      -2.579  28.967  31.479  1.00  0.00    -0.080 C 
ATOM     10  C   UNL     1      -2.383  30.183  32.347  1.00  0.00     0.039 C 
ENDBRANCH   6   7
ENDBRANCH   5   6
ENDBRANCH   3   5
ENDBRANCH   1   2
BRANCH   1  11
ATOM     11  C   UNL     1      -4.924  32.325  27.483  1.00  0.00     0.034 C 
BRANCH  11  12
ATOM     12  C   UNL     1      -4.141  33.483  26.896  1.00  0.00    -0.077 C 
ATOM     13  C   UNL     1      -4.555  34.177  25.811  1.00  0.00    -0.028 C 
ATOM     14  C   UNL     1      -2.806  33.829  27.500  1.00  0.00     0.039 C 
BRANCH  13  15
ATOM     15  C   UNL     1      -5.856  33.943  25.085  1.00  0.00     0.035 C 
BRANCH  15  16
ATOM     16  C   UNL     1      -6.125  35.059  24.069  1.00  0.00     0.079 C 
BRANCH  16  17
ATOM     17  C   UNL     1      -5.678  34.642  22.693  1.00  0.00     0.130 C 
ATOM     18  O   UNL     1      -4.958  35.385  22.042  1.00  0.00    -0.300 OA
ATOM     19  C   UNL     1      -6.106  33.333  22.097  1.00  0.00     0.087 C 
ENDBRANCH  16  17
ENDBRANCH  15  16
ENDBRANCH  13  15
ENDBRANCH  11  12
ENDBRANCH   1  11
TORSDOF 9
ENDMDL
MODEL 8
REMARK VINA RESULT:    -4.115      2.371      6.234
REMARK INTER + INTRA:          -7.741
REMARK INTER:                  -5.848
REMARK INTRA:                  -1.893
REMARK UNBOUND:                -1.461
REMARK SMILES CC(=O)CCC=C(C)CCC=C(C)CCC=C(C)C
REMARK SMILES IDX 10 1 11 2 12 3 13 4 14 5 15 6 16 7 18 8 17 9 19 10 9 11 7 12
REMARK SMILES IDX 6 13 8 14 5 15 4 16 2 17 3 18 1 19
REMARK H PARENT
REMARK Flexibility Score: inf
ROOT
ATOM      1  C   UNL     1      -3.587  29.188  31.610  1.00  0.00     0.032 C 
ENDROOT
BRANCH   1   2
ATOM      2  C   UNL     1      -2.483  29.240  30.583  1.00  0.00    -0.028 C 
ATOM      3  C   UNL     1      -1.555  28.271  30.406  1.00  0.00    -0.077 C 
ATOM      4  C   UNL     1      -1.511  27.041  31.282  1.00  0.00     0.039 C 
BRANCH   3   5
ATOM      5  C   UNL     1      -0.543  28.424  29.291  1.00  0.00     0.034 C 
BRANCH   5   6
ATOM      6  C   UNL     1      -1.235  28.468  27.922  1.00  0.00     0.032 C 
BRANCH   6   7
ATOM      7  C   UNL     1      -2.063  27.229  27.697  1.00  0.00    -0.028 C 
ATOM      8  C   UNL     1      -0.081  25.697  27.774  1.00  0.00     0.039 C 
ATOM      9  C   UNL     1      -1.556  25.979  27.602  1.00  0.00    -0.080 C 
ATOM     10  C   UNL     1      -2.504  24.837  27.344  1.00  0.00     0.039 C 
ENDBRANCH   6   7
ENDBRANCH   5   6
ENDBRANCH   3   5
ENDBRANCH   1   2
BRANCH   1  11
ATOM     11  C   UNL     1      -4.950  29.398  30.944  1.00  0.00     0.034 C 
BRANCH  11  12
ATOM     12  C   UNL     1      -5.061  28.566  29.682  1.00  0.00    -0.077 C 
ATOM     13  C   UNL     1      -5.280  29.106  28.461  1.00  0.00    -0.028 C 
ATOM     14  C   UNL     1      -5.001  27.066  29.800  1.00  0.00     0.039 C 
BRANCH  13  15
ATOM     15  C   UNL     1      -5.379  30.585  28.180  1.00  0.00     0.035 C 
BRANCH  15  16
ATOM     16  C   UNL     1      -4.023  31.153  27.746  1.00  0.00     0.079 C 
BRANCH  16  17
ATOM     17  C   UNL     1      -4.196  32.498  27.092  1.00  0.00     0.130 C 
ATOM     18  O   UNL     1      -3.421  33.404  27.363  1.00  0.00    -0.300 OA
ATOM     19  C   UNL     1      -5.308  32.755  26.118  1.00  0.00     0.087 C 
ENDBRANCH  16  17
ENDBRANCH  15  16
ENDBRANCH  13  15
ENDBRANCH  11  12
ENDBRANCH   1  11
TORSDOF 9
ENDMDL
