MODEL 1
REMARK VINA RESULT:   103.845      0.000      0.000
REMARK INTER + INTRA:         122.495
REMARK INTER:                 122.058
REMARK INTRA:                   0.437
REMARK UNBOUND:                 0.437
REMARK SMILES C=C(C)[C@H]1CC[C@]2(CO)CC[C@]3(C)[C@@H](CC[C@H]4[C@@]5(C)CC[C@H](O)C(C)(C)[C@H]5CC[C@]43C)[C@@H]12
REMARK SMILES IDX 4 1 5 2 6 3 7 4 32 5 14 6 15 7 16 8 17 9 18 10 20 11 21 12
REMARK SMILES IDX 22 13 24 14 27 15 28 16 29 17 30 18 12 19 11 20 10 21 13 22
REMARK SMILES IDX 31 23 25 24 26 25 19 26 2 27 3 28 1 29 8 30 9 31 23 33
REMARK H PARENT 9 32 23 34
REMARK Flexibility Score: inf
ROOT
ATOM      1  C   UNL     1      83.385  14.539 110.762  1.00  0.00     0.018 C 
ATOM      2  C   UNL     1      84.674  13.845 111.256  1.00  0.00     0.009 C 
ATOM      3  C   UNL     1      85.734  14.054 110.153  1.00  0.00     0.010 C 
ATOM      4  C   UNL     1      84.936  14.110 108.828  1.00  0.00    -0.003 C 
ATOM      5  C   UNL     1      83.687  14.900 109.281  1.00  0.00     0.008 C 
ATOM      6  C   UNL     1      82.620  15.315 108.200  1.00  0.00    -0.000 C 
ATOM      7  C   UNL     1      81.646  14.204 107.792  1.00  0.00     0.005 C 
ATOM      8  C   UNL     1      80.425  14.753 107.056  1.00  0.00     0.005 C 
ATOM      9  C   UNL     1      80.699  15.929 106.057  1.00  0.00     0.002 C 
ATOM     10  C   UNL     1      79.785  17.228 106.301  1.00  0.00    -0.026 C 
ATOM     11  C   UNL     1      79.903  17.780 107.758  1.00  0.00     0.010 C 
ATOM     12  C   UNL     1      79.145  19.099 108.003  1.00  0.00     0.033 C 
ATOM     13  C   UNL     1      79.540  20.203 107.004  1.00  0.00     0.120 C 
ATOM     14  C   UNL     1      79.383  19.772 105.511  1.00  0.00    -0.006 C 
ATOM     15  C   UNL     1      80.140  18.379 105.264  1.00  0.00     0.003 C 
ATOM     16  C   UNL     1      81.681  18.570 105.182  1.00  0.00     0.005 C 
ATOM     17  C   UNL     1      82.415  17.307 104.732  1.00  0.00     0.008 C 
ATOM     18  C   UNL     1      82.240  16.059 105.651  1.00  0.00    -0.024 C 
ATOM     19  C   UNL     1      83.295  15.997 106.925  1.00  0.00    -0.024 C 
ATOM     20  C   UNL     1      84.625  15.210 106.549  1.00  0.00     0.008 C 
ATOM     21  C   UNL     1      85.622  14.932 107.706  1.00  0.00     0.010 C 
ATOM     22  C   UNL     1      83.788  17.425 107.338  1.00  0.00     0.012 C 
ATOM     23  C   UNL     1      82.522  14.871 104.651  1.00  0.00     0.012 C 
ATOM     24  C   UNL     1      79.994  20.901 104.626  1.00  0.00     0.014 C 
ATOM     25  C   UNL     1      77.876  19.691 105.090  1.00  0.00     0.014 C 
ATOM     26  C   UNL     1      78.306  16.750 106.067  1.00  0.00     0.012 C 
ENDROOT
BRANCH   1  27
ATOM     27  C   UNL     1      82.082  13.804 111.097  1.00  0.00    -0.077 C 
ATOM     28  C   UNL     1      80.832  14.598 111.411  1.00  0.00     0.039 C 
ATOM     29  C   UNL     1      82.002  12.459 111.182  1.00  0.00     0.008 C 
ENDBRANCH   1  27
BRANCH   4  30
ATOM     30  C   UNL     1      84.710  12.638 108.353  1.00  0.00     0.163 C 
BRANCH  30  31
ATOM     31  O   UNL     1      83.900  12.608 107.202  1.00  0.00    -0.396 OA
ATOM     32  H   UNL     1      83.004  12.909 107.487  1.00  0.00     0.210 HD
ENDBRANCH  30  31
ENDBRANCH   4  30
BRANCH  13  33
ATOM     33  O   UNL     1      78.846  21.401 107.272  1.00  0.00    -0.393 OA
ATOM     34  H   UNL     1      79.239  21.814 108.084  1.00  0.00     0.210 HD
ENDBRANCH  13  33
TORSDOF 4
ENDMDL
