MODEL 1
REMARK VINA RESULT:    -5.465      0.000      0.000
REMARK INTER + INTRA:         -12.253
REMARK INTER:                  -9.937
REMARK INTRA:                  -2.315
REMARK UNBOUND:                -2.315
REMARK SMILES CCCCCCCCCCCCCC[C@H](C)C(=O)[O-]
REMARK SMILES IDX 9 1 10 2 11 3 12 4 13 5 14 6 15 7 16 8 17 9 18 10 19 11 8 12
REMARK SMILES IDX 7 13 6 14 5 15 4 16 3 17 2 18 1 19
REMARK H PARENT
REMARK Flexibility Score: inf
ROOT
ATOM      1  C   UNL     1      20.617  -3.854 -38.631  1.00  0.00     0.000 C 
ENDROOT
BRANCH   1   2
ATOM      2  C   UNL     1      21.223  -3.495 -37.264  1.00  0.00     0.000 C 
BRANCH   2   3
ATOM      3  C   UNL     1      21.683  -4.731 -36.468  1.00  0.00     0.000 C 
BRANCH   3   4
ATOM      4  C   UNL     1      23.196  -4.804 -36.190  1.00  0.00     0.000 C 
BRANCH   4   5
ATOM      5  C   UNL     1      23.754  -6.234 -36.280  1.00  0.00     0.001 C 
BRANCH   5   6
ATOM      6  C   UNL     1      22.966  -7.128 -37.257  1.00  0.00     0.009 C 
BRANCH   6   7
ATOM      7  C   UNL     1      23.800  -8.210 -37.982  1.00  0.00     0.032 C 
ATOM      8  C   UNL     1      25.259  -7.785 -38.194  1.00  0.00     0.014 C 
BRANCH   7   9
ATOM      9  C   UNL     1      23.166  -8.520 -39.310  1.00  0.00     0.044 C 
ATOM     10  O   UNL     1      22.072  -7.984 -39.632  1.00  0.00    -0.550 OA
ATOM     11  O   UNL     1      23.790  -9.387 -40.201  1.00  0.00    -0.550 OA
ENDBRANCH   7   9
ENDBRANCH   6   7
ENDBRANCH   5   6
ENDBRANCH   4   5
ENDBRANCH   3   4
ENDBRANCH   2   3
ENDBRANCH   1   2
BRANCH   1  12
ATOM     12  C   UNL     1      21.617  -3.669 -39.784  1.00  0.00     0.000 C 
BRANCH  12  13
ATOM     13  C   UNL     1      22.577  -4.863 -39.927  1.00  0.00    -0.000 C 
BRANCH  13  14
ATOM     14  C   UNL     1      24.056  -4.438 -39.981  1.00  0.00    -0.000 C 
BRANCH  14  15
ATOM     15  C   UNL     1      24.355  -3.056 -39.371  1.00  0.00    -0.000 C 
BRANCH  15  16
ATOM     16  C   UNL     1      25.767  -2.959 -38.772  1.00  0.00    -0.000 C 
BRANCH  16  17
ATOM     17  C   UNL     1      26.221  -4.316 -38.216  1.00  0.00    -0.000 C 
BRANCH  17  18
ATOM     18  C   UNL     1      27.739  -4.385 -37.994  1.00  0.00    -0.003 C 
ATOM     19  C   UNL     1      28.465  -3.128 -38.470  1.00  0.00     0.004 C 
ENDBRANCH  17  18
ENDBRANCH  16  17
ENDBRANCH  15  16
ENDBRANCH  14  15
ENDBRANCH  13  14
ENDBRANCH  12  13
ENDBRANCH   1  12
TORSDOF 14
ENDMDL
MODEL 2
REMARK VINA RESULT:    -5.382      1.133      3.854
REMARK INTER + INTRA:         -12.101
REMARK INTER:                  -9.798
REMARK INTRA:                  -2.303
REMARK UNBOUND:                -2.315
REMARK SMILES CCCCCCCCCCCCCC[C@H](C)C(=O)[O-]
REMARK SMILES IDX 9 1 10 2 11 3 12 4 13 5 14 6 15 7 16 8 17 9 18 10 19 11 8 12
REMARK SMILES IDX 7 13 6 14 5 15 4 16 3 17 2 18 1 19
REMARK H PARENT
REMARK Flexibility Score: inf
ROOT
ATOM      1  C   UNL     1      25.253  -3.009 -38.736  1.00  0.00     0.000 C 
ENDROOT
BRANCH   1   2
ATOM      2  C   UNL     1      25.588  -4.188 -37.807  1.00  0.00     0.000 C 
BRANCH   2   3
ATOM      3  C   UNL     1      27.062  -4.625 -37.900  1.00  0.00     0.000 C 
BRANCH   3   4
ATOM      4  C   UNL     1      27.328  -6.105 -37.563  1.00  0.00     0.000 C 
BRANCH   4   5
ATOM      5  C   UNL     1      26.043  -6.947 -37.504  1.00  0.00     0.001 C 
BRANCH   5   6
ATOM      6  C   UNL     1      25.771  -7.724 -38.807  1.00  0.00     0.009 C 
BRANCH   6   7
ATOM      7  C   UNL     1      24.854  -8.960 -38.660  1.00  0.00     0.032 C 
ATOM      8  C   UNL     1      25.164 -10.050 -39.696  1.00  0.00     0.014 C 
BRANCH   7   9
ATOM      9  C   UNL     1      23.417  -8.534 -38.790  1.00  0.00     0.044 C 
ATOM     10  O   UNL     1      22.770  -8.168 -37.772  1.00  0.00    -0.550 OA
ATOM     11  O   UNL     1      22.797  -8.525 -40.034  1.00  0.00    -0.550 OA
ENDBRANCH   7   9
ENDBRANCH   6   7
ENDBRANCH   5   6
ENDBRANCH   4   5
ENDBRANCH   3   4
ENDBRANCH   2   3
ENDBRANCH   1   2
BRANCH   1  12
ATOM     12  C   UNL     1      24.242  -3.391 -39.829  1.00  0.00     0.000 C 
BRANCH  12  13
ATOM     13  C   UNL     1      23.848  -4.877 -39.773  1.00  0.00    -0.000 C 
BRANCH  13  14
ATOM     14  C   UNL     1      22.338  -5.104 -39.969  1.00  0.00    -0.000 C 
BRANCH  14  15
ATOM     15  C   UNL     1      21.470  -3.838 -39.834  1.00  0.00    -0.000 C 
BRANCH  15  16
ATOM     16  C   UNL     1      20.756  -3.743 -38.477  1.00  0.00    -0.000 C 
BRANCH  16  17
ATOM     17  C   UNL     1      21.352  -2.614 -37.623  1.00  0.00    -0.000 C 
BRANCH  17  18
ATOM     18  C   UNL     1      22.212  -3.141 -36.465  1.00  0.00    -0.003 C 
ATOM     19  C   UNL     1      22.159  -4.663 -36.333  1.00  0.00     0.004 C 
ENDBRANCH  17  18
ENDBRANCH  16  17
ENDBRANCH  15  16
ENDBRANCH  14  15
ENDBRANCH  13  14
ENDBRANCH  12  13
ENDBRANCH   1  12
TORSDOF 14
ENDMDL
MODEL 3
REMARK VINA RESULT:    -5.253      1.186      3.847
REMARK INTER + INTRA:         -11.868
REMARK INTER:                  -9.468
REMARK INTRA:                  -2.400
REMARK UNBOUND:                -2.315
REMARK SMILES CCCCCCCCCCCCCC[C@H](C)C(=O)[O-]
REMARK SMILES IDX 9 1 10 2 11 3 12 4 13 5 14 6 15 7 16 8 17 9 18 10 19 11 8 12
REMARK SMILES IDX 7 13 6 14 5 15 4 16 3 17 2 18 1 19
REMARK H PARENT
REMARK Flexibility Score: inf
ROOT
ATOM      1  C   UNL     1      24.127  -3.520 -39.342  1.00  0.00     0.000 C 
ENDROOT
BRANCH   1   2
ATOM      2  C   UNL     1      25.626  -3.645 -39.024  1.00  0.00     0.000 C 
BRANCH   2   3
ATOM      3  C   UNL     1      25.902  -4.427 -37.727  1.00  0.00     0.000 C 
BRANCH   3   4
ATOM      4  C   UNL     1      27.120  -5.369 -37.777  1.00  0.00     0.000 C 
BRANCH   4   5
ATOM      5  C   UNL     1      26.754  -6.839 -37.512  1.00  0.00     0.001 C 
BRANCH   5   6
ATOM      6  C   UNL     1      25.236  -7.066 -37.372  1.00  0.00     0.009 C 
BRANCH   6   7
ATOM      7  C   UNL     1      24.672  -8.270 -38.161  1.00  0.00     0.032 C 
ATOM      8  C   UNL     1      25.324  -8.427 -39.542  1.00  0.00     0.014 C 
BRANCH   7   9
ATOM      9  C   UNL     1      23.185  -8.111 -38.320  1.00  0.00     0.044 C 
ATOM     10  O   UNL     1      22.649  -8.259 -39.450  1.00  0.00    -0.550 OA
ATOM     11  O   UNL     1      22.389  -7.816 -37.219  1.00  0.00    -0.550 OA
ENDBRANCH   7   9
ENDBRANCH   6   7
ENDBRANCH   5   6
ENDBRANCH   4   5
ENDBRANCH   3   4
ENDBRANCH   2   3
ENDBRANCH   1   2
BRANCH   1  12
ATOM     12  C   UNL     1      23.533  -4.826 -39.894  1.00  0.00     0.000 C 
BRANCH  12  13
ATOM     13  C   UNL     1      21.995  -4.840 -39.844  1.00  0.00    -0.000 C 
BRANCH  13  14
ATOM     14  C   UNL     1      21.389  -3.435 -39.677  1.00  0.00    -0.000 C 
BRANCH  14  15
ATOM     15  C   UNL     1      20.174  -3.362 -38.734  1.00  0.00    -0.000 C 
BRANCH  15  16
ATOM     16  C   UNL     1      20.278  -2.222 -37.709  1.00  0.00    -0.000 C 
BRANCH  16  17
ATOM     17  C   UNL     1      21.662  -2.208 -37.045  1.00  0.00    -0.000 C 
BRANCH  17  18
ATOM     18  C   UNL     1      21.745  -3.151 -35.835  1.00  0.00    -0.003 C 
ATOM     19  C   UNL     1      22.568  -4.407 -36.119  1.00  0.00     0.004 C 
ENDBRANCH  17  18
ENDBRANCH  16  17
ENDBRANCH  15  16
ENDBRANCH  14  15
ENDBRANCH  13  14
ENDBRANCH  12  13
ENDBRANCH   1  12
TORSDOF 14
ENDMDL
MODEL 4
REMARK VINA RESULT:    -5.246      1.429      2.695
REMARK INTER + INTRA:         -11.855
REMARK INTER:                  -9.281
REMARK INTRA:                  -2.574
REMARK UNBOUND:                -2.315
REMARK SMILES CCCCCCCCCCCCCC[C@H](C)C(=O)[O-]
REMARK SMILES IDX 9 1 10 2 11 3 12 4 13 5 14 6 15 7 16 8 17 9 18 10 19 11 8 12
REMARK SMILES IDX 7 13 6 14 5 15 4 16 3 17 2 18 1 19
REMARK H PARENT
REMARK Flexibility Score: inf
ROOT
ATOM      1  C   UNL     1      21.635  -4.133 -35.947  1.00  0.00     0.000 C 
ENDROOT
BRANCH   1   2
ATOM      2  C   UNL     1      23.126  -4.498 -36.033  1.00  0.00     0.000 C 
BRANCH   2   3
ATOM      3  C   UNL     1      23.362  -5.948 -36.495  1.00  0.00     0.000 C 
BRANCH   3   4
ATOM      4  C   UNL     1      22.090  -6.731 -36.871  1.00  0.00     0.000 C 
BRANCH   4   5
ATOM      5  C   UNL     1      22.382  -7.975 -37.726  1.00  0.00     0.001 C 
BRANCH   5   6
ATOM      6  C   UNL     1      23.284  -7.675 -38.940  1.00  0.00     0.009 C 
BRANCH   6   7
ATOM      7  C   UNL     1      24.669  -8.363 -38.920  1.00  0.00     0.032 C 
ATOM      8  C   UNL     1      25.788  -7.447 -39.434  1.00  0.00     0.014 C 
BRANCH   7   9
ATOM      9  C   UNL     1      24.616  -9.613 -39.754  1.00  0.00     0.044 C 
ATOM     10  O   UNL     1      23.706  -9.766 -40.611  1.00  0.00    -0.550 OA
ATOM     11  O   UNL     1      25.581 -10.602 -39.598  1.00  0.00    -0.550 OA
ENDBRANCH   7   9
ENDBRANCH   6   7
ENDBRANCH   5   6
ENDBRANCH   4   5
ENDBRANCH   3   4
ENDBRANCH   2   3
ENDBRANCH   1   2
BRANCH   1  12
ATOM     12  C   UNL     1      21.360  -2.681 -36.370  1.00  0.00     0.000 C 
BRANCH  12  13
ATOM     13  C   UNL     1      20.875  -2.574 -37.826  1.00  0.00    -0.000 C 
BRANCH  13  14
ATOM     14  C   UNL     1      20.596  -3.947 -38.466  1.00  0.00    -0.000 C 
BRANCH  14  15
ATOM     15  C   UNL     1      21.560  -4.339 -39.602  1.00  0.00    -0.000 C 
BRANCH  15  16
ATOM     16  C   UNL     1      22.802  -3.437 -39.672  1.00  0.00    -0.000 C 
BRANCH  16  17
ATOM     17  C   UNL     1      24.084  -4.278 -39.753  1.00  0.00    -0.000 C 
BRANCH  17  18
ATOM     18  C   UNL     1      25.204  -3.734 -38.852  1.00  0.00    -0.003 C 
ATOM     19  C   UNL     1      25.291  -2.208 -38.873  1.00  0.00     0.004 C 
ENDBRANCH  17  18
ENDBRANCH  16  17
ENDBRANCH  15  16
ENDBRANCH  14  15
ENDBRANCH  13  14
ENDBRANCH  12  13
ENDBRANCH   1  12
TORSDOF 14
ENDMDL
MODEL 5
REMARK VINA RESULT:    -5.243      1.042      1.820
REMARK INTER + INTRA:         -11.849
REMARK INTER:                  -9.601
REMARK INTRA:                  -2.248
REMARK UNBOUND:                -2.315
REMARK SMILES CCCCCCCCCCCCCC[C@H](C)C(=O)[O-]
REMARK SMILES IDX 9 1 10 2 11 3 12 4 13 5 14 6 15 7 16 8 17 9 18 10 19 11 8 12
REMARK SMILES IDX 7 13 6 14 5 15 4 16 3 17 2 18 1 19
REMARK H PARENT
REMARK Flexibility Score: inf
ROOT
ATOM      1  C   UNL     1      22.122  -2.640 -37.982  1.00  0.00     0.000 C 
ENDROOT
BRANCH   1   2
ATOM      2  C   UNL     1      21.346  -3.340 -36.854  1.00  0.00     0.000 C 
BRANCH   2   3
ATOM      3  C   UNL     1      21.757  -4.813 -36.667  1.00  0.00     0.000 C 
BRANCH   3   4
ATOM      4  C   UNL     1      23.200  -5.032 -36.176  1.00  0.00     0.000 C 
BRANCH   4   5
ATOM      5  C   UNL     1      23.667  -6.490 -36.318  1.00  0.00     0.001 C 
BRANCH   5   6
ATOM      6  C   UNL     1      22.766  -7.324 -37.250  1.00  0.00     0.009 C 
BRANCH   6   7
ATOM      7  C   UNL     1      23.196  -7.352 -38.735  1.00  0.00     0.032 C 
ATOM      8  C   UNL     1      22.028  -7.080 -39.692  1.00  0.00     0.014 C 
BRANCH   7   9
ATOM      9  C   UNL     1      23.809  -8.688 -39.051  1.00  0.00     0.044 C 
ATOM     10  O   UNL     1      24.550  -9.261 -38.209  1.00  0.00    -0.550 OA
ATOM     11  O   UNL     1      23.549  -9.309 -40.268  1.00  0.00    -0.550 OA
ENDBRANCH   7   9
ENDBRANCH   6   7
ENDBRANCH   5   6
ENDBRANCH   4   5
ENDBRANCH   3   4
ENDBRANCH   2   3
ENDBRANCH   1   2
BRANCH   1  12
ATOM     12  C   UNL     1      22.154  -3.468 -39.276  1.00  0.00     0.000 C 
BRANCH  12  13
ATOM     13  C   UNL     1      23.584  -3.852 -39.694  1.00  0.00    -0.000 C 
BRANCH  13  14
ATOM     14  C   UNL     1      24.587  -2.697 -39.524  1.00  0.00    -0.000 C 
BRANCH  14  15
ATOM     15  C   UNL     1      25.661  -2.925 -38.445  1.00  0.00    -0.000 C 
BRANCH  15  16
ATOM     16  C   UNL     1      26.100  -4.394 -38.337  1.00  0.00    -0.000 C 
BRANCH  16  17
ATOM     17  C   UNL     1      27.593  -4.495 -37.992  1.00  0.00    -0.000 C 
BRANCH  17  18
ATOM     18  C   UNL     1      28.010  -5.917 -37.589  1.00  0.00    -0.003 C 
ATOM     19  C   UNL     1      26.928  -6.956 -37.879  1.00  0.00     0.004 C 
ENDBRANCH  17  18
ENDBRANCH  16  17
ENDBRANCH  15  16
ENDBRANCH  14  15
ENDBRANCH  13  14
ENDBRANCH  12  13
ENDBRANCH   1  12
TORSDOF 14
ENDMDL
MODEL 6
REMARK VINA RESULT:    -5.165      1.664      3.889
REMARK INTER + INTRA:         -11.707
REMARK INTER:                  -9.660
REMARK INTRA:                  -2.047
REMARK UNBOUND:                -2.315
REMARK SMILES CCCCCCCCCCCCCC[C@H](C)C(=O)[O-]
REMARK SMILES IDX 9 1 10 2 11 3 12 4 13 5 14 6 15 7 16 8 17 9 18 10 19 11 8 12
REMARK SMILES IDX 7 13 6 14 5 15 4 16 3 17 2 18 1 19
REMARK H PARENT
REMARK Flexibility Score: inf
ROOT
ATOM      1  C   UNL     1      22.231  -6.823 -37.156  1.00  0.00     0.000 C 
ENDROOT
BRANCH   1   2
ATOM      2  C   UNL     1      23.515  -6.325 -36.471  1.00  0.00     0.000 C 
BRANCH   2   3
ATOM      3  C   UNL     1      23.541  -4.797 -36.283  1.00  0.00     0.000 C 
BRANCH   3   4
ATOM      4  C   UNL     1      22.225  -4.177 -35.777  1.00  0.00     0.000 C 
BRANCH   4   5
ATOM      5  C   UNL     1      21.778  -2.960 -36.605  1.00  0.00     0.001 C 
BRANCH   5   6
ATOM      6  C   UNL     1      22.501  -2.855 -37.961  1.00  0.00     0.009 C 
BRANCH   6   7
ATOM      7  C   UNL     1      21.684  -3.334 -39.184  1.00  0.00     0.032 C 
ATOM      8  C   UNL     1      20.304  -3.880 -38.793  1.00  0.00     0.014 C 
BRANCH   7   9
ATOM      9  C   UNL     1      22.458  -4.396 -39.916  1.00  0.00     0.044 C 
ATOM     10  O   UNL     1      21.860  -5.218 -40.659  1.00  0.00    -0.550 OA
ATOM     11  O   UNL     1      23.841  -4.468 -39.792  1.00  0.00    -0.550 OA
ENDBRANCH   7   9
ENDBRANCH   6   7
ENDBRANCH   5   6
ENDBRANCH   4   5
ENDBRANCH   3   4
ENDBRANCH   2   3
ENDBRANCH   1   2
BRANCH   1  12
ATOM     12  C   UNL     1      22.522  -7.775 -38.327  1.00  0.00     0.000 C 
BRANCH  12  13
ATOM     13  C   UNL     1      23.820  -8.575 -38.127  1.00  0.00    -0.000 C 
BRANCH  13  14
ATOM     14  C   UNL     1      24.766  -8.493 -39.340  1.00  0.00    -0.000 C 
BRANCH  14  15
ATOM     15  C   UNL     1      25.772  -7.329 -39.299  1.00  0.00    -0.000 C 
BRANCH  15  16
ATOM     16  C   UNL     1      26.388  -7.117 -37.908  1.00  0.00    -0.000 C 
BRANCH  16  17
ATOM     17  C   UNL     1      27.507  -6.067 -37.958  1.00  0.00    -0.000 C 
BRANCH  17  18
ATOM     18  C   UNL     1      26.973  -4.630 -37.854  1.00  0.00    -0.003 C 
ATOM     19  C   UNL     1      28.003  -3.584 -38.278  1.00  0.00     0.004 C 
ENDBRANCH  17  18
ENDBRANCH  16  17
ENDBRANCH  15  16
ENDBRANCH  14  15
ENDBRANCH  13  14
ENDBRANCH  12  13
ENDBRANCH   1  12
TORSDOF 14
ENDMDL
MODEL 7
REMARK VINA RESULT:    -5.150      2.020      5.030
REMARK INTER + INTRA:         -11.681
REMARK INTER:                  -9.406
REMARK INTRA:                  -2.275
REMARK UNBOUND:                -2.315
REMARK SMILES CCCCCCCCCCCCCC[C@H](C)C(=O)[O-]
REMARK SMILES IDX 9 1 10 2 11 3 12 4 13 5 14 6 15 7 16 8 17 9 18 10 19 11 8 12
REMARK SMILES IDX 7 13 6 14 5 15 4 16 3 17 2 18 1 19
REMARK H PARENT
REMARK Flexibility Score: inf
ROOT
ATOM      1  C   UNL     1      22.015  -6.834 -39.843  1.00  0.00     0.000 C 
ENDROOT
BRANCH   1   2
ATOM      2  C   UNL     1      22.387  -5.392 -40.225  1.00  0.00     0.000 C 
BRANCH   2   3
ATOM      3  C   UNL     1      23.864  -5.059 -39.944  1.00  0.00     0.000 C 
BRANCH   3   4
ATOM      4  C   UNL     1      24.184  -3.558 -39.816  1.00  0.00     0.000 C 
BRANCH   4   5
ATOM      5  C   UNL     1      25.167  -3.249 -38.674  1.00  0.00     0.001 C 
BRANCH   5   6
ATOM      6  C   UNL     1      25.528  -4.491 -37.837  1.00  0.00     0.009 C 
BRANCH   6   7
ATOM      7  C   UNL     1      27.039  -4.692 -37.571  1.00  0.00     0.032 C 
ATOM      8  C   UNL     1      27.914  -3.755 -38.414  1.00  0.00     0.014 C 
BRANCH   7   9
ATOM      9  C   UNL     1      27.409  -6.121 -37.855  1.00  0.00     0.044 C 
ATOM     10  O   UNL     1      28.449  -6.619 -37.347  1.00  0.00    -0.550 OA
ATOM     11  O   UNL     1      26.600  -6.909 -38.666  1.00  0.00    -0.550 OA
ENDBRANCH   7   9
ENDBRANCH   6   7
ENDBRANCH   5   6
ENDBRANCH   4   5
ENDBRANCH   3   4
ENDBRANCH   2   3
ENDBRANCH   1   2
BRANCH   1  12
ATOM     12  C   UNL     1      22.929  -7.407 -38.749  1.00  0.00     0.000 C 
BRANCH  12  13
ATOM     13  C   UNL     1      22.319  -7.274 -37.343  1.00  0.00    -0.000 C 
BRANCH  13  14
ATOM     14  C   UNL     1      22.552  -5.885 -36.719  1.00  0.00    -0.000 C 
BRANCH  14  15
ATOM     15  C   UNL     1      21.302  -4.989 -36.649  1.00  0.00    -0.000 C 
BRANCH  15  16
ATOM     16  C   UNL     1      21.634  -3.520 -36.342  1.00  0.00    -0.000 C 
BRANCH  16  17
ATOM     17  C   UNL     1      21.573  -2.668 -37.618  1.00  0.00    -0.000 C 
BRANCH  17  18
ATOM     18  C   UNL     1      20.352  -2.996 -38.490  1.00  0.00    -0.003 C 
ATOM     19  C   UNL     1      19.286  -1.901 -38.451  1.00  0.00     0.004 C 
ENDBRANCH  17  18
ENDBRANCH  16  17
ENDBRANCH  15  16
ENDBRANCH  14  15
ENDBRANCH  13  14
ENDBRANCH  12  13
ENDBRANCH   1  12
TORSDOF 14
ENDMDL
MODEL 8
REMARK VINA RESULT:    -5.130      1.612      3.433
REMARK INTER + INTRA:         -11.645
REMARK INTER:                  -9.356
REMARK INTRA:                  -2.288
REMARK UNBOUND:                -2.315
REMARK SMILES CCCCCCCCCCCCCC[C@H](C)C(=O)[O-]
REMARK SMILES IDX 9 1 10 2 11 3 12 4 13 5 14 6 15 7 16 8 17 9 18 10 19 11 8 12
REMARK SMILES IDX 7 13 6 14 5 15 4 16 3 17 2 18 1 19
REMARK H PARENT
REMARK Flexibility Score: inf
ROOT
ATOM      1  C   UNL     1      21.961  -4.103 -35.693  1.00  0.00     0.000 C 
ENDROOT
BRANCH   1   2
ATOM      2  C   UNL     1      23.405  -4.128 -36.222  1.00  0.00     0.000 C 
BRANCH   2   3
ATOM      3  C   UNL     1      23.976  -5.553 -36.342  1.00  0.00     0.000 C 
BRANCH   3   4
ATOM      4  C   UNL     1      25.318  -5.660 -37.090  1.00  0.00     0.000 C 
BRANCH   4   5
ATOM      5  C   UNL     1      25.792  -7.112 -37.269  1.00  0.00     0.001 C 
BRANCH   5   6
ATOM      6  C   UNL     1      25.515  -7.667 -38.679  1.00  0.00     0.009 C 
BRANCH   6   7
ATOM      7  C   UNL     1      24.620  -8.927 -38.729  1.00  0.00     0.032 C 
ATOM      8  C   UNL     1      24.945  -9.833 -39.925  1.00  0.00     0.014 C 
BRANCH   7   9
ATOM      9  C   UNL     1      23.176  -8.511 -38.788  1.00  0.00     0.044 C 
ATOM     10  O   UNL     1      22.625  -8.289 -39.900  1.00  0.00    -0.550 OA
ATOM     11  O   UNL     1      22.433  -8.384 -37.620  1.00  0.00    -0.550 OA
ENDBRANCH   7   9
ENDBRANCH   6   7
ENDBRANCH   5   6
ENDBRANCH   4   5
ENDBRANCH   3   4
ENDBRANCH   2   3
ENDBRANCH   1   2
BRANCH   1  12
ATOM     12  C   UNL     1      21.336  -2.701 -35.758  1.00  0.00     0.000 C 
BRANCH  12  13
ATOM     13  C   UNL     1      21.494  -2.050 -37.143  1.00  0.00    -0.000 C 
BRANCH  13  14
ATOM     14  C   UNL     1      20.240  -2.201 -38.022  1.00  0.00    -0.000 C 
BRANCH  14  15
ATOM     15  C   UNL     1      20.118  -3.553 -38.749  1.00  0.00    -0.000 C 
BRANCH  15  16
ATOM     16  C   UNL     1      21.177  -3.742 -39.847  1.00  0.00    -0.000 C 
BRANCH  16  17
ATOM     17  C   UNL     1      22.080  -4.943 -39.535  1.00  0.00    -0.000 C 
BRANCH  17  18
ATOM     18  C   UNL     1      23.527  -4.733 -40.007  1.00  0.00    -0.003 C 
ATOM     19  C   UNL     1      24.049  -3.328 -39.707  1.00  0.00     0.004 C 
ENDBRANCH  17  18
ENDBRANCH  16  17
ENDBRANCH  15  16
ENDBRANCH  14  15
ENDBRANCH  13  14
ENDBRANCH  12  13
ENDBRANCH   1  12
TORSDOF 14
ENDMDL
MODEL 9
REMARK VINA RESULT:    -5.080      2.526      4.555
REMARK INTER + INTRA:         -11.553
REMARK INTER:                  -9.469
REMARK INTRA:                  -2.084
REMARK UNBOUND:                -2.315
REMARK SMILES CCCCCCCCCCCCCC[C@H](C)C(=O)[O-]
REMARK SMILES IDX 9 1 10 2 11 3 12 4 13 5 14 6 15 7 16 8 17 9 18 10 19 11 8 12
REMARK SMILES IDX 7 13 6 14 5 15 4 16 3 17 2 18 1 19
REMARK H PARENT
REMARK Flexibility Score: inf
ROOT
ATOM      1  C   UNL     1      22.701  -7.719 -38.002  1.00  0.00     0.000 C 
ENDROOT
BRANCH   1   2
ATOM      2  C   UNL     1      21.842  -6.701 -37.232  1.00  0.00     0.000 C 
BRANCH   2   3
ATOM      3  C   UNL     1      22.653  -5.494 -36.725  1.00  0.00     0.000 C 
BRANCH   3   4
ATOM      4  C   UNL     1      21.815  -4.346 -36.131  1.00  0.00     0.000 C 
BRANCH   4   5
ATOM      5  C   UNL     1      22.018  -3.012 -36.867  1.00  0.00     0.001 C 
BRANCH   5   6
ATOM      6  C   UNL     1      20.768  -2.555 -37.644  1.00  0.00     0.009 C 
BRANCH   6   7
ATOM      7  C   UNL     1      20.389  -3.432 -38.861  1.00  0.00     0.032 C 
ATOM      8  C   UNL     1      21.596  -3.756 -39.752  1.00  0.00     0.014 C 
BRANCH   7   9
ATOM      9  C   UNL     1      19.336  -2.730 -39.673  1.00  0.00     0.044 C 
ATOM     10  O   UNL     1      18.497  -1.978 -39.108  1.00  0.00    -0.550 OA
ATOM     11  O   UNL     1      19.289  -2.892 -41.053  1.00  0.00    -0.550 OA
ENDBRANCH   7   9
ENDBRANCH   6   7
ENDBRANCH   5   6
ENDBRANCH   4   5
ENDBRANCH   3   4
ENDBRANCH   2   3
ENDBRANCH   1   2
BRANCH   1  12
ATOM     12  C   UNL     1      23.395  -7.097 -39.224  1.00  0.00     0.000 C 
BRANCH  12  13
ATOM     13  C   UNL     1      24.884  -7.472 -39.311  1.00  0.00    -0.000 C 
BRANCH  13  14
ATOM     14  C   UNL     1      25.517  -7.729 -37.931  1.00  0.00    -0.000 C 
BRANCH  14  15
ATOM     15  C   UNL     1      25.922  -6.460 -37.159  1.00  0.00    -0.000 C 
BRANCH  15  16
ATOM     16  C   UNL     1      27.145  -5.754 -37.765  1.00  0.00    -0.000 C 
BRANCH  16  17
ATOM     17  C   UNL     1      26.843  -4.273 -38.036  1.00  0.00    -0.000 C 
BRANCH  17  18
ATOM     18  C   UNL     1      25.477  -4.063 -38.707  1.00  0.00    -0.003 C 
ATOM     19  C   UNL     1      25.072  -2.591 -38.775  1.00  0.00     0.004 C 
ENDBRANCH  17  18
ENDBRANCH  16  17
ENDBRANCH  15  16
ENDBRANCH  14  15
ENDBRANCH  13  14
ENDBRANCH  12  13
ENDBRANCH   1  12
TORSDOF 14
ENDMDL
