MODEL 1
REMARK VINA RESULT:    -6.314      0.000      0.000
REMARK INTER + INTRA:          -8.651
REMARK INTER:                  -8.529
REMARK INTRA:                  -0.123
REMARK UNBOUND:                -0.123
REMARK SMILES O=c1c(-c2ccc(O)cc2)coc2c([C@@H]3O[C@H](CO)[C@@H](O)[C@H](O)[C@@H]3O)c(O)ccc12
REMARK SMILES IDX 3 1 11 2 12 3 13 4 30 5 2 6 1 7 29 8 28 9 26 10 14 11 4 12
REMARK SMILES IDX 5 13 6 14 7 15 10 16 9 17 8 18 15 20 24 21 16 22 22 23 17 24
REMARK SMILES IDX 20 25 25 26 23 28 18 30 19 31 21 33 27 35
REMARK H PARENT 8 19 25 27 23 29 19 32 21 34 27 36
REMARK Flexibility Score: inf
ROOT
ATOM      1  C   UNL     1      24.073  19.794  -0.551  1.00  0.00     0.065 A 
ATOM      2  C   UNL     1      25.197  19.046  -0.926  1.00  0.00     0.208 A 
ATOM      3  O   UNL     1      25.322  18.576  -2.160  1.00  0.00    -0.463 OA
ATOM      4  C   UNL     1      24.416  18.773  -3.115  1.00  0.00     0.147 A 
ATOM      5  C   UNL     1      23.257  19.532  -2.826  1.00  0.00     0.066 A 
ATOM      6  C   UNL     1      23.092  20.045  -1.526  1.00  0.00     0.200 A 
ATOM      7  O   UNL     1      22.081  20.748  -1.242  1.00  0.00    -0.288 OA
ATOM      8  C   UNL     1      22.312  19.765  -3.833  1.00  0.00     0.020 A 
ATOM      9  C   UNL     1      22.525  19.278  -5.119  1.00  0.00     0.047 A 
ATOM     10  C   UNL     1      23.671  18.542  -5.430  1.00  0.00     0.125 A 
ATOM     11  C   UNL     1      24.615  18.231  -4.413  1.00  0.00     0.069 A 
ENDROOT
BRANCH   1  12
ATOM     12  C   UNL     1      23.950  20.300   0.839  1.00  0.00    -0.011 A 
ATOM     13  C   UNL     1      24.116  21.670   1.112  1.00  0.00     0.013 A 
ATOM     14  C   UNL     1      24.008  22.149   2.421  1.00  0.00     0.047 A 
ATOM     15  C   UNL     1      23.742  21.267   3.473  1.00  0.00     0.115 A 
ATOM     16  C   UNL     1      23.690  19.419   1.903  1.00  0.00     0.013 A 
ATOM     17  C   UNL     1      23.585  19.900   3.212  1.00  0.00     0.047 A 
BRANCH  15  18
ATOM     18  O   UNL     1      23.639  21.758   4.773  1.00  0.00    -0.508 OA
ATOM     19  H   UNL     1      23.154  21.241   5.497  1.00  0.00     0.293 HD
ENDBRANCH  15  18
ENDBRANCH   1  12
BRANCH  11  20
ATOM     20  C   UNL     1      25.843  17.379  -4.722  1.00  0.00     0.188 C 
ATOM     21  C   UNL     1      26.302  16.620  -3.457  1.00  0.00     0.179 C 
ATOM     22  O   UNL     1      25.567  16.468  -5.775  1.00  0.00    -0.362 OA
ATOM     23  C   UNL     1      27.559  15.795  -3.791  1.00  0.00     0.177 C 
ATOM     24  C   UNL     1      26.744  15.794  -6.194  1.00  0.00     0.176 C 
ATOM     25  C   UNL     1      27.310  14.925  -5.037  1.00  0.00     0.177 C 
BRANCH  21  26
ATOM     26  O   UNL     1      25.270  15.773  -3.009  1.00  0.00    -0.387 OA
ATOM     27  H   UNL     1      25.319  15.758  -2.018  1.00  0.00     0.211 HD
ENDBRANCH  21  26
BRANCH  23  28
ATOM     28  O   UNL     1      27.914  14.975  -2.708  1.00  0.00    -0.387 OA
ATOM     29  H   UNL     1      27.156  15.004  -2.067  1.00  0.00     0.211 HD
ENDBRANCH  23  28
BRANCH  24  30
ATOM     30  C   UNL     1      26.384  14.934  -7.413  1.00  0.00     0.191 C 
BRANCH  30  31
ATOM     31  O   UNL     1      27.466  14.861  -8.300  1.00  0.00    -0.394 OA
ATOM     32  H   UNL     1      27.898  15.754  -8.281  1.00  0.00     0.210 HD
ENDBRANCH  30  31
ENDBRANCH  24  30
BRANCH  25  33
ATOM     33  O   UNL     1      28.493  14.267  -5.416  1.00  0.00    -0.388 OA
ATOM     34  H   UNL     1      28.610  13.486  -4.815  1.00  0.00     0.211 HD
ENDBRANCH  25  33
ENDBRANCH  11  20
BRANCH  10  35
ATOM     35  O   UNL     1      23.836  18.154  -6.763  1.00  0.00    -0.507 OA
ATOM     36  H   UNL     1      23.162  17.614  -7.287  1.00  0.00     0.293 HD
ENDBRANCH  10  35
TORSDOF 9
ENDMDL
MODEL 2
REMARK VINA RESULT:    -6.295      2.170      8.341
REMARK INTER + INTRA:          -8.626
REMARK INTER:                  -7.683
REMARK INTRA:                  -0.943
REMARK UNBOUND:                -0.123
REMARK SMILES O=c1c(-c2ccc(O)cc2)coc2c([C@@H]3O[C@H](CO)[C@@H](O)[C@H](O)[C@@H]3O)c(O)ccc12
REMARK SMILES IDX 3 1 11 2 12 3 13 4 30 5 2 6 1 7 29 8 28 9 26 10 14 11 4 12
REMARK SMILES IDX 5 13 6 14 7 15 10 16 9 17 8 18 15 20 24 21 16 22 22 23 17 24
REMARK SMILES IDX 20 25 25 26 23 28 18 30 19 31 21 33 27 35
REMARK H PARENT 8 19 25 27 23 29 19 32 21 34 27 36
REMARK Flexibility Score: inf
ROOT
ATOM      1  C   UNL     1      26.066  16.091  -5.434  1.00  0.00     0.065 A 
ATOM      2  C   UNL     1      26.438  16.217  -4.089  1.00  0.00     0.208 A 
ATOM      3  O   UNL     1      26.107  17.292  -3.388  1.00  0.00    -0.463 OA
ATOM      4  C   UNL     1      25.412  18.310  -3.892  1.00  0.00     0.147 A 
ATOM      5  C   UNL     1      24.983  18.258  -5.239  1.00  0.00     0.066 A 
ATOM      6  C   UNL     1      25.318  17.131  -6.012  1.00  0.00     0.200 A 
ATOM      7  O   UNL     1      24.928  17.042  -7.211  1.00  0.00    -0.288 OA
ATOM      8  C   UNL     1      24.230  19.315  -5.768  1.00  0.00     0.020 A 
ATOM      9  C   UNL     1      23.880  20.396  -4.965  1.00  0.00     0.047 A 
ATOM     10  C   UNL     1      24.279  20.459  -3.628  1.00  0.00     0.125 A 
ATOM     11  C   UNL     1      25.101  19.434  -3.081  1.00  0.00     0.069 A 
ENDROOT
BRANCH   1  12
ATOM     12  C   UNL     1      26.458  14.882  -6.202  1.00  0.00    -0.011 A 
ATOM     13  C   UNL     1      27.255  15.000  -7.354  1.00  0.00     0.013 A 
ATOM     14  C   UNL     1      27.619  13.864  -8.083  1.00  0.00     0.047 A 
ATOM     15  C   UNL     1      27.187  12.598  -7.675  1.00  0.00     0.115 A 
ATOM     16  C   UNL     1      26.021  13.606  -5.801  1.00  0.00     0.013 A 
ATOM     17  C   UNL     1      26.385  12.472  -6.533  1.00  0.00     0.047 A 
BRANCH  15  18
ATOM     18  O   UNL     1      27.556  11.475  -8.412  1.00  0.00    -0.508 OA
ATOM     19  H   UNL     1      28.147  10.754  -8.016  1.00  0.00     0.293 HD
ENDBRANCH  15  18
ENDBRANCH   1  12
BRANCH  11  20
ATOM     20  C   UNL     1      25.594  19.516  -1.638  1.00  0.00     0.188 C 
ATOM     21  C   UNL     1      26.869  20.384  -1.556  1.00  0.00     0.179 C 
ATOM     22  O   UNL     1      24.581  20.040  -0.793  1.00  0.00    -0.362 OA
ATOM     23  C   UNL     1      27.361  20.422  -0.097  1.00  0.00     0.177 C 
ATOM     24  C   UNL     1      24.958  19.957   0.573  1.00  0.00     0.176 C 
ATOM     25  C   UNL     1      26.212  20.834   0.842  1.00  0.00     0.177 C 
BRANCH  21  26
ATOM     26  O   UNL     1      26.589  21.687  -2.008  1.00  0.00    -0.387 OA
ATOM     27  H   UNL     1      27.377  22.247  -1.785  1.00  0.00     0.211 HD
ENDBRANCH  21  26
BRANCH  23  28
ATOM     28  O   UNL     1      28.428  21.323   0.042  1.00  0.00    -0.387 OA
ATOM     29  H   UNL     1      28.764  21.512  -0.873  1.00  0.00     0.211 HD
ENDBRANCH  23  28
BRANCH  24  30
ATOM     30  C   UNL     1      23.762  20.418   1.418  1.00  0.00     0.191 C 
BRANCH  30  31
ATOM     31  O   UNL     1      23.758  19.766   2.659  1.00  0.00    -0.394 OA
ATOM     32  H   UNL     1      23.431  20.431   3.318  1.00  0.00     0.210 HD
ENDBRANCH  30  31
ENDBRANCH  24  30
BRANCH  25  33
ATOM     33  O   UNL     1      26.624  20.749   2.183  1.00  0.00    -0.388 OA
ATOM     34  H   UNL     1      25.845  20.982   2.753  1.00  0.00     0.211 HD
ENDBRANCH  25  33
ENDBRANCH  11  20
BRANCH  10  35
ATOM     35  O   UNL     1      23.823  21.547  -2.878  1.00  0.00    -0.507 OA
ATOM     36  H   UNL     1      23.413  22.380  -3.275  1.00  0.00     0.293 HD
ENDBRANCH  10  35
TORSDOF 9
ENDMDL
MODEL 3
REMARK VINA RESULT:    -5.999      3.913      8.104
REMARK INTER + INTRA:          -8.226
REMARK INTER:                  -7.194
REMARK INTRA:                  -1.032
REMARK UNBOUND:                -0.123
REMARK SMILES O=c1c(-c2ccc(O)cc2)coc2c([C@@H]3O[C@H](CO)[C@@H](O)[C@H](O)[C@@H]3O)c(O)ccc12
REMARK SMILES IDX 3 1 11 2 12 3 13 4 30 5 2 6 1 7 29 8 28 9 26 10 14 11 4 12
REMARK SMILES IDX 5 13 6 14 7 15 10 16 9 17 8 18 15 20 24 21 16 22 22 23 17 24
REMARK SMILES IDX 20 25 25 26 23 28 18 30 19 31 21 33 27 35
REMARK H PARENT 8 19 25 27 23 29 19 32 21 34 27 36
REMARK Flexibility Score: inf
ROOT
ATOM      1  C   UNL     1      23.827  17.909  -3.375  1.00  0.00     0.065 A 
ATOM      2  C   UNL     1      22.600  17.716  -2.725  1.00  0.00     0.208 A 
ATOM      3  O   UNL     1      21.511  18.362  -3.119  1.00  0.00    -0.463 OA
ATOM      4  C   UNL     1      21.497  19.221  -4.136  1.00  0.00     0.147 A 
ATOM      5  C   UNL     1      22.689  19.463  -4.858  1.00  0.00     0.066 A 
ATOM      6  C   UNL     1      23.864  18.794  -4.467  1.00  0.00     0.200 A 
ATOM      7  O   UNL     1      24.939  18.968  -5.106  1.00  0.00    -0.288 OA
ATOM      8  C   UNL     1      22.674  20.346  -5.946  1.00  0.00     0.020 A 
ATOM      9  C   UNL     1      21.487  20.960  -6.333  1.00  0.00     0.047 A 
ATOM     10  C   UNL     1      20.295  20.722  -5.644  1.00  0.00     0.125 A 
ATOM     11  C   UNL     1      20.292  19.883  -4.495  1.00  0.00     0.069 A 
ENDROOT
BRANCH   1  12
ATOM     12  C   UNL     1      25.035  17.182  -2.910  1.00  0.00    -0.011 A 
ATOM     13  C   UNL     1      25.108  15.782  -3.025  1.00  0.00     0.013 A 
ATOM     14  C   UNL     1      26.241  15.094  -2.580  1.00  0.00     0.047 A 
ATOM     15  C   UNL     1      27.310  15.792  -2.009  1.00  0.00     0.115 A 
ATOM     16  C   UNL     1      26.110  17.877  -2.328  1.00  0.00     0.013 A 
ATOM     17  C   UNL     1      27.241  17.186  -1.882  1.00  0.00     0.047 A 
BRANCH  15  18
ATOM     18  O   UNL     1      28.432  15.094  -1.570  1.00  0.00    -0.508 OA
ATOM     19  H   UNL     1      28.407  14.525  -0.731  1.00  0.00     0.293 HD
ENDBRANCH  15  18
ENDBRANCH   1  12
BRANCH  11  20
ATOM     20  C   UNL     1      19.010  19.657  -3.697  1.00  0.00     0.188 C 
ATOM     21  C   UNL     1      18.861  20.741  -2.606  1.00  0.00     0.179 C 
ATOM     22  O   UNL     1      17.880  19.658  -4.556  1.00  0.00    -0.362 OA
ATOM     23  C   UNL     1      17.578  20.469  -1.797  1.00  0.00     0.177 C 
ATOM     24  C   UNL     1      16.704  19.275  -3.859  1.00  0.00     0.176 C 
ATOM     25  C   UNL     1      16.375  20.307  -2.746  1.00  0.00     0.177 C 
BRANCH  21  26
ATOM     26  O   UNL     1      18.799  22.014  -3.203  1.00  0.00    -0.387 OA
ATOM     27  H   UNL     1      18.029  22.488  -2.794  1.00  0.00     0.211 HD
ENDBRANCH  21  26
BRANCH  23  28
ATOM     28  O   UNL     1      17.330  21.518  -0.898  1.00  0.00    -0.387 OA
ATOM     29  H   UNL     1      17.101  22.315  -1.444  1.00  0.00     0.211 HD
ENDBRANCH  23  28
BRANCH  24  30
ATOM     30  C   UNL     1      15.564  19.175  -4.882  1.00  0.00     0.191 C 
BRANCH  30  31
ATOM     31  O   UNL     1      14.538  18.355  -4.395  1.00  0.00    -0.394 OA
ATOM     32  H   UNL     1      14.958  17.480  -4.191  1.00  0.00     0.210 HD
ENDBRANCH  30  31
ENDBRANCH  24  30
BRANCH  25  33
ATOM     33  O   UNL     1      15.229  19.938  -2.021  1.00  0.00    -0.388 OA
ATOM     34  H   UNL     1      14.732  20.768  -1.799  1.00  0.00     0.211 HD
ENDBRANCH  25  33
ENDBRANCH  11  20
BRANCH  10  35
ATOM     35  O   UNL     1      19.138  21.325  -6.146  1.00  0.00    -0.507 OA
ATOM     36  H   UNL     1      18.905  21.380  -7.128  1.00  0.00     0.293 HD
ENDBRANCH  10  35
TORSDOF 9
ENDMDL
MODEL 4
REMARK VINA RESULT:    -5.917      2.817      8.689
REMARK INTER + INTRA:          -8.116
REMARK INTER:                  -7.844
REMARK INTRA:                  -0.272
REMARK UNBOUND:                -0.123
REMARK SMILES O=c1c(-c2ccc(O)cc2)coc2c([C@@H]3O[C@H](CO)[C@@H](O)[C@H](O)[C@@H]3O)c(O)ccc12
REMARK SMILES IDX 3 1 11 2 12 3 13 4 30 5 2 6 1 7 29 8 28 9 26 10 14 11 4 12
REMARK SMILES IDX 5 13 6 14 7 15 10 16 9 17 8 18 15 20 24 21 16 22 22 23 17 24
REMARK SMILES IDX 20 25 25 26 23 28 18 30 19 31 21 33 27 35
REMARK H PARENT 8 19 25 27 23 29 19 32 21 34 27 36
REMARK Flexibility Score: inf
ROOT
ATOM      1  C   UNL     1      25.993  15.946  -5.471  1.00  0.00     0.065 A 
ATOM      2  C   UNL     1      25.116  16.899  -6.005  1.00  0.00     0.208 A 
ATOM      3  O   UNL     1      24.730  17.946  -5.289  1.00  0.00    -0.463 OA
ATOM      4  C   UNL     1      25.134  18.169  -4.040  1.00  0.00     0.147 A 
ATOM      5  C   UNL     1      26.033  17.264  -3.429  1.00  0.00     0.066 A 
ATOM      6  C   UNL     1      26.463  16.141  -4.161  1.00  0.00     0.200 A 
ATOM      7  O   UNL     1      27.286  15.327  -3.654  1.00  0.00    -0.288 OA
ATOM      8  C   UNL     1      26.483  17.506  -2.125  1.00  0.00     0.020 A 
ATOM      9  C   UNL     1      26.070  18.647  -1.443  1.00  0.00     0.047 A 
ATOM     10  C   UNL     1      25.196  19.563  -2.034  1.00  0.00     0.125 A 
ATOM     11  C   UNL     1      24.670  19.309  -3.332  1.00  0.00     0.069 A 
ENDROOT
BRANCH   1  12
ATOM     12  C   UNL     1      26.404  14.776  -6.289  1.00  0.00    -0.011 A 
ATOM     13  C   UNL     1      27.291  14.941  -7.367  1.00  0.00     0.013 A 
ATOM     14  C   UNL     1      27.673  13.843  -8.145  1.00  0.00     0.047 A 
ATOM     15  C   UNL     1      27.170  12.571  -7.859  1.00  0.00     0.115 A 
ATOM     16  C   UNL     1      25.896  13.494  -6.013  1.00  0.00     0.013 A 
ATOM     17  C   UNL     1      26.278  12.398  -6.792  1.00  0.00     0.047 A 
BRANCH  15  18
ATOM     18  O   UNL     1      27.558  11.486  -8.642  1.00  0.00    -0.508 OA
ATOM     19  H   UNL     1      28.081  11.613  -9.501  1.00  0.00     0.293 HD
ENDBRANCH  15  18
ENDBRANCH   1  12
BRANCH  11  20
ATOM     20  C   UNL     1      23.669  20.270  -3.969  1.00  0.00     0.188 C 
ATOM     21  C   UNL     1      22.613  19.485  -4.778  1.00  0.00     0.179 C 
ATOM     22  O   UNL     1      23.042  21.069  -2.977  1.00  0.00    -0.362 OA
ATOM     23  C   UNL     1      21.639  20.481  -5.435  1.00  0.00     0.177 C 
ATOM     24  C   UNL     1      22.243  22.085  -3.564  1.00  0.00     0.176 C 
ATOM     25  C   UNL     1      21.082  21.455  -4.380  1.00  0.00     0.177 C 
BRANCH  21  26
ATOM     26  O   UNL     1      21.914  18.610  -3.927  1.00  0.00    -0.387 OA
ATOM     27  H   UNL     1      22.467  18.496  -3.111  1.00  0.00     0.211 HD
ENDBRANCH  21  26
BRANCH  23  28
ATOM     28  O   UNL     1      20.578  19.799  -6.052  1.00  0.00    -0.387 OA
ATOM     29  H   UNL     1      19.750  20.059  -5.569  1.00  0.00     0.211 HD
ENDBRANCH  23  28
BRANCH  24  30
ATOM     30  C   UNL     1      21.712  22.977  -2.434  1.00  0.00     0.191 C 
BRANCH  30  31
ATOM     31  O   UNL     1      22.492  22.823  -1.280  1.00  0.00    -0.394 OA
ATOM     32  H   UNL     1      22.111  22.049  -0.791  1.00  0.00     0.210 HD
ENDBRANCH  30  31
ENDBRANCH  24  30
BRANCH  25  33
ATOM     33  O   UNL     1      20.289  22.440  -4.996  1.00  0.00    -0.388 OA
ATOM     34  H   UNL     1      20.723  22.681  -5.856  1.00  0.00     0.211 HD
ENDBRANCH  25  33
ENDBRANCH  11  20
BRANCH  10  35
ATOM     35  O   UNL     1      24.892  20.715  -1.304  1.00  0.00    -0.507 OA
ATOM     36  H   UNL     1      24.709  21.619  -1.717  1.00  0.00     0.293 HD
ENDBRANCH  10  35
TORSDOF 9
ENDMDL
MODEL 5
REMARK VINA RESULT:    -5.864      3.605      4.802
REMARK INTER + INTRA:          -8.044
REMARK INTER:                  -6.893
REMARK INTRA:                  -1.151
REMARK UNBOUND:                -0.123
REMARK SMILES O=c1c(-c2ccc(O)cc2)coc2c([C@@H]3O[C@H](CO)[C@@H](O)[C@H](O)[C@@H]3O)c(O)ccc12
REMARK SMILES IDX 3 1 11 2 12 3 13 4 30 5 2 6 1 7 29 8 28 9 26 10 14 11 4 12
REMARK SMILES IDX 5 13 6 14 7 15 10 16 9 17 8 18 15 20 24 21 16 22 22 23 17 24
REMARK SMILES IDX 20 25 25 26 23 28 18 30 19 31 21 33 27 35
REMARK H PARENT 8 19 25 27 23 29 19 32 21 34 27 36
REMARK Flexibility Score: inf
ROOT
ATOM      1  C   UNL     1      21.674  19.534  -3.587  1.00  0.00     0.065 A 
ATOM      2  C   UNL     1      22.155  18.232  -3.389  1.00  0.00     0.208 A 
ATOM      3  O   UNL     1      23.418  17.926  -3.651  1.00  0.00    -0.463 OA
ATOM      4  C   UNL     1      24.306  18.807  -4.108  1.00  0.00     0.147 A 
ATOM      5  C   UNL     1      23.908  20.147  -4.321  1.00  0.00     0.066 A 
ATOM      6  C   UNL     1      22.574  20.507  -4.054  1.00  0.00     0.200 A 
ATOM      7  O   UNL     1      22.192  21.701  -4.210  1.00  0.00    -0.288 OA
ATOM      8  C   UNL     1      24.844  21.085  -4.778  1.00  0.00     0.020 A 
ATOM      9  C   UNL     1      26.165  20.706  -4.993  1.00  0.00     0.047 A 
ATOM     10  C   UNL     1      26.583  19.392  -4.773  1.00  0.00     0.125 A 
ATOM     11  C   UNL     1      25.642  18.402  -4.374  1.00  0.00     0.069 A 
ENDROOT
BRANCH   1  12
ATOM     12  C   UNL     1      20.252  19.850  -3.297  1.00  0.00    -0.011 A 
ATOM     13  C   UNL     1      19.267  19.653  -4.280  1.00  0.00     0.013 A 
ATOM     14  C   UNL     1      17.928  19.958  -4.013  1.00  0.00     0.047 A 
ATOM     15  C   UNL     1      17.559  20.468  -2.764  1.00  0.00     0.115 A 
ATOM     16  C   UNL     1      19.874  20.370  -2.046  1.00  0.00     0.013 A 
ATOM     17  C   UNL     1      18.536  20.675  -1.781  1.00  0.00     0.047 A 
BRANCH  15  18
ATOM     18  O   UNL     1      16.222  20.768  -2.511  1.00  0.00    -0.508 OA
ATOM     19  H   UNL     1      15.950  21.362  -1.737  1.00  0.00     0.293 HD
ENDBRANCH  15  18
ENDBRANCH   1  12
BRANCH  11  20
ATOM     20  C   UNL     1      26.070  16.949  -4.184  1.00  0.00     0.188 C 
ATOM     21  C   UNL     1      25.952  16.178  -5.517  1.00  0.00     0.179 C 
ATOM     22  O   UNL     1      27.397  16.880  -3.685  1.00  0.00    -0.362 OA
ATOM     23  C   UNL     1      26.358  14.710  -5.288  1.00  0.00     0.177 C 
ATOM     24  C   UNL     1      27.746  15.549  -3.336  1.00  0.00     0.176 C 
ATOM     25  C   UNL     1      27.732  14.639  -4.595  1.00  0.00     0.177 C 
BRANCH  21  26
ATOM     26  O   UNL     1      26.787  16.768  -6.484  1.00  0.00    -0.387 OA
ATOM     27  H   UNL     1      26.746  16.193  -7.292  1.00  0.00     0.211 HD
ENDBRANCH  21  26
BRANCH  23  28
ATOM     28  O   UNL     1      26.411  14.016  -6.507  1.00  0.00    -0.387 OA
ATOM     29  H   UNL     1      27.219  13.439  -6.474  1.00  0.00     0.211 HD
ENDBRANCH  23  28
BRANCH  24  30
ATOM     30  C   UNL     1      29.137  15.584  -2.687  1.00  0.00     0.191 C 
BRANCH  30  31
ATOM     31  O   UNL     1      29.343  14.439  -1.906  1.00  0.00    -0.394 OA
ATOM     32  H   UNL     1      29.778  14.750  -1.072  1.00  0.00     0.210 HD
ENDBRANCH  30  31
ENDBRANCH  24  30
BRANCH  25  33
ATOM     33  O   UNL     1      28.049  13.308  -4.274  1.00  0.00    -0.388 OA
ATOM     34  H   UNL     1      28.674  13.324  -3.503  1.00  0.00     0.211 HD
ENDBRANCH  25  33
ENDBRANCH  11  20
BRANCH  10  35
ATOM     35  O   UNL     1      27.943  19.118  -4.946  1.00  0.00    -0.507 OA
ATOM     36  H   UNL     1      28.320  18.200  -5.137  1.00  0.00     0.293 HD
ENDBRANCH  10  35
TORSDOF 9
ENDMDL
MODEL 6
REMARK VINA RESULT:    -5.848      2.874      8.611
REMARK INTER + INTRA:          -8.022
REMARK INTER:                  -7.419
REMARK INTRA:                  -0.603
REMARK UNBOUND:                -0.123
REMARK SMILES O=c1c(-c2ccc(O)cc2)coc2c([C@@H]3O[C@H](CO)[C@@H](O)[C@H](O)[C@@H]3O)c(O)ccc12
REMARK SMILES IDX 3 1 11 2 12 3 13 4 30 5 2 6 1 7 29 8 28 9 26 10 14 11 4 12
REMARK SMILES IDX 5 13 6 14 7 15 10 16 9 17 8 18 15 20 24 21 16 22 22 23 17 24
REMARK SMILES IDX 20 25 25 26 23 28 18 30 19 31 21 33 27 35
REMARK H PARENT 8 19 25 27 23 29 19 32 21 34 27 36
REMARK Flexibility Score: inf
ROOT
ATOM      1  C   UNL     1      26.948  15.767  -4.793  1.00  0.00     0.065 A 
ATOM      2  C   UNL     1      25.855  16.637  -4.684  1.00  0.00     0.208 A 
ATOM      3  O   UNL     1      25.854  17.620  -3.794  1.00  0.00    -0.463 OA
ATOM      4  C   UNL     1      26.863  17.853  -2.958  1.00  0.00     0.147 A 
ATOM      5  C   UNL     1      28.013  17.031  -3.011  1.00  0.00     0.066 A 
ATOM      6  C   UNL     1      28.048  15.977  -3.944  1.00  0.00     0.200 A 
ATOM      7  O   UNL     1      29.070  15.241  -4.034  1.00  0.00    -0.288 OA
ATOM      8  C   UNL     1      29.089  17.286  -2.151  1.00  0.00     0.020 A 
ATOM      9  C   UNL     1      29.039  18.361  -1.268  1.00  0.00     0.047 A 
ATOM     10  C   UNL     1      27.920  19.195  -1.212  1.00  0.00     0.125 A 
ATOM     11  C   UNL     1      26.785  18.921  -2.025  1.00  0.00     0.069 A 
ENDROOT
BRANCH   1  12
ATOM     12  C   UNL     1      26.923  14.667  -5.791  1.00  0.00    -0.011 A 
ATOM     13  C   UNL     1      26.361  13.421  -5.459  1.00  0.00     0.013 A 
ATOM     14  C   UNL     1      26.343  12.381  -6.393  1.00  0.00     0.047 A 
ATOM     15  C   UNL     1      26.890  12.569  -7.666  1.00  0.00     0.115 A 
ATOM     16  C   UNL     1      27.477  14.847  -7.071  1.00  0.00     0.013 A 
ATOM     17  C   UNL     1      27.459  13.805  -8.003  1.00  0.00     0.047 A 
BRANCH  15  18
ATOM     18  O   UNL     1      26.866  11.524  -8.587  1.00  0.00    -0.508 OA
ATOM     19  H   UNL     1      27.309  11.608  -9.494  1.00  0.00     0.293 HD
ENDBRANCH  15  18
ENDBRANCH   1  12
BRANCH  11  20
ATOM     20  C   UNL     1      25.532  19.789  -1.933  1.00  0.00     0.188 C 
ATOM     21  C   UNL     1      25.580  20.912  -2.993  1.00  0.00     0.179 C 
ATOM     22  O   UNL     1      24.365  18.999  -2.099  1.00  0.00    -0.362 OA
ATOM     23  C   UNL     1      24.322  21.789  -2.855  1.00  0.00     0.177 C 
ATOM     24  C   UNL     1      23.191  19.756  -1.841  1.00  0.00     0.176 C 
ATOM     25  C   UNL     1      23.057  20.911  -2.871  1.00  0.00     0.177 C 
BRANCH  21  26
ATOM     26  O   UNL     1      25.643  20.350  -4.281  1.00  0.00    -0.387 OA
ATOM     27  H   UNL     1      26.533  20.581  -4.655  1.00  0.00     0.211 HD
ENDBRANCH  21  26
BRANCH  23  28
ATOM     28  O   UNL     1      24.256  22.727  -3.898  1.00  0.00    -0.387 OA
ATOM     29  H   UNL     1      23.440  22.515  -4.422  1.00  0.00     0.211 HD
ENDBRANCH  23  28
BRANCH  24  30
ATOM     30  C   UNL     1      21.992  18.801  -1.913  1.00  0.00     0.191 C 
BRANCH  30  31
ATOM     31  O   UNL     1      20.886  19.351  -1.252  1.00  0.00    -0.394 OA
ATOM     32  H   UNL     1      21.254  19.940  -0.543  1.00  0.00     0.210 HD
ENDBRANCH  30  31
ENDBRANCH  24  30
BRANCH  25  33
ATOM     33  O   UNL     1      21.916  21.694  -2.622  1.00  0.00    -0.388 OA
ATOM     34  H   UNL     1      21.660  22.134  -3.475  1.00  0.00     0.211 HD
ENDBRANCH  25  33
ENDBRANCH  11  20
BRANCH  10  35
ATOM     35  O   UNL     1      27.987  20.292  -0.347  1.00  0.00    -0.507 OA
ATOM     36  H   UNL     1      27.747  20.259   0.634  1.00  0.00     0.293 HD
ENDBRANCH  10  35
TORSDOF 9
ENDMDL
MODEL 7
REMARK VINA RESULT:    -5.826      2.836      8.318
REMARK INTER + INTRA:          -7.992
REMARK INTER:                  -7.517
REMARK INTRA:                  -0.476
REMARK UNBOUND:                -0.123
REMARK SMILES O=c1c(-c2ccc(O)cc2)coc2c([C@@H]3O[C@H](CO)[C@@H](O)[C@H](O)[C@@H]3O)c(O)ccc12
REMARK SMILES IDX 3 1 11 2 12 3 13 4 30 5 2 6 1 7 29 8 28 9 26 10 14 11 4 12
REMARK SMILES IDX 5 13 6 14 7 15 10 16 9 17 8 18 15 20 24 21 16 22 22 23 17 24
REMARK SMILES IDX 20 25 25 26 23 28 18 30 19 31 21 33 27 35
REMARK H PARENT 8 19 25 27 23 29 19 32 21 34 27 36
REMARK Flexibility Score: inf
ROOT
ATOM      1  C   UNL     1      25.982  16.029  -5.289  1.00  0.00     0.065 A 
ATOM      2  C   UNL     1      25.078  16.959  -5.821  1.00  0.00     0.208 A 
ATOM      3  O   UNL     1      24.700  18.019  -5.121  1.00  0.00    -0.463 OA
ATOM      4  C   UNL     1      25.138  18.279  -3.891  1.00  0.00     0.147 A 
ATOM      5  C   UNL     1      26.066  17.401  -3.284  1.00  0.00     0.066 A 
ATOM      6  C   UNL     1      26.488  16.264  -3.999  1.00  0.00     0.200 A 
ATOM      7  O   UNL     1      27.335  15.473  -3.497  1.00  0.00    -0.288 OA
ATOM      8  C   UNL     1      26.551  17.682  -2.000  1.00  0.00     0.020 A 
ATOM      9  C   UNL     1      26.145  18.835  -1.336  1.00  0.00     0.047 A 
ATOM     10  C   UNL     1      25.243  19.725  -1.924  1.00  0.00     0.125 A 
ATOM     11  C   UNL     1      24.681  19.432  -3.198  1.00  0.00     0.069 A 
ENDROOT
BRANCH   1  12
ATOM     12  C   UNL     1      26.382  14.844  -6.089  1.00  0.00    -0.011 A 
ATOM     13  C   UNL     1      27.131  15.004  -7.268  1.00  0.00     0.013 A 
ATOM     14  C   UNL     1      27.503  13.890  -8.028  1.00  0.00     0.047 A 
ATOM     15  C   UNL     1      27.126  12.606  -7.624  1.00  0.00     0.115 A 
ATOM     16  C   UNL     1      26.001  13.550  -5.693  1.00  0.00     0.013 A 
ATOM     17  C   UNL     1      26.372  12.438  -6.454  1.00  0.00     0.047 A 
BRANCH  15  18
ATOM     18  O   UNL     1      27.503  11.505  -8.390  1.00  0.00    -0.508 OA
ATOM     19  H   UNL     1      28.475  11.244  -8.499  1.00  0.00     0.293 HD
ENDBRANCH  15  18
ENDBRANCH   1  12
BRANCH  11  20
ATOM     20  C   UNL     1      23.651  20.365  -3.830  1.00  0.00     0.188 C 
ATOM     21  C   UNL     1      24.343  21.360  -4.787  1.00  0.00     0.179 C 
ATOM     22  O   UNL     1      22.659  19.619  -4.520  1.00  0.00    -0.362 OA
ATOM     23  C   UNL     1      23.285  22.307  -5.383  1.00  0.00     0.177 C 
ATOM     24  C   UNL     1      21.601  20.457  -4.961  1.00  0.00     0.176 C 
ATOM     25  C   UNL     1      22.125  21.495  -5.990  1.00  0.00     0.177 C 
BRANCH  21  26
ATOM     26  O   UNL     1      24.999  20.656  -5.814  1.00  0.00    -0.387 OA
ATOM     27  H   UNL     1      25.940  20.971  -5.827  1.00  0.00     0.211 HD
ENDBRANCH  21  26
BRANCH  23  28
ATOM     28  O   UNL     1      23.854  23.125  -6.371  1.00  0.00    -0.387 OA
ATOM     29  H   UNL     1      24.622  22.622  -6.751  1.00  0.00     0.211 HD
ENDBRANCH  23  28
BRANCH  24  30
ATOM     30  C   UNL     1      20.518  19.559  -5.576  1.00  0.00     0.191 C 
BRANCH  30  31
ATOM     31  O   UNL     1      20.640  19.528  -6.971  1.00  0.00    -0.394 OA
ATOM     32  H   UNL     1      19.902  20.090  -7.325  1.00  0.00     0.210 HD
ENDBRANCH  30  31
ENDBRANCH  24  30
BRANCH  25  33
ATOM     33  O   UNL     1      21.102  22.356  -6.423  1.00  0.00    -0.388 OA
ATOM     34  H   UNL     1      21.463  22.903  -7.169  1.00  0.00     0.211 HD
ENDBRANCH  25  33
ENDBRANCH  11  20
BRANCH  10  35
ATOM     35  O   UNL     1      24.947  20.893  -1.215  1.00  0.00    -0.507 OA
ATOM     36  H   UNL     1      24.128  21.463  -1.374  1.00  0.00     0.293 HD
ENDBRANCH  10  35
TORSDOF 9
ENDMDL
MODEL 8
REMARK VINA RESULT:    -5.800      2.522      5.088
REMARK INTER + INTRA:          -7.958
REMARK INTER:                  -6.790
REMARK INTRA:                  -1.167
REMARK UNBOUND:                -0.123
REMARK SMILES O=c1c(-c2ccc(O)cc2)coc2c([C@@H]3O[C@H](CO)[C@@H](O)[C@H](O)[C@@H]3O)c(O)ccc12
REMARK SMILES IDX 3 1 11 2 12 3 13 4 30 5 2 6 1 7 29 8 28 9 26 10 14 11 4 12
REMARK SMILES IDX 5 13 6 14 7 15 10 16 9 17 8 18 15 20 24 21 16 22 22 23 17 24
REMARK SMILES IDX 20 25 25 26 23 28 18 30 19 31 21 33 27 35
REMARK H PARENT 8 19 25 27 23 29 19 32 21 34 27 36
REMARK Flexibility Score: inf
ROOT
ATOM      1  C   UNL     1      23.768  20.035  -0.421  1.00  0.00     0.065 A 
ATOM      2  C   UNL     1      22.554  20.129  -1.115  1.00  0.00     0.208 A 
ATOM      3  O   UNL     1      22.485  19.842  -2.408  1.00  0.00    -0.463 OA
ATOM      4  C   UNL     1      23.533  19.451  -3.129  1.00  0.00     0.147 A 
ATOM      5  C   UNL     1      24.794  19.314  -2.503  1.00  0.00     0.066 A 
ATOM      6  C   UNL     1      24.904  19.611  -1.132  1.00  0.00     0.200 A 
ATOM      7  O   UNL     1      26.010  19.475  -0.538  1.00  0.00    -0.288 OA
ATOM      8  C   UNL     1      25.896  18.879  -3.251  1.00  0.00     0.020 A 
ATOM      9  C   UNL     1      25.745  18.553  -4.596  1.00  0.00     0.047 A 
ATOM     10  C   UNL     1      24.505  18.664  -5.229  1.00  0.00     0.125 A 
ATOM     11  C   UNL     1      23.383  19.168  -4.513  1.00  0.00     0.069 A 
ENDROOT
BRANCH   1  12
ATOM     12  C   UNL     1      23.823  20.372   1.024  1.00  0.00    -0.011 A 
ATOM     13  C   UNL     1      23.688  19.362   1.993  1.00  0.00     0.013 A 
ATOM     14  C   UNL     1      23.731  19.677   3.355  1.00  0.00     0.047 A 
ATOM     15  C   UNL     1      23.903  21.003   3.765  1.00  0.00     0.115 A 
ATOM     16  C   UNL     1      23.989  21.704   1.444  1.00  0.00     0.013 A 
ATOM     17  C   UNL     1      24.030  22.016   2.806  1.00  0.00     0.047 A 
BRANCH  15  18
ATOM     18  O   UNL     1      23.944  21.303   5.125  1.00  0.00    -0.508 OA
ATOM     19  H   UNL     1      23.173  21.074   5.740  1.00  0.00     0.293 HD
ENDBRANCH  15  18
ENDBRANCH   1  12
BRANCH  11  20
ATOM     20  C   UNL     1      22.034  19.350  -5.205  1.00  0.00     0.188 C 
ATOM     21  C   UNL     1      21.967  20.732  -5.893  1.00  0.00     0.179 C 
ATOM     22  O   UNL     1      21.813  18.314  -6.150  1.00  0.00    -0.362 OA
ATOM     23  C   UNL     1      20.586  20.901  -6.554  1.00  0.00     0.177 C 
ATOM     24  C   UNL     1      20.494  18.367  -6.672  1.00  0.00     0.176 C 
ATOM     25  C   UNL     1      20.276  19.691  -7.455  1.00  0.00     0.177 C 
BRANCH  21  26
ATOM     26  O   UNL     1      22.984  20.833  -6.860  1.00  0.00    -0.387 OA
ATOM     27  H   UNL     1      22.538  20.888  -7.745  1.00  0.00     0.211 HD
ENDBRANCH  21  26
BRANCH  23  28
ATOM     28  O   UNL     1      20.544  22.079  -7.316  1.00  0.00    -0.387 OA
ATOM     29  H   UNL     1      19.859  22.665  -6.899  1.00  0.00     0.211 HD
ENDBRANCH  23  28
BRANCH  24  30
ATOM     30  C   UNL     1      20.298  17.144  -7.578  1.00  0.00     0.191 C 
BRANCH  30  31
ATOM     31  O   UNL     1      20.550  17.477  -8.915  1.00  0.00    -0.394 OA
ATOM     32  H   UNL     1      20.972  16.678  -9.324  1.00  0.00     0.210 HD
ENDBRANCH  30  31
ENDBRANCH  24  30
BRANCH  25  33
ATOM     33  O   UNL     1      18.968  19.783  -7.961  1.00  0.00    -0.388 OA
ATOM     34  H   UNL     1      19.026  19.775  -8.952  1.00  0.00     0.211 HD
ENDBRANCH  25  33
ENDBRANCH  11  20
BRANCH  10  35
ATOM     35  O   UNL     1      24.431  18.248  -6.561  1.00  0.00    -0.507 OA
ATOM     36  H   UNL     1      25.232  18.013  -7.129  1.00  0.00     0.293 HD
ENDBRANCH  10  35
TORSDOF 9
ENDMDL
MODEL 9
REMARK VINA RESULT:    -5.793      6.206      9.789
REMARK INTER + INTRA:          -7.948
REMARK INTER:                  -6.790
REMARK INTRA:                  -1.158
REMARK UNBOUND:                -0.123
REMARK SMILES O=c1c(-c2ccc(O)cc2)coc2c([C@@H]3O[C@H](CO)[C@@H](O)[C@H](O)[C@@H]3O)c(O)ccc12
REMARK SMILES IDX 3 1 11 2 12 3 13 4 30 5 2 6 1 7 29 8 28 9 26 10 14 11 4 12
REMARK SMILES IDX 5 13 6 14 7 15 10 16 9 17 8 18 15 20 24 21 16 22 22 23 17 24
REMARK SMILES IDX 20 25 25 26 23 28 18 30 19 31 21 33 27 35
REMARK H PARENT 8 19 25 27 23 29 19 32 21 34 27 36
REMARK Flexibility Score: inf
ROOT
ATOM      1  C   UNL     1      17.807  14.096  -5.882  1.00  0.00     0.065 A 
ATOM      2  C   UNL     1      18.140  14.671  -4.648  1.00  0.00     0.208 A 
ATOM      3  O   UNL     1      18.805  15.817  -4.588  1.00  0.00    -0.463 OA
ATOM      4  C   UNL     1      19.197  16.494  -5.665  1.00  0.00     0.147 A 
ATOM      5  C   UNL     1      18.888  15.993  -6.951  1.00  0.00     0.066 A 
ATOM      6  C   UNL     1      18.183  14.778  -7.052  1.00  0.00     0.200 A 
ATOM      7  O   UNL     1      17.870  14.316  -8.185  1.00  0.00    -0.288 OA
ATOM      8  C   UNL     1      19.275  16.714  -8.089  1.00  0.00     0.020 A 
ATOM      9  C   UNL     1      19.934  17.932  -7.955  1.00  0.00     0.047 A 
ATOM     10  C   UNL     1      20.233  18.454  -6.694  1.00  0.00     0.125 A 
ATOM     11  C   UNL     1      19.913  17.713  -5.522  1.00  0.00     0.069 A 
ENDROOT
BRANCH   1  12
ATOM     12  C   UNL     1      17.071  12.807  -5.924  1.00  0.00    -0.011 A 
ATOM     13  C   UNL     1      15.676  12.781  -5.752  1.00  0.00     0.013 A 
ATOM     14  C   UNL     1      14.981  11.568  -5.783  1.00  0.00     0.047 A 
ATOM     15  C   UNL     1      15.671  10.367  -5.979  1.00  0.00     0.115 A 
ATOM     16  C   UNL     1      17.759  11.595  -6.113  1.00  0.00     0.013 A 
ATOM     17  C   UNL     1      17.063  10.383  -6.142  1.00  0.00     0.047 A 
BRANCH  15  18
ATOM     18  O   UNL     1      14.967   9.165  -6.007  1.00  0.00    -0.508 OA
ATOM     19  H   UNL     1      15.042   8.526  -6.788  1.00  0.00     0.293 HD
ENDBRANCH  15  18
ENDBRANCH   1  12
BRANCH  11  20
ATOM     20  C   UNL     1      20.285  18.241  -4.139  1.00  0.00     0.188 C 
ATOM     21  C   UNL     1      21.715  17.796  -3.762  1.00  0.00     0.179 C 
ATOM     22  O   UNL     1      20.179  19.656  -4.099  1.00  0.00    -0.362 OA
ATOM     23  C   UNL     1      22.050  18.315  -2.350  1.00  0.00     0.177 C 
ATOM     24  C   UNL     1      20.348  20.148  -2.778  1.00  0.00     0.176 C 
ATOM     25  C   UNL     1      21.778  19.828  -2.262  1.00  0.00     0.177 C 
BRANCH  21  26
ATOM     26  O   UNL     1      22.635  18.304  -4.698  1.00  0.00    -0.387 OA
ATOM     27  H   UNL     1      22.907  17.546  -5.278  1.00  0.00     0.211 HD
ENDBRANCH  21  26
BRANCH  23  28
ATOM     28  O   UNL     1      23.394  18.060  -2.036  1.00  0.00    -0.387 OA
ATOM     29  H   UNL     1      23.923  18.816  -2.405  1.00  0.00     0.211 HD
ENDBRANCH  23  28
BRANCH  24  30
ATOM     30  C   UNL     1      20.088  21.661  -2.804  1.00  0.00     0.191 C 
BRANCH  30  31
ATOM     31  O   UNL     1      21.299  22.366  -2.817  1.00  0.00    -0.394 OA
ATOM     32  H   UNL     1      21.679  22.243  -3.725  1.00  0.00     0.210 HD
ENDBRANCH  30  31
ENDBRANCH  24  30
BRANCH  25  33
ATOM     33  O   UNL     1      21.964  20.281  -0.944  1.00  0.00    -0.388 OA
ATOM     34  H   UNL     1      21.953  19.486  -0.348  1.00  0.00     0.211 HD
ENDBRANCH  25  33
ENDBRANCH  11  20
BRANCH  10  35
ATOM     35  O   UNL     1      20.832  19.716  -6.653  1.00  0.00    -0.507 OA
ATOM     36  H   UNL     1      21.817  19.873  -6.491  1.00  0.00     0.293 HD
ENDBRANCH  10  35
TORSDOF 9
ENDMDL
