MODEL 1
REMARK VINA RESULT:    -3.156      0.000      0.000
REMARK INTER + INTRA:          -3.785
REMARK INTER:                  -3.710
REMARK INTRA:                  -0.075
REMARK UNBOUND:                -0.075
REMARK SMILES CCCCC(=O)[O-]
REMARK SMILES IDX 4 1 5 2 6 3 7 4 3 5 2 6 1 7
REMARK H PARENT
REMARK Flexibility Score: inf
ROOT
ATOM      1  C   UNL     1     -18.968 -31.712  20.434  1.00  0.00     0.053 C 
ENDROOT
BRANCH   1   2
ATOM      2  C   UNL     1     -19.060 -33.191  20.231  1.00  0.00     0.041 C 
ATOM      3  O   UNL     1     -20.017 -33.683  19.578  1.00  0.00    -0.550 OA
ATOM      4  O   UNL     1     -18.062 -34.023  20.723  1.00  0.00    -0.550 OA
ENDBRANCH   1   2
BRANCH   1   5
ATOM      5  C   UNL     1     -20.281 -31.033  20.033  1.00  0.00     0.006 C 
BRANCH   5   6
ATOM      6  C   UNL     1     -20.061 -30.054  18.873  1.00  0.00    -0.003 C 
ATOM      7  C   UNL     1     -18.653 -29.464  18.909  1.00  0.00     0.004 C 
ENDBRANCH   5   6
ENDBRANCH   1   5
TORSDOF 3
ENDMDL
MODEL 2
REMARK VINA RESULT:    -3.115      2.555      3.547
REMARK INTER + INTRA:          -3.736
REMARK INTER:                  -3.615
REMARK INTRA:                  -0.122
REMARK UNBOUND:                -0.075
REMARK SMILES CCCCC(=O)[O-]
REMARK SMILES IDX 4 1 5 2 6 3 7 4 3 5 2 6 1 7
REMARK H PARENT
REMARK Flexibility Score: inf
ROOT
ATOM      1  C   UNL     1     -19.915 -30.248  18.978  1.00  0.00     0.053 C 
ENDROOT
BRANCH   1   2
ATOM      2  C   UNL     1     -18.489 -29.821  18.834  1.00  0.00     0.041 C 
ATOM      3  O   UNL     1     -18.041 -29.472  17.710  1.00  0.00    -0.550 OA
ATOM      4  O   UNL     1     -17.665 -29.760  19.951  1.00  0.00    -0.550 OA
ENDBRANCH   1   2
BRANCH   1   5
ATOM      5  C   UNL     1     -20.053 -31.288  20.093  1.00  0.00     0.006 C 
BRANCH   5   6
ATOM      6  C   UNL     1     -19.649 -32.682  19.597  1.00  0.00    -0.003 C 
ATOM      7  C   UNL     1     -18.621 -33.322  20.527  1.00  0.00     0.004 C 
ENDBRANCH   5   6
ENDBRANCH   1   5
TORSDOF 3
ENDMDL
MODEL 3
REMARK VINA RESULT:    -3.089      3.139      4.103
REMARK INTER + INTRA:          -3.706
REMARK INTER:                  -3.605
REMARK INTRA:                  -0.101
REMARK UNBOUND:                -0.075
REMARK SMILES CCCCC(=O)[O-]
REMARK SMILES IDX 4 1 5 2 6 3 7 4 3 5 2 6 1 7
REMARK H PARENT
REMARK Flexibility Score: inf
ROOT
ATOM      1  C   UNL     1     -18.661 -29.868  18.417  1.00  0.00     0.053 C 
ENDROOT
BRANCH   1   2
ATOM      2  C   UNL     1     -17.977 -28.834  19.254  1.00  0.00     0.041 C 
ATOM      3  O   UNL     1     -17.044 -29.164  20.033  1.00  0.00    -0.550 OA
ATOM      4  O   UNL     1     -18.335 -27.497  19.138  1.00  0.00    -0.550 OA
ENDBRANCH   1   2
BRANCH   1   5
ATOM      5  C   UNL     1     -20.080 -30.121  18.932  1.00  0.00     0.006 C 
BRANCH   5   6
ATOM      6  C   UNL     1     -20.088 -31.212  20.009  1.00  0.00    -0.003 C 
ATOM      7  C   UNL     1     -19.332 -32.453  19.541  1.00  0.00     0.004 C 
ENDBRANCH   5   6
ENDBRANCH   1   5
TORSDOF 3
ENDMDL
MODEL 4
REMARK VINA RESULT:    -3.033      2.331      3.651
REMARK INTER + INTRA:          -3.640
REMARK INTER:                  -3.594
REMARK INTRA:                  -0.045
REMARK UNBOUND:                -0.075
REMARK SMILES CCCCC(=O)[O-]
REMARK SMILES IDX 4 1 5 2 6 3 7 4 3 5 2 6 1 7
REMARK H PARENT
REMARK Flexibility Score: inf
ROOT
ATOM      1  C   UNL     1     -20.024 -31.173  19.969  1.00  0.00     0.053 C 
ENDROOT
BRANCH   1   2
ATOM      2  C   UNL     1     -19.415 -30.408  18.838  1.00  0.00     0.041 C 
ATOM      3  O   UNL     1     -19.634 -30.754  17.647  1.00  0.00    -0.550 OA
ATOM      4  O   UNL     1     -18.643 -29.282  19.096  1.00  0.00    -0.550 OA
ENDBRANCH   1   2
BRANCH   1   5
ATOM      5  C   UNL     1     -18.944 -31.926  20.751  1.00  0.00     0.006 C 
BRANCH   5   6
ATOM      6  C   UNL     1     -18.909 -33.406  20.351  1.00  0.00    -0.003 C 
ATOM      7  C   UNL     1     -17.633 -34.081  20.849  1.00  0.00     0.004 C 
ENDBRANCH   5   6
ENDBRANCH   1   5
TORSDOF 3
ENDMDL
MODEL 5
REMARK VINA RESULT:    -2.999      1.764      2.316
REMARK INTER + INTRA:          -3.600
REMARK INTER:                  -3.563
REMARK INTRA:                  -0.037
REMARK UNBOUND:                -0.075
REMARK SMILES CCCCC(=O)[O-]
REMARK SMILES IDX 4 1 5 2 6 3 7 4 3 5 2 6 1 7
REMARK H PARENT
REMARK Flexibility Score: inf
ROOT
ATOM      1  C   UNL     1     -18.193 -30.413  19.876  1.00  0.00     0.053 C 
ENDROOT
BRANCH   1   2
ATOM      2  C   UNL     1     -19.297 -31.335  20.285  1.00  0.00     0.041 C 
ATOM      3  O   UNL     1     -20.498 -31.016  20.084  1.00  0.00    -0.550 OA
ATOM      4  O   UNL     1     -18.998 -32.571  20.845  1.00  0.00    -0.550 OA
ENDBRANCH   1   2
BRANCH   1   5
ATOM      5  C   UNL     1     -18.652 -29.499  18.737  1.00  0.00     0.006 C 
BRANCH   5   6
ATOM      6  C   UNL     1     -18.173 -28.059  18.960  1.00  0.00    -0.003 C 
ATOM      7  C   UNL     1     -17.516 -27.496  17.703  1.00  0.00     0.004 C 
ENDBRANCH   5   6
ENDBRANCH   1   5
TORSDOF 3
ENDMDL
MODEL 6
REMARK VINA RESULT:    -2.973      1.198      2.046
REMARK INTER + INTRA:          -3.570
REMARK INTER:                  -3.468
REMARK INTRA:                  -0.102
REMARK UNBOUND:                -0.075
REMARK SMILES CCCCC(=O)[O-]
REMARK SMILES IDX 4 1 5 2 6 3 7 4 3 5 2 6 1 7
REMARK H PARENT
REMARK Flexibility Score: inf
ROOT
ATOM      1  C   UNL     1     -18.880 -33.187  20.476  1.00  0.00     0.053 C 
ENDROOT
BRANCH   1   2
ATOM      2  C   UNL     1     -17.990 -33.604  19.349  1.00  0.00     0.041 C 
ATOM      3  O   UNL     1     -16.868 -34.125  19.585  1.00  0.00    -0.550 OA
ATOM      4  O   UNL     1     -18.420 -33.464  18.035  1.00  0.00    -0.550 OA
ENDBRANCH   1   2
BRANCH   1   5
ATOM      5  C   UNL     1     -18.919 -31.660  20.590  1.00  0.00     0.006 C 
BRANCH   5   6
ATOM      6  C   UNL     1     -20.237 -31.102  20.039  1.00  0.00    -0.003 C 
ATOM      7  C   UNL     1     -19.986 -30.116  18.901  1.00  0.00     0.004 C 
ENDBRANCH   5   6
ENDBRANCH   1   5
TORSDOF 3
ENDMDL
MODEL 7
REMARK VINA RESULT:    -2.961      2.422      3.281
REMARK INTER + INTRA:          -3.555
REMARK INTER:                  -3.500
REMARK INTRA:                  -0.055
REMARK UNBOUND:                -0.075
REMARK SMILES CCCCC(=O)[O-]
REMARK SMILES IDX 4 1 5 2 6 3 7 4 3 5 2 6 1 7
REMARK H PARENT
REMARK Flexibility Score: inf
ROOT
ATOM      1  C   UNL     1     -19.424 -33.277  19.789  1.00  0.00     0.053 C 
ENDROOT
BRANCH   1   2
ATOM      2  C   UNL     1     -19.427 -31.884  20.333  1.00  0.00     0.041 C 
ATOM      3  O   UNL     1     -18.490 -31.491  21.077  1.00  0.00    -0.550 OA
ATOM      4  O   UNL     1     -20.441 -31.002  19.980  1.00  0.00    -0.550 OA
ENDBRANCH   1   2
BRANCH   1   5
ATOM      5  C   UNL     1     -18.485 -33.379  18.583  1.00  0.00     0.006 C 
BRANCH   5   6
ATOM      6  C   UNL     1     -19.250 -33.810  17.326  1.00  0.00    -0.003 C 
ATOM      7  C   UNL     1     -19.272 -32.695  16.284  1.00  0.00     0.004 C 
ENDBRANCH   5   6
ENDBRANCH   1   5
TORSDOF 3
ENDMDL
MODEL 8
REMARK VINA RESULT:    -2.934      2.263      3.233
REMARK INTER + INTRA:          -3.524
REMARK INTER:                  -3.472
REMARK INTRA:                  -0.053
REMARK UNBOUND:                -0.075
REMARK SMILES CCCCC(=O)[O-]
REMARK SMILES IDX 4 1 5 2 6 3 7 4 3 5 2 6 1 7
REMARK H PARENT
REMARK Flexibility Score: inf
ROOT
ATOM      1  C   UNL     1     -17.915 -29.933  19.551  1.00  0.00     0.053 C 
ENDROOT
BRANCH   1   2
ATOM      2  C   UNL     1     -19.209 -30.682  19.598  1.00  0.00     0.041 C 
ATOM      3  O   UNL     1     -19.254 -31.841  20.087  1.00  0.00    -0.550 OA
ATOM      4  O   UNL     1     -20.377 -30.080  19.146  1.00  0.00    -0.550 OA
ENDBRANCH   1   2
BRANCH   1   5
ATOM      5  C   UNL     1     -17.965 -28.845  18.474  1.00  0.00     0.006 C 
BRANCH   5   6
ATOM      6  C   UNL     1     -18.008 -27.448  19.105  1.00  0.00    -0.003 C 
ATOM      7  C   UNL     1     -16.700 -27.128  19.825  1.00  0.00     0.004 C 
ENDBRANCH   5   6
ENDBRANCH   1   5
TORSDOF 3
ENDMDL
MODEL 9
REMARK VINA RESULT:    -1.790      2.329      3.748
REMARK INTER + INTRA:          -2.180
REMARK INTER:                  -2.096
REMARK INTRA:                  -0.083
REMARK UNBOUND:                -0.075
REMARK SMILES CCCCC(=O)[O-]
REMARK SMILES IDX 4 1 5 2 6 3 7 4 3 5 2 6 1 7
REMARK H PARENT
REMARK Flexibility Score: inf
ROOT
ATOM      1  C   UNL     1     -19.353 -31.867  20.375  1.00  0.00     0.053 C 
ENDROOT
BRANCH   1   2
ATOM      2  C   UNL     1     -19.076 -30.708  19.471  1.00  0.00     0.041 C 
ATOM      3  O   UNL     1     -17.996 -30.068  19.573  1.00  0.00    -0.550 OA
ATOM      4  O   UNL     1     -19.989 -30.364  18.482  1.00  0.00    -0.550 OA
ENDBRANCH   1   2
BRANCH   1   5
ATOM      5  C   UNL     1     -19.292 -33.183  19.594  1.00  0.00     0.006 C 
BRANCH   5   6
ATOM      6  C   UNL     1     -17.862 -33.733  19.556  1.00  0.00    -0.003 C 
ATOM      7  C   UNL     1     -17.384 -34.125  20.952  1.00  0.00     0.004 C 
ENDBRANCH   5   6
ENDBRANCH   1   5
TORSDOF 3
ENDMDL
