MODEL 1
REMARK VINA RESULT:    -3.690      0.000      0.000
REMARK INTER + INTRA:          -6.058
REMARK INTER:                  -5.632
REMARK INTRA:                  -0.427
REMARK UNBOUND:                -0.427
REMARK SMILES CC1=CCC[C@H](C)C(=O)C[C@@H](C(C)C)C(=O)C1
REMARK SMILES IDX 8 1 9 2 6 3 7 4 5 5 4 6 3 7 2 8 1 9 10 11 11 12 15 13 16 14
REMARK SMILES IDX 17 15 12 17 13 18 14 19
REMARK H PARENT
REMARK Flexibility Score: 70.00
ROOT
ATOM      1  C   UNL     1      16.364  -1.342  59.094  1.00  0.00     0.136 C 
ATOM      2  O   UNL     1      15.346  -0.690  58.922  1.00  0.00    -0.299 OA
ENDROOT
BRANCH   1   3
ATOM      3  C   UNL     1      17.680  -0.770  58.590  1.00  0.00     0.053 C 
ATOM      4  C   UNL     1      17.675  -0.638  57.062  1.00  0.00     0.016 C 
BRANCH   3   5
ATOM      5  C   UNL     1      18.017   0.574  59.264  1.00  0.00     0.015 C 
BRANCH   5   6
ATOM      6  C   UNL     1      18.356   0.382  60.754  1.00  0.00     0.028 C 
BRANCH   6   7
ATOM      7  C   UNL     1      19.488  -0.581  61.005  1.00  0.00    -0.028 C 
ATOM      8  C   UNL     1      19.437  -1.706  61.763  1.00  0.00    -0.070 CG0
ATOM      9  C   UNL     1      20.650  -2.605  61.737  1.00  0.00     0.039 C 
ATOM     10  G   UNL     1      18.301  -2.065  62.717  1.00  0.00     0.000 G0
ENDBRANCH   6   7
ENDBRANCH   5   6
ENDBRANCH   3   5
ENDBRANCH   1   3
BRANCH   1  11
ATOM     11  C   UNL     1      16.289  -2.658  59.847  1.00  0.00     0.087 C 
BRANCH  11  12
ATOM     12  C   UNL     1      16.112  -2.559  61.392  1.00  0.00     0.066 C 
BRANCH  12  13
ATOM     13  C   UNL     1      17.314  -3.066  62.177  1.00  0.00     0.140 C 
ATOM     14  O   UNL     1      17.407  -4.248  62.478  1.00  0.00    -0.299 OA
BRANCH  13  15
ATOM     15  C   UNL     1      18.319  -2.074  62.715  1.00  0.00     0.106 CG0
ATOM     16  G   UNL     1      19.446  -1.685  61.762  1.00  0.00     0.000 G0
ENDBRANCH  13  15
ENDBRANCH  12  13
BRANCH  12  17
ATOM     17  C   UNL     1      14.746  -3.072  61.961  1.00  0.00    -0.006 C 
ATOM     18  C   UNL     1      13.698  -1.948  62.030  1.00  0.00     0.008 C 
ATOM     19  C   UNL     1      14.160  -4.280  61.218  1.00  0.00     0.008 C 
ENDBRANCH  12  17
ENDBRANCH  11  12
ENDBRANCH   1  11
TORSDOF 1
ENDMDL
MODEL 2
REMARK VINA RESULT:    -3.499     10.614     12.707
REMARK INTER + INTRA:          -5.767
REMARK INTER:                  -5.354
REMARK INTRA:                  -0.413
REMARK UNBOUND:                -0.427
REMARK SMILES CC1=CCC[C@H](C)C(=O)C[C@@H](C(C)C)C(=O)C1
REMARK SMILES IDX 8 1 9 2 6 3 7 4 5 5 4 6 3 7 2 8 1 9 10 11 11 12 15 13 16 14
REMARK SMILES IDX 17 15 12 17 13 18 14 19
REMARK H PARENT
REMARK Flexibility Score: 70.00
ROOT
ATOM      1  C   UNL     1      27.997  -3.128  51.970  1.00  0.00     0.136 C 
ATOM      2  O   UNL     1      28.782  -3.173  51.036  1.00  0.00    -0.299 OA
ENDROOT
BRANCH   1   3
ATOM      3  C   UNL     1      26.508  -3.182  51.663  1.00  0.00     0.053 C 
ATOM      4  C   UNL     1      26.058  -4.618  51.365  1.00  0.00     0.016 C 
BRANCH   3   5
ATOM      5  C   UNL     1      25.667  -2.558  52.794  1.00  0.00     0.015 C 
BRANCH   5   6
ATOM      6  C   UNL     1      24.633  -3.561  53.338  1.00  0.00     0.028 C 
BRANCH   6   7
ATOM      7  C   UNL     1      24.375  -3.430  54.818  1.00  0.00    -0.028 C 
ATOM      8  C   UNL     1      25.159  -3.908  55.818  1.00  0.00    -0.070 CG0
ATOM      9  C   UNL     1      24.786  -3.514  57.228  1.00  0.00     0.039 C 
ATOM     10  G   UNL     1      26.309  -4.894  55.631  1.00  0.00     0.000 G0
ENDBRANCH   6   7
ENDBRANCH   5   6
ENDBRANCH   3   5
ENDBRANCH   1   3
BRANCH   1  11
ATOM     11  C   UNL     1      28.528  -3.078  53.391  1.00  0.00     0.087 C 
BRANCH  11  12
ATOM     12  C   UNL     1      28.457  -4.408  54.201  1.00  0.00     0.066 C 
BRANCH  12  13
ATOM     13  C   UNL     1      27.708  -4.279  55.520  1.00  0.00     0.140 C 
ATOM     14  O   UNL     1      28.256  -3.797  56.502  1.00  0.00    -0.299 OA
BRANCH  13  15
ATOM     15  C   UNL     1      26.332  -4.887  55.652  1.00  0.00     0.106 CG0
ATOM     16  G   UNL     1      25.179  -3.899  55.807  1.00  0.00     0.000 G0
ENDBRANCH  13  15
ENDBRANCH  12  13
BRANCH  12  17
ATOM     17  C   UNL     1      29.798  -5.205  54.331  1.00  0.00    -0.006 C 
ATOM     18  C   UNL     1      29.566  -6.631  54.861  1.00  0.00     0.008 C 
ATOM     19  C   UNL     1      30.633  -5.262  53.044  1.00  0.00     0.008 C 
ENDBRANCH  12  17
ENDBRANCH  11  12
ENDBRANCH   1  11
TORSDOF 1
ENDMDL
MODEL 3
REMARK VINA RESULT:    -3.433      2.045      2.572
REMARK INTER + INTRA:          -5.666
REMARK INTER:                  -5.323
REMARK INTRA:                  -0.343
REMARK UNBOUND:                -0.427
REMARK SMILES CC1=CCC[C@H](C)C(=O)C[C@@H](C(C)C)C(=O)C1
REMARK SMILES IDX 8 1 9 2 6 3 7 4 5 5 4 6 3 7 2 8 1 9 10 11 11 12 15 13 16 14
REMARK SMILES IDX 17 15 12 17 13 18 14 19
REMARK H PARENT
REMARK Flexibility Score: 70.00
ROOT
ATOM      1  C   UNL     1      16.107  -0.271  57.902  1.00  0.00     0.136 C 
ATOM      2  O   UNL     1      14.978   0.072  57.586  1.00  0.00    -0.299 OA
ENDROOT
BRANCH   1   3
ATOM      3  C   UNL     1      17.283   0.372  57.184  1.00  0.00     0.053 C 
ATOM      4  C   UNL     1      17.422  -0.170  55.756  1.00  0.00     0.016 C 
BRANCH   3   5
ATOM      5  C   UNL     1      17.187   1.910  57.189  1.00  0.00     0.015 C 
BRANCH   5   6
ATOM      6  C   UNL     1      17.835   2.506  58.452  1.00  0.00     0.028 C 
BRANCH   6   7
ATOM      7  C   UNL     1      19.129   1.841  58.847  1.00  0.00    -0.028 C 
ATOM      8  C   UNL     1      19.322   1.024  59.915  1.00  0.00    -0.070 CG0
ATOM      9  C   UNL     1      20.665   0.340  60.019  1.00  0.00     0.039 C 
ATOM     10  G   UNL     1      18.333   0.838  61.063  1.00  0.00     0.000 G0
ENDBRANCH   6   7
ENDBRANCH   5   6
ENDBRANCH   3   5
ENDBRANCH   1   3
BRANCH   1  11
ATOM     11  C   UNL     1      16.295  -1.274  59.026  1.00  0.00     0.087 C 
BRANCH  11  12
ATOM     12  C   UNL     1      16.273  -0.698  60.474  1.00  0.00     0.066 C 
BRANCH  12  13
ATOM     13  C   UNL     1      17.657  -0.545  61.091  1.00  0.00     0.140 C 
ATOM     14  O   UNL     1      18.166  -1.468  61.710  1.00  0.00    -0.299 OA
BRANCH  13  15
ATOM     15  C   UNL     1      18.334   0.804  61.063  1.00  0.00     0.106 CG0
ATOM     16  G   UNL     1      19.309   1.036  59.910  1.00  0.00     0.000 G0
ENDBRANCH  13  15
ENDBRANCH  12  13
BRANCH  12  17
ATOM     17  C   UNL     1      15.231  -1.339  61.452  1.00  0.00    -0.006 C 
ATOM     18  C   UNL     1      13.954  -0.489  61.565  1.00  0.00     0.008 C 
ATOM     19  C   UNL     1      14.858  -2.791  61.122  1.00  0.00     0.008 C 
ENDBRANCH  12  17
ENDBRANCH  11  12
ENDBRANCH   1  11
TORSDOF 1
ENDMDL
MODEL 4
REMARK VINA RESULT:    -3.414      1.792      2.862
REMARK INTER + INTRA:          -5.637
REMARK INTER:                  -5.220
REMARK INTRA:                  -0.417
REMARK UNBOUND:                -0.427
REMARK SMILES CC1=CCC[C@H](C)C(=O)C[C@@H](C(C)C)C(=O)C1
REMARK SMILES IDX 8 1 9 2 6 3 7 4 5 5 4 6 3 7 2 8 1 9 10 11 11 12 15 13 16 14
REMARK SMILES IDX 17 15 12 17 13 18 14 19
REMARK H PARENT
REMARK Flexibility Score: 70.00
ROOT
ATOM      1  C   UNL     1      14.847  -2.885  60.927  1.00  0.00     0.136 C 
ATOM      2  O   UNL     1      13.971  -3.590  61.402  1.00  0.00    -0.299 OA
ENDROOT
BRANCH   1   3
ATOM      3  C   UNL     1      14.510  -1.438  60.600  1.00  0.00     0.053 C 
ATOM      4  C   UNL     1      14.140  -0.659  61.868  1.00  0.00     0.016 C 
BRANCH   3   5
ATOM      5  C   UNL     1      15.651  -0.743  59.832  1.00  0.00     0.015 C 
BRANCH   5   6
ATOM      6  C   UNL     1      16.396   0.262  60.729  1.00  0.00     0.028 C 
BRANCH   6   7
ATOM      7  C   UNL     1      17.885   0.304  60.496  1.00  0.00    -0.028 C 
ATOM      8  C   UNL     1      18.813  -0.510  61.063  1.00  0.00    -0.070 CG0
ATOM      9  C   UNL     1      20.230  -0.392  60.554  1.00  0.00     0.039 C 
ATOM     10  G   UNL     1      18.552  -1.443  62.243  1.00  0.00     0.000 G0
ENDBRANCH   6   7
ENDBRANCH   5   6
ENDBRANCH   3   5
ENDBRANCH   1   3
BRANCH   1  11
ATOM     11  C   UNL     1      16.241  -3.454  60.735  1.00  0.00     0.087 C 
BRANCH  11  12
ATOM     12  C   UNL     1      17.103  -3.618  62.023  1.00  0.00     0.066 C 
BRANCH  12  13
ATOM     13  C   UNL     1      18.449  -2.910  61.949  1.00  0.00     0.140 C 
ATOM     14  O   UNL     1      19.477  -3.547  61.769  1.00  0.00    -0.299 OA
BRANCH  13  15
ATOM     15  C   UNL     1      18.526  -1.432  62.252  1.00  0.00     0.106 CG0
ATOM     16  G   UNL     1      18.821  -0.523  61.061  1.00  0.00     0.000 G0
ENDBRANCH  13  15
ENDBRANCH  12  13
BRANCH  12  17
ATOM     17  C   UNL     1      17.202  -5.068  62.604  1.00  0.00    -0.006 C 
ATOM     18  C   UNL     1      16.189  -5.301  63.738  1.00  0.00     0.008 C 
ATOM     19  C   UNL     1      17.071  -6.183  61.557  1.00  0.00     0.008 C 
ENDBRANCH  12  17
ENDBRANCH  11  12
ENDBRANCH   1  11
TORSDOF 1
ENDMDL
MODEL 5
REMARK VINA RESULT:    -3.373      2.770      4.648
REMARK INTER + INTRA:          -5.575
REMARK INTER:                  -5.000
REMARK INTRA:                  -0.574
REMARK UNBOUND:                -0.427
REMARK SMILES CC1=CCC[C@H](C)C(=O)C[C@@H](C(C)C)C(=O)C1
REMARK SMILES IDX 8 1 9 2 6 3 7 4 5 5 4 6 3 7 2 8 1 9 10 11 11 12 15 13 16 14
REMARK SMILES IDX 17 15 12 17 13 18 14 19
REMARK H PARENT
REMARK Flexibility Score: 70.00
ROOT
ATOM      1  C   UNL     1      15.588   2.212  58.142  1.00  0.00     0.136 C 
ATOM      2  O   UNL     1      15.225   3.272  57.657  1.00  0.00    -0.299 OA
ENDROOT
BRANCH   1   3
ATOM      3  C   UNL     1      16.186   1.163  57.217  1.00  0.00     0.053 C 
ATOM      4  C   UNL     1      17.717   1.255  57.196  1.00  0.00     0.016 C 
BRANCH   3   5
ATOM      5  C   UNL     1      15.718  -0.259  57.584  1.00  0.00     0.015 C 
BRANCH   5   6
ATOM      6  C   UNL     1      16.886  -1.110  58.117  1.00  0.00     0.028 C 
BRANCH   6   7
ATOM      7  C   UNL     1      16.583  -1.822  59.410  1.00  0.00    -0.028 C 
ATOM      8  C   UNL     1      16.849  -1.368  60.662  1.00  0.00    -0.070 CG0
ATOM      9  C   UNL     1      16.306  -2.180  61.814  1.00  0.00     0.039 C 
ATOM     10  G   UNL     1      17.742  -0.173  60.987  1.00  0.00     0.000 G0
ENDBRANCH   6   7
ENDBRANCH   5   6
ENDBRANCH   3   5
ENDBRANCH   1   3
BRANCH   1  11
ATOM     11  C   UNL     1      15.484   2.002  59.642  1.00  0.00     0.087 C 
BRANCH  11  12
ATOM     12  C   UNL     1      16.797   2.194  60.458  1.00  0.00     0.066 C 
BRANCH  12  13
ATOM     13  C   UNL     1      17.064   1.074  61.456  1.00  0.00     0.140 C 
ATOM     14  O   UNL     1      16.823   1.231  62.645  1.00  0.00    -0.299 OA
BRANCH  13  15
ATOM     15  C   UNL     1      17.769  -0.178  60.992  1.00  0.00     0.106 CG0
ATOM     16  G   UNL     1      16.868  -1.365  60.659  1.00  0.00     0.000 G0
ENDBRANCH  13  15
ENDBRANCH  12  13
BRANCH  12  17
ATOM     17  C   UNL     1      17.032   3.621  61.058  1.00  0.00    -0.006 C 
ATOM     18  C   UNL     1      17.975   4.462  60.181  1.00  0.00     0.008 C 
ATOM     19  C   UNL     1      15.747   4.411  61.341  1.00  0.00     0.008 C 
ENDBRANCH  12  17
ENDBRANCH  11  12
ENDBRANCH   1  11
TORSDOF 1
ENDMDL
MODEL 6
REMARK VINA RESULT:    -3.270      2.796      5.123
REMARK INTER + INTRA:          -5.417
REMARK INTER:                  -5.025
REMARK INTRA:                  -0.392
REMARK UNBOUND:                -0.427
REMARK SMILES CC1=CCC[C@H](C)C(=O)C[C@@H](C(C)C)C(=O)C1
REMARK SMILES IDX 8 1 9 2 6 3 7 4 5 5 4 6 3 7 2 8 1 9 10 11 11 12 15 13 16 14
REMARK SMILES IDX 17 15 12 17 13 18 14 19
REMARK H PARENT
REMARK Flexibility Score: 70.00
ROOT
ATOM      1  C   UNL     1      15.018  -0.715  60.029  1.00  0.00     0.136 C 
ATOM      2  O   UNL     1      14.141  -0.086  60.600  1.00  0.00    -0.299 OA
ENDROOT
BRANCH   1   3
ATOM      3  C   UNL     1      15.730  -1.819  60.795  1.00  0.00     0.053 C 
ATOM      4  C   UNL     1      16.652  -2.625  59.871  1.00  0.00     0.016 C 
BRANCH   3   5
ATOM      5  C   UNL     1      16.503  -1.269  62.010  1.00  0.00     0.015 C 
BRANCH   5   6
ATOM      6  C   UNL     1      17.494  -0.169  61.588  1.00  0.00     0.028 C 
BRANCH   6   7
ATOM      7  C   UNL     1      17.157   1.198  62.127  1.00  0.00    -0.028 C 
ATOM      8  C   UNL     1      16.957   2.326  61.397  1.00  0.00    -0.070 CG0
ATOM      9  C   UNL     1      16.466   3.545  62.142  1.00  0.00     0.039 C 
ATOM     10  G   UNL     1      17.296   2.479  59.917  1.00  0.00     0.000 G0
ENDBRANCH   6   7
ENDBRANCH   5   6
ENDBRANCH   3   5
ENDBRANCH   1   3
BRANCH   1  11
ATOM     11  C   UNL     1      15.324  -0.414  58.573  1.00  0.00     0.087 C 
BRANCH  11  12
ATOM     12  C   UNL     1      16.490   0.586  58.306  1.00  0.00     0.066 C 
BRANCH  12  13
ATOM     13  C   UNL     1      16.275   1.956  58.936  1.00  0.00     0.140 C 
ATOM     14  O   UNL     1      15.355   2.672  58.567  1.00  0.00    -0.299 OA
BRANCH  13  15
ATOM     15  C   UNL     1      17.295   2.488  59.915  1.00  0.00     0.106 CG0
ATOM     16  G   UNL     1      16.947   2.327  61.393  1.00  0.00     0.000 G0
ENDBRANCH  13  15
ENDBRANCH  12  13
BRANCH  12  17
ATOM     17  C   UNL     1      17.004   0.663  56.829  1.00  0.00    -0.006 C 
ATOM     18  C   UNL     1      18.500   1.014  56.762  1.00  0.00     0.008 C 
ATOM     19  C   UNL     1      16.730  -0.595  55.993  1.00  0.00     0.008 C 
ENDBRANCH  12  17
ENDBRANCH  11  12
ENDBRANCH   1  11
TORSDOF 1
ENDMDL
MODEL 7
REMARK VINA RESULT:    -3.264      3.939      6.523
REMARK INTER + INTRA:          -5.409
REMARK INTER:                  -4.835
REMARK INTRA:                  -0.574
REMARK UNBOUND:                -0.427
REMARK SMILES CC1=CCC[C@H](C)C(=O)C[C@@H](C(C)C)C(=O)C1
REMARK SMILES IDX 8 1 9 2 6 3 7 4 5 5 4 6 3 7 2 8 1 9 10 11 11 12 15 13 16 14
REMARK SMILES IDX 17 15 12 17 13 18 14 19
REMARK H PARENT
REMARK Flexibility Score: 70.00
ROOT
ATOM      1  C   UNL     1      15.633   0.153  59.367  1.00  0.00     0.136 C 
ATOM      2  O   UNL     1      15.539  -1.064  59.326  1.00  0.00    -0.299 OA
ENDROOT
BRANCH   1   3
ATOM      3  C   UNL     1      15.848   0.815  60.719  1.00  0.00     0.053 C 
ATOM      4  C   UNL     1      17.341   0.910  61.055  1.00  0.00     0.016 C 
BRANCH   3   5
ATOM      5  C   UNL     1      15.171   2.198  60.794  1.00  0.00     0.015 C 
BRANCH   5   6
ATOM      6  C   UNL     1      16.215   3.324  60.903  1.00  0.00     0.028 C 
BRANCH   6   7
ATOM      7  C   UNL     1      15.908   4.527  60.046  1.00  0.00    -0.028 C 
ATOM      8  C   UNL     1      16.343   4.745  58.778  1.00  0.00    -0.070 CG0
ATOM      9  C   UNL     1      15.773   5.942  58.055  1.00  0.00     0.039 C 
ATOM     10  G   UNL     1      17.437   3.941  58.080  1.00  0.00     0.000 G0
ENDBRANCH   6   7
ENDBRANCH   5   6
ENDBRANCH   3   5
ENDBRANCH   1   3
BRANCH   1  11
ATOM     11  C   UNL     1      15.590   0.948  58.075  1.00  0.00     0.087 C 
BRANCH  11  12
ATOM     12  C   UNL     1      16.965   1.415  57.507  1.00  0.00     0.066 C 
BRANCH  12  13
ATOM     13  C   UNL     1      16.984   2.879  57.086  1.00  0.00     0.140 C 
ATOM     14  O   UNL     1      16.750   3.195  55.928  1.00  0.00    -0.299 OA
BRANCH  13  15
ATOM     15  C   UNL     1      17.444   3.926  58.072  1.00  0.00     0.106 CG0
ATOM     16  G   UNL     1      16.339   4.727  58.756  1.00  0.00     0.000 G0
ENDBRANCH  13  15
ENDBRANCH  12  13
BRANCH  12  17
ATOM     17  C   UNL     1      17.634   0.465  56.458  1.00  0.00    -0.006 C 
ATOM     18  C   UNL     1      18.910  -0.192  57.013  1.00  0.00     0.008 C 
ATOM     19  C   UNL     1      16.702  -0.615  55.891  1.00  0.00     0.008 C 
ENDBRANCH  12  17
ENDBRANCH  11  12
ENDBRANCH   1  11
TORSDOF 1
ENDMDL
MODEL 8
REMARK VINA RESULT:    -3.256      2.076      3.999
REMARK INTER + INTRA:          -5.396
REMARK INTER:                  -5.133
REMARK INTRA:                  -0.263
REMARK UNBOUND:                -0.427
REMARK SMILES CC1=CCC[C@H](C)C(=O)C[C@@H](C(C)C)C(=O)C1
REMARK SMILES IDX 8 1 9 2 6 3 7 4 5 5 4 6 3 7 2 8 1 9 10 11 11 12 15 13 16 14
REMARK SMILES IDX 17 15 12 17 13 18 14 19
REMARK H PARENT
REMARK Flexibility Score: 70.00
ROOT
ATOM      1  C   UNL     1      17.992  -3.662  62.410  1.00  0.00     0.136 C 
ATOM      2  O   UNL     1      18.321  -4.670  61.805  1.00  0.00    -0.299 OA
ENDROOT
BRANCH   1   3
ATOM      3  C   UNL     1      19.034  -2.575  62.622  1.00  0.00     0.053 C 
ATOM      4  C   UNL     1      20.338  -2.911  61.888  1.00  0.00     0.016 C 
BRANCH   3   5
ATOM      5  C   UNL     1      18.506  -1.187  62.210  1.00  0.00     0.015 C 
BRANCH   5   6
ATOM      6  C   UNL     1      18.214  -1.127  60.699  1.00  0.00     0.028 C 
BRANCH   6   7
ATOM      7  C   UNL     1      17.270  -0.020  60.302  1.00  0.00    -0.028 C 
ATOM      8  C   UNL     1      15.920  -0.114  60.188  1.00  0.00    -0.070 CG0
ATOM      9  C   UNL     1      15.164   1.169  59.938  1.00  0.00     0.039 C 
ATOM     10  G   UNL     1      15.133  -1.422  60.182  1.00  0.00     0.000 G0
ENDBRANCH   6   7
ENDBRANCH   5   6
ENDBRANCH   3   5
ENDBRANCH   1   3
BRANCH   1  11
ATOM     11  C   UNL     1      16.555  -3.507  62.874  1.00  0.00     0.087 C 
BRANCH  11  12
ATOM     12  C   UNL     1      15.469  -3.472  61.757  1.00  0.00     0.066 C 
BRANCH  12  13
ATOM     13  C   UNL     1      14.894  -2.084  61.509  1.00  0.00     0.140 C 
ATOM     14  O   UNL     1      14.159  -1.559  62.335  1.00  0.00    -0.299 OA
BRANCH  13  15
ATOM     15  C   UNL     1      15.113  -1.420  60.171  1.00  0.00     0.106 CG0
ATOM     16  G   UNL     1      15.924  -0.126  60.194  1.00  0.00     0.000 G0
ENDBRANCH  13  15
ENDBRANCH  12  13
BRANCH  12  17
ATOM     17  C   UNL     1      14.373  -4.588  61.828  1.00  0.00    -0.006 C 
ATOM     18  C   UNL     1      14.320  -5.421  60.536  1.00  0.00     0.008 C 
ATOM     19  C   UNL     1      14.493  -5.521  63.041  1.00  0.00     0.008 C 
ENDBRANCH  12  17
ENDBRANCH  11  12
ENDBRANCH   1  11
TORSDOF 1
ENDMDL
MODEL 9
REMARK VINA RESULT:    -3.175      2.662      3.743
REMARK INTER + INTRA:          -5.272
REMARK INTER:                  -5.444
REMARK INTRA:                   0.172
REMARK UNBOUND:                -0.427
REMARK SMILES CC1=CCC[C@H](C)C(=O)C[C@@H](C(C)C)C(=O)C1
REMARK SMILES IDX 8 1 9 2 6 3 7 4 5 5 4 6 3 7 2 8 1 9 10 11 11 12 15 13 16 14
REMARK SMILES IDX 17 15 12 17 13 18 14 19
REMARK H PARENT
REMARK Flexibility Score: 70.00
ROOT
ATOM      1  C   UNL     1      17.572  -0.621  58.739  1.00  0.00     0.136 C 
ATOM      2  O   UNL     1      18.712  -0.459  59.147  1.00  0.00    -0.299 OA
ENDROOT
BRANCH   1   3
ATOM      3  C   UNL     1      17.080   0.264  57.605  1.00  0.00     0.053 C 
ATOM      4  C   UNL     1      17.865  -0.004  56.315  1.00  0.00     0.016 C 
BRANCH   3   5
ATOM      5  C   UNL     1      15.564   0.112  57.376  1.00  0.00     0.015 C 
BRANCH   5   6
ATOM      6  C   UNL     1      14.780   1.254  58.049  1.00  0.00     0.028 C 
BRANCH   6   7
ATOM      7  C   UNL     1      15.651   2.254  58.765  1.00  0.00    -0.028 C 
ATOM      8  C   UNL     1      16.091   2.167  60.047  1.00  0.00    -0.070 CG0
ATOM      9  C   UNL     1      17.090   3.206  60.500  1.00  0.00     0.039 C 
ATOM     10  G   UNL     1      15.569   1.175  61.084  1.00  0.00     0.000 G0
ENDBRANCH   6   7
ENDBRANCH   5   6
ENDBRANCH   3   5
ENDBRANCH   1   3
BRANCH   1  11
ATOM     11  C   UNL     1      16.717  -1.726  59.332  1.00  0.00     0.087 C 
BRANCH  11  12
ATOM     12  C   UNL     1      15.936  -1.370  60.634  1.00  0.00     0.066 C 
BRANCH  12  13
ATOM     13  C   UNL     1      16.394  -0.071  61.284  1.00  0.00     0.140 C 
ATOM     14  O   UNL     1      17.346  -0.063  62.052  1.00  0.00    -0.299 OA
BRANCH  13  15
ATOM     15  C   UNL     1      15.573   1.181  61.093  1.00  0.00     0.106 CG0
ATOM     16  G   UNL     1      16.098   2.170  60.055  1.00  0.00     0.000 G0
ENDBRANCH  13  15
ENDBRANCH  12  13
BRANCH  12  17
ATOM     17  C   UNL     1      15.744  -2.537  61.660  1.00  0.00    -0.006 C 
ATOM     18  C   UNL     1      14.374  -3.220  61.500  1.00  0.00     0.008 C 
ATOM     19  C   UNL     1      16.855  -3.596  61.636  1.00  0.00     0.008 C 
ENDBRANCH  12  17
ENDBRANCH  11  12
ENDBRANCH   1  11
TORSDOF 1
ENDMDL
