MODEL 1
REMARK VINA RESULT:    -5.657      0.000      0.000
REMARK INTER + INTRA:          -6.187
REMARK INTER:                  -6.153
REMARK INTRA:                  -0.034
REMARK UNBOUND:                -0.034
REMARK SMILES O=C([O-])c1ccc(O)cc1
REMARK SMILES IDX 7 1 6 2 9 3 5 4 10 5 4 6 8 7 2 9 1 10 3 11
REMARK H PARENT 8 8
REMARK Flexibility Score: inf
ROOT
ATOM      1  C   UNL     1     128.696 124.218 127.848  1.00  0.00     0.115 A 
ATOM      2  C   UNL     1     128.696 125.575 128.194  1.00  0.00     0.047 A 
ATOM      3  C   UNL     1     129.791 123.677 127.169  1.00  0.00     0.047 A 
ATOM      4  C   UNL     1     129.787 126.386 127.861  1.00  0.00     0.014 A 
ATOM      5  C   UNL     1     130.884 124.483 126.835  1.00  0.00     0.014 A 
ATOM      6  C   UNL     1     130.892 125.848 127.177  1.00  0.00    -0.003 A 
ENDROOT
BRANCH   1   7
ATOM      7  O   UNL     1     127.616 123.402 128.174  1.00  0.00    -0.508 OA
ATOM      8  H   UNL     1     126.897 123.709 128.819  1.00  0.00     0.293 HD
ENDBRANCH   1   7
BRANCH   6   9
ATOM      9  C   UNL     1     132.044 126.707 126.827  1.00  0.00     0.071 C 
ATOM     10  O   UNL     1     132.762 126.440 125.825  1.00  0.00    -0.545 OA
ATOM     11  O   UNL     1     132.352 127.822 127.598  1.00  0.00    -0.545 OA
ENDBRANCH   6   9
TORSDOF 2
ENDMDL
MODEL 2
REMARK VINA RESULT:    -5.645      0.074      1.533
REMARK INTER + INTRA:          -6.174
REMARK INTER:                  -6.140
REMARK INTRA:                  -0.034
REMARK UNBOUND:                -0.034
REMARK SMILES O=C([O-])c1ccc(O)cc1
REMARK SMILES IDX 7 1 6 2 9 3 5 4 10 5 4 6 8 7 2 9 1 10 3 11
REMARK H PARENT 8 8
REMARK Flexibility Score: inf
ROOT
ATOM      1  C   UNL     1     128.743 124.252 127.866  1.00  0.00     0.115 A 
ATOM      2  C   UNL     1     129.830 123.689 127.186  1.00  0.00     0.047 A 
ATOM      3  C   UNL     1     128.757 125.612 128.188  1.00  0.00     0.047 A 
ATOM      4  C   UNL     1     130.925 124.484 126.831  1.00  0.00     0.014 A 
ATOM      5  C   UNL     1     129.849 126.410 127.835  1.00  0.00     0.014 A 
ATOM      6  C   UNL     1     130.946 125.852 127.152  1.00  0.00    -0.003 A 
ENDROOT
BRANCH   1   7
ATOM      7  O   UNL     1     127.647 123.470 128.225  1.00  0.00    -0.508 OA
ATOM      8  H   UNL     1     127.140 123.634 129.087  1.00  0.00     0.293 HD
ENDBRANCH   1   7
BRANCH   6   9
ATOM      9  C   UNL     1     132.106 126.691 126.775  1.00  0.00     0.071 C 
ATOM     10  O   UNL     1     132.808 126.400 125.770  1.00  0.00    -0.545 OA
ATOM     11  O   UNL     1     132.436 127.814 127.526  1.00  0.00    -0.545 OA
ENDBRANCH   6   9
TORSDOF 2
ENDMDL
MODEL 3
REMARK VINA RESULT:    -5.071      2.533      4.291
REMARK INTER + INTRA:          -5.549
REMARK INTER:                  -5.521
REMARK INTRA:                  -0.028
REMARK UNBOUND:                -0.034
REMARK SMILES O=C([O-])c1ccc(O)cc1
REMARK SMILES IDX 7 1 6 2 9 3 5 4 10 5 4 6 8 7 2 9 1 10 3 11
REMARK H PARENT 8 8
REMARK Flexibility Score: inf
ROOT
ATOM      1  C   UNL     1     129.355 128.116 125.295  1.00  0.00     0.115 A 
ATOM      2  C   UNL     1     129.643 128.033 126.663  1.00  0.00     0.047 A 
ATOM      3  C   UNL     1     128.986 126.964 124.594  1.00  0.00     0.047 A 
ATOM      4  C   UNL     1     129.562 126.803 127.325  1.00  0.00     0.014 A 
ATOM      5  C   UNL     1     128.903 125.733 125.252  1.00  0.00     0.014 A 
ATOM      6  C   UNL     1     129.192 125.641 126.626  1.00  0.00    -0.003 A 
ENDROOT
BRANCH   1   7
ATOM      7  O   UNL     1     129.432 129.335 124.625  1.00  0.00    -0.508 OA
ATOM      8  H   UNL     1     128.737 129.606 123.939  1.00  0.00     0.293 HD
ENDBRANCH   1   7
BRANCH   6   9
ATOM      9  C   UNL     1     129.107 124.341 127.329  1.00  0.00     0.071 C 
ATOM     10  O   UNL     1     128.173 124.113 128.144  1.00  0.00    -0.545 OA
ATOM     11  O   UNL     1     130.058 123.353 127.099  1.00  0.00    -0.545 OA
ENDBRANCH   6   9
TORSDOF 2
ENDMDL
MODEL 4
REMARK VINA RESULT:    -5.005      3.445      4.786
REMARK INTER + INTRA:          -5.478
REMARK INTER:                  -5.451
REMARK INTRA:                  -0.027
REMARK UNBOUND:                -0.034
REMARK SMILES O=C([O-])c1ccc(O)cc1
REMARK SMILES IDX 7 1 6 2 9 3 5 4 10 5 4 6 8 7 2 9 1 10 3 11
REMARK H PARENT 8 8
REMARK Flexibility Score: inf
ROOT
ATOM      1  C   UNL     1     131.902 126.601 126.179  1.00  0.00     0.115 A 
ATOM      2  C   UNL     1     131.891 126.042 124.894  1.00  0.00     0.047 A 
ATOM      3  C   UNL     1     130.851 127.431 126.581  1.00  0.00     0.047 A 
ATOM      4  C   UNL     1     130.835 126.314 124.018  1.00  0.00     0.014 A 
ATOM      5  C   UNL     1     129.793 127.704 125.708  1.00  0.00     0.014 A 
ATOM      6  C   UNL     1     129.776 127.148 124.416  1.00  0.00    -0.003 A 
ENDROOT
BRANCH   1   7
ATOM      7  O   UNL     1     132.948 126.337 127.060  1.00  0.00    -0.508 OA
ATOM      8  H   UNL     1     133.670 125.663 126.836  1.00  0.00     0.293 HD
ENDBRANCH   1   7
BRANCH   6   9
ATOM      9  C   UNL     1     128.660 127.434 123.487  1.00  0.00     0.071 C 
ATOM     10  O   UNL     1     128.607 128.529 122.865  1.00  0.00    -0.545 OA
ATOM     11  O   UNL     1     127.653 126.496 123.287  1.00  0.00    -0.545 OA
ENDBRANCH   6   9
TORSDOF 2
ENDMDL
MODEL 5
REMARK VINA RESULT:    -4.958      1.218      4.327
REMARK INTER + INTRA:          -5.427
REMARK INTER:                  -5.397
REMARK INTRA:                  -0.030
REMARK UNBOUND:                -0.034
REMARK SMILES O=C([O-])c1ccc(O)cc1
REMARK SMILES IDX 7 1 6 2 9 3 5 4 10 5 4 6 8 7 2 9 1 10 3 11
REMARK H PARENT 8 8
REMARK Flexibility Score: inf
ROOT
ATOM      1  C   UNL     1     131.632 126.244 126.201  1.00  0.00     0.115 A 
ATOM      2  C   UNL     1     130.820 125.223 125.693  1.00  0.00     0.047 A 
ATOM      3  C   UNL     1     131.282 126.878 127.397  1.00  0.00     0.047 A 
ATOM      4  C   UNL     1     129.663 124.838 126.378  1.00  0.00     0.014 A 
ATOM      5  C   UNL     1     130.126 126.496 128.085  1.00  0.00     0.014 A 
ATOM      6  C   UNL     1     129.304 125.471 127.581  1.00  0.00    -0.003 A 
ENDROOT
BRANCH   1   7
ATOM      7  O   UNL     1     132.787 126.636 125.528  1.00  0.00    -0.508 OA
ATOM      8  H   UNL     1     132.796 126.761 124.522  1.00  0.00     0.293 HD
ENDBRANCH   1   7
BRANCH   6   9
ATOM      9  C   UNL     1     128.079 125.063 128.304  1.00  0.00     0.071 C 
ATOM     10  O   UNL     1     127.879 123.853 128.594  1.00  0.00    -0.545 OA
ATOM     11  O   UNL     1     127.131 126.010 128.675  1.00  0.00    -0.545 OA
ENDBRANCH   6   9
TORSDOF 2
ENDMDL
MODEL 6
REMARK VINA RESULT:    -4.955      1.611      4.576
REMARK INTER + INTRA:          -5.423
REMARK INTER:                  -5.388
REMARK INTRA:                  -0.035
REMARK UNBOUND:                -0.034
REMARK SMILES O=C([O-])c1ccc(O)cc1
REMARK SMILES IDX 7 1 6 2 9 3 5 4 10 5 4 6 8 7 2 9 1 10 3 11
REMARK H PARENT 8 8
REMARK Flexibility Score: inf
ROOT
ATOM      1  C   UNL     1     130.373 125.300 126.262  1.00  0.00     0.115 A 
ATOM      2  C   UNL     1     130.092 123.979 126.635  1.00  0.00     0.047 A 
ATOM      3  C   UNL     1     129.601 126.344 126.777  1.00  0.00     0.047 A 
ATOM      4  C   UNL     1     129.041 123.707 127.518  1.00  0.00     0.014 A 
ATOM      5  C   UNL     1     128.550 126.076 127.661  1.00  0.00     0.014 A 
ATOM      6  C   UNL     1     128.259 124.752 128.040  1.00  0.00    -0.003 A 
ENDROOT
BRANCH   1   7
ATOM      7  O   UNL     1     131.417 125.583 125.384  1.00  0.00    -0.508 OA
ATOM      8  H   UNL     1     132.088 124.874 125.114  1.00  0.00     0.293 HD
ENDBRANCH   1   7
BRANCH   6   9
ATOM      9  C   UNL     1     127.149 124.462 128.974  1.00  0.00     0.071 C 
ATOM     10  O   UNL     1     127.103 123.365 129.593  1.00  0.00    -0.545 OA
ATOM     11  O   UNL     1     126.141 125.396 129.181  1.00  0.00    -0.545 OA
ENDBRANCH   6   9
TORSDOF 2
ENDMDL
MODEL 7
REMARK VINA RESULT:    -4.816      3.246      4.255
REMARK INTER + INTRA:          -5.272
REMARK INTER:                  -5.244
REMARK INTRA:                  -0.028
REMARK UNBOUND:                -0.034
REMARK SMILES O=C([O-])c1ccc(O)cc1
REMARK SMILES IDX 7 1 6 2 9 3 5 4 10 5 4 6 8 7 2 9 1 10 3 11
REMARK H PARENT 8 8
REMARK Flexibility Score: inf
ROOT
ATOM      1  C   UNL     1     129.044 128.175 124.047  1.00  0.00     0.115 A 
ATOM      2  C   UNL     1     129.537 126.940 123.608  1.00  0.00     0.047 A 
ATOM      3  C   UNL     1     129.314 128.604 125.349  1.00  0.00     0.047 A 
ATOM      4  C   UNL     1     130.295 126.139 124.468  1.00  0.00     0.014 A 
ATOM      5  C   UNL     1     130.072 127.807 126.213  1.00  0.00     0.014 A 
ATOM      6  C   UNL     1     130.570 126.564 125.780  1.00  0.00    -0.003 A 
ENDROOT
BRANCH   1   7
ATOM      7  O   UNL     1     128.288 128.980 123.198  1.00  0.00    -0.508 OA
ATOM      8  H   UNL     1     127.293 128.833 123.077  1.00  0.00     0.293 HD
ENDBRANCH   1   7
BRANCH   6   9
ATOM      9  C   UNL     1     131.373 125.715 126.688  1.00  0.00     0.071 C 
ATOM     10  O   UNL     1     132.520 126.080 127.059  1.00  0.00    -0.545 OA
ATOM     11  O   UNL     1     130.870 124.503 127.146  1.00  0.00    -0.545 OA
ENDBRANCH   6   9
TORSDOF 2
ENDMDL
MODEL 8
REMARK VINA RESULT:    -4.743      4.235      5.057
REMARK INTER + INTRA:          -5.193
REMARK INTER:                  -5.158
REMARK INTRA:                  -0.035
REMARK UNBOUND:                -0.034
REMARK SMILES O=C([O-])c1ccc(O)cc1
REMARK SMILES IDX 7 1 6 2 9 3 5 4 10 5 4 6 8 7 2 9 1 10 3 11
REMARK H PARENT 8 8
REMARK Flexibility Score: inf
ROOT
ATOM      1  C   UNL     1     128.414 127.999 122.632  1.00  0.00     0.115 A 
ATOM      2  C   UNL     1     128.169 126.724 123.157  1.00  0.00     0.047 A 
ATOM      3  C   UNL     1     129.014 128.974 123.434  1.00  0.00     0.047 A 
ATOM      4  C   UNL     1     128.522 126.427 124.477  1.00  0.00     0.014 A 
ATOM      5  C   UNL     1     129.369 128.682 124.754  1.00  0.00     0.014 A 
ATOM      6  C   UNL     1     129.125 127.404 125.290  1.00  0.00    -0.003 A 
ENDROOT
BRANCH   1   7
ATOM      7  O   UNL     1     128.068 128.306 121.318  1.00  0.00    -0.508 OA
ATOM      8  H   UNL     1     128.354 129.176 120.885  1.00  0.00     0.293 HD
ENDBRANCH   1   7
BRANCH   6   9
ATOM      9  C   UNL     1     129.497 127.088 126.687  1.00  0.00     0.071 C 
ATOM     10  O   UNL     1     128.982 126.102 127.281  1.00  0.00    -0.545 OA
ATOM     11  O   UNL     1     130.422 127.874 127.364  1.00  0.00    -0.545 OA
ENDBRANCH   6   9
TORSDOF 2
ENDMDL
