MODEL 1
REMARK VINA RESULT:    -8.116      0.000      0.000
REMARK INTER + INTRA:          -9.011
REMARK INTER:                  -8.828
REMARK INTRA:                  -0.184
REMARK UNBOUND:                -0.184
REMARK SMILES C[C@H]1[C@@H](C)CC[C@@]2(C(=O)[O-])CC[C@@]3(C)C(=CC[C@@H]4[C@]5(C)CC[C@@H](O)C(C)(C)[C@H]5CC[C@@]43C)[C@@H]12
REMARK SMILES IDX 7 1 6 2 11 3 33 4 5 5 12 6 15 7 2 8 3 9 13 10 16 11 1 12
REMARK SMILES IDX 4 13 14 14 31 15 17 16 18 17 30 18 32 19 19 20 29 21 28 22
REMARK SMILES IDX 21 23 20 24 25 25 22 26 23 27 26 28 27 29 8 30 9 31 10 32
REMARK SMILES IDX 24 33
REMARK H PARENT 24 34
REMARK Flexibility Score: inf
ROOT
ATOM      1  C   UNL     1      -3.009  -3.613  14.402  1.00  0.00     0.017 C 
ATOM      2  C   UNL     1      -2.381  -4.667  13.444  1.00  0.00     0.014 C 
ATOM      3  C   UNL     1      -3.314  -2.326  13.559  1.00  0.00     0.014 C 
ATOM      4  C   UNL     1      -4.287  -4.197  15.163  1.00  0.00     0.030 C 
ATOM      5  C   UNL     1      -3.430  -5.412  12.632  1.00  0.00     0.004 C 
ATOM      6  C   UNL     1      -4.234  -1.292  14.238  1.00  0.00     0.013 C 
ATOM      7  C   UNL     1      -5.224  -3.062  15.638  1.00  0.00    -0.063 C 
ATOM      8  C   UNL     1      -5.019  -5.516  14.644  1.00  0.00    -0.003 C 
ATOM      9  C   UNL     1      -4.226  -6.322  13.563  1.00  0.00    -0.011 C 
ATOM     10  C   UNL     1      -5.597  -1.883  14.716  1.00  0.00    -0.006 C 
ATOM     11  C   UNL     1      -5.464  -3.003  16.951  1.00  0.00    -0.027 C 
ATOM     12  C   UNL     1      -6.548  -5.422  14.380  1.00  0.00     0.008 C 
ATOM     13  C   UNL     1      -5.068  -7.313  12.742  1.00  0.00     0.008 C 
ATOM     14  C   UNL     1      -6.343  -2.438  13.459  1.00  0.00     0.017 C 
ATOM     15  C   UNL     1      -6.518  -0.766  15.463  1.00  0.00    -0.020 C 
ATOM     16  C   UNL     1      -5.603  -1.726  17.716  1.00  0.00     0.032 C 
ATOM     17  C   UNL     1      -5.937  -0.427  16.902  1.00  0.00     0.006 C 
ATOM     18  C   UNL     1      -7.994  -1.243  15.681  1.00  0.00     0.008 C 
ATOM     19  C   UNL     1      -6.552   0.506  14.546  1.00  0.00     0.012 C 
ATOM     20  C   UNL     1      -6.809   0.592  17.780  1.00  0.00    -0.025 C 
ATOM     21  C   UNL     1      -8.884  -0.294  16.516  1.00  0.00     0.005 C 
ATOM     22  C   UNL     1      -8.275   0.006  17.907  1.00  0.00     0.003 C 
ATOM     23  C   UNL     1      -6.188   0.762  19.213  1.00  0.00     0.010 C 
ATOM     24  C   UNL     1      -6.755   2.021  17.138  1.00  0.00     0.012 C 
ATOM     25  C   UNL     1      -9.237   0.721  18.936  1.00  0.00    -0.006 C 
ATOM     26  C   UNL     1      -7.089   1.535  20.184  1.00  0.00     0.033 C 
ATOM     27  C   UNL     1      -8.475   0.884  20.300  1.00  0.00     0.120 C 
ATOM     28  C   UNL     1      -9.818   2.060  18.410  1.00  0.00     0.014 C 
ATOM     29  C   UNL     1     -10.461  -0.198  19.226  1.00  0.00     0.014 C 
ENDROOT
BRANCH   1  30
ATOM     30  C   UNL     1      -1.945  -3.234  15.451  1.00  0.00     0.048 C 
ATOM     31  O   UNL     1      -0.860  -2.697  15.096  1.00  0.00    -0.550 OA
ATOM     32  O   UNL     1      -2.117  -3.524  16.800  1.00  0.00    -0.550 OA
ENDBRANCH   1  30
BRANCH  27  33
ATOM     33  O   UNL     1      -9.266   1.532  21.276  1.00  0.00    -0.393 OA
ATOM     34  H   UNL     1     -10.034   0.949  21.499  1.00  0.00     0.210 HD
ENDBRANCH  27  33
TORSDOF 2
ENDMDL
MODEL 2
REMARK VINA RESULT:    -7.826      3.810     10.020
REMARK INTER + INTRA:          -8.696
REMARK INTER:                  -8.445
REMARK INTRA:                  -0.251
REMARK UNBOUND:                -0.184
REMARK SMILES C[C@H]1[C@@H](C)CC[C@@]2(C(=O)[O-])CC[C@@]3(C)C(=CC[C@@H]4[C@]5(C)CC[C@@H](O)C(C)(C)[C@H]5CC[C@@]43C)[C@@H]12
REMARK SMILES IDX 7 1 6 2 11 3 33 4 5 5 12 6 15 7 2 8 3 9 13 10 16 11 1 12
REMARK SMILES IDX 4 13 14 14 31 15 17 16 18 17 30 18 32 19 19 20 29 21 28 22
REMARK SMILES IDX 21 23 20 24 25 25 22 26 23 27 26 28 27 29 8 30 9 31 10 32
REMARK SMILES IDX 24 33
REMARK H PARENT 24 34
REMARK Flexibility Score: inf
ROOT
ATOM      1  C   UNL     1      -9.111   1.380  25.073  1.00  0.00     0.017 C 
ATOM      2  C   UNL     1      -9.638   1.986  26.407  1.00  0.00     0.014 C 
ATOM      3  C   UNL     1     -10.175   0.346  24.566  1.00  0.00     0.014 C 
ATOM      4  C   UNL     1      -8.767   2.519  24.006  1.00  0.00     0.030 C 
ATOM      5  C   UNL     1     -10.653   3.096  26.180  1.00  0.00     0.004 C 
ATOM      6  C   UNL     1     -10.005  -0.118  23.106  1.00  0.00     0.013 C 
ATOM      7  C   UNL     1      -8.806   1.965  22.563  1.00  0.00    -0.063 C 
ATOM      8  C   UNL     1      -9.322   4.005  24.183  1.00  0.00    -0.003 C 
ATOM      9  C   UNL     1      -9.940   4.308  25.588  1.00  0.00    -0.011 C 
ATOM     10  C   UNL     1      -9.952   1.054  22.077  1.00  0.00    -0.006 C 
ATOM     11  C   UNL     1      -7.678   2.078  21.854  1.00  0.00    -0.027 C 
ATOM     12  C   UNL     1     -10.109   4.616  22.991  1.00  0.00     0.008 C 
ATOM     13  C   UNL     1     -10.857   5.542  25.642  1.00  0.00     0.008 C 
ATOM     14  C   UNL     1     -11.302   1.838  22.178  1.00  0.00     0.017 C 
ATOM     15  C   UNL     1      -9.731   0.520  20.555  1.00  0.00    -0.020 C 
ATOM     16  C   UNL     1      -7.192   1.042  20.893  1.00  0.00     0.032 C 
ATOM     17  C   UNL     1      -8.240   0.011  20.347  1.00  0.00     0.006 C 
ATOM     18  C   UNL     1      -9.974   1.633  19.479  1.00  0.00     0.008 C 
ATOM     19  C   UNL     1     -10.767  -0.629  20.303  1.00  0.00     0.012 C 
ATOM     20  C   UNL     1      -7.867  -0.453  18.859  1.00  0.00    -0.025 C 
ATOM     21  C   UNL     1      -9.637   1.237  18.023  1.00  0.00     0.005 C 
ATOM     22  C   UNL     1      -8.177   0.747  17.873  1.00  0.00     0.003 C 
ATOM     23  C   UNL     1      -6.345  -0.832  18.761  1.00  0.00     0.010 C 
ATOM     24  C   UNL     1      -8.640  -1.772  18.508  1.00  0.00     0.012 C 
ATOM     25  C   UNL     1      -7.652   0.600  16.390  1.00  0.00    -0.006 C 
ATOM     26  C   UNL     1      -5.862  -1.061  17.323  1.00  0.00     0.033 C 
ATOM     27  C   UNL     1      -6.145   0.161  16.436  1.00  0.00     0.120 C 
ATOM     28  C   UNL     1      -8.525  -0.341  15.518  1.00  0.00     0.014 C 
ATOM     29  C   UNL     1      -7.681   1.991  15.690  1.00  0.00     0.014 C 
ENDROOT
BRANCH   1  30
ATOM     30  C   UNL     1      -7.821   0.597  25.386  1.00  0.00     0.048 C 
ATOM     31  O   UNL     1      -6.692   1.144  25.248  1.00  0.00    -0.550 OA
ATOM     32  O   UNL     1      -7.855  -0.739  25.767  1.00  0.00    -0.550 OA
ENDBRANCH   1  30
BRANCH  27  33
ATOM     33  O   UNL     1      -5.601  -0.009  15.142  1.00  0.00    -0.393 OA
ATOM     34  H   UNL     1      -6.342  -0.188  14.510  1.00  0.00     0.210 HD
ENDBRANCH  27  33
TORSDOF 2
ENDMDL
MODEL 3
REMARK VINA RESULT:    -7.732      4.046      6.220
REMARK INTER + INTRA:          -8.594
REMARK INTER:                  -8.343
REMARK INTRA:                  -0.250
REMARK UNBOUND:                -0.184
REMARK SMILES C[C@H]1[C@@H](C)CC[C@@]2(C(=O)[O-])CC[C@@]3(C)C(=CC[C@@H]4[C@]5(C)CC[C@@H](O)C(C)(C)[C@H]5CC[C@@]43C)[C@@H]12
REMARK SMILES IDX 7 1 6 2 11 3 33 4 5 5 12 6 15 7 2 8 3 9 13 10 16 11 1 12
REMARK SMILES IDX 4 13 14 14 31 15 17 16 18 17 30 18 32 19 19 20 29 21 28 22
REMARK SMILES IDX 21 23 20 24 25 25 22 26 23 27 26 28 27 29 8 30 9 31 10 32
REMARK SMILES IDX 24 33
REMARK H PARENT 24 34
REMARK Flexibility Score: inf
ROOT
ATOM      1  C   UNL     1      -7.843   0.845  16.264  1.00  0.00     0.017 C 
ATOM      2  C   UNL     1      -7.957   0.548  14.740  1.00  0.00     0.014 C 
ATOM      3  C   UNL     1      -8.969   1.873  16.634  1.00  0.00     0.014 C 
ATOM      4  C   UNL     1      -7.893  -0.497  17.130  1.00  0.00     0.030 C 
ATOM      5  C   UNL     1      -9.037  -0.476  14.427  1.00  0.00     0.004 C 
ATOM      6  C   UNL     1      -9.239   2.045  18.142  1.00  0.00     0.013 C 
ATOM      7  C   UNL     1      -8.353  -0.213  18.579  1.00  0.00    -0.063 C 
ATOM      8  C   UNL     1      -8.426  -1.862  16.499  1.00  0.00    -0.003 C 
ATOM      9  C   UNL     1      -8.592  -1.841  14.943  1.00  0.00    -0.011 C 
ATOM     10  C   UNL     1      -9.555   0.706  18.880  1.00  0.00    -0.006 C 
ATOM     11  C   UNL     1      -7.505  -0.566  19.549  1.00  0.00    -0.027 C 
ATOM     12  C   UNL     1      -9.568  -2.596  17.255  1.00  0.00     0.008 C 
ATOM     13  C   UNL     1      -9.498  -2.945  14.371  1.00  0.00     0.008 C 
ATOM     14  C   UNL     1     -10.838   0.094  18.228  1.00  0.00     0.017 C 
ATOM     15  C   UNL     1      -9.793   0.931  20.475  1.00  0.00    -0.020 C 
ATOM     16  C   UNL     1      -7.297   0.225  20.801  1.00  0.00     0.032 C 
ATOM     17  C   UNL     1      -8.420   1.240  21.212  1.00  0.00     0.006 C 
ATOM     18  C   UNL     1     -10.402  -0.328  21.181  1.00  0.00     0.008 C 
ATOM     19  C   UNL     1     -10.809   2.114  20.638  1.00  0.00     0.012 C 
ATOM     20  C   UNL     1      -8.507   1.387  22.806  1.00  0.00    -0.025 C 
ATOM     21  C   UNL     1     -10.516  -0.239  22.720  1.00  0.00     0.005 C 
ATOM     22  C   UNL     1      -9.154   0.066  23.390  1.00  0.00     0.003 C 
ATOM     23  C   UNL     1      -7.075   1.586  23.423  1.00  0.00     0.010 C 
ATOM     24  C   UNL     1      -9.295   2.692  23.174  1.00  0.00     0.012 C 
ATOM     25  C   UNL     1      -9.108  -0.112  24.960  1.00  0.00    -0.006 C 
ATOM     26  C   UNL     1      -7.051   1.501  24.954  1.00  0.00     0.033 C 
ATOM     27  C   UNL     1      -7.643   0.173  25.451  1.00  0.00     0.120 C 
ATOM     28  C   UNL     1     -10.169   0.738  25.708  1.00  0.00     0.014 C 
ATOM     29  C   UNL     1      -9.409  -1.597  25.322  1.00  0.00     0.014 C 
ENDROOT
BRANCH   1  30
ATOM     30  C   UNL     1      -6.489   1.538  16.511  1.00  0.00     0.048 C 
ATOM     31  O   UNL     1      -5.515   0.887  16.979  1.00  0.00    -0.550 OA
ATOM     32  O   UNL     1      -6.315   2.899  16.288  1.00  0.00    -0.550 OA
ENDBRANCH   1  30
BRANCH  27  33
ATOM     33  O   UNL     1      -7.520   0.050  26.853  1.00  0.00    -0.393 OA
ATOM     34  H   UNL     1      -8.363   0.356  27.272  1.00  0.00     0.210 HD
ENDBRANCH  27  33
TORSDOF 2
ENDMDL
MODEL 4
REMARK VINA RESULT:    -7.664      1.192      1.299
REMARK INTER + INTRA:          -8.520
REMARK INTER:                  -8.270
REMARK INTRA:                  -0.250
REMARK UNBOUND:                -0.184
REMARK SMILES C[C@H]1[C@@H](C)CC[C@@]2(C(=O)[O-])CC[C@@]3(C)C(=CC[C@@H]4[C@]5(C)CC[C@@H](O)C(C)(C)[C@H]5CC[C@@]43C)[C@@H]12
REMARK SMILES IDX 7 1 6 2 11 3 33 4 5 5 12 6 15 7 2 8 3 9 13 10 16 11 1 12
REMARK SMILES IDX 4 13 14 14 31 15 17 16 18 17 30 18 32 19 19 20 29 21 28 22
REMARK SMILES IDX 21 23 20 24 25 25 22 26 23 27 26 28 27 29 8 30 9 31 10 32
REMARK SMILES IDX 24 33
REMARK H PARENT 24 34
REMARK Flexibility Score: inf
ROOT
ATOM      1  C   UNL     1      -2.234  -3.750  13.915  1.00  0.00     0.017 C 
ATOM      2  C   UNL     1      -1.391  -4.668  12.982  1.00  0.00     0.014 C 
ATOM      3  C   UNL     1      -2.872  -2.626  13.027  1.00  0.00     0.014 C 
ATOM      4  C   UNL     1      -3.305  -4.589  14.753  1.00  0.00     0.030 C 
ATOM      5  C   UNL     1      -2.245  -5.691  12.247  1.00  0.00     0.004 C 
ATOM      6  C   UNL     1      -4.001  -1.815  13.695  1.00  0.00     0.013 C 
ATOM      7  C   UNL     1      -4.481  -3.696  15.213  1.00  0.00    -0.063 C 
ATOM      8  C   UNL     1      -3.702  -6.074  14.324  1.00  0.00    -0.003 C 
ATOM      9  C   UNL     1      -2.764  -6.717  13.250  1.00  0.00    -0.011 C 
ATOM     10  C   UNL     1      -5.161  -2.697  14.254  1.00  0.00    -0.006 C 
ATOM     11  C   UNL     1      -4.692  -3.627  16.531  1.00  0.00    -0.027 C 
ATOM     12  C   UNL     1      -5.213  -6.374  14.118  1.00  0.00     0.008 C 
ATOM     13  C   UNL     1      -3.356  -7.928  12.510  1.00  0.00     0.008 C 
ATOM     14  C   UNL     1      -5.781  -3.486  13.055  1.00  0.00     0.017 C 
ATOM     15  C   UNL     1      -6.308  -1.802  14.986  1.00  0.00    -0.020 C 
ATOM     16  C   UNL     1      -5.121  -2.384  17.242  1.00  0.00     0.032 C 
ATOM     17  C   UNL     1      -5.789  -1.253  16.384  1.00  0.00     0.006 C 
ATOM     18  C   UNL     1      -7.613  -2.616  15.286  1.00  0.00     0.008 C 
ATOM     19  C   UNL     1      -6.683  -0.630  14.015  1.00  0.00     0.012 C 
ATOM     20  C   UNL     1      -6.862  -0.435  17.249  1.00  0.00    -0.025 C 
ATOM     21  C   UNL     1      -8.688  -1.871  16.111  1.00  0.00     0.005 C 
ATOM     22  C   UNL     1      -8.133  -1.355  17.461  1.00  0.00     0.003 C 
ATOM     23  C   UNL     1      -6.263  -0.039  18.646  1.00  0.00     0.010 C 
ATOM     24  C   UNL     1      -7.183   0.927  16.541  1.00  0.00     0.012 C 
ATOM     25  C   UNL     1      -9.213  -0.845  18.495  1.00  0.00    -0.006 C 
ATOM     26  C   UNL     1      -7.300   0.540  19.616  1.00  0.00     0.033 C 
ATOM     27  C   UNL     1      -8.478  -0.426  19.819  1.00  0.00     0.120 C 
ATOM     28  C   UNL     1     -10.123   0.279  17.932  1.00  0.00     0.014 C 
ATOM     29  C   UNL     1     -10.162  -2.020  18.876  1.00  0.00     0.014 C 
ENDROOT
BRANCH   1  30
ATOM     30  C   UNL     1      -1.268  -3.065  14.902  1.00  0.00     0.048 C 
ATOM     31  O   UNL     1      -0.490  -2.155  14.505  1.00  0.00    -0.550 OA
ATOM     32  O   UNL     1      -1.182  -3.463  16.231  1.00  0.00    -0.550 OA
ENDBRANCH   1  30
BRANCH  27  33
ATOM     33  O   UNL     1      -9.377   0.060  20.795  1.00  0.00    -0.393 OA
ATOM     34  H   UNL     1      -9.090   0.968  21.064  1.00  0.00     0.210 HD
ENDBRANCH  27  33
TORSDOF 2
ENDMDL
MODEL 5
REMARK VINA RESULT:    -7.662      4.124      9.468
REMARK INTER + INTRA:          -8.518
REMARK INTER:                  -8.267
REMARK INTRA:                  -0.250
REMARK UNBOUND:                -0.184
REMARK SMILES C[C@H]1[C@@H](C)CC[C@@]2(C(=O)[O-])CC[C@@]3(C)C(=CC[C@@H]4[C@]5(C)CC[C@@H](O)C(C)(C)[C@H]5CC[C@@]43C)[C@@H]12
REMARK SMILES IDX 7 1 6 2 11 3 33 4 5 5 12 6 15 7 2 8 3 9 13 10 16 11 1 12
REMARK SMILES IDX 4 13 14 14 31 15 17 16 18 17 30 18 32 19 19 20 29 21 28 22
REMARK SMILES IDX 21 23 20 24 25 25 22 26 23 27 26 28 27 29 8 30 9 31 10 32
REMARK SMILES IDX 24 33
REMARK H PARENT 24 34
REMARK Flexibility Score: inf
ROOT
ATOM      1  C   UNL     1      -5.280  -4.070  13.568  1.00  0.00     0.017 C 
ATOM      2  C   UNL     1      -6.275  -2.874  13.536  1.00  0.00     0.014 C 
ATOM      3  C   UNL     1      -4.066  -3.705  12.646  1.00  0.00     0.014 C 
ATOM      4  C   UNL     1      -4.858  -4.444  15.064  1.00  0.00     0.030 C 
ATOM      5  C   UNL     1      -5.863  -1.749  14.474  1.00  0.00     0.004 C 
ATOM      6  C   UNL     1      -2.823  -4.605  12.798  1.00  0.00     0.013 C 
ATOM      7  C   UNL     1      -3.503  -5.187  15.095  1.00  0.00    -0.063 C 
ATOM      8  C   UNL     1      -5.106  -3.423  16.265  1.00  0.00    -0.003 C 
ATOM      9  C   UNL     1      -6.037  -2.216  15.916  1.00  0.00    -0.011 C 
ATOM     10  C   UNL     1      -2.296  -4.703  14.264  1.00  0.00    -0.006 C 
ATOM     11  C   UNL     1      -3.508  -6.406  15.643  1.00  0.00    -0.027 C 
ATOM     12  C   UNL     1      -3.880  -3.053  17.147  1.00  0.00     0.008 C 
ATOM     13  C   UNL     1      -5.938  -1.019  16.877  1.00  0.00     0.008 C 
ATOM     14  C   UNL     1      -1.905  -3.262  14.728  1.00  0.00     0.017 C 
ATOM     15  C   UNL     1      -1.010  -5.695  14.384  1.00  0.00    -0.020 C 
ATOM     16  C   UNL     1      -2.692  -7.550  15.135  1.00  0.00     0.032 C 
ATOM     17  C   UNL     1      -1.453  -7.214  14.233  1.00  0.00     0.006 C 
ATOM     18  C   UNL     1      -0.281  -5.580  15.766  1.00  0.00     0.008 C 
ATOM     19  C   UNL     1       0.009  -5.283  13.265  1.00  0.00     0.012 C 
ATOM     20  C   UNL     1      -0.289  -8.298  14.428  1.00  0.00    -0.025 C 
ATOM     21  C   UNL     1       0.858  -6.598  16.005  1.00  0.00     0.005 C 
ATOM     22  C   UNL     1       0.377  -8.061  15.845  1.00  0.00     0.003 C 
ATOM     23  C   UNL     1      -0.871  -9.755  14.360  1.00  0.00     0.010 C 
ATOM     24  C   UNL     1       0.723  -8.206  13.234  1.00  0.00     0.012 C 
ATOM     25  C   UNL     1       1.380  -9.171  16.352  1.00  0.00    -0.006 C 
ATOM     26  C   UNL     1       0.136 -10.838  14.768  1.00  0.00     0.033 C 
ATOM     27  C   UNL     1       0.701 -10.576  16.173  1.00  0.00     0.120 C 
ATOM     28  C   UNL     1       2.778  -9.090  15.683  1.00  0.00     0.014 C 
ATOM     29  C   UNL     1       1.621  -8.994  17.880  1.00  0.00     0.014 C 
ENDROOT
BRANCH   1  30
ATOM     30  C   UNL     1      -5.985  -5.289  12.940  1.00  0.00     0.048 C 
ATOM     31  O   UNL     1      -6.467  -6.195  13.672  1.00  0.00    -0.550 OA
ATOM     32  O   UNL     1      -6.057  -5.457  11.562  1.00  0.00    -0.550 OA
ENDBRANCH   1  30
BRANCH  27  33
ATOM     33  O   UNL     1       1.544 -11.631  16.590  1.00  0.00    -0.393 OA
ATOM     34  H   UNL     1       2.456 -11.270  16.729  1.00  0.00     0.210 HD
ENDBRANCH  27  33
TORSDOF 2
ENDMDL
MODEL 6
REMARK VINA RESULT:    -7.536      1.964      7.835
REMARK INTER + INTRA:          -8.380
REMARK INTER:                  -8.126
REMARK INTRA:                  -0.254
REMARK UNBOUND:                -0.184
REMARK SMILES C[C@H]1[C@@H](C)CC[C@@]2(C(=O)[O-])CC[C@@]3(C)C(=CC[C@@H]4[C@]5(C)CC[C@@H](O)C(C)(C)[C@H]5CC[C@@]43C)[C@@H]12
REMARK SMILES IDX 7 1 6 2 11 3 33 4 5 5 12 6 15 7 2 8 3 9 13 10 16 11 1 12
REMARK SMILES IDX 4 13 14 14 31 15 17 16 18 17 30 18 32 19 19 20 29 21 28 22
REMARK SMILES IDX 21 23 20 24 25 25 22 26 23 27 26 28 27 29 8 30 9 31 10 32
REMARK SMILES IDX 24 33
REMARK H PARENT 24 34
REMARK Flexibility Score: inf
ROOT
ATOM      1  C   UNL     1      -9.008  -0.856  16.760  1.00  0.00     0.017 C 
ATOM      2  C   UNL     1     -10.139   0.198  16.939  1.00  0.00     0.014 C 
ATOM      3  C   UNL     1      -9.173  -1.494  15.336  1.00  0.00     0.014 C 
ATOM      4  C   UNL     1      -7.564  -0.219  17.012  1.00  0.00     0.030 C 
ATOM      5  C   UNL     1      -9.807   1.525  16.273  1.00  0.00     0.004 C 
ATOM      6  C   UNL     1      -7.968  -2.315  14.834  1.00  0.00     0.013 C 
ATOM      7  C   UNL     1      -6.459  -1.036  16.304  1.00  0.00    -0.063 C 
ATOM      8  C   UNL     1      -7.354   1.363  17.006  1.00  0.00    -0.003 C 
ATOM      9  C   UNL     1      -8.676   2.199  17.044  1.00  0.00    -0.011 C 
ATOM     10  C   UNL     1      -6.621  -1.527  14.850  1.00  0.00    -0.006 C 
ATOM     11  C   UNL     1      -5.495  -1.531  17.087  1.00  0.00    -0.027 C 
ATOM     12  C   UNL     1      -6.263   1.932  16.056  1.00  0.00     0.008 C 
ATOM     13  C   UNL     1      -8.532   3.665  16.601  1.00  0.00     0.008 C 
ATOM     14  C   UNL     1      -6.783  -0.287  13.911  1.00  0.00     0.017 C 
ATOM     15  C   UNL     1      -5.372  -2.445  14.352  1.00  0.00    -0.020 C 
ATOM     16  C   UNL     1      -4.860  -2.868  16.881  1.00  0.00     0.032 C 
ATOM     17  C   UNL     1      -4.984  -3.517  15.458  1.00  0.00     0.006 C 
ATOM     18  C   UNL     1      -4.077  -1.608  14.071  1.00  0.00     0.008 C 
ATOM     19  C   UNL     1      -5.800  -3.136  13.011  1.00  0.00     0.012 C 
ATOM     20  C   UNL     1      -3.703  -4.423  15.127  1.00  0.00    -0.025 C 
ATOM     21  C   UNL     1      -2.811  -2.431  13.739  1.00  0.00     0.005 C 
ATOM     22  C   UNL     1      -2.477  -3.462  14.844  1.00  0.00     0.003 C 
ATOM     23  C   UNL     1      -3.362  -5.365  16.337  1.00  0.00     0.010 C 
ATOM     24  C   UNL     1      -4.033  -5.389  13.937  1.00  0.00     0.012 C 
ATOM     25  C   UNL     1      -1.054  -4.140  14.740  1.00  0.00    -0.006 C 
ATOM     26  C   UNL     1      -2.018  -6.090  16.189  1.00  0.00     0.033 C 
ATOM     27  C   UNL     1      -0.867  -5.097  15.972  1.00  0.00     0.120 C 
ATOM     28  C   UNL     1      -0.808  -4.852  13.384  1.00  0.00     0.014 C 
ATOM     29  C   UNL     1       0.051  -3.049  14.864  1.00  0.00     0.014 C 
ENDROOT
BRANCH   1  30
ATOM     30  C   UNL     1      -9.236  -1.976  17.794  1.00  0.00     0.048 C 
ATOM     31  O   UNL     1      -8.601  -1.976  18.884  1.00  0.00    -0.550 OA
ATOM     32  O   UNL     1     -10.091  -3.041  17.538  1.00  0.00    -0.550 OA
ENDBRANCH   1  30
BRANCH  27  33
ATOM     33  O   UNL     1       0.382  -5.759  15.945  1.00  0.00    -0.393 OA
ATOM     34  H   UNL     1       0.281  -6.604  15.440  1.00  0.00     0.210 HD
ENDBRANCH  27  33
TORSDOF 2
ENDMDL
MODEL 7
REMARK VINA RESULT:    -7.503      4.345      9.858
REMARK INTER + INTRA:          -8.344
REMARK INTER:                  -8.377
REMARK INTRA:                   0.033
REMARK UNBOUND:                -0.184
REMARK SMILES C[C@H]1[C@@H](C)CC[C@@]2(C(=O)[O-])CC[C@@]3(C)C(=CC[C@@H]4[C@]5(C)CC[C@@H](O)C(C)(C)[C@H]5CC[C@@]43C)[C@@H]12
REMARK SMILES IDX 7 1 6 2 11 3 33 4 5 5 12 6 15 7 2 8 3 9 13 10 16 11 1 12
REMARK SMILES IDX 4 13 14 14 31 15 17 16 18 17 30 18 32 19 19 20 29 21 28 22
REMARK SMILES IDX 21 23 20 24 25 25 22 26 23 27 26 28 27 29 8 30 9 31 10 32
REMARK SMILES IDX 24 33
REMARK H PARENT 24 34
REMARK Flexibility Score: inf
ROOT
ATOM      1  C   UNL     1      -3.684  -3.212  14.828  1.00  0.00     0.017 C 
ATOM      2  C   UNL     1      -4.487  -1.995  14.283  1.00  0.00     0.014 C 
ATOM      3  C   UNL     1      -4.352  -4.514  14.263  1.00  0.00     0.014 C 
ATOM      4  C   UNL     1      -2.128  -3.092  14.486  1.00  0.00     0.030 C 
ATOM      5  C   UNL     1      -4.084  -1.622  12.864  1.00  0.00     0.004 C 
ATOM      6  C   UNL     1      -3.520  -5.804  14.411  1.00  0.00     0.013 C 
ATOM      7  C   UNL     1      -1.444  -4.478  14.490  1.00  0.00    -0.063 C 
ATOM      8  C   UNL     1      -1.610  -2.077  13.368  1.00  0.00    -0.003 C 
ATOM      9  C   UNL     1      -2.675  -1.038  12.885  1.00  0.00    -0.011 C 
ATOM     10  C   UNL     1      -2.087  -5.699  13.800  1.00  0.00    -0.006 C 
ATOM     11  C   UNL     1      -0.426  -4.634  15.342  1.00  0.00    -0.027 C 
ATOM     12  C   UNL     1      -0.723  -2.661  12.234  1.00  0.00     0.008 C 
ATOM     13  C   UNL     1      -2.361  -0.363  11.538  1.00  0.00     0.008 C 
ATOM     14  C   UNL     1      -2.240  -5.399  12.273  1.00  0.00     0.017 C 
ATOM     15  C   UNL     1      -1.231  -7.068  14.016  1.00  0.00    -0.020 C 
ATOM     16  C   UNL     1      -0.155  -5.898  16.092  1.00  0.00     0.032 C 
ATOM     17  C   UNL     1      -0.786  -7.222  15.534  1.00  0.00     0.006 C 
ATOM     18  C   UNL     1       0.082  -7.104  13.163  1.00  0.00     0.008 C 
ATOM     19  C   UNL     1      -2.136  -8.266  13.562  1.00  0.00     0.012 C 
ATOM     20  C   UNL     1       0.146  -8.484  15.858  1.00  0.00    -0.025 C 
ATOM     21  C   UNL     1       1.017  -8.306  13.430  1.00  0.00     0.005 C 
ATOM     22  C   UNL     1       1.420  -8.413  14.920  1.00  0.00     0.003 C 
ATOM     23  C   UNL     1       0.602  -8.465  17.362  1.00  0.00     0.010 C 
ATOM     24  C   UNL     1      -0.681  -9.807  15.699  1.00  0.00     0.012 C 
ATOM     25  C   UNL     1       2.594  -9.420  15.242  1.00  0.00    -0.006 C 
ATOM     26  C   UNL     1       1.680  -9.507  17.689  1.00  0.00     0.033 C 
ATOM     27  C   UNL     1       2.907  -9.347  16.779  1.00  0.00     0.120 C 
ATOM     28  C   UNL     1       2.316 -10.867  14.754  1.00  0.00     0.014 C 
ATOM     29  C   UNL     1       3.889  -8.957  14.510  1.00  0.00     0.014 C 
ENDROOT
BRANCH   1  30
ATOM     30  C   UNL     1      -3.848  -3.239  16.360  1.00  0.00     0.048 C 
ATOM     31  O   UNL     1      -2.858  -3.477  17.104  1.00  0.00    -0.550 OA
ATOM     32  O   UNL     1      -5.089  -3.066  16.963  1.00  0.00    -0.550 OA
ENDBRANCH   1  30
BRANCH  27  33
ATOM     33  O   UNL     1       3.941 -10.234  17.154  1.00  0.00    -0.393 OA
ATOM     34  H   UNL     1       4.650  -9.718  17.614  1.00  0.00     0.210 HD
ENDBRANCH  27  33
TORSDOF 2
ENDMDL
MODEL 8
REMARK VINA RESULT:    -7.499      3.614      6.212
REMARK INTER + INTRA:          -8.340
REMARK INTER:                  -8.090
REMARK INTRA:                  -0.250
REMARK UNBOUND:                -0.184
REMARK SMILES C[C@H]1[C@@H](C)CC[C@@]2(C(=O)[O-])CC[C@@]3(C)C(=CC[C@@H]4[C@]5(C)CC[C@@H](O)C(C)(C)[C@H]5CC[C@@]43C)[C@@H]12
REMARK SMILES IDX 7 1 6 2 11 3 33 4 5 5 12 6 15 7 2 8 3 9 13 10 16 11 1 12
REMARK SMILES IDX 4 13 14 14 31 15 17 16 18 17 30 18 32 19 19 20 29 21 28 22
REMARK SMILES IDX 21 23 20 24 25 25 22 26 23 27 26 28 27 29 8 30 9 31 10 32
REMARK SMILES IDX 24 33
REMARK H PARENT 24 34
REMARK Flexibility Score: inf
ROOT
ATOM      1  C   UNL     1       0.546  -7.858  15.286  1.00  0.00     0.017 C 
ATOM      2  C   UNL     1       1.650  -8.944  15.122  1.00  0.00     0.014 C 
ATOM      3  C   UNL     1       1.034  -6.567  14.541  1.00  0.00     0.014 C 
ATOM      4  C   UNL     1      -0.876  -8.386  14.785  1.00  0.00     0.030 C 
ATOM      5  C   UNL     1       1.573  -9.653  13.778  1.00  0.00     0.004 C 
ATOM      6  C   UNL     1      -0.045  -5.493  14.302  1.00  0.00     0.013 C 
ATOM      7  C   UNL     1      -1.808  -7.212  14.404  1.00  0.00    -0.063 C 
ATOM      8  C   UNL     1      -0.992  -9.680  13.858  1.00  0.00    -0.003 C 
ATOM      9  C   UNL     1       0.320 -10.524  13.748  1.00  0.00    -0.011 C 
ATOM     10  C   UNL     1      -1.307  -6.026  13.553  1.00  0.00    -0.006 C 
ATOM     11  C   UNL     1      -2.965  -7.134  15.067  1.00  0.00    -0.027 C 
ATOM     12  C   UNL     1      -1.771  -9.529  12.522  1.00  0.00     0.008 C 
ATOM     13  C   UNL     1       0.375 -11.488  12.550  1.00  0.00     0.008 C 
ATOM     14  C   UNL     1      -0.843  -6.561  12.159  1.00  0.00     0.017 C 
ATOM     15  C   UNL     1      -2.436  -4.869  13.359  1.00  0.00    -0.020 C 
ATOM     16  C   UNL     1      -3.599  -5.847  15.486  1.00  0.00     0.032 C 
ATOM     17  C   UNL     1      -3.151  -4.542  14.739  1.00  0.00     0.006 C 
ATOM     18  C   UNL     1      -3.568  -5.286  12.360  1.00  0.00     0.008 C 
ATOM     19  C   UNL     1      -1.717  -3.604  12.774  1.00  0.00     0.012 C 
ATOM     20  C   UNL     1      -4.352  -3.483  14.664  1.00  0.00    -0.025 C 
ATOM     21  C   UNL     1      -4.750  -4.297  12.241  1.00  0.00     0.005 C 
ATOM     22  C   UNL     1      -5.411  -4.010  13.611  1.00  0.00     0.003 C 
ATOM     23  C   UNL     1      -5.042  -3.326  16.066  1.00  0.00     0.010 C 
ATOM     24  C   UNL     1      -3.783  -2.062  14.327  1.00  0.00     0.012 C 
ATOM     25  C   UNL     1      -6.796  -3.250  13.557  1.00  0.00    -0.006 C 
ATOM     26  C   UNL     1      -6.341  -2.511  16.023  1.00  0.00     0.033 C 
ATOM     27  C   UNL     1      -7.343  -3.107  15.022  1.00  0.00     0.120 C 
ATOM     28  C   UNL     1      -6.726  -1.893  12.807  1.00  0.00     0.014 C 
ATOM     29  C   UNL     1      -7.834  -4.118  12.786  1.00  0.00     0.014 C 
ENDROOT
BRANCH   1  30
ATOM     30  C   UNL     1       0.441  -7.513  16.784  1.00  0.00     0.048 C 
ATOM     31  O   UNL     1       1.351  -6.850  17.352  1.00  0.00    -0.550 OA
ATOM     32  O   UNL     1      -0.616  -7.969  17.564  1.00  0.00    -0.550 OA
ENDBRANCH   1  30
BRANCH  27  33
ATOM     33  O   UNL     1      -8.578  -2.421  15.063  1.00  0.00    -0.393 OA
ATOM     34  H   UNL     1      -8.903  -2.411  15.998  1.00  0.00     0.210 HD
ENDBRANCH  27  33
TORSDOF 2
ENDMDL
MODEL 9
REMARK VINA RESULT:    -7.494      2.366      3.083
REMARK INTER + INTRA:          -8.334
REMARK INTER:                  -8.406
REMARK INTRA:                   0.072
REMARK UNBOUND:                -0.184
REMARK SMILES C[C@H]1[C@@H](C)CC[C@@]2(C(=O)[O-])CC[C@@]3(C)C(=CC[C@@H]4[C@]5(C)CC[C@@H](O)C(C)(C)[C@H]5CC[C@@]43C)[C@@H]12
REMARK SMILES IDX 7 1 6 2 11 3 33 4 5 5 12 6 15 7 2 8 3 9 13 10 16 11 1 12
REMARK SMILES IDX 4 13 14 14 31 15 17 16 18 17 30 18 32 19 19 20 29 21 28 22
REMARK SMILES IDX 21 23 20 24 25 25 22 26 23 27 26 28 27 29 8 30 9 31 10 32
REMARK SMILES IDX 24 33
REMARK H PARENT 24 34
REMARK Flexibility Score: inf
ROOT
ATOM      1  C   UNL     1      -3.043  -4.569  14.845  1.00  0.00     0.017 C 
ATOM      2  C   UNL     1      -2.455  -5.969  14.499  1.00  0.00     0.014 C 
ATOM      3  C   UNL     1      -2.210  -3.496  14.061  1.00  0.00     0.014 C 
ATOM      4  C   UNL     1      -4.612  -4.502  14.551  1.00  0.00     0.030 C 
ATOM      5  C   UNL     1      -2.966  -6.501  13.169  1.00  0.00     0.004 C 
ATOM      6  C   UNL     1      -2.833  -2.087  14.004  1.00  0.00     0.013 C 
ATOM      7  C   UNL     1      -5.080  -3.044  14.333  1.00  0.00    -0.063 C 
ATOM      8  C   UNL     1      -5.322  -5.592  13.627  1.00  0.00    -0.003 C 
ATOM      9  C   UNL     1      -4.446  -6.848  13.308  1.00  0.00    -0.011 C 
ATOM     10  C   UNL     1      -4.288  -2.066  13.440  1.00  0.00    -0.006 C 
ATOM     11  C   UNL     1      -6.027  -2.595  15.162  1.00  0.00    -0.027 C 
ATOM     12  C   UNL     1      -6.155  -5.070  12.424  1.00  0.00     0.008 C 
ATOM     13  C   UNL     1      -4.911  -7.676  12.098  1.00  0.00     0.008 C 
ATOM     14  C   UNL     1      -4.243  -2.631  11.983  1.00  0.00     0.017 C 
ATOM     15  C   UNL     1      -4.919  -0.564  13.437  1.00  0.00    -0.020 C 
ATOM     16  C   UNL     1      -6.074  -1.199  15.694  1.00  0.00     0.032 C 
ATOM     17  C   UNL     1      -5.274  -0.099  14.914  1.00  0.00     0.006 C 
ATOM     18  C   UNL     1      -6.245  -0.464  12.609  1.00  0.00     0.008 C 
ATOM     19  C   UNL     1      -3.863   0.389  12.775  1.00  0.00     0.012 C 
ATOM     20  C   UNL     1      -5.992   1.329  15.036  1.00  0.00    -0.025 C 
ATOM     21  C   UNL     1      -6.977   0.895  12.685  1.00  0.00     0.005 C 
ATOM     22  C   UNL     1      -7.299   1.305  14.142  1.00  0.00     0.003 C 
ATOM     23  C   UNL     1      -6.385   1.626  16.528  1.00  0.00     0.010 C 
ATOM     24  C   UNL     1      -4.983   2.463  14.646  1.00  0.00     0.012 C 
ATOM     25  C   UNL     1      -8.294   2.521  14.308  1.00  0.00    -0.006 C 
ATOM     26  C   UNL     1      -7.280   2.861  16.693  1.00  0.00     0.033 C 
ATOM     27  C   UNL     1      -8.553   2.748  15.841  1.00  0.00     0.120 C 
ATOM     28  C   UNL     1      -7.822   3.808  13.581  1.00  0.00     0.014 C 
ATOM     29  C   UNL     1      -9.672   2.151  13.683  1.00  0.00     0.014 C 
ENDROOT
BRANCH   1  30
ATOM     30  C   UNL     1      -2.816  -4.319  16.349  1.00  0.00     0.048 C 
ATOM     31  O   UNL     1      -2.140  -5.132  17.036  1.00  0.00    -0.550 OA
ATOM     32  O   UNL     1      -3.392  -3.236  17.002  1.00  0.00    -0.550 OA
ENDBRANCH   1  30
BRANCH  27  33
ATOM     33  O   UNL     1      -9.426   3.834  16.076  1.00  0.00    -0.393 OA
ATOM     34  H   UNL     1      -9.771   4.157  15.206  1.00  0.00     0.210 HD
ENDBRANCH  27  33
TORSDOF 2
ENDMDL
