MODEL 1
REMARK VINA RESULT:    -4.866      0.000      0.000
REMARK INTER + INTRA:          -5.324
REMARK INTER:                  -5.150
REMARK INTRA:                  -0.174
REMARK UNBOUND:                -0.174
REMARK SMILES CC1=CC[C@H](C(C)C)C=C1
REMARK SMILES IDX 1 1 2 2 3 3 4 4 5 5 9 6 10 7 6 8 7 9 8 10
REMARK H PARENT
REMARK Flexibility Score: inf
ROOT
ATOM      1  C   UNL     1      -1.582  -1.250  14.146  1.00  0.00     0.044 C 
ATOM      2  C   UNL     1      -1.448   0.055  13.421  1.00  0.00    -0.055 C 
ATOM      3  C   UNL     1      -1.444   1.212  14.101  1.00  0.00    -0.023 C 
ATOM      4  C   UNL     1      -1.463   2.532  13.375  1.00  0.00     0.035 C 
ATOM      5  C   UNL     1      -0.673   2.443  12.047  1.00  0.00     0.018 C 
ATOM      6  C   UNL     1      -1.071   1.195  11.283  1.00  0.00    -0.023 C 
ATOM      7  C   UNL     1      -1.384   0.072  11.940  1.00  0.00    -0.001 C 
ENDROOT
BRANCH   5   8
ATOM      8  C   UNL     1      -0.784   3.750  11.208  1.00  0.00    -0.010 C 
ATOM      9  C   UNL     1      -0.408   5.020  11.992  1.00  0.00     0.008 C 
ATOM     10  C   UNL     1      -2.185   3.903  10.595  1.00  0.00     0.008 C 
ENDBRANCH   5   8
TORSDOF 1
ENDMDL
MODEL 2
REMARK VINA RESULT:    -4.631      0.772      2.054
REMARK INTER + INTRA:          -5.076
REMARK INTER:                  -4.898
REMARK INTRA:                  -0.178
REMARK UNBOUND:                -0.174
REMARK SMILES CC1=CC[C@H](C(C)C)C=C1
REMARK SMILES IDX 1 1 2 2 3 3 4 4 5 5 9 6 10 7 6 8 7 9 8 10
REMARK H PARENT
REMARK Flexibility Score: inf
ROOT
ATOM      1  C   UNL     1      -1.683  -1.288  14.033  1.00  0.00     0.044 C 
ATOM      2  C   UNL     1      -1.438   0.107  13.542  1.00  0.00    -0.055 C 
ATOM      3  C   UNL     1      -1.158   0.331  12.248  1.00  0.00    -0.023 C 
ATOM      4  C   UNL     1      -0.763   1.705  11.772  1.00  0.00     0.035 C 
ATOM      5  C   UNL     1      -1.499   2.802  12.579  1.00  0.00     0.018 C 
ATOM      6  C   UNL     1      -1.421   2.502  14.064  1.00  0.00    -0.023 C 
ATOM      7  C   UNL     1      -1.442   1.238  14.499  1.00  0.00    -0.001 C 
ENDROOT
BRANCH   5   8
ATOM      8  C   UNL     1      -1.014   4.233  12.204  1.00  0.00    -0.010 C 
ATOM      9  C   UNL     1      -0.874   4.460  10.688  1.00  0.00     0.008 C 
ATOM     10  C   UNL     1       0.304   4.579  12.914  1.00  0.00     0.008 C 
ENDBRANCH   5   8
TORSDOF 1
ENDMDL
MODEL 3
REMARK VINA RESULT:    -4.484      1.723      4.438
REMARK INTER + INTRA:          -4.921
REMARK INTER:                  -4.785
REMARK INTRA:                  -0.136
REMARK UNBOUND:                -0.174
REMARK SMILES CC1=CC[C@H](C(C)C)C=C1
REMARK SMILES IDX 1 1 2 2 3 3 4 4 5 5 9 6 10 7 6 8 7 9 8 10
REMARK H PARENT
REMARK Flexibility Score: inf
ROOT
ATOM      1  C   UNL     1      -0.520   5.471  14.954  1.00  0.00     0.044 C 
ATOM      2  C   UNL     1      -0.840   4.092  14.462  1.00  0.00    -0.055 C 
ATOM      3  C   UNL     1       0.025   3.435  13.674  1.00  0.00    -0.023 C 
ATOM      4  C   UNL     1      -0.349   2.115  13.052  1.00  0.00     0.035 C 
ATOM      5  C   UNL     1      -1.268   1.301  13.995  1.00  0.00     0.018 C 
ATOM      6  C   UNL     1      -2.377   2.183  14.537  1.00  0.00    -0.023 C 
ATOM      7  C   UNL     1      -2.146   3.475  14.795  1.00  0.00    -0.001 C 
ENDROOT
BRANCH   5   8
ATOM      8  C   UNL     1      -1.782  -0.009  13.329  1.00  0.00    -0.010 C 
ATOM      9  C   UNL     1      -1.502  -1.275  14.160  1.00  0.00     0.008 C 
ATOM     10  C   UNL     1      -1.216  -0.173  11.910  1.00  0.00     0.008 C 
ENDBRANCH   5   8
TORSDOF 1
ENDMDL
MODEL 4
REMARK VINA RESULT:    -4.483      1.523      1.858
REMARK INTER + INTRA:          -4.920
REMARK INTER:                  -4.756
REMARK INTRA:                  -0.164
REMARK UNBOUND:                -0.174
REMARK SMILES CC1=CC[C@H](C(C)C)C=C1
REMARK SMILES IDX 1 1 2 2 3 3 4 4 5 5 9 6 10 7 6 8 7 9 8 10
REMARK H PARENT
REMARK Flexibility Score: inf
ROOT
ATOM      1  C   UNL     1      -1.696  -1.209  13.953  1.00  0.00     0.044 C 
ATOM      2  C   UNL     1      -1.619   0.285  13.855  1.00  0.00    -0.055 C 
ATOM      3  C   UNL     1      -2.294   1.056  14.721  1.00  0.00    -0.023 C 
ATOM      4  C   UNL     1      -2.346   2.551  14.542  1.00  0.00     0.035 C 
ATOM      5  C   UNL     1      -1.020   3.082  13.943  1.00  0.00     0.018 C 
ATOM      6  C   UNL     1      -0.599   2.228  12.763  1.00  0.00    -0.023 C 
ATOM      7  C   UNL     1      -0.844   0.913  12.760  1.00  0.00    -0.001 C 
ENDROOT
BRANCH   5   8
ATOM      8  C   UNL     1      -1.088   4.603  13.621  1.00  0.00    -0.010 C 
ATOM      9  C   UNL     1      -0.941   5.504  14.860  1.00  0.00     0.008 C 
ATOM     10  C   UNL     1      -2.376   4.956  12.861  1.00  0.00     0.008 C 
ENDBRANCH   5   8
TORSDOF 1
ENDMDL
MODEL 5
REMARK VINA RESULT:    -4.405      9.028      9.632
REMARK INTER + INTRA:          -4.837
REMARK INTER:                  -4.709
REMARK INTRA:                  -0.128
REMARK UNBOUND:                -0.174
REMARK SMILES CC1=CC[C@H](C(C)C)C=C1
REMARK SMILES IDX 1 1 2 2 3 3 4 4 5 5 9 6 10 7 6 8 7 9 8 10
REMARK H PARENT
REMARK Flexibility Score: inf
ROOT
ATOM      1  C   UNL     1      -9.253  -1.248   9.998  1.00  0.00     0.044 C 
ATOM      2  C   UNL     1      -9.772   0.148   9.833  1.00  0.00    -0.055 C 
ATOM      3  C   UNL     1     -10.080   0.888  10.910  1.00  0.00    -0.023 C 
ATOM      4  C   UNL     1     -10.743   2.233  10.755  1.00  0.00     0.035 C 
ATOM      5  C   UNL     1     -10.250   2.947   9.473  1.00  0.00     0.018 C 
ATOM      6  C   UNL     1     -10.278   1.990   8.297  1.00  0.00    -0.023 C 
ATOM      7  C   UNL     1     -10.004   0.693   8.475  1.00  0.00    -0.001 C 
ENDROOT
BRANCH   5   8
ATOM      8  C   UNL     1     -11.012   4.280   9.212  1.00  0.00    -0.010 C 
ATOM      9  C   UNL     1     -11.117   4.649   7.722  1.00  0.00     0.008 C 
ATOM     10  C   UNL     1     -10.389   5.442  10.001  1.00  0.00     0.008 C 
ENDBRANCH   5   8
TORSDOF 1
ENDMDL
MODEL 6
REMARK VINA RESULT:    -4.362      0.664      1.700
REMARK INTER + INTRA:          -4.791
REMARK INTER:                  -4.646
REMARK INTRA:                  -0.145
REMARK UNBOUND:                -0.174
REMARK SMILES CC1=CC[C@H](C(C)C)C=C1
REMARK SMILES IDX 1 1 2 2 3 3 4 4 5 5 9 6 10 7 6 8 7 9 8 10
REMARK H PARENT
REMARK Flexibility Score: inf
ROOT
ATOM      1  C   UNL     1      -1.757  -0.756  14.084  1.00  0.00     0.044 C 
ATOM      2  C   UNL     1      -1.537   0.493  13.285  1.00  0.00    -0.055 C 
ATOM      3  C   UNL     1      -1.382   0.428  11.953  1.00  0.00    -0.023 C 
ATOM      4  C   UNL     1      -1.011   1.654  11.161  1.00  0.00     0.035 C 
ATOM      5  C   UNL     1      -1.646   2.924  11.778  1.00  0.00     0.018 C 
ATOM      6  C   UNL     1      -1.427   2.942  13.279  1.00  0.00    -0.023 C 
ATOM      7  C   UNL     1      -1.428   1.800  13.975  1.00  0.00    -0.001 C 
ENDROOT
BRANCH   5   8
ATOM      8  C   UNL     1      -1.175   4.224  11.063  1.00  0.00    -0.010 C 
ATOM      9  C   UNL     1      -0.264   5.111  11.930  1.00  0.00     0.008 C 
ATOM     10  C   UNL     1      -2.371   5.041  10.547  1.00  0.00     0.008 C 
ENDBRANCH   5   8
TORSDOF 1
ENDMDL
MODEL 7
REMARK VINA RESULT:    -4.334      1.655      4.368
REMARK INTER + INTRA:          -4.762
REMARK INTER:                  -4.640
REMARK INTRA:                  -0.122
REMARK UNBOUND:                -0.174
REMARK SMILES CC1=CC[C@H](C(C)C)C=C1
REMARK SMILES IDX 1 1 2 2 3 3 4 4 5 5 9 6 10 7 6 8 7 9 8 10
REMARK H PARENT
REMARK Flexibility Score: inf
ROOT
ATOM      1  C   UNL     1       0.237   6.170  14.449  1.00  0.00     0.044 C 
ATOM      2  C   UNL     1      -0.075   4.720  14.232  1.00  0.00    -0.055 C 
ATOM      3  C   UNL     1      -0.683   4.006  15.192  1.00  0.00    -0.023 C 
ATOM      4  C   UNL     1      -0.865   2.518  15.046  1.00  0.00     0.035 C 
ATOM      5  C   UNL     1      -1.101   2.133  13.566  1.00  0.00     0.018 C 
ATOM      6  C   UNL     1      -0.087   2.826  12.676  1.00  0.00    -0.023 C 
ATOM      7  C   UNL     1       0.345   4.055  12.976  1.00  0.00    -0.001 C 
ENDROOT
BRANCH   5   8
ATOM      8  C   UNL     1      -1.161   0.591  13.361  1.00  0.00    -0.010 C 
ATOM      9  C   UNL     1      -1.245   0.167  11.883  1.00  0.00     0.008 C 
ATOM     10  C   UNL     1      -2.318  -0.033  14.156  1.00  0.00     0.008 C 
ENDBRANCH   5   8
TORSDOF 1
ENDMDL
MODEL 8
REMARK VINA RESULT:    -4.262      1.292      4.602
REMARK INTER + INTRA:          -4.685
REMARK INTER:                  -4.495
REMARK INTRA:                  -0.191
REMARK UNBOUND:                -0.174
REMARK SMILES CC1=CC[C@H](C(C)C)C=C1
REMARK SMILES IDX 1 1 2 2 3 3 4 4 5 5 9 6 10 7 6 8 7 9 8 10
REMARK H PARENT
REMARK Flexibility Score: inf
ROOT
ATOM      1  C   UNL     1      -2.548   6.157  11.015  1.00  0.00     0.044 C 
ATOM      2  C   UNL     1      -2.182   4.801  11.540  1.00  0.00    -0.055 C 
ATOM      3  C   UNL     1      -1.575   3.907  10.744  1.00  0.00    -0.023 C 
ATOM      4  C   UNL     1      -1.339   2.494  11.213  1.00  0.00     0.035 C 
ATOM      5  C   UNL     1      -1.052   2.458  12.734  1.00  0.00     0.018 C 
ATOM      6  C   UNL     1      -2.066   3.305  13.479  1.00  0.00    -0.023 C 
ATOM      7  C   UNL     1      -2.548   4.423  12.926  1.00  0.00    -0.001 C 
ENDROOT
BRANCH   5   8
ATOM      8  C   UNL     1      -0.936   1.003  13.276  1.00  0.00    -0.010 C 
ATOM      9  C   UNL     1      -1.332  -0.072  12.248  1.00  0.00     0.008 C 
ATOM     10  C   UNL     1      -1.746   0.822  14.569  1.00  0.00     0.008 C 
ENDBRANCH   5   8
TORSDOF 1
ENDMDL
MODEL 9
REMARK VINA RESULT:    -4.134      0.993      4.438
REMARK INTER + INTRA:          -4.550
REMARK INTER:                  -4.416
REMARK INTRA:                  -0.134
REMARK UNBOUND:                -0.174
REMARK SMILES CC1=CC[C@H](C(C)C)C=C1
REMARK SMILES IDX 1 1 2 2 3 3 4 4 5 5 9 6 10 7 6 8 7 9 8 10
REMARK H PARENT
REMARK Flexibility Score: inf
ROOT
ATOM      1  C   UNL     1      -0.508   6.267  11.056  1.00  0.00     0.044 C 
ATOM      2  C   UNL     1      -0.551   4.874  11.609  1.00  0.00    -0.055 C 
ATOM      3  C   UNL     1      -0.014   4.604  12.809  1.00  0.00    -0.023 C 
ATOM      4  C   UNL     1       0.083   3.186  13.308  1.00  0.00     0.035 C 
ATOM      5  C   UNL     1      -1.124   2.347  12.823  1.00  0.00     0.018 C 
ATOM      6  C   UNL     1      -1.361   2.576  11.343  1.00  0.00    -0.023 C 
ATOM      7  C   UNL     1      -1.134   3.777  10.801  1.00  0.00    -0.001 C 
ENDROOT
BRANCH   5   8
ATOM      8  C   UNL     1      -0.989   0.844  13.208  1.00  0.00    -0.010 C 
ATOM      9  C   UNL     1      -1.362  -0.121  12.069  1.00  0.00     0.008 C 
ATOM     10  C   UNL     1      -1.806   0.515  14.468  1.00  0.00     0.008 C 
ENDBRANCH   5   8
TORSDOF 1
ENDMDL
