MODEL 1
REMARK VINA RESULT:    -2.482      0.000      0.000
REMARK INTER + INTRA:          -2.482
REMARK INTER:                  -2.482
REMARK INTRA:                   0.000
REMARK UNBOUND:                 0.000
REMARK SMILES CC(=O)[O-]
REMARK SMILES IDX 1 1 2 2 3 3 4 4
REMARK H PARENT
REMARK Flexibility Score: inf
ROOT
ATOM      1  C   UNL     1       1.829  -0.092 -34.348  1.00  0.00     0.063 C 
ATOM      2  C   UNL     1       0.344  -0.232 -34.306  1.00  0.00     0.038 C 
ATOM      3  O   UNL     1      -0.351   0.107 -35.298  1.00  0.00    -0.550 OA
ATOM      4  O   UNL     1      -0.278  -0.688 -33.151  1.00  0.00    -0.550 OA
ENDROOT
TORSDOF 0
ENDMDL
MODEL 2
REMARK VINA RESULT:    -2.465      0.277      1.632
REMARK INTER + INTRA:          -2.465
REMARK INTER:                  -2.465
REMARK INTRA:                   0.000
REMARK UNBOUND:                 0.000
REMARK SMILES CC(=O)[O-]
REMARK SMILES IDX 1 1 2 2 3 3 4 4
REMARK H PARENT
REMARK Flexibility Score: inf
ROOT
ATOM      1  C   UNL     1       1.680   0.208 -34.517  1.00  0.00     0.063 C 
ATOM      2  C   UNL     1       0.234  -0.127 -34.374  1.00  0.00     0.038 C 
ATOM      3  O   UNL     1      -0.201  -0.605 -33.294  1.00  0.00    -0.550 OA
ATOM      4  O   UNL     1      -0.628   0.040 -35.451  1.00  0.00    -0.550 OA
ENDROOT
TORSDOF 0
ENDMDL
MODEL 3
REMARK VINA RESULT:    -2.444      1.868      1.920
REMARK INTER + INTRA:          -2.444
REMARK INTER:                  -2.444
REMARK INTRA:                   0.000
REMARK UNBOUND:                 0.000
REMARK SMILES CC(=O)[O-]
REMARK SMILES IDX 1 1 2 2 3 3 4 4
REMARK H PARENT
REMARK Flexibility Score: inf
ROOT
ATOM      1  C   UNL     1       0.765   0.614 -36.081  1.00  0.00     0.063 C 
ATOM      2  C   UNL     1       1.095   0.320 -34.656  1.00  0.00     0.038 C 
ATOM      3  O   UNL     1       2.296   0.230 -34.291  1.00  0.00    -0.550 OA
ATOM      4  O   UNL     1       0.077   0.093 -33.739  1.00  0.00    -0.550 OA
ENDROOT
TORSDOF 0
ENDMDL
MODEL 4
REMARK VINA RESULT:    -2.383      2.221      2.417
REMARK INTER + INTRA:          -2.383
REMARK INTER:                  -2.383
REMARK INTRA:                   0.000
REMARK UNBOUND:                 0.000
REMARK SMILES CC(=O)[O-]
REMARK SMILES IDX 1 1 2 2 3 3 4 4
REMARK H PARENT
REMARK Flexibility Score: inf
ROOT
ATOM      1  C   UNL     1       0.477  -0.503 -33.929  1.00  0.00     0.063 C 
ATOM      2  C   UNL     1       1.712  -0.865 -34.683  1.00  0.00     0.038 C 
ATOM      3  O   UNL     1       2.482   0.037 -35.104  1.00  0.00    -0.550 OA
ATOM      4  O   UNL     1       1.988  -2.196 -34.967  1.00  0.00    -0.550 OA
ENDROOT
TORSDOF 0
ENDMDL
MODEL 5
REMARK VINA RESULT:    -2.375      2.233      2.662
REMARK INTER + INTRA:          -2.375
REMARK INTER:                  -2.375
REMARK INTRA:                   0.000
REMARK UNBOUND:                 0.000
REMARK SMILES CC(=O)[O-]
REMARK SMILES IDX 1 1 2 2 3 3 4 4
REMARK H PARENT
REMARK Flexibility Score: inf
ROOT
ATOM      1  C   UNL     1       0.512  -0.532 -33.951  1.00  0.00     0.063 C 
ATOM      2  C   UNL     1       1.712  -0.931 -34.743  1.00  0.00     0.038 C 
ATOM      3  O   UNL     1       1.982  -2.148 -34.911  1.00  0.00    -0.550 OA
ATOM      4  O   UNL     1       2.564   0.041 -35.251  1.00  0.00    -0.550 OA
ENDROOT
TORSDOF 0
ENDMDL
MODEL 6
REMARK VINA RESULT:    -2.126      8.172      8.448
REMARK INTER + INTRA:          -2.126
REMARK INTER:                  -2.126
REMARK INTRA:                   0.000
REMARK UNBOUND:                 0.000
REMARK SMILES CC(=O)[O-]
REMARK SMILES IDX 1 1 2 2 3 3 4 4
REMARK H PARENT
REMARK Flexibility Score: inf
ROOT
ATOM      1  C   UNL     1       0.388   7.073 -37.210  1.00  0.00     0.063 C 
ATOM      2  C   UNL     1       0.857   7.875 -36.042  1.00  0.00     0.038 C 
ATOM      3  O   UNL     1       0.287   8.958 -35.749  1.00  0.00    -0.550 OA
ATOM      4  O   UNL     1       1.958   7.453 -35.307  1.00  0.00    -0.550 OA
ENDROOT
TORSDOF 0
ENDMDL
MODEL 7
REMARK VINA RESULT:    -1.988      4.973      5.539
REMARK INTER + INTRA:          -1.988
REMARK INTER:                  -1.988
REMARK INTRA:                   0.000
REMARK UNBOUND:                 0.000
REMARK SMILES CC(=O)[O-]
REMARK SMILES IDX 1 1 2 2 3 3 4 4
REMARK H PARENT
REMARK Flexibility Score: inf
ROOT
ATOM      1  C   UNL     1      -3.290  -2.757 -31.148  1.00  0.00     0.063 C 
ATOM      2  C   UNL     1      -3.965  -2.647 -32.475  1.00  0.00     0.038 C 
ATOM      3  O   UNL     1      -5.087  -3.185 -32.659  1.00  0.00    -0.550 OA
ATOM      4  O   UNL     1      -3.331  -1.996 -33.525  1.00  0.00    -0.550 OA
ENDROOT
TORSDOF 0
ENDMDL
MODEL 8
REMARK VINA RESULT:    -1.936     17.437     17.834
REMARK INTER + INTRA:          -1.936
REMARK INTER:                  -1.936
REMARK INTRA:                   0.000
REMARK UNBOUND:                 0.000
REMARK SMILES CC(=O)[O-]
REMARK SMILES IDX 1 1 2 2 3 3 4 4
REMARK H PARENT
REMARK Flexibility Score: inf
ROOT
ATOM      1  C   UNL     1      10.682   9.979 -22.627  1.00  0.00     0.063 C 
ATOM      2  C   UNL     1      10.979   9.669 -24.056  1.00  0.00     0.038 C 
ATOM      3  O   UNL     1      10.224  10.098 -24.966  1.00  0.00    -0.550 OA
ATOM      4  O   UNL     1      12.062   8.863 -24.381  1.00  0.00    -0.550 OA
ENDROOT
TORSDOF 0
ENDMDL
MODEL 9
REMARK VINA RESULT:    -1.932     14.726     15.065
REMARK INTER + INTRA:          -1.932
REMARK INTER:                  -1.932
REMARK INTRA:                   0.000
REMARK UNBOUND:                 0.000
REMARK SMILES CC(=O)[O-]
REMARK SMILES IDX 1 1 2 2 3 3 4 4
REMARK H PARENT
REMARK Flexibility Score: inf
ROOT
ATOM      1  C   UNL     1       8.420  11.081 -28.637  1.00  0.00     0.063 C 
ATOM      2  C   UNL     1       8.490  10.276 -27.383  1.00  0.00     0.038 C 
ATOM      3  O   UNL     1       7.724   9.291 -27.221  1.00  0.00    -0.550 OA
ATOM      4  O   UNL     1       9.365  10.643 -26.369  1.00  0.00    -0.550 OA
ENDROOT
TORSDOF 0
ENDMDL
