MODEL 1
REMARK VINA RESULT:    -3.405      0.000      0.000
REMARK INTER + INTRA:          -8.722
REMARK INTER:                  -6.590
REMARK INTRA:                  -2.132
REMARK UNBOUND:                -2.132
REMARK SMILES CCCCCCCCCCCCCCCCCC(=O)[O-]
REMARK SMILES IDX 10 1 11 2 12 3 13 4 14 5 15 6 16 7 17 8 18 9 19 10 20 11
REMARK SMILES IDX 9 12 8 13 7 14 6 15 5 16 4 17 3 18 2 19 1 20
REMARK H PARENT
REMARK Flexibility Score: inf
ROOT
ATOM      1  C   UNL     1      63.912  43.407  14.893  1.00  0.00     0.000 C 
ENDROOT
BRANCH   1   2
ATOM      2  C   UNL     1      63.712  44.697  15.702  1.00  0.00     0.000 C 
BRANCH   2   3
ATOM      3  C   UNL     1      62.330  44.718  16.369  1.00  0.00     0.000 C 
BRANCH   3   4
ATOM      4  C   UNL     1      62.160  45.972  17.238  1.00  0.00     0.000 C 
BRANCH   4   5
ATOM      5  C   UNL     1      60.918  45.908  18.141  1.00  0.00     0.000 C 
BRANCH   5   6
ATOM      6  C   UNL     1      59.884  44.835  17.747  1.00  0.00     0.000 C 
BRANCH   6   7
ATOM      7  C   UNL     1      58.746  45.368  16.851  1.00  0.00     0.006 C 
BRANCH   7   8
ATOM      8  C   UNL     1      57.990  44.240  16.136  1.00  0.00     0.053 C 
BRANCH   8   9
ATOM      9  C   UNL     1      56.834  44.792  15.364  1.00  0.00     0.041 C 
ATOM     10  O   UNL     1      56.941  45.893  14.761  1.00  0.00    -0.550 OA
ATOM     11  O   UNL     1      55.620  44.116  15.352  1.00  0.00    -0.550 OA
ENDBRANCH   8   9
ENDBRANCH   7   8
ENDBRANCH   6   7
ENDBRANCH   5   6
ENDBRANCH   4   5
ENDBRANCH   3   4
ENDBRANCH   2   3
ENDBRANCH   1   2
BRANCH   1  12
ATOM     12  C   UNL     1      64.869  42.421  15.581  1.00  0.00     0.000 C 
BRANCH  12  13
ATOM     13  C   UNL     1      64.254  41.020  15.749  1.00  0.00    -0.000 C 
BRANCH  13  14
ATOM     14  C   UNL     1      63.783  40.753  17.188  1.00  0.00    -0.000 C 
BRANCH  14  15
ATOM     15  C   UNL     1      64.282  41.821  18.177  1.00  0.00    -0.000 C 
BRANCH  15  16
ATOM     16  C   UNL     1      63.158  42.374  19.070  1.00  0.00    -0.000 C 
BRANCH  16  17
ATOM     17  C   UNL     1      61.770  41.857  18.657  1.00  0.00    -0.000 C 
BRANCH  17  18
ATOM     18  C   UNL     1      60.761  41.856  19.820  1.00  0.00    -0.000 C 
BRANCH  18  19
ATOM     19  C   UNL     1      59.295  41.630  19.411  1.00  0.00    -0.003 C 
ATOM     20  C   UNL     1      58.999  40.182  19.019  1.00  0.00     0.004 C 
ENDBRANCH  18  19
ENDBRANCH  17  18
ENDBRANCH  16  17
ENDBRANCH  15  16
ENDBRANCH  14  15
ENDBRANCH  13  14
ENDBRANCH  12  13
ENDBRANCH   1  12
TORSDOF 16
ENDMDL
MODEL 2
REMARK VINA RESULT:    -3.360     10.107     12.910
REMARK INTER + INTRA:          -8.635
REMARK INTER:                  -5.892
REMARK INTRA:                  -2.743
REMARK UNBOUND:                -2.132
REMARK SMILES CCCCCCCCCCCCCCCCCC(=O)[O-]
REMARK SMILES IDX 10 1 11 2 12 3 13 4 14 5 15 6 16 7 17 8 18 9 19 10 20 11
REMARK SMILES IDX 9 12 8 13 7 14 6 15 5 16 4 17 3 18 2 19 1 20
REMARK H PARENT
REMARK Flexibility Score: inf
ROOT
ATOM      1  C   UNL     1      48.865  47.805  14.490  1.00  0.00     0.000 C 
ENDROOT
BRANCH   1   2
ATOM      2  C   UNL     1      50.026  46.971  15.053  1.00  0.00     0.000 C 
BRANCH   2   3
ATOM      3  C   UNL     1      50.149  45.633  14.314  1.00  0.00     0.000 C 
BRANCH   3   4
ATOM      4  C   UNL     1      50.476  44.494  15.292  1.00  0.00     0.000 C 
BRANCH   4   5
ATOM      5  C   UNL     1      49.250  43.631  15.632  1.00  0.00     0.000 C 
BRANCH   5   6
ATOM      6  C   UNL     1      48.128  43.651  14.576  1.00  0.00     0.000 C 
BRANCH   6   7
ATOM      7  C   UNL     1      46.854  44.391  15.036  1.00  0.00     0.006 C 
BRANCH   7   8
ATOM      8  C   UNL     1      46.983  44.942  16.463  1.00  0.00     0.053 C 
BRANCH   8   9
ATOM      9  C   UNL     1      46.131  46.160  16.633  1.00  0.00     0.041 C 
ATOM     10  O   UNL     1      46.518  47.107  17.368  1.00  0.00    -0.550 OA
ATOM     11  O   UNL     1      44.887  46.228  16.019  1.00  0.00    -0.550 OA
ENDBRANCH   8   9
ENDBRANCH   7   8
ENDBRANCH   6   7
ENDBRANCH   5   6
ENDBRANCH   4   5
ENDBRANCH   3   4
ENDBRANCH   2   3
ENDBRANCH   1   2
BRANCH   1  12
ATOM     12  C   UNL     1      49.342  49.106  13.825  1.00  0.00     0.000 C 
BRANCH  12  13
ATOM     13  C   UNL     1      50.452  48.867  12.786  1.00  0.00    -0.000 C 
BRANCH  13  14
ATOM     14  C   UNL     1      51.481  50.008  12.751  1.00  0.00    -0.000 C 
BRANCH  14  15
ATOM     15  C   UNL     1      52.929  49.499  12.859  1.00  0.00    -0.000 C 
BRANCH  15  16
ATOM     16  C   UNL     1      53.012  47.969  12.986  1.00  0.00    -0.000 C 
BRANCH  16  17
ATOM     17  C   UNL     1      53.540  47.519  14.358  1.00  0.00    -0.000 C 
BRANCH  17  18
ATOM     18  C   UNL     1      53.821  48.699  15.307  1.00  0.00    -0.000 C 
BRANCH  18  19
ATOM     19  C   UNL     1      52.915  48.767  16.548  1.00  0.00    -0.003 C 
ATOM     20  C   UNL     1      51.911  49.919  16.494  1.00  0.00     0.004 C 
ENDBRANCH  18  19
ENDBRANCH  17  18
ENDBRANCH  16  17
ENDBRANCH  15  16
ENDBRANCH  14  15
ENDBRANCH  13  14
ENDBRANCH  12  13
ENDBRANCH   1  12
TORSDOF 16
ENDMDL
MODEL 3
REMARK VINA RESULT:    -3.355      1.635      3.017
REMARK INTER + INTRA:          -8.625
REMARK INTER:                  -6.763
REMARK INTRA:                  -1.862
REMARK UNBOUND:                -2.132
REMARK SMILES CCCCCCCCCCCCCCCCCC(=O)[O-]
REMARK SMILES IDX 10 1 11 2 12 3 13 4 14 5 15 6 16 7 17 8 18 9 19 10 20 11
REMARK SMILES IDX 9 12 8 13 7 14 6 15 5 16 4 17 3 18 2 19 1 20
REMARK H PARENT
REMARK Flexibility Score: inf
ROOT
ATOM      1  C   UNL     1      63.360  45.261  16.771  1.00  0.00     0.000 C 
ENDROOT
BRANCH   1   2
ATOM      2  C   UNL     1      61.991  44.576  16.647  1.00  0.00     0.000 C 
BRANCH   2   3
ATOM      3  C   UNL     1      61.001  45.135  17.677  1.00  0.00     0.000 C 
BRANCH   3   4
ATOM      4  C   UNL     1      59.576  44.640  17.393  1.00  0.00     0.000 C 
BRANCH   4   5
ATOM      5  C   UNL     1      58.528  45.762  17.469  1.00  0.00     0.000 C 
BRANCH   5   6
ATOM      6  C   UNL     1      57.602  45.870  16.243  1.00  0.00     0.000 C 
BRANCH   6   7
ATOM      7  C   UNL     1      57.115  47.306  15.955  1.00  0.00     0.006 C 
BRANCH   7   8
ATOM      8  C   UNL     1      56.190  47.375  14.732  1.00  0.00     0.053 C 
BRANCH   8   9
ATOM      9  C   UNL     1      56.947  47.835  13.527  1.00  0.00     0.041 C 
ATOM     10  O   UNL     1      57.339  47.002  12.668  1.00  0.00    -0.550 OA
ATOM     11  O   UNL     1      57.266  49.179  13.379  1.00  0.00    -0.550 OA
ENDBRANCH   8   9
ENDBRANCH   7   8
ENDBRANCH   6   7
ENDBRANCH   5   6
ENDBRANCH   4   5
ENDBRANCH   3   4
ENDBRANCH   2   3
ENDBRANCH   1   2
BRANCH   1  12
ATOM     12  C   UNL     1      64.255  45.018  15.546  1.00  0.00     0.000 C 
BRANCH  12  13
ATOM     13  C   UNL     1      63.904  43.713  14.807  1.00  0.00    -0.000 C 
BRANCH  13  14
ATOM     14  C   UNL     1      64.816  42.544  15.215  1.00  0.00    -0.000 C 
BRANCH  14  15
ATOM     15  C   UNL     1      64.023  41.265  15.539  1.00  0.00    -0.000 C 
BRANCH  15  16
ATOM     16  C   UNL     1      64.292  40.745  16.961  1.00  0.00    -0.000 C 
BRANCH  16  17
ATOM     17  C   UNL     1      64.585  41.879  17.958  1.00  0.00    -0.000 C 
BRANCH  17  18
ATOM     18  C   UNL     1      63.425  42.127  18.940  1.00  0.00    -0.000 C 
BRANCH  18  19
ATOM     19  C   UNL     1      62.275  41.107  18.861  1.00  0.00    -0.003 C 
ATOM     20  C   UNL     1      60.918  41.705  19.231  1.00  0.00     0.004 C 
ENDBRANCH  18  19
ENDBRANCH  17  18
ENDBRANCH  16  17
ENDBRANCH  15  16
ENDBRANCH  14  15
ENDBRANCH  13  14
ENDBRANCH  12  13
ENDBRANCH   1  12
TORSDOF 16
ENDMDL
MODEL 4
REMARK VINA RESULT:    -3.293     11.192     13.868
REMARK INTER + INTRA:          -8.505
REMARK INTER:                  -6.041
REMARK INTRA:                  -2.464
REMARK UNBOUND:                -2.132
REMARK SMILES CCCCCCCCCCCCCCCCCC(=O)[O-]
REMARK SMILES IDX 10 1 11 2 12 3 13 4 14 5 15 6 16 7 17 8 18 9 19 10 20 11
REMARK SMILES IDX 9 12 8 13 7 14 6 15 5 16 4 17 3 18 2 19 1 20
REMARK H PARENT
REMARK Flexibility Score: inf
ROOT
ATOM      1  C   UNL     1      48.330  43.070  18.458  1.00  0.00     0.000 C 
ENDROOT
BRANCH   1   2
ATOM      2  C   UNL     1      49.279  42.062  17.794  1.00  0.00     0.000 C 
BRANCH   2   3
ATOM      3  C   UNL     1      49.736  42.562  16.418  1.00  0.00     0.000 C 
BRANCH   3   4
ATOM      4  C   UNL     1      50.094  44.055  16.468  1.00  0.00     0.000 C 
BRANCH   4   5
ATOM      5  C   UNL     1      49.955  44.747  15.103  1.00  0.00     0.000 C 
BRANCH   5   6
ATOM      6  C   UNL     1      50.961  45.887  14.847  1.00  0.00     0.000 C 
BRANCH   6   7
ATOM      7  C   UNL     1      50.512  46.879  13.754  1.00  0.00     0.006 C 
BRANCH   7   8
ATOM      8  C   UNL     1      51.698  47.475  12.984  1.00  0.00     0.053 C 
BRANCH   8   9
ATOM      9  C   UNL     1      51.288  48.727  12.275  1.00  0.00     0.041 C 
ATOM     10  O   UNL     1      52.075  49.285  11.467  1.00  0.00    -0.550 OA
ATOM     11  O   UNL     1      50.055  49.306  12.548  1.00  0.00    -0.550 OA
ENDBRANCH   8   9
ENDBRANCH   7   8
ENDBRANCH   6   7
ENDBRANCH   5   6
ENDBRANCH   4   5
ENDBRANCH   3   4
ENDBRANCH   2   3
ENDBRANCH   1   2
BRANCH   1  12
ATOM     12  C   UNL     1      46.858  42.632  18.384  1.00  0.00     0.000 C 
BRANCH  12  13
ATOM     13  C   UNL     1      45.927  43.765  17.917  1.00  0.00    -0.000 C 
BRANCH  13  14
ATOM     14  C   UNL     1      46.702  44.994  17.415  1.00  0.00    -0.000 C 
BRANCH  14  15
ATOM     15  C   UNL     1      46.415  45.307  15.935  1.00  0.00    -0.000 C 
BRANCH  15  16
ATOM     16  C   UNL     1      45.672  44.165  15.221  1.00  0.00    -0.000 C 
BRANCH  16  17
ATOM     17  C   UNL     1      46.583  43.379  14.263  1.00  0.00    -0.000 C 
BRANCH  17  18
ATOM     18  C   UNL     1      46.747  41.903  14.669  1.00  0.00    -0.000 C 
BRANCH  18  19
ATOM     19  C   UNL     1      45.461  41.216  15.161  1.00  0.00    -0.003 C 
ATOM     20  C   UNL     1      45.561  39.690  15.165  1.00  0.00     0.004 C 
ENDBRANCH  18  19
ENDBRANCH  17  18
ENDBRANCH  16  17
ENDBRANCH  15  16
ENDBRANCH  14  15
ENDBRANCH  13  14
ENDBRANCH  12  13
ENDBRANCH   1  12
TORSDOF 16
ENDMDL
MODEL 5
REMARK VINA RESULT:    -3.263      7.040     11.163
REMARK INTER + INTRA:          -8.447
REMARK INTER:                  -5.950
REMARK INTRA:                  -2.497
REMARK UNBOUND:                -2.132
REMARK SMILES CCCCCCCCCCCCCCCCCC(=O)[O-]
REMARK SMILES IDX 10 1 11 2 12 3 13 4 14 5 15 6 16 7 17 8 18 9 19 10 20 11
REMARK SMILES IDX 9 12 8 13 7 14 6 15 5 16 4 17 3 18 2 19 1 20
REMARK H PARENT
REMARK Flexibility Score: inf
ROOT
ATOM      1  C   UNL     1      51.513  47.706  12.663  1.00  0.00     0.000 C 
ENDROOT
BRANCH   1   2
ATOM      2  C   UNL     1      50.767  49.047  12.586  1.00  0.00     0.000 C 
BRANCH   2   3
ATOM      3  C   UNL     1      49.469  49.000  13.402  1.00  0.00     0.000 C 
BRANCH   3   4
ATOM      4  C   UNL     1      49.768  48.867  14.902  1.00  0.00     0.000 C 
BRANCH   4   5
ATOM      5  C   UNL     1      49.040  47.679  15.552  1.00  0.00     0.000 C 
BRANCH   5   6
ATOM      6  C   UNL     1      49.928  46.455  15.845  1.00  0.00     0.000 C 
BRANCH   6   7
ATOM      7  C   UNL     1      49.839  45.351  14.769  1.00  0.00     0.006 C 
BRANCH   7   8
ATOM      8  C   UNL     1      48.548  44.528  14.884  1.00  0.00     0.053 C 
BRANCH   8   9
ATOM      9  C   UNL     1      48.828  43.201  15.518  1.00  0.00     0.041 C 
ATOM     10  O   UNL     1      49.954  42.967  16.029  1.00  0.00    -0.550 OA
ATOM     11  O   UNL     1      47.860  42.205  15.497  1.00  0.00    -0.550 OA
ENDBRANCH   8   9
ENDBRANCH   7   8
ENDBRANCH   6   7
ENDBRANCH   5   6
ENDBRANCH   4   5
ENDBRANCH   3   4
ENDBRANCH   2   3
ENDBRANCH   1   2
BRANCH   1  12
ATOM     12  C   UNL     1      52.994  47.875  13.037  1.00  0.00     0.000 C 
BRANCH  12  13
ATOM     13  C   UNL     1      53.279  47.516  14.506  1.00  0.00    -0.000 C 
BRANCH  13  14
ATOM     14  C   UNL     1      53.500  48.759  15.383  1.00  0.00    -0.000 C 
BRANCH  14  15
ATOM     15  C   UNL     1      54.410  49.801  14.709  1.00  0.00    -0.000 C 
BRANCH  15  16
ATOM     16  C   UNL     1      55.686  50.087  15.519  1.00  0.00    -0.000 C 
BRANCH  16  17
ATOM     17  C   UNL     1      56.829  49.116  15.179  1.00  0.00    -0.000 C 
BRANCH  17  18
ATOM     18  C   UNL     1      56.851  48.714  13.692  1.00  0.00    -0.000 C 
BRANCH  18  19
ATOM     19  C   UNL     1      56.887  47.199  13.428  1.00  0.00    -0.003 C 
ATOM     20  C   UNL     1      56.837  46.366  14.709  1.00  0.00     0.004 C 
ENDBRANCH  18  19
ENDBRANCH  17  18
ENDBRANCH  16  17
ENDBRANCH  15  16
ENDBRANCH  14  15
ENDBRANCH  13  14
ENDBRANCH  12  13
ENDBRANCH   1  12
TORSDOF 16
ENDMDL
MODEL 6
REMARK VINA RESULT:    -3.255      1.595      4.386
REMARK INTER + INTRA:          -8.432
REMARK INTER:                  -6.480
REMARK INTRA:                  -1.952
REMARK UNBOUND:                -2.132
REMARK SMILES CCCCCCCCCCCCCCCCCC(=O)[O-]
REMARK SMILES IDX 10 1 11 2 12 3 13 4 14 5 15 6 16 7 17 8 18 9 19 10 20 11
REMARK SMILES IDX 9 12 8 13 7 14 6 15 5 16 4 17 3 18 2 19 1 20
REMARK H PARENT
REMARK Flexibility Score: inf
ROOT
ATOM      1  C   UNL     1      59.939  43.186  18.279  1.00  0.00     0.000 C 
ENDROOT
BRANCH   1   2
ATOM      2  C   UNL     1      58.652  43.365  19.098  1.00  0.00     0.000 C 
BRANCH   2   3
ATOM      3  C   UNL     1      57.495  43.834  18.208  1.00  0.00     0.000 C 
BRANCH   3   4
ATOM      4  C   UNL     1      57.560  43.165  16.827  1.00  0.00     0.000 C 
BRANCH   4   5
ATOM      5  C   UNL     1      57.716  44.178  15.681  1.00  0.00     0.000 C 
BRANCH   5   6
ATOM      6  C   UNL     1      57.791  45.652  16.123  1.00  0.00     0.000 C 
BRANCH   6   7
ATOM      7  C   UNL     1      57.038  46.621  15.187  1.00  0.00     0.006 C 
BRANCH   7   8
ATOM      8  C   UNL     1      55.683  46.061  14.734  1.00  0.00     0.053 C 
BRANCH   8   9
ATOM      9  C   UNL     1      54.695  46.111  15.856  1.00  0.00     0.041 C 
ATOM     10  O   UNL     1      54.477  47.193  16.461  1.00  0.00    -0.550 OA
ATOM     11  O   UNL     1      54.051  44.951  16.266  1.00  0.00    -0.550 OA
ENDBRANCH   8   9
ENDBRANCH   7   8
ENDBRANCH   6   7
ENDBRANCH   5   6
ENDBRANCH   4   5
ENDBRANCH   3   4
ENDBRANCH   2   3
ENDBRANCH   1   2
BRANCH   1  12
ATOM     12  C   UNL     1      60.841  44.429  18.318  1.00  0.00     0.000 C 
BRANCH  12  13
ATOM     13  C   UNL     1      61.307  44.866  16.917  1.00  0.00    -0.000 C 
BRANCH  13  14
ATOM     14  C   UNL     1      62.835  44.804  16.759  1.00  0.00    -0.000 C 
BRANCH  14  15
ATOM     15  C   UNL     1      63.262  44.203  15.408  1.00  0.00    -0.000 C 
BRANCH  15  16
ATOM     16  C   UNL     1      64.518  43.323  15.521  1.00  0.00    -0.000 C 
BRANCH  16  17
ATOM     17  C   UNL     1      64.317  41.928  14.906  1.00  0.00    -0.000 C 
BRANCH  17  18
ATOM     18  C   UNL     1      64.174  40.821  15.967  1.00  0.00    -0.000 C 
BRANCH  18  19
ATOM     19  C   UNL     1      64.355  41.287  17.422  1.00  0.00    -0.003 C 
ATOM     20  C   UNL     1      63.076  41.168  18.253  1.00  0.00     0.004 C 
ENDBRANCH  18  19
ENDBRANCH  17  18
ENDBRANCH  16  17
ENDBRANCH  15  16
ENDBRANCH  14  15
ENDBRANCH  13  14
ENDBRANCH  12  13
ENDBRANCH   1  12
TORSDOF 16
ENDMDL
MODEL 7
REMARK VINA RESULT:    -3.244     11.423     13.988
REMARK INTER + INTRA:          -8.411
REMARK INTER:                  -5.564
REMARK INTRA:                  -2.847
REMARK UNBOUND:                -2.132
REMARK SMILES CCCCCCCCCCCCCCCCCC(=O)[O-]
REMARK SMILES IDX 10 1 11 2 12 3 13 4 14 5 15 6 16 7 17 8 18 9 19 10 20 11
REMARK SMILES IDX 9 12 8 13 7 14 6 15 5 16 4 17 3 18 2 19 1 20
REMARK H PARENT
REMARK Flexibility Score: inf
ROOT
ATOM      1  C   UNL     1      46.315  44.912  17.483  1.00  0.00     0.000 C 
ENDROOT
BRANCH   1   2
ATOM      2  C   UNL     1      47.674  45.349  18.051  1.00  0.00     0.000 C 
BRANCH   2   3
ATOM      3  C   UNL     1      48.625  45.781  16.927  1.00  0.00     0.000 C 
BRANCH   3   4
ATOM      4  C   UNL     1      49.902  44.928  16.931  1.00  0.00     0.000 C 
BRANCH   4   5
ATOM      5  C   UNL     1      50.293  44.434  15.529  1.00  0.00     0.000 C 
BRANCH   5   6
ATOM      6  C   UNL     1      49.776  45.304  14.366  1.00  0.00     0.000 C 
BRANCH   6   7
ATOM      7  C   UNL     1      50.758  46.413  13.934  1.00  0.00     0.006 C 
BRANCH   7   8
ATOM      8  C   UNL     1      50.115  47.807  13.965  1.00  0.00     0.053 C 
BRANCH   8   9
ATOM      9  C   UNL     1      50.456  48.513  15.239  1.00  0.00     0.041 C 
ATOM     10  O   UNL     1      51.522  48.241  15.850  1.00  0.00    -0.550 OA
ATOM     11  O   UNL     1      49.569  49.436  15.779  1.00  0.00    -0.550 OA
ENDBRANCH   8   9
ENDBRANCH   7   8
ENDBRANCH   6   7
ENDBRANCH   5   6
ENDBRANCH   4   5
ENDBRANCH   3   4
ENDBRANCH   2   3
ENDBRANCH   1   2
BRANCH   1  12
ATOM     12  C   UNL     1      46.186  45.196  15.978  1.00  0.00     0.000 C 
BRANCH  12  13
ATOM     13  C   UNL     1      45.694  43.971  15.186  1.00  0.00    -0.000 C 
BRANCH  13  14
ATOM     14  C   UNL     1      46.837  43.238  14.468  1.00  0.00    -0.000 C 
BRANCH  14  15
ATOM     15  C   UNL     1      46.665  41.708  14.497  1.00  0.00    -0.000 C 
BRANCH  15  16
ATOM     16  C   UNL     1      45.346  41.272  15.156  1.00  0.00    -0.000 C 
BRANCH  16  17
ATOM     17  C   UNL     1      45.571  40.426  16.420  1.00  0.00    -0.000 C 
BRANCH  17  18
ATOM     18  C   UNL     1      45.642  41.273  17.703  1.00  0.00    -0.000 C 
BRANCH  18  19
ATOM     19  C   UNL     1      46.949  41.135  18.504  1.00  0.00    -0.003 C 
ATOM     20  C   UNL     1      48.166  41.694  17.766  1.00  0.00     0.004 C 
ENDBRANCH  18  19
ENDBRANCH  17  18
ENDBRANCH  16  17
ENDBRANCH  15  16
ENDBRANCH  14  15
ENDBRANCH  13  14
ENDBRANCH  12  13
ENDBRANCH   1  12
TORSDOF 16
ENDMDL
MODEL 8
REMARK VINA RESULT:    -3.226      3.142      5.736
REMARK INTER + INTRA:          -8.376
REMARK INTER:                  -6.294
REMARK INTRA:                  -2.082
REMARK UNBOUND:                -2.132
REMARK SMILES CCCCCCCCCCCCCCCCCC(=O)[O-]
REMARK SMILES IDX 10 1 11 2 12 3 13 4 14 5 15 6 16 7 17 8 18 9 19 10 20 11
REMARK SMILES IDX 9 12 8 13 7 14 6 15 5 16 4 17 3 18 2 19 1 20
REMARK H PARENT
REMARK Flexibility Score: inf
ROOT
ATOM      1  C   UNL     1      63.403  41.193  18.186  1.00  0.00     0.000 C 
ENDROOT
BRANCH   1   2
ATOM      2  C   UNL     1      63.986  40.828  16.813  1.00  0.00     0.000 C 
BRANCH   2   3
ATOM      3  C   UNL     1      64.805  41.990  16.238  1.00  0.00     0.000 C 
BRANCH   3   4
ATOM      4  C   UNL     1      64.279  42.401  14.855  1.00  0.00     0.000 C 
BRANCH   4   5
ATOM      5  C   UNL     1      63.599  43.779  14.860  1.00  0.00     0.000 C 
BRANCH   5   6
ATOM      6  C   UNL     1      64.406  44.898  15.548  1.00  0.00     0.000 C 
BRANCH   6   7
ATOM      7  C   UNL     1      63.532  46.038  16.112  1.00  0.00     0.006 C 
BRANCH   7   8
ATOM      8  C   UNL     1      64.243  46.823  17.223  1.00  0.00     0.053 C 
BRANCH   8   9
ATOM      9  C   UNL     1      63.819  48.257  17.205  1.00  0.00     0.041 C 
ATOM     10  O   UNL     1      63.534  48.848  18.280  1.00  0.00    -0.550 OA
ATOM     11  O   UNL     1      63.689  48.927  15.995  1.00  0.00    -0.550 OA
ENDBRANCH   8   9
ENDBRANCH   7   8
ENDBRANCH   6   7
ENDBRANCH   5   6
ENDBRANCH   4   5
ENDBRANCH   3   4
ENDBRANCH   2   3
ENDBRANCH   1   2
BRANCH   1  12
ATOM     12  C   UNL     1      63.340  42.712  18.415  1.00  0.00     0.000 C 
BRANCH  12  13
ATOM     13  C   UNL     1      61.922  43.280  18.223  1.00  0.00    -0.000 C 
BRANCH  13  14
ATOM     14  C   UNL     1      61.713  44.605  18.975  1.00  0.00    -0.000 C 
BRANCH  14  15
ATOM     15  C   UNL     1      60.560  45.439  18.387  1.00  0.00    -0.000 C 
BRANCH  15  16
ATOM     16  C   UNL     1      60.054  44.888  17.044  1.00  0.00    -0.000 C 
BRANCH  16  17
ATOM     17  C   UNL     1      58.605  44.381  17.123  1.00  0.00    -0.000 C 
BRANCH  17  18
ATOM     18  C   UNL     1      57.780  44.728  15.870  1.00  0.00    -0.000 C 
BRANCH  18  19
ATOM     19  C   UNL     1      57.334  46.197  15.769  1.00  0.00    -0.003 C 
ATOM     20  C   UNL     1      56.896  46.594  14.359  1.00  0.00     0.004 C 
ENDBRANCH  18  19
ENDBRANCH  17  18
ENDBRANCH  16  17
ENDBRANCH  15  16
ENDBRANCH  14  15
ENDBRANCH  13  14
ENDBRANCH  12  13
ENDBRANCH   1  12
TORSDOF 16
ENDMDL
MODEL 9
REMARK VINA RESULT:    -3.209      9.347     13.312
REMARK INTER + INTRA:          -8.343
REMARK INTER:                  -6.714
REMARK INTRA:                  -1.629
REMARK UNBOUND:                -2.132
REMARK SMILES CCCCCCCCCCCCCCCCCC(=O)[O-]
REMARK SMILES IDX 10 1 11 2 12 3 13 4 14 5 15 6 16 7 17 8 18 9 19 10 20 11
REMARK SMILES IDX 9 12 8 13 7 14 6 15 5 16 4 17 3 18 2 19 1 20
REMARK H PARENT
REMARK Flexibility Score: inf
ROOT
ATOM      1  C   UNL     1      50.089  46.886  15.701  1.00  0.00     0.000 C 
ENDROOT
BRANCH   1   2
ATOM      2  C   UNL     1      49.937  48.367  15.324  1.00  0.00     0.000 C 
BRANCH   2   3
ATOM      3  C   UNL     1      49.010  48.533  14.113  1.00  0.00     0.000 C 
BRANCH   3   4
ATOM      4  C   UNL     1      49.263  49.874  13.408  1.00  0.00     0.000 C 
BRANCH   4   5
ATOM      5  C   UNL     1      50.747  50.104  13.078  1.00  0.00     0.000 C 
BRANCH   5   6
ATOM      6  C   UNL     1      51.303  49.224  11.941  1.00  0.00     0.000 C 
BRANCH   6   7
ATOM      7  C   UNL     1      52.296  48.144  12.419  1.00  0.00     0.006 C 
BRANCH   7   8
ATOM      8  C   UNL     1      53.216  48.652  13.538  1.00  0.00     0.053 C 
BRANCH   8   9
ATOM      9  C   UNL     1      54.079  47.542  14.050  1.00  0.00     0.041 C 
ATOM     10  O   UNL     1      55.101  47.185  13.407  1.00  0.00    -0.550 OA
ATOM     11  O   UNL     1      53.726  46.868  15.212  1.00  0.00    -0.550 OA
ENDBRANCH   8   9
ENDBRANCH   7   8
ENDBRANCH   6   7
ENDBRANCH   5   6
ENDBRANCH   4   5
ENDBRANCH   3   4
ENDBRANCH   2   3
ENDBRANCH   1   2
BRANCH   1  12
ATOM     12  C   UNL     1      49.487  45.944  14.646  1.00  0.00     0.000 C 
BRANCH  12  13
ATOM     13  C   UNL     1      48.381  45.041  15.222  1.00  0.00    -0.000 C 
BRANCH  13  14
ATOM     14  C   UNL     1      48.544  43.572  14.802  1.00  0.00    -0.000 C 
BRANCH  14  15
ATOM     15  C   UNL     1      47.288  43.016  14.106  1.00  0.00    -0.000 C 
BRANCH  15  16
ATOM     16  C   UNL     1      46.798  41.699  14.731  1.00  0.00    -0.000 C 
BRANCH  16  17
ATOM     17  C   UNL     1      45.310  41.746  15.114  1.00  0.00    -0.000 C 
BRANCH  17  18
ATOM     18  C   UNL     1      44.876  43.119  15.659  1.00  0.00    -0.000 C 
BRANCH  18  19
ATOM     19  C   UNL     1      45.044  43.300  17.178  1.00  0.00    -0.003 C 
ATOM     20  C   UNL     1      45.225  41.976  17.922  1.00  0.00     0.004 C 
ENDBRANCH  18  19
ENDBRANCH  17  18
ENDBRANCH  16  17
ENDBRANCH  15  16
ENDBRANCH  14  15
ENDBRANCH  13  14
ENDBRANCH  12  13
ENDBRANCH   1  12
TORSDOF 16
ENDMDL
