MODEL 1
REMARK VINA RESULT:    -5.064      0.000      0.000
REMARK INTER + INTRA:          -6.899
REMARK INTER:                  -7.136
REMARK INTRA:                   0.237
REMARK UNBOUND:                 0.237
REMARK SMILES CC1=CCC(=C(C)C)C(=O)CC(C)=CCC1
REMARK SMILES IDX 12 1 14 2 13 3 15 4 16 5 2 6 1 7 3 8 11 10 9 11 10 12 5 13
REMARK SMILES IDX 6 14 7 15 8 16 4 17
REMARK H PARENT
REMARK Flexibility Score: 60.00
ROOT
ATOM      1  C   UNL     1      17.229 -31.383  21.758  1.00  0.00    -0.070 C 
ATOM      2  C   UNL     1      17.700 -31.920  20.610  1.00  0.00    -0.027 C 
ATOM      3  C   UNL     1      16.959 -29.900  21.790  1.00  0.00     0.039 C 
ENDROOT
BRANCH   2   4
ATOM      4  C   UNL     1      18.159 -33.347  20.448  1.00  0.00     0.032 C 
BRANCH   4   5
ATOM      5  C   UNL     1      17.381 -34.018  19.310  1.00  0.00     0.034 C 
BRANCH   5   6
ATOM      6  C   UNL     1      16.399 -35.057  19.813  1.00  0.00    -0.077 C 
ATOM      7  C   UNL     1      16.788 -36.513  19.742  1.00  0.00     0.039 C 
ATOM      8  C   UNL     1      15.212 -34.750  20.393  1.00  0.00    -0.023 CG0
ATOM      9  G   UNL     1      14.579 -33.376  20.527  1.00  0.00     0.000 G0
ENDBRANCH   5   6
ENDBRANCH   4   5
ENDBRANCH   2   4
BRANCH   1  10
ATOM     10  C   UNL     1      16.940 -32.197  23.003  1.00  0.00     0.111 C 
BRANCH  10  11
ATOM     11  C   UNL     1      15.711 -33.060  22.839  1.00  0.00     0.163 C 
ATOM     12  O   UNL     1      15.647 -34.106  23.541  1.00  0.00    -0.294 OA
BRANCH  11  13
ATOM     13  C   UNL     1      14.575 -32.727  21.916  1.00  0.00    -0.002 C 
ATOM     14  C   UNL     1      13.667 -31.759  22.251  1.00  0.00    -0.069 C 
ATOM     15  C   UNL     1      13.594 -31.196  23.653  1.00  0.00     0.039 C 
ATOM     16  C   UNL     1      12.655 -31.233  21.260  1.00  0.00     0.039 C 
BRANCH  13  17
ATOM     17  C   UNL     1      14.574 -33.364  20.531  1.00  0.00     0.066 CG0
ATOM     18  G   UNL     1      15.201 -34.744  20.420  1.00  0.00     0.000 G0
ENDBRANCH  13  17
ENDBRANCH  11  13
ENDBRANCH  10  11
ENDBRANCH   1  10
TORSDOF 0
ENDMDL
MODEL 2
REMARK VINA RESULT:    -4.625      2.332      4.235
REMARK INTER + INTRA:          -6.280
REMARK INTER:                  -6.136
REMARK INTRA:                  -0.144
REMARK UNBOUND:                 0.237
REMARK SMILES CC1=CCC(=C(C)C)C(=O)CC(C)=CCC1
REMARK SMILES IDX 12 1 14 2 13 3 15 4 16 5 2 6 1 7 3 8 11 10 9 11 10 12 5 13
REMARK SMILES IDX 6 14 7 15 8 16 4 17
REMARK H PARENT
REMARK Flexibility Score: 60.00
ROOT
ATOM      1  C   UNL     1      15.320 -31.291  23.094  1.00  0.00    -0.070 C 
ATOM      2  C   UNL     1      15.971 -30.456  22.252  1.00  0.00    -0.027 C 
ATOM      3  C   UNL     1      13.835 -31.106  23.272  1.00  0.00     0.039 C 
ENDROOT
BRANCH   2   4
ATOM      4  C   UNL     1      17.466 -30.405  22.068  1.00  0.00     0.032 C 
BRANCH   4   5
ATOM      5  C   UNL     1      17.874 -31.285  20.881  1.00  0.00     0.034 C 
BRANCH   5   6
ATOM      6  C   UNL     1      19.148 -32.062  21.146  1.00  0.00    -0.077 C 
ATOM      7  C   UNL     1      20.462 -31.321  21.131  1.00  0.00     0.039 C 
ATOM      8  C   UNL     1      19.171 -33.379  21.469  1.00  0.00    -0.023 CG0
ATOM      9  G   UNL     1      17.998 -34.343  21.493  1.00  0.00     0.000 G0
ENDBRANCH   5   6
ENDBRANCH   4   5
ENDBRANCH   2   4
BRANCH   1  10
ATOM     10  C   UNL     1      16.005 -32.414  23.847  1.00  0.00     0.111 C 
BRANCH  10  11
ATOM     11  C   UNL     1      16.039 -33.692  23.044  1.00  0.00     0.163 C 
ATOM     12  O   UNL     1      14.958 -34.067  22.515  1.00  0.00    -0.294 OA
BRANCH  11  13
ATOM     13  C   UNL     1      17.279 -34.510  22.830  1.00  0.00    -0.002 C 
ATOM     14  C   UNL     1      17.637 -35.479  23.729  1.00  0.00    -0.069 C 
ATOM     15  C   UNL     1      16.984 -35.574  25.089  1.00  0.00     0.039 C 
ATOM     16  C   UNL     1      18.737 -36.475  23.438  1.00  0.00     0.039 C 
BRANCH  13  17
ATOM     17  C   UNL     1      18.014 -34.355  21.503  1.00  0.00     0.066 CG0
ATOM     18  G   UNL     1      19.170 -33.371  21.481  1.00  0.00     0.000 G0
ENDBRANCH  13  17
ENDBRANCH  11  13
ENDBRANCH  10  11
ENDBRANCH   1  10
TORSDOF 0
ENDMDL
MODEL 3
REMARK VINA RESULT:    -4.610      2.178      4.970
REMARK INTER + INTRA:          -6.259
REMARK INTER:                  -6.284
REMARK INTRA:                   0.025
REMARK UNBOUND:                 0.237
REMARK SMILES CC1=CCC(=C(C)C)C(=O)CC(C)=CCC1
REMARK SMILES IDX 12 1 14 2 13 3 15 4 16 5 2 6 1 7 3 8 11 10 9 11 10 12 5 13
REMARK SMILES IDX 6 14 7 15 8 16 4 17
REMARK H PARENT
REMARK Flexibility Score: 60.00
ROOT
ATOM      1  C   UNL     1      14.659 -33.748  20.825  1.00  0.00    -0.070 C 
ATOM      2  C   UNL     1      13.880 -32.752  20.345  1.00  0.00    -0.027 C 
ATOM      3  C   UNL     1      15.144 -34.799  19.859  1.00  0.00     0.039 C 
ENDROOT
BRANCH   2   4
ATOM      4  C   UNL     1      13.192 -31.709  21.188  1.00  0.00     0.032 C 
BRANCH   4   5
ATOM      5  C   UNL     1      14.055 -30.445  21.258  1.00  0.00     0.034 C 
BRANCH   5   6
ATOM      6  C   UNL     1      14.256 -29.957  22.679  1.00  0.00    -0.077 C 
ATOM      7  C   UNL     1      13.126 -29.224  23.357  1.00  0.00     0.039 C 
ATOM      8  C   UNL     1      15.373 -30.205  23.407  1.00  0.00    -0.023 CG0
ATOM      9  G   UNL     1      16.656 -30.866  22.932  1.00  0.00     0.000 G0
ENDBRANCH   5   6
ENDBRANCH   4   5
ENDBRANCH   2   4
BRANCH   1  10
ATOM     10  C   UNL     1      15.084 -33.848  22.276  1.00  0.00     0.111 C 
BRANCH  10  11
ATOM     11  C   UNL     1      16.514 -33.406  22.476  1.00  0.00     0.163 C 
ATOM     12  O   UNL     1      17.399 -34.011  21.810  1.00  0.00    -0.294 OA
BRANCH  11  13
ATOM     13  C   UNL     1      16.923 -32.291  23.392  1.00  0.00    -0.002 C 
ATOM     14  C   UNL     1      17.653 -32.550  24.521  1.00  0.00    -0.069 C 
ATOM     15  C   UNL     1      17.829 -33.958  25.041  1.00  0.00     0.039 C 
ATOM     16  C   UNL     1      18.280 -31.445  25.340  1.00  0.00     0.039 C 
BRANCH  13  17
ATOM     17  C   UNL     1      16.662 -30.861  22.932  1.00  0.00     0.066 CG0
ATOM     18  G   UNL     1      15.376 -30.217  23.422  1.00  0.00     0.000 G0
ENDBRANCH  13  17
ENDBRANCH  11  13
ENDBRANCH  10  11
ENDBRANCH   1  10
TORSDOF 0
ENDMDL
MODEL 4
REMARK VINA RESULT:    -4.608      1.413      4.028
REMARK INTER + INTRA:          -6.256
REMARK INTER:                  -6.244
REMARK INTRA:                  -0.012
REMARK UNBOUND:                 0.237
REMARK SMILES CC1=CCC(=C(C)C)C(=O)CC(C)=CCC1
REMARK SMILES IDX 12 1 14 2 13 3 15 4 16 5 2 6 1 7 3 8 11 10 9 11 10 12 5 13
REMARK SMILES IDX 6 14 7 15 8 16 4 17
REMARK H PARENT
REMARK Flexibility Score: 60.00
ROOT
ATOM      1  C   UNL     1      18.078 -30.452  21.380  1.00  0.00    -0.070 C 
ATOM      2  C   UNL     1      17.112 -29.741  22.004  1.00  0.00    -0.027 C 
ATOM      3  C   UNL     1      19.517 -30.111  21.677  1.00  0.00     0.039 C 
ENDROOT
BRANCH   2   4
ATOM      4  C   UNL     1      15.636 -29.849  21.716  1.00  0.00     0.032 C 
BRANCH   4   5
ATOM      5  C   UNL     1      15.036 -31.015  22.510  1.00  0.00     0.034 C 
BRANCH   5   6
ATOM      6  C   UNL     1      14.034 -31.814  21.699  1.00  0.00    -0.077 C 
ATOM      7  C   UNL     1      12.773 -31.129  21.234  1.00  0.00     0.039 C 
ATOM      8  C   UNL     1      14.239 -33.095  21.304  1.00  0.00    -0.023 CG0
ATOM      9  G   UNL     1      15.392 -34.006  21.689  1.00  0.00     0.000 G0
ENDBRANCH   5   6
ENDBRANCH   4   5
ENDBRANCH   2   4
BRANCH   1  10
ATOM     10  C   UNL     1      17.788 -31.585  20.416  1.00  0.00     0.111 C 
BRANCH  10  11
ATOM     11  C   UNL     1      17.674 -32.913  21.127  1.00  0.00     0.163 C 
ATOM     12  O   UNL     1      18.498 -33.141  22.054  1.00  0.00    -0.294 OA
BRANCH  11  13
ATOM     13  C   UNL     1      16.633 -33.946  20.804  1.00  0.00    -0.002 C 
ATOM     14  C   UNL     1      16.872 -34.899  19.851  1.00  0.00    -0.069 C 
ATOM     15  C   UNL     1      18.041 -34.789  18.899  1.00  0.00     0.039 C 
ATOM     16  C   UNL     1      15.957 -36.087  19.660  1.00  0.00     0.039 C 
BRANCH  13  17
ATOM     17  C   UNL     1      15.395 -34.009  21.690  1.00  0.00     0.066 CG0
ATOM     18  G   UNL     1      14.241 -33.100  21.306  1.00  0.00     0.000 G0
ENDBRANCH  13  17
ENDBRANCH  11  13
ENDBRANCH  10  11
ENDBRANCH   1  10
TORSDOF 0
ENDMDL
MODEL 5
REMARK VINA RESULT:    -4.554      2.246      3.246
REMARK INTER + INTRA:          -6.180
REMARK INTER:                  -6.060
REMARK INTRA:                  -0.120
REMARK UNBOUND:                 0.237
REMARK SMILES CC1=CCC(=C(C)C)C(=O)CC(C)=CCC1
REMARK SMILES IDX 12 1 14 2 13 3 15 4 16 5 2 6 1 7 3 8 11 10 9 11 10 12 5 13
REMARK SMILES IDX 6 14 7 15 8 16 4 17
REMARK H PARENT
REMARK Flexibility Score: 60.00
ROOT
ATOM      1  C   UNL     1      17.248 -35.280  24.293  1.00  0.00    -0.070 C 
ATOM      2  C   UNL     1      18.046 -35.802  23.333  1.00  0.00    -0.027 C 
ATOM      3  C   UNL     1      17.521 -35.659  25.727  1.00  0.00     0.039 C 
ENDROOT
BRANCH   2   4
ATOM      4  C   UNL     1      17.828 -35.648  21.850  1.00  0.00     0.032 C 
BRANCH   4   5
ATOM      5  C   UNL     1      18.711 -34.518  21.309  1.00  0.00     0.034 C 
BRANCH   5   6
ATOM      6  C   UNL     1      18.027 -33.719  20.218  1.00  0.00    -0.077 C 
ATOM      7  C   UNL     1      17.949 -34.308  18.832  1.00  0.00     0.039 C 
ATOM      8  C   UNL     1      17.413 -32.528  20.432  1.00  0.00    -0.023 CG0
ATOM      9  G   UNL     1      17.403 -31.712  21.713  1.00  0.00     0.000 G0
ENDBRANCH   5   6
ENDBRANCH   4   5
ENDBRANCH   2   4
BRANCH   1  10
ATOM     10  C   UNL     1      16.112 -34.321  24.002  1.00  0.00     0.111 C 
BRANCH  10  11
ATOM     11  C   UNL     1      16.596 -32.895  23.881  1.00  0.00     0.163 C 
ATOM     12  O   UNL     1      17.324 -32.455  24.813  1.00  0.00    -0.294 OA
BRANCH  11  13
ATOM     13  C   UNL     1      16.278 -32.002  22.718  1.00  0.00    -0.002 C 
ATOM     14  C   UNL     1      15.078 -31.347  22.652  1.00  0.00    -0.069 C 
ATOM     15  C   UNL     1      13.931 -31.705  23.570  1.00  0.00     0.039 C 
ATOM     16  C   UNL     1      14.810 -30.266  21.629  1.00  0.00     0.039 C 
BRANCH  13  17
ATOM     17  C   UNL     1      17.393 -31.708  21.721  1.00  0.00     0.066 CG0
ATOM     18  G   UNL     1      17.397 -32.534  20.446  1.00  0.00     0.000 G0
ENDBRANCH  13  17
ENDBRANCH  11  13
ENDBRANCH  10  11
ENDBRANCH   1  10
TORSDOF 0
ENDMDL
MODEL 6
REMARK VINA RESULT:    -4.505      2.030      4.041
REMARK INTER + INTRA:          -6.111
REMARK INTER:                  -6.036
REMARK INTRA:                  -0.075
REMARK UNBOUND:                 0.237
REMARK SMILES CC1=CCC(=C(C)C)C(=O)CC(C)=CCC1
REMARK SMILES IDX 12 1 14 2 13 3 15 4 16 5 2 6 1 7 3 8 11 10 9 11 10 12 5 13
REMARK SMILES IDX 6 14 7 15 8 16 4 17
REMARK H PARENT
REMARK Flexibility Score: 60.00
ROOT
ATOM      1  C   UNL     1      14.671 -30.851  22.224  1.00  0.00    -0.070 C 
ATOM      2  C   UNL     1      14.003 -32.018  22.068  1.00  0.00    -0.027 C 
ATOM      3  C   UNL     1      14.035 -29.775  23.067  1.00  0.00     0.039 C 
ENDROOT
BRANCH   2   4
ATOM      4  C   UNL     1      14.420 -33.136  21.148  1.00  0.00     0.032 C 
BRANCH   4   5
ATOM      5  C   UNL     1      15.386 -34.076  21.877  1.00  0.00     0.034 C 
BRANCH   5   6
ATOM      6  C   UNL     1      16.516 -34.551  20.986  1.00  0.00    -0.077 C 
ATOM      7  C   UNL     1      16.189 -35.459  19.826  1.00  0.00     0.039 C 
ATOM      8  C   UNL     1      17.804 -34.149  21.127  1.00  0.00    -0.023 CG0
ATOM      9  G   UNL     1      18.386 -33.293  22.238  1.00  0.00     0.000 G0
ENDBRANCH   5   6
ENDBRANCH   4   5
ENDBRANCH   2   4
BRANCH   1  10
ATOM     10  C   UNL     1      16.031 -30.582  21.612  1.00  0.00     0.111 C 
BRANCH  10  11
ATOM     11  C   UNL     1      17.154 -31.038  22.514  1.00  0.00     0.163 C 
ATOM     12  O   UNL     1      17.039 -30.787  23.745  1.00  0.00    -0.294 OA
BRANCH  11  13
ATOM     13  C   UNL     1      18.365 -31.780  22.029  1.00  0.00    -0.002 C 
ATOM     14  C   UNL     1      19.460 -31.100  21.570  1.00  0.00    -0.069 C 
ATOM     15  C   UNL     1      19.399 -29.621  21.264  1.00  0.00     0.039 C 
ATOM     16  C   UNL     1      20.776 -31.792  21.295  1.00  0.00     0.039 C 
BRANCH  13  17
ATOM     17  C   UNL     1      18.404 -33.290  22.236  1.00  0.00     0.066 CG0
ATOM     18  G   UNL     1      17.800 -34.141  21.132  1.00  0.00     0.000 G0
ENDBRANCH  13  17
ENDBRANCH  11  13
ENDBRANCH  10  11
ENDBRANCH   1  10
TORSDOF 0
ENDMDL
MODEL 7
REMARK VINA RESULT:    -4.467      1.284      3.990
REMARK INTER + INTRA:          -6.058
REMARK INTER:                  -6.180
REMARK INTRA:                   0.122
REMARK UNBOUND:                 0.237
REMARK SMILES CC1=CCC(=C(C)C)C(=O)CC(C)=CCC1
REMARK SMILES IDX 12 1 14 2 13 3 15 4 16 5 2 6 1 7 3 8 11 10 9 11 10 12 5 13
REMARK SMILES IDX 6 14 7 15 8 16 4 17
REMARK H PARENT
REMARK Flexibility Score: 60.00
ROOT
ATOM      1  C   UNL     1      17.528 -31.251  21.945  1.00  0.00    -0.070 C 
ATOM      2  C   UNL     1      17.015 -30.060  21.559  1.00  0.00    -0.027 C 
ATOM      3  C   UNL     1      18.479 -31.953  21.009  1.00  0.00     0.039 C 
ENDROOT
BRANCH   2   4
ATOM      4  C   UNL     1      15.946 -29.298  22.300  1.00  0.00     0.032 C 
BRANCH   4   5
ATOM      5  C   UNL     1      14.585 -29.533  21.635  1.00  0.00     0.034 C 
BRANCH   5   6
ATOM      6  C   UNL     1      13.694 -30.452  22.447  1.00  0.00    -0.077 C 
ATOM      7  C   UNL     1      12.820 -29.849  23.518  1.00  0.00     0.039 C 
ATOM      8  C   UNL     1      13.582 -31.784  22.218  1.00  0.00    -0.023 CG0
ATOM      9  G   UNL     1      14.390 -32.624  21.244  1.00  0.00     0.000 G0
ENDBRANCH   5   6
ENDBRANCH   4   5
ENDBRANCH   2   4
BRANCH   1  10
ATOM     10  C   UNL     1      17.212 -31.902  23.277  1.00  0.00     0.111 C 
BRANCH  10  11
ATOM     11  C   UNL     1      16.119 -32.937  23.152  1.00  0.00     0.163 C 
ATOM     12  O   UNL     1      15.644 -33.402  24.224  1.00  0.00    -0.294 OA
BRANCH  11  13
ATOM     13  C   UNL     1      15.566 -33.414  21.841  1.00  0.00    -0.002 C 
ATOM     14  C   UNL     1      15.995 -34.592  21.292  1.00  0.00    -0.069 C 
ATOM     15  C   UNL     1      17.221 -35.306  21.815  1.00  0.00     0.039 C 
ATOM     16  C   UNL     1      15.305 -35.221  20.103  1.00  0.00     0.039 C 
BRANCH  13  17
ATOM     17  C   UNL     1      14.393 -32.646  21.242  1.00  0.00     0.066 CG0
ATOM     18  G   UNL     1      13.590 -31.782  22.199  1.00  0.00     0.000 G0
ENDBRANCH  13  17
ENDBRANCH  11  13
ENDBRANCH  10  11
ENDBRANCH   1  10
TORSDOF 0
ENDMDL
MODEL 8
REMARK VINA RESULT:    -4.426      2.022      4.370
REMARK INTER + INTRA:          -6.000
REMARK INTER:                  -6.169
REMARK INTRA:                   0.168
REMARK UNBOUND:                 0.237
REMARK SMILES CC1=CCC(=C(C)C)C(=O)CC(C)=CCC1
REMARK SMILES IDX 12 1 14 2 13 3 15 4 16 5 2 6 1 7 3 8 11 10 9 11 10 12 5 13
REMARK SMILES IDX 6 14 7 15 8 16 4 17
REMARK H PARENT
REMARK Flexibility Score: 60.00
ROOT
ATOM      1  C   UNL     1      15.128 -32.560  23.514  1.00  0.00    -0.070 C 
ATOM      2  C   UNL     1      16.222 -31.926  23.996  1.00  0.00    -0.027 C 
ATOM      3  C   UNL     1      13.774 -31.965  23.807  1.00  0.00     0.039 C 
ENDROOT
BRANCH   2   4
ATOM      4  C   UNL     1      17.631 -32.455  23.923  1.00  0.00     0.032 C 
BRANCH   4   5
ATOM      5  C   UNL     1      18.533 -31.438  23.215  1.00  0.00     0.034 C 
BRANCH   5   6
ATOM      6  C   UNL     1      19.394 -32.074  22.142  1.00  0.00    -0.077 C 
ATOM      7  C   UNL     1      20.855 -32.309  22.435  1.00  0.00     0.039 C 
ATOM      8  C   UNL     1      18.911 -32.513  20.953  1.00  0.00    -0.023 CG0
ATOM      9  G   UNL     1      17.503 -32.342  20.410  1.00  0.00     0.000 G0
ENDBRANCH   5   6
ENDBRANCH   4   5
ENDBRANCH   2   4
BRANCH   1  10
ATOM     10  C   UNL     1      15.198 -33.822  22.678  1.00  0.00     0.111 C 
BRANCH  10  11
ATOM     11  C   UNL     1      15.316 -33.516  21.204  1.00  0.00     0.163 C 
ATOM     12  O   UNL     1      14.263 -33.161  20.606  1.00  0.00    -0.294 OA
BRANCH  11  13
ATOM     13  C   UNL     1      16.603 -33.589  20.436  1.00  0.00    -0.002 C 
ATOM     14  C   UNL     1      16.882 -34.674  19.648  1.00  0.00    -0.069 C 
ATOM     15  C   UNL     1      16.066 -35.943  19.735  1.00  0.00     0.039 C 
ATOM     16  C   UNL     1      18.046 -34.685  18.684  1.00  0.00     0.039 C 
BRANCH  13  17
ATOM     17  C   UNL     1      17.493 -32.352  20.418  1.00  0.00     0.066 CG0
ATOM     18  G   UNL     1      18.903 -32.524  20.957  1.00  0.00     0.000 G0
ENDBRANCH  13  17
ENDBRANCH  11  13
ENDBRANCH  10  11
ENDBRANCH   1  10
TORSDOF 0
ENDMDL
MODEL 9
REMARK VINA RESULT:    -4.342      2.315      5.152
REMARK INTER + INTRA:          -5.881
REMARK INTER:                  -5.764
REMARK INTRA:                  -0.117
REMARK UNBOUND:                 0.237
REMARK SMILES CC1=CCC(=C(C)C)C(=O)CC(C)=CCC1
REMARK SMILES IDX 12 1 14 2 13 3 15 4 16 5 2 6 1 7 3 8 11 10 9 11 10 12 5 13
REMARK SMILES IDX 6 14 7 15 8 16 4 17
REMARK H PARENT
REMARK Flexibility Score: 60.00
ROOT
ATOM      1  C   UNL     1      16.175 -35.074  20.773  1.00  0.00    -0.070 C 
ATOM      2  C   UNL     1      14.984 -34.458  20.953  1.00  0.00    -0.027 C 
ATOM      3  C   UNL     1      16.216 -36.294  19.887  1.00  0.00     0.039 C 
ENDROOT
BRANCH   2   4
ATOM      4  C   UNL     1      14.735 -33.323  21.913  1.00  0.00     0.032 C 
BRANCH   4   5
ATOM      5  C   UNL     1      14.879 -31.983  21.183  1.00  0.00     0.034 C 
BRANCH   5   6
ATOM      6  C   UNL     1      15.519 -30.916  22.050  1.00  0.00    -0.077 C 
ATOM      7  C   UNL     1      14.703 -30.303  23.161  1.00  0.00     0.039 C 
ATOM      8  C   UNL     1      16.813 -30.529  21.931  1.00  0.00    -0.023 CG0
ATOM      9  G   UNL     1      17.809 -30.955  20.866  1.00  0.00     0.000 G0
ENDBRANCH   5   6
ENDBRANCH   4   5
ENDBRANCH   2   4
BRANCH   1  10
ATOM     10  C   UNL     1      17.467 -34.590  21.397  1.00  0.00     0.111 C 
BRANCH  10  11
ATOM     11  C   UNL     1      18.120 -33.506  20.572  1.00  0.00     0.163 C 
ATOM     12  O   UNL     1      18.212 -33.707  19.331  1.00  0.00    -0.294 OA
BRANCH  11  13
ATOM     13  C   UNL     1      18.632 -32.216  21.144  1.00  0.00    -0.002 C 
ATOM     14  C   UNL     1      19.860 -32.162  21.747  1.00  0.00    -0.069 C 
ATOM     15  C   UNL     1      20.614 -33.420  22.117  1.00  0.00     0.039 C 
ATOM     16  C   UNL     1      20.511 -30.851  22.124  1.00  0.00     0.039 C 
BRANCH  13  17
ATOM     17  C   UNL     1      17.832 -30.948  20.869  1.00  0.00     0.066 CG0
ATOM     18  G   UNL     1      16.825 -30.540  21.931  1.00  0.00     0.000 G0
ENDBRANCH  13  17
ENDBRANCH  11  13
ENDBRANCH  10  11
ENDBRANCH   1  10
TORSDOF 0
ENDMDL
