MODEL 1
REMARK VINA RESULT:    -3.822      0.000      0.000
REMARK INTER + INTRA:          -7.329
REMARK INTER:                  -5.833
REMARK INTRA:                  -1.496
REMARK UNBOUND:                -1.496
REMARK SMILES CCCCCCCCCC=CC(=O)[O-]
REMARK SMILES IDX 7 1 8 2 9 3 10 4 11 5 12 6 13 7 14 8 6 9 5 10 4 11 3 12 2 13
REMARK SMILES IDX 1 14
REMARK H PARENT
REMARK Flexibility Score: inf
ROOT
ATOM      1  C   UNL     1       1.499  -1.442  -6.421  1.00  0.00     0.000 C 
ENDROOT
BRANCH   1   2
ATOM      2  C   UNL     1       1.366  -2.892  -5.930  1.00  0.00     0.004 C 
BRANCH   2   3
ATOM      3  C   UNL     1       2.560  -3.737  -6.391  1.00  0.00     0.027 C 
BRANCH   3   4
ATOM      4  C   UNL     1       2.141  -4.766  -7.401  1.00  0.00    -0.025 C 
ATOM      5  C   UNL     1       0.883  -4.829  -7.853  1.00  0.00     0.020 C 
BRANCH   5   6
ATOM      6  C   UNL     1       0.446  -5.837  -8.832  1.00  0.00     0.064 C 
ATOM      7  O   UNL     1      -0.756  -5.909  -9.201  1.00  0.00    -0.545 OA
ATOM      8  O   UNL     1       1.376  -6.724  -9.359  1.00  0.00    -0.545 OA
ENDBRANCH   5   6
ENDBRANCH   3   4
ENDBRANCH   2   3
ENDBRANCH   1   2
BRANCH   1   9
ATOM      9  C   UNL     1       0.326  -1.005  -7.317  1.00  0.00     0.000 C 
BRANCH   9  10
ATOM     10  C   UNL     1       0.656  -0.893  -8.819  1.00  0.00     0.000 C 
BRANCH  10  11
ATOM     11  C   UNL     1       2.155  -0.940  -9.161  1.00  0.00    -0.000 C 
BRANCH  11  12
ATOM     12  C   UNL     1       2.546  -2.195  -9.959  1.00  0.00    -0.000 C 
BRANCH  12  13
ATOM     13  C   UNL     1       4.028  -2.562  -9.791  1.00  0.00    -0.003 C 
ATOM     14  C   UNL     1       4.859  -1.412  -9.222  1.00  0.00     0.004 C 
ENDBRANCH  12  13
ENDBRANCH  11  12
ENDBRANCH  10  11
ENDBRANCH   9  10
ENDBRANCH   1   9
TORSDOF 9
ENDMDL
MODEL 2
REMARK VINA RESULT:    -3.715      3.672      5.525
REMARK INTER + INTRA:          -7.165
REMARK INTER:                  -6.158
REMARK INTRA:                  -1.007
REMARK UNBOUND:                -1.496
REMARK SMILES CCCCCCCCCC=CC(=O)[O-]
REMARK SMILES IDX 7 1 8 2 9 3 10 4 11 5 12 6 13 7 14 8 6 9 5 10 4 11 3 12 2 13
REMARK SMILES IDX 1 14
REMARK H PARENT
REMARK Flexibility Score: inf
ROOT
ATOM      1  C   UNL     1       0.357  -0.807  -7.165  1.00  0.00     0.000 C 
ENDROOT
BRANCH   1   2
ATOM      2  C   UNL     1       0.586  -1.309  -8.599  1.00  0.00     0.004 C 
BRANCH   2   3
ATOM      3  C   UNL     1      -0.749  -1.523  -9.322  1.00  0.00     0.027 C 
BRANCH   3   4
ATOM      4  C   UNL     1      -1.738  -0.450  -8.968  1.00  0.00    -0.025 C 
ATOM      5  C   UNL     1      -3.034  -0.564  -9.281  1.00  0.00     0.020 C 
BRANCH   5   6
ATOM      6  C   UNL     1      -4.019   0.481  -8.956  1.00  0.00     0.064 C 
ATOM      7  O   UNL     1      -3.658   1.662  -8.708  1.00  0.00    -0.545 OA
ATOM      8  O   UNL     1      -5.369   0.159  -8.923  1.00  0.00    -0.545 OA
ENDBRANCH   5   6
ENDBRANCH   3   4
ENDBRANCH   2   3
ENDBRANCH   1   2
BRANCH   1   9
ATOM      9  C   UNL     1       1.493  -1.204  -6.205  1.00  0.00     0.000 C 
BRANCH   9  10
ATOM     10  C   UNL     1       2.442  -2.301  -6.731  1.00  0.00     0.000 C 
BRANCH  10  11
ATOM     11  C   UNL     1       2.368  -3.641  -5.979  1.00  0.00    -0.000 C 
BRANCH  11  12
ATOM     12  C   UNL     1       2.063  -4.829  -6.906  1.00  0.00    -0.000 C 
BRANCH  12  13
ATOM     13  C   UNL     1       0.624  -4.803  -7.443  1.00  0.00    -0.003 C 
ATOM     14  C   UNL     1       0.556  -5.018  -8.955  1.00  0.00     0.004 C 
ENDBRANCH  12  13
ENDBRANCH  11  12
ENDBRANCH  10  11
ENDBRANCH   9  10
ENDBRANCH   1   9
TORSDOF 9
ENDMDL
MODEL 3
REMARK VINA RESULT:    -3.668      2.554      4.498
REMARK INTER + INTRA:          -7.094
REMARK INTER:                  -6.421
REMARK INTRA:                  -0.673
REMARK UNBOUND:                -1.496
REMARK SMILES CCCCCCCCCC=CC(=O)[O-]
REMARK SMILES IDX 7 1 8 2 9 3 10 4 11 5 12 6 13 7 14 8 6 9 5 10 4 11 3 12 2 13
REMARK SMILES IDX 1 14
REMARK H PARENT
REMARK Flexibility Score: inf
ROOT
ATOM      1  C   UNL     1       1.096  -5.187  -8.197  1.00  0.00     0.000 C 
ENDROOT
BRANCH   1   2
ATOM      2  C   UNL     1      -0.164  -5.594  -8.976  1.00  0.00     0.004 C 
BRANCH   2   3
ATOM      3  C   UNL     1      -0.090  -7.065  -9.404  1.00  0.00     0.027 C 
BRANCH   3   4
ATOM      4  C   UNL     1      -1.348  -7.801  -9.040  1.00  0.00    -0.025 C 
ATOM      5  C   UNL     1      -2.501  -7.154  -8.838  1.00  0.00     0.020 C 
BRANCH   5   6
ATOM      6  C   UNL     1      -3.742  -7.853  -8.468  1.00  0.00     0.064 C 
ATOM      7  O   UNL     1      -3.751  -9.093  -8.245  1.00  0.00    -0.545 OA
ATOM      8  O   UNL     1      -4.926  -7.134  -8.363  1.00  0.00    -0.545 OA
ENDBRANCH   5   6
ENDBRANCH   3   4
ENDBRANCH   2   3
ENDBRANCH   1   2
BRANCH   1   9
ATOM      9  C   UNL     1       0.781  -4.652  -6.788  1.00  0.00     0.000 C 
BRANCH   9  10
ATOM     10  C   UNL     1       1.995  -4.112  -6.005  1.00  0.00     0.000 C 
BRANCH  10  11
ATOM     11  C   UNL     1       2.600  -2.811  -6.560  1.00  0.00    -0.000 C 
BRANCH  11  12
ATOM     12  C   UNL     1       1.858  -1.554  -6.074  1.00  0.00    -0.000 C 
BRANCH  12  13
ATOM     13  C   UNL     1       0.737  -1.125  -7.031  1.00  0.00    -0.003 C 
ATOM     14  C   UNL     1       1.124  -1.285  -8.501  1.00  0.00     0.004 C 
ENDBRANCH  12  13
ENDBRANCH  11  12
ENDBRANCH  10  11
ENDBRANCH   9  10
ENDBRANCH   1   9
TORSDOF 9
ENDMDL
MODEL 4
REMARK VINA RESULT:    -3.552      2.087      3.835
REMARK INTER + INTRA:          -6.916
REMARK INTER:                  -5.826
REMARK INTRA:                  -1.091
REMARK UNBOUND:                -1.496
REMARK SMILES CCCCCCCCCC=CC(=O)[O-]
REMARK SMILES IDX 7 1 8 2 9 3 10 4 11 5 12 6 13 7 14 8 6 9 5 10 4 11 3 12 2 13
REMARK SMILES IDX 1 14
REMARK H PARENT
REMARK Flexibility Score: inf
ROOT
ATOM      1  C   UNL     1       1.457  -3.519  -9.855  1.00  0.00     0.000 C 
ENDROOT
BRANCH   1   2
ATOM      2  C   UNL     1       0.184  -4.238  -9.383  1.00  0.00     0.004 C 
BRANCH   2   3
ATOM      3  C   UNL     1       0.504  -5.663  -8.913  1.00  0.00     0.027 C 
BRANCH   3   4
ATOM      4  C   UNL     1      -0.751  -6.424  -8.594  1.00  0.00    -0.025 C 
ATOM      5  C   UNL     1      -1.160  -7.446  -9.355  1.00  0.00     0.020 C 
BRANCH   5   6
ATOM      6  C   UNL     1      -2.392  -8.198  -9.069  1.00  0.00     0.064 C 
ATOM      7  O   UNL     1      -2.505  -9.411  -9.391  1.00  0.00    -0.545 OA
ATOM      8  O   UNL     1      -3.450  -7.560  -8.435  1.00  0.00    -0.545 OA
ENDBRANCH   5   6
ENDBRANCH   3   4
ENDBRANCH   2   3
ENDBRANCH   1   2
BRANCH   1   9
ATOM      9  C   UNL     1       1.611  -2.115  -9.242  1.00  0.00     0.000 C 
BRANCH   9  10
ATOM     10  C   UNL     1       0.430  -1.649  -8.367  1.00  0.00     0.000 C 
BRANCH  10  11
ATOM     11  C   UNL     1       0.813  -1.182  -6.952  1.00  0.00    -0.000 C 
BRANCH  11  12
ATOM     12  C   UNL     1       1.841  -2.106  -6.277  1.00  0.00    -0.000 C 
BRANCH  12  13
ATOM     13  C   UNL     1       1.230  -3.445  -5.838  1.00  0.00    -0.003 C 
ATOM     14  C   UNL     1       2.241  -4.592  -5.866  1.00  0.00     0.004 C 
ENDBRANCH  12  13
ENDBRANCH  11  12
ENDBRANCH  10  11
ENDBRANCH   9  10
ENDBRANCH   1   9
TORSDOF 9
ENDMDL
MODEL 5
REMARK VINA RESULT:    -3.514      2.484      3.880
REMARK INTER + INTRA:          -6.859
REMARK INTER:                  -5.714
REMARK INTRA:                  -1.145
REMARK UNBOUND:                -1.496
REMARK SMILES CCCCCCCCCC=CC(=O)[O-]
REMARK SMILES IDX 7 1 8 2 9 3 10 4 11 5 12 6 13 7 14 8 6 9 5 10 4 11 3 12 2 13
REMARK SMILES IDX 1 14
REMARK H PARENT
REMARK Flexibility Score: inf
ROOT
ATOM      1  C   UNL     1       1.845  -4.619  -6.540  1.00  0.00     0.000 C 
ENDROOT
BRANCH   1   2
ATOM      2  C   UNL     1       1.209  -3.455  -5.767  1.00  0.00     0.004 C 
BRANCH   2   3
ATOM      3  C   UNL     1       2.025  -2.169  -5.945  1.00  0.00     0.027 C 
BRANCH   3   4
ATOM      4  C   UNL     1       1.686  -1.484  -7.238  1.00  0.00    -0.025 C 
ATOM      5  C   UNL     1       0.459  -1.004  -7.474  1.00  0.00     0.020 C 
BRANCH   5   6
ATOM      6  C   UNL     1       0.101  -0.342  -8.738  1.00  0.00     0.064 C 
ATOM      7  O   UNL     1      -0.997  -0.577  -9.308  1.00  0.00    -0.545 OA
ATOM      8  O   UNL     1       0.989   0.558  -9.313  1.00  0.00    -0.545 OA
ENDBRANCH   5   6
ENDBRANCH   3   4
ENDBRANCH   2   3
ENDBRANCH   1   2
BRANCH   1   9
ATOM      9  C   UNL     1       1.045  -5.011  -7.796  1.00  0.00     0.000 C 
BRANCH   9  10
ATOM     10  C   UNL     1       1.847  -4.999  -9.114  1.00  0.00     0.000 C 
BRANCH  10  11
ATOM     11  C   UNL     1       3.375  -4.948  -8.945  1.00  0.00    -0.000 C 
BRANCH  11  12
ATOM     12  C   UNL     1       4.066  -4.102 -10.028  1.00  0.00    -0.000 C 
BRANCH  12  13
ATOM     13  C   UNL     1       3.558  -2.653 -10.057  1.00  0.00    -0.003 C 
ATOM     14  C   UNL     1       4.555  -1.667  -9.447  1.00  0.00     0.004 C 
ENDBRANCH  12  13
ENDBRANCH  11  12
ENDBRANCH  10  11
ENDBRANCH   9  10
ENDBRANCH   1   9
TORSDOF 9
ENDMDL
MODEL 6
REMARK VINA RESULT:    -3.510      2.974      5.276
REMARK INTER + INTRA:          -6.853
REMARK INTER:                  -6.114
REMARK INTRA:                  -0.739
REMARK UNBOUND:                -1.496
REMARK SMILES CCCCCCCCCC=CC(=O)[O-]
REMARK SMILES IDX 7 1 8 2 9 3 10 4 11 5 12 6 13 7 14 8 6 9 5 10 4 11 3 12 2 13
REMARK SMILES IDX 1 14
REMARK H PARENT
REMARK Flexibility Score: inf
ROOT
ATOM      1  C   UNL     1       2.266  -4.642  -6.256  1.00  0.00     0.000 C 
ENDROOT
BRANCH   1   2
ATOM      2  C   UNL     1       1.226  -3.548  -5.969  1.00  0.00     0.004 C 
BRANCH   2   3
ATOM      3  C   UNL     1       1.899  -2.177  -5.829  1.00  0.00     0.027 C 
BRANCH   3   4
ATOM      4  C   UNL     1       1.610  -1.306  -7.019  1.00  0.00    -0.025 C 
ATOM      5  C   UNL     1       0.374  -1.191  -7.516  1.00  0.00     0.020 C 
BRANCH   5   6
ATOM      6  C   UNL     1       0.071  -0.354  -8.688  1.00  0.00     0.064 C 
ATOM      7  O   UNL     1       0.942   0.404  -9.191  1.00  0.00    -0.545 OA
ATOM      8  O   UNL     1      -1.199  -0.401  -9.250  1.00  0.00    -0.545 OA
ENDBRANCH   5   6
ENDBRANCH   3   4
ENDBRANCH   2   3
ENDBRANCH   1   2
BRANCH   1   9
ATOM      9  C   UNL     1       2.517  -4.847  -7.761  1.00  0.00     0.000 C 
BRANCH   9  10
ATOM     10  C   UNL     1       1.254  -4.821  -8.645  1.00  0.00     0.000 C 
BRANCH  10  11
ATOM     11  C   UNL     1       1.033  -6.081  -9.500  1.00  0.00    -0.000 C 
BRANCH  11  12
ATOM     12  C   UNL     1      -0.449  -6.324  -9.831  1.00  0.00    -0.000 C 
BRANCH  12  13
ATOM     13  C   UNL     1      -1.213  -6.976  -8.669  1.00  0.00    -0.003 C 
ATOM     14  C   UNL     1      -2.622  -7.418  -9.064  1.00  0.00     0.004 C 
ENDBRANCH  12  13
ENDBRANCH  11  12
ENDBRANCH  10  11
ENDBRANCH   9  10
ENDBRANCH   1   9
TORSDOF 9
ENDMDL
MODEL 7
REMARK VINA RESULT:    -3.476      3.546      5.534
REMARK INTER + INTRA:          -6.801
REMARK INTER:                  -6.124
REMARK INTRA:                  -0.677
REMARK UNBOUND:                -1.496
REMARK SMILES CCCCCCCCCC=CC(=O)[O-]
REMARK SMILES IDX 7 1 8 2 9 3 10 4 11 5 12 6 13 7 14 8 6 9 5 10 4 11 3 12 2 13
REMARK SMILES IDX 1 14
REMARK H PARENT
REMARK Flexibility Score: inf
ROOT
ATOM      1  C   UNL     1       0.109  -0.763  -7.675  1.00  0.00     0.000 C 
ENDROOT
BRANCH   1   2
ATOM      2  C   UNL     1      -0.650  -1.150  -8.954  1.00  0.00     0.004 C 
BRANCH   2   3
ATOM      3  C   UNL     1      -1.490   0.025  -9.468  1.00  0.00     0.027 C 
BRANCH   3   4
ATOM      4  C   UNL     1      -2.902  -0.052  -8.961  1.00  0.00    -0.025 C 
ATOM      5  C   UNL     1      -3.712  -1.061  -9.302  1.00  0.00     0.020 C 
BRANCH   5   6
ATOM      6  C   UNL     1      -5.102  -1.150  -8.829  1.00  0.00     0.064 C 
ATOM      7  O   UNL     1      -5.627  -2.262  -8.555  1.00  0.00    -0.545 OA
ATOM      8  O   UNL     1      -5.849   0.012  -8.682  1.00  0.00    -0.545 OA
ENDBRANCH   5   6
ENDBRANCH   3   4
ENDBRANCH   2   3
ENDBRANCH   1   2
BRANCH   1   9
ATOM      9  C   UNL     1       1.551  -1.303  -7.651  1.00  0.00     0.000 C 
BRANCH   9  10
ATOM     10  C   UNL     1       2.015  -1.868  -6.293  1.00  0.00     0.000 C 
BRANCH  10  11
ATOM     11  C   UNL     1       2.641  -3.272  -6.353  1.00  0.00    -0.000 C 
BRANCH  11  12
ATOM     12  C   UNL     1       1.644  -4.386  -5.988  1.00  0.00    -0.000 C 
BRANCH  12  13
ATOM     13  C   UNL     1       0.722  -4.758  -7.159  1.00  0.00    -0.003 C 
ATOM     14  C   UNL     1       1.480  -4.924  -8.476  1.00  0.00     0.004 C 
ENDBRANCH  12  13
ENDBRANCH  11  12
ENDBRANCH  10  11
ENDBRANCH   9  10
ENDBRANCH   1   9
TORSDOF 9
ENDMDL
MODEL 8
REMARK VINA RESULT:    -3.459     16.599     18.392
REMARK INTER + INTRA:          -6.774
REMARK INTER:                  -5.991
REMARK INTRA:                  -0.783
REMARK UNBOUND:                -1.496
REMARK SMILES CCCCCCCCCC=CC(=O)[O-]
REMARK SMILES IDX 7 1 8 2 9 3 10 4 11 5 12 6 13 7 14 8 6 9 5 10 4 11 3 12 2 13
REMARK SMILES IDX 1 14
REMARK H PARENT
REMARK Flexibility Score: inf
ROOT
ATOM      1  C   UNL     1       7.470   2.596   6.605  1.00  0.00     0.000 C 
ENDROOT
BRANCH   1   2
ATOM      2  C   UNL     1       7.426   3.006   5.125  1.00  0.00     0.004 C 
BRANCH   2   3
ATOM      3  C   UNL     1       8.765   2.713   4.437  1.00  0.00     0.027 C 
BRANCH   3   4
ATOM      4  C   UNL     1       9.431   3.979   3.981  1.00  0.00    -0.025 C 
ATOM      5  C   UNL     1       9.045   5.175   4.439  1.00  0.00     0.020 C 
BRANCH   5   6
ATOM      6  C   UNL     1       9.674   6.430   3.996  1.00  0.00     0.064 C 
ATOM      7  O   UNL     1      10.125   7.261   4.828  1.00  0.00    -0.545 OA
ATOM      8  O   UNL     1       9.771   6.702   2.638  1.00  0.00    -0.545 OA
ENDBRANCH   5   6
ENDBRANCH   3   4
ENDBRANCH   2   3
ENDBRANCH   1   2
BRANCH   1   9
ATOM      9  C   UNL     1       8.838   2.032   7.028  1.00  0.00     0.000 C 
BRANCH   9  10
ATOM     10  C   UNL     1       9.318   2.463   8.429  1.00  0.00     0.000 C 
BRANCH  10  11
ATOM     11  C   UNL     1       9.011   1.464   9.558  1.00  0.00    -0.000 C 
BRANCH  11  12
ATOM     12  C   UNL     1       7.547   1.525  10.026  1.00  0.00    -0.000 C 
BRANCH  12  13
ATOM     13  C   UNL     1       6.766   0.246   9.687  1.00  0.00    -0.003 C 
ATOM     14  C   UNL     1       7.681  -0.944   9.399  1.00  0.00     0.004 C 
ENDBRANCH  12  13
ENDBRANCH  11  12
ENDBRANCH  10  11
ENDBRANCH   9  10
ENDBRANCH   1   9
TORSDOF 9
ENDMDL
