MODEL 1
REMARK VINA RESULT:    -4.888      0.000      0.000
REMARK INTER + INTRA:         -11.562
REMARK INTER:                  -8.889
REMARK INTRA:                  -2.673
REMARK UNBOUND:                -2.673
REMARK SMILES CCCCCCCCCCCCCC[C@@H](C)C(=O)[O-]
REMARK SMILES IDX 9 1 10 2 11 3 12 4 13 5 14 6 15 7 16 8 17 9 18 10 19 11 8 12
REMARK SMILES IDX 7 13 6 14 5 15 4 16 3 17 2 18 1 19
REMARK H PARENT
REMARK Flexibility Score: inf
ROOT
ATOM      1  C   UNL     1       1.696  55.545  20.293  1.00  0.00     0.000 C 
ENDROOT
BRANCH   1   2
ATOM      2  C   UNL     1       0.183  55.292  20.173  1.00  0.00     0.000 C 
BRANCH   2   3
ATOM      3  C   UNL     1      -0.250  53.814  20.265  1.00  0.00     0.000 C 
BRANCH   3   4
ATOM      4  C   UNL     1      -1.323  53.382  19.249  1.00  0.00     0.000 C 
BRANCH   4   5
ATOM      5  C   UNL     1      -1.749  54.519  18.310  1.00  0.00     0.001 C 
BRANCH   5   6
ATOM      6  C   UNL     1      -3.145  55.046  18.686  1.00  0.00     0.009 C 
BRANCH   6   7
ATOM      7  C   UNL     1      -3.301  56.578  18.570  1.00  0.00     0.032 C 
ATOM      8  C   UNL     1      -2.784  57.127  17.233  1.00  0.00     0.014 C 
BRANCH   7   9
ATOM      9  C   UNL     1      -4.717  57.016  18.839  1.00  0.00     0.044 C 
ATOM     10  O   UNL     1      -5.487  56.273  19.503  1.00  0.00    -0.550 OA
ATOM     11  O   UNL     1      -5.204  58.209  18.318  1.00  0.00    -0.550 OA
ENDBRANCH   7   9
ENDBRANCH   6   7
ENDBRANCH   5   6
ENDBRANCH   4   5
ENDBRANCH   3   4
ENDBRANCH   2   3
ENDBRANCH   1   2
BRANCH   1  12
ATOM     12  C   UNL     1       2.259  56.374  19.126  1.00  0.00     0.000 C 
BRANCH  12  13
ATOM     13  C   UNL     1       1.170  56.845  18.145  1.00  0.00    -0.000 C 
BRANCH  13  14
ATOM     14  C   UNL     1       1.149  56.115  16.788  1.00  0.00    -0.000 C 
BRANCH  14  15
ATOM     15  C   UNL     1       2.193  54.993  16.693  1.00  0.00    -0.000 C 
BRANCH  15  16
ATOM     16  C   UNL     1       1.522  53.612  16.733  1.00  0.00    -0.000 C 
BRANCH  16  17
ATOM     17  C   UNL     1       2.195  52.663  17.747  1.00  0.00    -0.000 C 
BRANCH  17  18
ATOM     18  C   UNL     1       3.711  52.880  17.881  1.00  0.00    -0.003 C 
ATOM     19  C   UNL     1       4.159  53.110  19.323  1.00  0.00     0.004 C 
ENDBRANCH  17  18
ENDBRANCH  16  17
ENDBRANCH  15  16
ENDBRANCH  14  15
ENDBRANCH  13  14
ENDBRANCH  12  13
ENDBRANCH   1  12
TORSDOF 14
ENDMDL
MODEL 2
REMARK VINA RESULT:    -4.881      3.478      5.389
REMARK INTER + INTRA:         -11.549
REMARK INTER:                  -8.607
REMARK INTRA:                  -2.943
REMARK UNBOUND:                -2.673
REMARK SMILES CCCCCCCCCCCCCC[C@@H](C)C(=O)[O-]
REMARK SMILES IDX 9 1 10 2 11 3 12 4 13 5 14 6 15 7 16 8 17 9 18 10 19 11 8 12
REMARK SMILES IDX 7 13 6 14 5 15 4 16 3 17 2 18 1 19
REMARK H PARENT
REMARK Flexibility Score: inf
ROOT
ATOM      1  C   UNL     1      -0.077  54.040  20.530  1.00  0.00     0.000 C 
ENDROOT
BRANCH   1   2
ATOM      2  C   UNL     1       1.215  54.853  20.725  1.00  0.00     0.000 C 
BRANCH   2   3
ATOM      3  C   UNL     1       2.485  54.236  20.103  1.00  0.00     0.000 C 
BRANCH   3   4
ATOM      4  C   UNL     1       2.256  52.952  19.286  1.00  0.00     0.000 C 
BRANCH   4   5
ATOM      5  C   UNL     1       2.553  53.133  17.791  1.00  0.00     0.001 C 
BRANCH   5   6
ATOM      6  C   UNL     1       1.342  53.740  17.061  1.00  0.00     0.009 C 
BRANCH   6   7
ATOM      7  C   UNL     1       1.576  55.166  16.516  1.00  0.00     0.032 C 
ATOM      8  C   UNL     1       0.755  56.228  17.261  1.00  0.00     0.014 C 
BRANCH   7   9
ATOM      9  C   UNL     1       3.040  55.518  16.486  1.00  0.00     0.044 C 
ATOM     10  O   UNL     1       3.519  56.283  17.365  1.00  0.00    -0.550 OA
ATOM     11  O   UNL     1       3.864  55.050  15.469  1.00  0.00    -0.550 OA
ENDBRANCH   7   9
ENDBRANCH   6   7
ENDBRANCH   5   6
ENDBRANCH   4   5
ENDBRANCH   3   4
ENDBRANCH   2   3
ENDBRANCH   1   2
BRANCH   1  12
ATOM     12  C   UNL     1      -1.275  54.911  20.115  1.00  0.00     0.000 C 
BRANCH  12  13
ATOM     13  C   UNL     1      -2.379  54.111  19.399  1.00  0.00    -0.000 C 
BRANCH  13  14
ATOM     14  C   UNL     1      -2.340  54.171  17.860  1.00  0.00    -0.000 C 
BRANCH  14  15
ATOM     15  C   UNL     1      -2.261  52.784  17.207  1.00  0.00    -0.000 C 
BRANCH  15  16
ATOM     16  C   UNL     1      -2.224  51.675  18.270  1.00  0.00    -0.000 C 
BRANCH  16  17
ATOM     17  C   UNL     1      -0.848  50.980  18.343  1.00  0.00    -0.000 C 
BRANCH  17  18
ATOM     18  C   UNL     1      -0.518  50.414  19.734  1.00  0.00    -0.003 C 
ATOM     19  C   UNL     1      -1.666  50.564  20.731  1.00  0.00     0.004 C 
ENDBRANCH  17  18
ENDBRANCH  16  17
ENDBRANCH  15  16
ENDBRANCH  14  15
ENDBRANCH  13  14
ENDBRANCH  12  13
ENDBRANCH   1  12
TORSDOF 14
ENDMDL
MODEL 3
REMARK VINA RESULT:    -4.867      1.555      3.073
REMARK INTER + INTRA:         -11.523
REMARK INTER:                  -8.888
REMARK INTRA:                  -2.635
REMARK UNBOUND:                -2.673
REMARK SMILES CCCCCCCCCCCCCC[C@@H](C)C(=O)[O-]
REMARK SMILES IDX 9 1 10 2 11 3 12 4 13 5 14 6 15 7 16 8 17 9 18 10 19 11 8 12
REMARK SMILES IDX 7 13 6 14 5 15 4 16 3 17 2 18 1 19
REMARK H PARENT
REMARK Flexibility Score: inf
ROOT
ATOM      1  C   UNL     1       2.194  53.266  18.073  1.00  0.00     0.000 C 
ENDROOT
BRANCH   1   2
ATOM      2  C   UNL     1       1.623  53.026  19.482  1.00  0.00     0.000 C 
BRANCH   2   3
ATOM      3  C   UNL     1       1.564  54.270  20.393  1.00  0.00     0.000 C 
BRANCH   3   4
ATOM      4  C   UNL     1       0.157  54.854  20.614  1.00  0.00     0.000 C 
BRANCH   4   5
ATOM      5  C   UNL     1      -0.897  53.777  20.904  1.00  0.00     0.001 C 
BRANCH   5   6
ATOM      6  C   UNL     1      -2.217  54.092  20.179  1.00  0.00     0.009 C 
BRANCH   6   7
ATOM      7  C   UNL     1      -2.043  54.598  18.730  1.00  0.00     0.032 C 
ATOM      8  C   UNL     1      -2.280  53.498  17.685  1.00  0.00     0.014 C 
BRANCH   7   9
ATOM      9  C   UNL     1      -2.892  55.812  18.458  1.00  0.00     0.044 C 
ATOM     10  O   UNL     1      -2.708  56.483  17.408  1.00  0.00    -0.550 OA
ATOM     11  O   UNL     1      -3.845  56.235  19.378  1.00  0.00    -0.550 OA
ENDBRANCH   7   9
ENDBRANCH   6   7
ENDBRANCH   5   6
ENDBRANCH   4   5
ENDBRANCH   3   4
ENDBRANCH   2   3
ENDBRANCH   1   2
BRANCH   1  12
ATOM     12  C   UNL     1       1.160  53.863  17.103  1.00  0.00     0.000 C 
BRANCH  12  13
ATOM     13  C   UNL     1       1.658  55.142  16.406  1.00  0.00    -0.000 C 
BRANCH  13  14
ATOM     14  C   UNL     1       0.782  56.391  16.623  1.00  0.00    -0.000 C 
BRANCH  14  15
ATOM     15  C   UNL     1       0.934  56.995  18.027  1.00  0.00    -0.000 C 
BRANCH  15  16
ATOM     16  C   UNL     1       2.182  57.888  18.110  1.00  0.00    -0.000 C 
BRANCH  16  17
ATOM     17  C   UNL     1       3.372  57.170  18.780  1.00  0.00    -0.000 C 
BRANCH  17  18
ATOM     18  C   UNL     1       4.600  57.029  17.866  1.00  0.00    -0.003 C 
ATOM     19  C   UNL     1       4.976  55.575  17.587  1.00  0.00     0.004 C 
ENDBRANCH  17  18
ENDBRANCH  16  17
ENDBRANCH  15  16
ENDBRANCH  14  15
ENDBRANCH  13  14
ENDBRANCH  12  13
ENDBRANCH   1  12
TORSDOF 14
ENDMDL
MODEL 4
REMARK VINA RESULT:    -4.860      2.719      4.356
REMARK INTER + INTRA:         -11.511
REMARK INTER:                  -8.832
REMARK INTRA:                  -2.679
REMARK UNBOUND:                -2.673
REMARK SMILES CCCCCCCCCCCCCC[C@@H](C)C(=O)[O-]
REMARK SMILES IDX 9 1 10 2 11 3 12 4 13 5 14 6 15 7 16 8 17 9 18 10 19 11 8 12
REMARK SMILES IDX 7 13 6 14 5 15 4 16 3 17 2 18 1 19
REMARK H PARENT
REMARK Flexibility Score: inf
ROOT
ATOM      1  C   UNL     1       0.142  54.373  20.630  1.00  0.00     0.000 C 
ENDROOT
BRANCH   1   2
ATOM      2  C   UNL     1      -0.835  55.303  19.889  1.00  0.00     0.000 C 
BRANCH   2   3
ATOM      3  C   UNL     1      -2.220  54.696  19.580  1.00  0.00     0.000 C 
BRANCH   3   4
ATOM      4  C   UNL     1      -2.504  54.441  18.089  1.00  0.00     0.000 C 
BRANCH   4   5
ATOM      5  C   UNL     1      -1.685  53.276  17.515  1.00  0.00     0.001 C 
BRANCH   5   6
ATOM      6  C   UNL     1      -2.437  51.944  17.680  1.00  0.00     0.009 C 
BRANCH   6   7
ATOM      7  C   UNL     1      -1.716  50.911  18.575  1.00  0.00     0.032 C 
ATOM      8  C   UNL     1      -0.216  51.203  18.726  1.00  0.00     0.014 C 
BRANCH   7   9
ATOM      9  C   UNL     1      -2.390  50.768  19.914  1.00  0.00     0.044 C 
ATOM     10  O   UNL     1      -1.997  51.459  20.890  1.00  0.00    -0.550 OA
ATOM     11  O   UNL     1      -3.410  49.842  20.102  1.00  0.00    -0.550 OA
ENDBRANCH   7   9
ENDBRANCH   6   7
ENDBRANCH   5   6
ENDBRANCH   4   5
ENDBRANCH   3   4
ENDBRANCH   2   3
ENDBRANCH   1   2
BRANCH   1  12
ATOM     12  C   UNL     1       1.579  54.921  20.664  1.00  0.00     0.000 C 
BRANCH  12  13
ATOM     13  C   UNL     1       2.624  53.898  20.183  1.00  0.00    -0.000 C 
BRANCH  13  14
ATOM     14  C   UNL     1       3.293  54.228  18.835  1.00  0.00    -0.000 C 
BRANCH  14  15
ATOM     15  C   UNL     1       2.842  53.301  17.697  1.00  0.00    -0.000 C 
BRANCH  15  16
ATOM     16  C   UNL     1       1.660  53.909  16.927  1.00  0.00    -0.000 C 
BRANCH  16  17
ATOM     17  C   UNL     1       1.968  55.329  16.408  1.00  0.00    -0.000 C 
BRANCH  17  18
ATOM     18  C   UNL     1       0.893  56.365  16.776  1.00  0.00    -0.003 C 
ATOM     19  C   UNL     1       1.377  57.397  17.793  1.00  0.00     0.004 C 
ENDBRANCH  17  18
ENDBRANCH  16  17
ENDBRANCH  15  16
ENDBRANCH  14  15
ENDBRANCH  13  14
ENDBRANCH  12  13
ENDBRANCH   1  12
TORSDOF 14
ENDMDL
MODEL 5
REMARK VINA RESULT:    -4.843      3.033      5.215
REMARK INTER + INTRA:         -11.480
REMARK INTER:                  -8.886
REMARK INTRA:                  -2.595
REMARK UNBOUND:                -2.673
REMARK SMILES CCCCCCCCCCCCCC[C@@H](C)C(=O)[O-]
REMARK SMILES IDX 9 1 10 2 11 3 12 4 13 5 14 6 15 7 16 8 17 9 18 10 19 11 8 12
REMARK SMILES IDX 7 13 6 14 5 15 4 16 3 17 2 18 1 19
REMARK H PARENT
REMARK Flexibility Score: inf
ROOT
ATOM      1  C   UNL     1       1.059  55.160  20.576  1.00  0.00     0.000 C 
ENDROOT
BRANCH   1   2
ATOM      2  C   UNL     1       2.002  53.985  20.260  1.00  0.00     0.000 C 
BRANCH   2   3
ATOM      3  C   UNL     1       1.522  53.033  19.146  1.00  0.00     0.000 C 
BRANCH   3   4
ATOM      4  C   UNL     1       2.119  53.302  17.753  1.00  0.00     0.000 C 
BRANCH   4   5
ATOM      5  C   UNL     1       1.228  54.205  16.886  1.00  0.00     0.001 C 
BRANCH   5   6
ATOM      6  C   UNL     1       2.016  55.423  16.373  1.00  0.00     0.009 C 
BRANCH   6   7
ATOM      7  C   UNL     1       3.140  55.899  17.320  1.00  0.00     0.032 C 
ATOM      8  C   UNL     1       4.482  56.091  16.599  1.00  0.00     0.014 C 
BRANCH   7   9
ATOM      9  C   UNL     1       2.739  57.136  18.082  1.00  0.00     0.044 C 
ATOM     10  O   UNL     1       1.637  57.693  17.835  1.00  0.00    -0.550 OA
ATOM     11  O   UNL     1       3.593  57.702  19.020  1.00  0.00    -0.550 OA
ENDBRANCH   7   9
ENDBRANCH   6   7
ENDBRANCH   5   6
ENDBRANCH   4   5
ENDBRANCH   3   4
ENDBRANCH   2   3
ENDBRANCH   1   2
BRANCH   1  12
ATOM     12  C   UNL     1      -0.405  54.866  20.210  1.00  0.00     0.000 C 
BRANCH  12  13
ATOM     13  C   UNL     1      -1.041  55.969  19.345  1.00  0.00    -0.000 C 
BRANCH  13  14
ATOM     14  C   UNL     1      -2.009  55.472  18.254  1.00  0.00    -0.000 C 
BRANCH  14  15
ATOM     15  C   UNL     1      -2.528  54.051  18.515  1.00  0.00    -0.000 C 
BRANCH  15  16
ATOM     16  C   UNL     1      -2.198  53.119  17.339  1.00  0.00    -0.000 C 
BRANCH  16  17
ATOM     17  C   UNL     1      -2.465  51.636  17.674  1.00  0.00    -0.000 C 
BRANCH  17  18
ATOM     18  C   UNL     1      -1.745  51.153  18.944  1.00  0.00    -0.003 C 
ATOM     19  C   UNL     1      -0.714  50.060  18.670  1.00  0.00     0.004 C 
ENDBRANCH  17  18
ENDBRANCH  16  17
ENDBRANCH  15  16
ENDBRANCH  14  15
ENDBRANCH  13  14
ENDBRANCH  12  13
ENDBRANCH   1  12
TORSDOF 14
ENDMDL
MODEL 6
REMARK VINA RESULT:    -4.839      1.568      3.046
REMARK INTER + INTRA:         -11.471
REMARK INTER:                  -9.142
REMARK INTRA:                  -2.329
REMARK UNBOUND:                -2.673
REMARK SMILES CCCCCCCCCCCCCC[C@@H](C)C(=O)[O-]
REMARK SMILES IDX 9 1 10 2 11 3 12 4 13 5 14 6 15 7 16 8 17 9 18 10 19 11 8 12
REMARK SMILES IDX 7 13 6 14 5 15 4 16 3 17 2 18 1 19
REMARK H PARENT
REMARK Flexibility Score: inf
ROOT
ATOM      1  C   UNL     1       1.666  52.735  18.435  1.00  0.00     0.000 C 
ENDROOT
BRANCH   1   2
ATOM      2  C   UNL     1       2.261  53.806  19.367  1.00  0.00     0.000 C 
BRANCH   2   3
ATOM      3  C   UNL     1       1.255  54.490  20.316  1.00  0.00     0.000 C 
BRANCH   3   4
ATOM      4  C   UNL     1      -0.053  53.714  20.552  1.00  0.00     0.000 C 
BRANCH   4   5
ATOM      5  C   UNL     1      -1.305  54.581  20.358  1.00  0.00     0.001 C 
BRANCH   5   6
ATOM      6  C   UNL     1      -1.059  55.668  19.297  1.00  0.00     0.009 C 
BRANCH   6   7
ATOM      7  C   UNL     1      -1.874  55.485  17.997  1.00  0.00     0.032 C 
ATOM      8  C   UNL     1      -2.320  54.033  17.776  1.00  0.00     0.014 C 
BRANCH   7   9
ATOM      9  C   UNL     1      -3.039  56.438  17.932  1.00  0.00     0.044 C 
ATOM     10  O   UNL     1      -4.085  56.194  18.590  1.00  0.00    -0.550 OA
ATOM     11  O   UNL     1      -2.996  57.560  17.113  1.00  0.00    -0.550 OA
ENDBRANCH   7   9
ENDBRANCH   6   7
ENDBRANCH   5   6
ENDBRANCH   4   5
ENDBRANCH   3   4
ENDBRANCH   2   3
ENDBRANCH   1   2
BRANCH   1  12
ATOM     12  C   UNL     1       1.395  53.262  17.016  1.00  0.00     0.000 C 
BRANCH  12  13
ATOM     13  C   UNL     1       1.679  54.768  16.870  1.00  0.00    -0.000 C 
BRANCH  13  14
ATOM     14  C   UNL     1       2.609  55.151  15.703  1.00  0.00    -0.000 C 
BRANCH  14  15
ATOM     15  C   UNL     1       4.093  54.904  16.012  1.00  0.00    -0.000 C 
BRANCH  15  16
ATOM     16  C   UNL     1       4.443  55.362  17.435  1.00  0.00    -0.000 C 
BRANCH  16  17
ATOM     17  C   UNL     1       4.441  56.899  17.573  1.00  0.00    -0.000 C 
BRANCH  17  18
ATOM     18  C   UNL     1       3.534  57.414  18.704  1.00  0.00    -0.003 C 
ATOM     19  C   UNL     1       2.234  58.032  18.194  1.00  0.00     0.004 C 
ENDBRANCH  17  18
ENDBRANCH  16  17
ENDBRANCH  15  16
ENDBRANCH  14  15
ENDBRANCH  13  14
ENDBRANCH  12  13
ENDBRANCH   1  12
TORSDOF 14
ENDMDL
MODEL 7
REMARK VINA RESULT:    -4.833      2.287      3.859
REMARK INTER + INTRA:         -11.462
REMARK INTER:                  -8.918
REMARK INTRA:                  -2.544
REMARK UNBOUND:                -2.673
REMARK SMILES CCCCCCCCCCCCCC[C@@H](C)C(=O)[O-]
REMARK SMILES IDX 9 1 10 2 11 3 12 4 13 5 14 6 15 7 16 8 17 9 18 10 19 11 8 12
REMARK SMILES IDX 7 13 6 14 5 15 4 16 3 17 2 18 1 19
REMARK H PARENT
REMARK Flexibility Score: inf
ROOT
ATOM      1  C   UNL     1       2.945  53.716  20.631  1.00  0.00     0.000 C 
ENDROOT
BRANCH   1   2
ATOM      2  C   UNL     1       3.402  53.457  19.184  1.00  0.00     0.000 C 
BRANCH   2   3
ATOM      3  C   UNL     1       2.731  52.259  18.482  1.00  0.00     0.000 C 
BRANCH   3   4
ATOM      4  C   UNL     1       1.584  52.622  17.521  1.00  0.00     0.000 C 
BRANCH   4   5
ATOM      5  C   UNL     1       0.212  52.152  18.025  1.00  0.00     0.001 C 
BRANCH   5   6
ATOM      6  C   UNL     1      -0.916  53.000  17.410  1.00  0.00     0.009 C 
BRANCH   6   7
ATOM      7  C   UNL     1      -2.331  52.640  17.916  1.00  0.00     0.032 C 
ATOM      8  C   UNL     1      -2.621  51.134  17.845  1.00  0.00     0.014 C 
BRANCH   7   9
ATOM      9  C   UNL     1      -2.586  53.189  19.295  1.00  0.00     0.044 C 
ATOM     10  O   UNL     1      -2.988  54.374  19.433  1.00  0.00    -0.550 OA
ATOM     11  O   UNL     1      -2.333  52.419  20.425  1.00  0.00    -0.550 OA
ENDBRANCH   7   9
ENDBRANCH   6   7
ENDBRANCH   5   6
ENDBRANCH   4   5
ENDBRANCH   3   4
ENDBRANCH   2   3
ENDBRANCH   1   2
BRANCH   1  12
ATOM     12  C   UNL     1       2.146  55.022  20.780  1.00  0.00     0.000 C 
BRANCH  12  13
ATOM     13  C   UNL     1       0.676  54.880  20.345  1.00  0.00    -0.000 C 
BRANCH  13  14
ATOM     14  C   UNL     1       0.112  56.068  19.542  1.00  0.00    -0.000 C 
BRANCH  14  15
ATOM     15  C   UNL     1       0.717  56.183  18.135  1.00  0.00    -0.000 C 
BRANCH  15  16
ATOM     16  C   UNL     1       1.804  57.267  18.090  1.00  0.00    -0.000 C 
BRANCH  16  17
ATOM     17  C   UNL     1       3.157  56.719  17.590  1.00  0.00    -0.000 C 
BRANCH  17  18
ATOM     18  C   UNL     1       3.026  55.723  16.426  1.00  0.00    -0.003 C 
ATOM     19  C   UNL     1       4.374  55.261  15.877  1.00  0.00     0.004 C 
ENDBRANCH  17  18
ENDBRANCH  16  17
ENDBRANCH  15  16
ENDBRANCH  14  15
ENDBRANCH  13  14
ENDBRANCH  12  13
ENDBRANCH   1  12
TORSDOF 14
ENDMDL
MODEL 8
REMARK VINA RESULT:    -4.780      2.907      3.928
REMARK INTER + INTRA:         -11.365
REMARK INTER:                  -8.585
REMARK INTRA:                  -2.780
REMARK UNBOUND:                -2.673
REMARK SMILES CCCCCCCCCCCCCC[C@@H](C)C(=O)[O-]
REMARK SMILES IDX 9 1 10 2 11 3 12 4 13 5 14 6 15 7 16 8 17 9 18 10 19 11 8 12
REMARK SMILES IDX 7 13 6 14 5 15 4 16 3 17 2 18 1 19
REMARK H PARENT
REMARK Flexibility Score: inf
ROOT
ATOM      1  C   UNL     1       2.677  53.597  20.220  1.00  0.00     0.000 C 
ENDROOT
BRANCH   1   2
ATOM      2  C   UNL     1       2.468  53.004  18.816  1.00  0.00     0.000 C 
BRANCH   2   3
ATOM      3  C   UNL     1       1.189  52.159  18.637  1.00  0.00     0.000 C 
BRANCH   3   4
ATOM      4  C   UNL     1       0.202  52.682  17.579  1.00  0.00     0.000 C 
BRANCH   4   5
ATOM      5  C   UNL     1      -1.214  52.893  18.134  1.00  0.00     0.001 C 
BRANCH   5   6
ATOM      6  C   UNL     1      -1.399  52.138  19.462  1.00  0.00     0.009 C 
BRANCH   6   7
ATOM      7  C   UNL     1      -1.873  53.022  20.637  1.00  0.00     0.032 C 
ATOM      8  C   UNL     1      -2.985  54.000  20.233  1.00  0.00     0.014 C 
BRANCH   7   9
ATOM      9  C   UNL     1      -2.270  52.195  21.832  1.00  0.00     0.044 C 
ATOM     10  O   UNL     1      -2.696  51.021  21.667  1.00  0.00    -0.550 OA
ATOM     11  O   UNL     1      -2.221  52.728  23.115  1.00  0.00    -0.550 OA
ENDBRANCH   7   9
ENDBRANCH   6   7
ENDBRANCH   5   6
ENDBRANCH   4   5
ENDBRANCH   3   4
ENDBRANCH   2   3
ENDBRANCH   1   2
BRANCH   1  12
ATOM     12  C   UNL     1       2.286  55.083  20.306  1.00  0.00     0.000 C 
BRANCH  12  13
ATOM     13  C   UNL     1       0.770  55.297  20.459  1.00  0.00    -0.000 C 
BRANCH  13  14
ATOM     14  C   UNL     1       0.097  56.074  19.311  1.00  0.00    -0.000 C 
BRANCH  14  15
ATOM     15  C   UNL     1       1.107  56.734  18.361  1.00  0.00    -0.000 C 
BRANCH  15  16
ATOM     16  C   UNL     1       0.766  56.428  16.895  1.00  0.00    -0.000 C 
BRANCH  16  17
ATOM     17  C   UNL     1       1.866  55.600  16.199  1.00  0.00    -0.000 C 
BRANCH  17  18
ATOM     18  C   UNL     1       3.277  55.866  16.749  1.00  0.00    -0.003 C 
ATOM     19  C   UNL     1       4.357  55.038  16.054  1.00  0.00     0.004 C 
ENDBRANCH  17  18
ENDBRANCH  16  17
ENDBRANCH  15  16
ENDBRANCH  14  15
ENDBRANCH  13  14
ENDBRANCH  12  13
ENDBRANCH   1  12
TORSDOF 14
ENDMDL
MODEL 9
REMARK VINA RESULT:    -4.775      1.241      3.651
REMARK INTER + INTRA:         -11.357
REMARK INTER:                  -9.141
REMARK INTRA:                  -2.216
REMARK UNBOUND:                -2.673
REMARK SMILES CCCCCCCCCCCCCC[C@@H](C)C(=O)[O-]
REMARK SMILES IDX 9 1 10 2 11 3 12 4 13 5 14 6 15 7 16 8 17 9 18 10 19 11 8 12
REMARK SMILES IDX 7 13 6 14 5 15 4 16 3 17 2 18 1 19
REMARK H PARENT
REMARK Flexibility Score: inf
ROOT
ATOM      1  C   UNL     1       3.262  53.759  17.274  1.00  0.00     0.000 C 
ENDROOT
BRANCH   1   2
ATOM      2  C   UNL     1       2.255  54.660  16.538  1.00  0.00     0.000 C 
BRANCH   2   3
ATOM      3  C   UNL     1       2.010  56.041  17.180  1.00  0.00     0.000 C 
BRANCH   3   4
ATOM      4  C   UNL     1       0.660  56.694  16.834  1.00  0.00     0.000 C 
BRANCH   4   5
ATOM      5  C   UNL     1      -0.484  56.213  17.739  1.00  0.00     0.001 C 
BRANCH   5   6
ATOM      6  C   UNL     1      -1.818  56.862  17.327  1.00  0.00     0.009 C 
BRANCH   6   7
ATOM      7  C   UNL     1      -3.057  56.281  18.043  1.00  0.00     0.032 C 
ATOM      8  C   UNL     1      -2.707  55.600  19.374  1.00  0.00     0.014 C 
BRANCH   7   9
ATOM      9  C   UNL     1      -4.136  57.317  18.218  1.00  0.00     0.044 C 
ATOM     10  O   UNL     1      -4.176  58.315  17.450  1.00  0.00    -0.550 OA
ATOM     11  O   UNL     1      -5.061  57.214  19.250  1.00  0.00    -0.550 OA
ENDBRANCH   7   9
ENDBRANCH   6   7
ENDBRANCH   5   6
ENDBRANCH   4   5
ENDBRANCH   3   4
ENDBRANCH   2   3
ENDBRANCH   1   2
BRANCH   1  12
ATOM     12  C   UNL     1       3.743  54.363  18.605  1.00  0.00     0.000 C 
BRANCH  12  13
ATOM     13  C   UNL     1       3.064  53.729  19.832  1.00  0.00    -0.000 C 
BRANCH  13  14
ATOM     14  C   UNL     1       2.101  54.655  20.600  1.00  0.00    -0.000 C 
BRANCH  14  15
ATOM     15  C   UNL     1       0.631  54.230  20.475  1.00  0.00    -0.000 C 
BRANCH  15  16
ATOM     16  C   UNL     1       0.487  53.011  19.552  1.00  0.00    -0.000 C 
BRANCH  16  17
ATOM     17  C   UNL     1      -0.935  52.412  19.591  1.00  0.00    -0.000 C 
BRANCH  17  18
ATOM     18  C   UNL     1      -1.368  51.765  18.265  1.00  0.00    -0.003 C 
ATOM     19  C   UNL     1      -1.894  52.776  17.248  1.00  0.00     0.004 C 
ENDBRANCH  17  18
ENDBRANCH  16  17
ENDBRANCH  15  16
ENDBRANCH  14  15
ENDBRANCH  13  14
ENDBRANCH  12  13
ENDBRANCH   1  12
TORSDOF 14
ENDMDL
