MODEL 1
REMARK VINA RESULT:    -5.478      0.000      0.000
REMARK INTER + INTRA:          -6.575
REMARK INTER:                  -6.439
REMARK INTRA:                  -0.137
REMARK UNBOUND:                -0.137
REMARK SMILES O=c1c(O)c(-c2ccc(O)cc2)oc2cc(O)cc(O)c12
REMARK SMILES IDX 5 1 3 2 2 3 1 4 21 5 19 6 18 7 16 8 15 9 14 10 13 11 6 12
REMARK SMILES IDX 7 13 8 14 9 15 12 16 11 17 10 18 4 20 20 22 17 24
REMARK H PARENT 10 19 4 21 20 23 17 25
REMARK Flexibility Score: inf
ROOT
ATOM      1  C   UNL     1     129.502 131.528 133.430  1.00  0.00     0.180 A 
ATOM      2  C   UNL     1     128.784 132.704 133.710  1.00  0.00     0.208 A 
ATOM      3  C   UNL     1     129.481 133.918 133.821  1.00  0.00     0.238 A 
ATOM      4  O   UNL     1     128.839 134.957 134.125  1.00  0.00    -0.285 OA
ATOM      5  C   UNL     1     130.884 133.945 133.636  1.00  0.00     0.111 A 
ATOM      6  C   UNL     1     131.686 135.124 133.687  1.00  0.00     0.134 A 
ATOM      7  C   UNL     1     133.080 135.014 133.619  1.00  0.00     0.093 A 
ATOM      8  C   UNL     1     133.697 133.777 133.437  1.00  0.00     0.123 A 
ATOM      9  C   UNL     1     132.919 132.624 133.326  1.00  0.00     0.094 A 
ATOM     10  C   UNL     1     131.528 132.697 133.427  1.00  0.00     0.146 A 
ATOM     11  O   UNL     1     130.824 131.575 133.328  1.00  0.00    -0.452 OA
ENDROOT
BRANCH   1  12
ATOM     12  C   UNL     1     128.835 130.216 133.273  1.00  0.00     0.021 A 
ATOM     13  C   UNL     1     129.186 129.155 134.125  1.00  0.00     0.016 A 
ATOM     14  C   UNL     1     128.584 127.901 133.980  1.00  0.00     0.047 A 
ATOM     15  C   UNL     1     127.638 127.687 132.973  1.00  0.00     0.115 A 
ATOM     16  C   UNL     1     127.896 129.988 132.249  1.00  0.00     0.016 A 
ATOM     17  C   UNL     1     127.298 128.734 132.106  1.00  0.00     0.047 A 
BRANCH  15  18
ATOM     18  O   UNL     1     127.047 126.433 132.840  1.00  0.00    -0.508 OA
ATOM     19  H   UNL     1     126.453 126.048 133.566  1.00  0.00     0.293 HD
ENDBRANCH  15  18
ENDBRANCH   1  12
BRANCH   2  20
ATOM     20  O   UNL     1     127.401 132.652 133.910  1.00  0.00    -0.502 OA
ATOM     21  H   UNL     1     126.953 131.902 134.424  1.00  0.00     0.293 HD
ENDBRANCH   2  20
BRANCH   6  22
ATOM     22  O   UNL     1     131.165 136.418 133.775  1.00  0.00    -0.507 OA
ATOM     23  H   UNL     1     130.430 136.700 134.405  1.00  0.00     0.293 HD
ENDBRANCH   6  22
BRANCH   8  24
ATOM     24  O   UNL     1     135.087 133.707 133.359  1.00  0.00    -0.508 OA
ATOM     25  H   UNL     1     135.585 132.844 133.543  1.00  0.00     0.293 HD
ENDBRANCH   8  24
TORSDOF 5
ENDMDL
MODEL 2
REMARK VINA RESULT:    -5.453      2.654      8.240
REMARK INTER + INTRA:          -6.546
REMARK INTER:                  -6.386
REMARK INTRA:                  -0.161
REMARK UNBOUND:                -0.137
REMARK SMILES O=c1c(O)c(-c2ccc(O)cc2)oc2cc(O)cc(O)c12
REMARK SMILES IDX 5 1 3 2 2 3 1 4 21 5 19 6 18 7 16 8 15 9 14 10 13 11 6 12
REMARK SMILES IDX 7 13 8 14 9 15 12 16 11 17 10 18 4 20 20 22 17 24
REMARK H PARENT 10 19 4 21 20 23 17 25
REMARK Flexibility Score: inf
ROOT
ATOM      1  C   UNL     1     130.121 128.113 133.383  1.00  0.00     0.180 A 
ATOM      2  C   UNL     1     130.827 126.939 133.698  1.00  0.00     0.208 A 
ATOM      3  C   UNL     1     130.125 125.726 133.788  1.00  0.00     0.238 A 
ATOM      4  O   UNL     1     130.753 124.688 134.123  1.00  0.00    -0.285 OA
ATOM      5  C   UNL     1     128.730 125.699 133.545  1.00  0.00     0.111 A 
ATOM      6  C   UNL     1     127.926 124.521 133.569  1.00  0.00     0.134 A 
ATOM      7  C   UNL     1     126.536 124.631 133.444  1.00  0.00     0.093 A 
ATOM      8  C   UNL     1     125.927 125.868 133.229  1.00  0.00     0.123 A 
ATOM      9  C   UNL     1     126.710 127.020 133.145  1.00  0.00     0.094 A 
ATOM     10  C   UNL     1     128.096 126.946 133.303  1.00  0.00     0.146 A 
ATOM     11  O   UNL     1     128.804 128.067 133.227  1.00  0.00    -0.452 OA
ENDROOT
BRANCH   1  12
ATOM     12  C   UNL     1     130.796 129.424 133.247  1.00  0.00     0.021 A 
ATOM     13  C   UNL     1     130.450 130.474 134.115  1.00  0.00     0.016 A 
ATOM     14  C   UNL     1     131.058 131.727 133.989  1.00  0.00     0.047 A 
ATOM     15  C   UNL     1     132.006 131.951 132.986  1.00  0.00     0.115 A 
ATOM     16  C   UNL     1     131.736 129.663 132.227  1.00  0.00     0.016 A 
ATOM     17  C   UNL     1     132.342 130.916 132.104  1.00  0.00     0.047 A 
BRANCH  15  18
ATOM     18  O   UNL     1     132.604 133.204 132.873  1.00  0.00    -0.508 OA
ATOM     19  H   UNL     1     132.476 133.780 132.048  1.00  0.00     0.293 HD
ENDBRANCH  15  18
ENDBRANCH   1  12
BRANCH   2  20
ATOM     20  O   UNL     1     132.200 126.991 133.955  1.00  0.00    -0.502 OA
ATOM     21  H   UNL     1     132.895 126.870 133.227  1.00  0.00     0.293 HD
ENDBRANCH   2  20
BRANCH   6  22
ATOM     22  O   UNL     1     128.441 123.227 133.685  1.00  0.00    -0.507 OA
ATOM     23  H   UNL     1     129.047 122.787 133.009  1.00  0.00     0.293 HD
ENDBRANCH   6  22
BRANCH   8  24
ATOM     24  O   UNL     1     124.543 125.938 133.094  1.00  0.00    -0.508 OA
ATOM     25  H   UNL     1     124.006 126.685 133.519  1.00  0.00     0.293 HD
ENDBRANCH   8  24
TORSDOF 5
ENDMDL
MODEL 3
REMARK VINA RESULT:    -5.440      2.262      4.757
REMARK INTER + INTRA:          -6.531
REMARK INTER:                  -6.269
REMARK INTRA:                  -0.262
REMARK UNBOUND:                -0.137
REMARK SMILES O=c1c(O)c(-c2ccc(O)cc2)oc2cc(O)cc(O)c12
REMARK SMILES IDX 5 1 3 2 2 3 1 4 21 5 19 6 18 7 16 8 15 9 14 10 13 11 6 12
REMARK SMILES IDX 7 13 8 14 9 15 12 16 11 17 10 18 4 20 20 22 17 24
REMARK H PARENT 10 19 4 21 20 23 17 25
REMARK Flexibility Score: inf
ROOT
ATOM      1  C   UNL     1     128.414 127.981 132.889  1.00  0.00     0.180 A 
ATOM      2  C   UNL     1     129.804 127.811 132.776  1.00  0.00     0.208 A 
ATOM      3  C   UNL     1     130.632 128.946 132.782  1.00  0.00     0.238 A 
ATOM      4  O   UNL     1     131.871 128.791 132.626  1.00  0.00    -0.285 OA
ATOM      5  C   UNL     1     130.060 130.234 132.918  1.00  0.00     0.111 A 
ATOM      6  C   UNL     1     130.806 131.449 132.976  1.00  0.00     0.134 A 
ATOM      7  C   UNL     1     130.129 132.675 132.979  1.00  0.00     0.093 A 
ATOM      8  C   UNL     1     128.735 132.729 132.993  1.00  0.00     0.123 A 
ATOM      9  C   UNL     1     127.996 131.545 132.996  1.00  0.00     0.094 A 
ATOM     10  C   UNL     1     128.643 130.307 132.955  1.00  0.00     0.146 A 
ATOM     11  O   UNL     1     127.903 129.204 132.948  1.00  0.00    -0.452 OA
ENDROOT
BRANCH   1  12
ATOM     12  C   UNL     1     127.480 126.832 132.916  1.00  0.00     0.021 A 
ATOM     13  C   UNL     1     127.082 126.236 131.707  1.00  0.00     0.016 A 
ATOM     14  C   UNL     1     126.183 125.164 131.709  1.00  0.00     0.047 A 
ATOM     15  C   UNL     1     125.660 124.686 132.914  1.00  0.00     0.115 A 
ATOM     16  C   UNL     1     126.934 126.359 134.124  1.00  0.00     0.016 A 
ATOM     17  C   UNL     1     126.035 125.288 134.121  1.00  0.00     0.047 A 
BRANCH  15  18
ATOM     18  O   UNL     1     124.766 123.618 132.899  1.00  0.00    -0.508 OA
ATOM     19  H   UNL     1     125.028 122.703 133.249  1.00  0.00     0.293 HD
ENDBRANCH  15  18
ENDBRANCH   1  12
BRANCH   2  20
ATOM     20  O   UNL     1     130.346 126.532 132.622  1.00  0.00    -0.502 OA
ATOM     21  H   UNL     1     130.451 125.888 133.397  1.00  0.00     0.293 HD
ENDBRANCH   2  20
BRANCH   6  22
ATOM     22  O   UNL     1     132.200 131.506 133.059  1.00  0.00    -0.507 OA
ATOM     23  H   UNL     1     132.756 132.317 132.833  1.00  0.00     0.293 HD
ENDBRANCH   6  22
BRANCH   8  24
ATOM     24  O   UNL     1     128.095 133.966 133.011  1.00  0.00    -0.508 OA
ATOM     25  H   UNL     1     128.489 134.759 133.504  1.00  0.00     0.293 HD
ENDBRANCH   8  24
TORSDOF 5
ENDMDL
MODEL 4
REMARK VINA RESULT:    -5.433      1.618      2.315
REMARK INTER + INTRA:          -6.522
REMARK INTER:                  -6.236
REMARK INTRA:                  -0.286
REMARK UNBOUND:                -0.137
REMARK SMILES O=c1c(O)c(-c2ccc(O)cc2)oc2cc(O)cc(O)c12
REMARK SMILES IDX 5 1 3 2 2 3 1 4 21 5 19 6 18 7 16 8 15 9 14 10 13 11 6 12
REMARK SMILES IDX 7 13 8 14 9 15 12 16 11 17 10 18 4 20 20 22 17 24
REMARK H PARENT 10 19 4 21 20 23 17 25
REMARK Flexibility Score: inf
ROOT
ATOM      1  C   UNL     1     131.192 132.465 132.834  1.00  0.00     0.180 A 
ATOM      2  C   UNL     1     130.530 133.664 132.517  1.00  0.00     0.208 A 
ATOM      3  C   UNL     1     131.270 134.855 132.455  1.00  0.00     0.238 A 
ATOM      4  O   UNL     1     130.662 135.933 132.224  1.00  0.00    -0.285 OA
ATOM      5  C   UNL     1     132.665 134.831 132.692  1.00  0.00     0.111 A 
ATOM      6  C   UNL     1     133.520 135.971 132.616  1.00  0.00     0.134 A 
ATOM      7  C   UNL     1     134.862 135.856 132.999  1.00  0.00     0.093 A 
ATOM      8  C   UNL     1     135.395 134.628 133.392  1.00  0.00     0.123 A 
ATOM      9  C   UNL     1     134.582 133.494 133.414  1.00  0.00     0.094 A 
ATOM     10  C   UNL     1     133.231 133.586 133.073  1.00  0.00     0.146 A 
ATOM     11  O   UNL     1     132.489 132.486 133.116  1.00  0.00    -0.452 OA
ENDROOT
BRANCH   1  12
ATOM     12  C   UNL     1     130.484 131.166 132.894  1.00  0.00     0.021 A 
ATOM     13  C   UNL     1     130.299 130.424 131.715  1.00  0.00     0.016 A 
ATOM     14  C   UNL     1     129.614 129.205 131.745  1.00  0.00     0.047 A 
ATOM     15  C   UNL     1     129.093 128.721 132.949  1.00  0.00     0.115 A 
ATOM     16  C   UNL     1     129.940 130.682 134.098  1.00  0.00     0.016 A 
ATOM     17  C   UNL     1     129.255 129.464 134.125  1.00  0.00     0.047 A 
BRANCH  15  18
ATOM     18  O   UNL     1     128.413 127.505 132.963  1.00  0.00    -0.508 OA
ATOM     19  H   UNL     1     127.792 127.255 133.725  1.00  0.00     0.293 HD
ENDBRANCH  15  18
ENDBRANCH   1  12
BRANCH   2  20
ATOM     20  O   UNL     1     129.147 133.669 132.307  1.00  0.00    -0.502 OA
ATOM     21  H   UNL     1     128.620 134.524 132.175  1.00  0.00     0.293 HD
ENDBRANCH   2  20
BRANCH   6  22
ATOM     22  O   UNL     1     133.111 137.224 132.148  1.00  0.00    -0.507 OA
ATOM     23  H   UNL     1     133.417 137.640 131.282  1.00  0.00     0.293 HD
ENDBRANCH   6  22
BRANCH   8  24
ATOM     24  O   UNL     1     136.739 134.546 133.753  1.00  0.00    -0.508 OA
ATOM     25  H   UNL     1     137.389 133.962 133.241  1.00  0.00     0.293 HD
ENDBRANCH   8  24
TORSDOF 5
ENDMDL
MODEL 5
REMARK VINA RESULT:    -5.424      2.755      8.971
REMARK INTER + INTRA:          -6.512
REMARK INTER:                  -6.305
REMARK INTRA:                  -0.207
REMARK UNBOUND:                -0.137
REMARK SMILES O=c1c(O)c(-c2ccc(O)cc2)oc2cc(O)cc(O)c12
REMARK SMILES IDX 5 1 3 2 2 3 1 4 21 5 19 6 18 7 16 8 15 9 14 10 13 11 6 12
REMARK SMILES IDX 7 13 8 14 9 15 12 16 11 17 10 18 4 20 20 22 17 24
REMARK H PARENT 10 19 4 21 20 23 17 25
REMARK Flexibility Score: inf
ROOT
ATOM      1  C   UNL     1     128.309 127.453 132.866  1.00  0.00     0.180 A 
ATOM      2  C   UNL     1     129.026 126.305 132.485  1.00  0.00     0.208 A 
ATOM      3  C   UNL     1     128.345 125.083 132.370  1.00  0.00     0.238 A 
ATOM      4  O   UNL     1     129.003 124.050 132.081  1.00  0.00    -0.285 OA
ATOM      5  C   UNL     1     126.952 125.026 132.620  1.00  0.00     0.111 A 
ATOM      6  C   UNL     1     126.154 123.850 132.494  1.00  0.00     0.134 A 
ATOM      7  C   UNL     1     124.812 123.880 132.893  1.00  0.00     0.093 A 
ATOM      8  C   UNL     1     124.223 125.059 133.351  1.00  0.00     0.123 A 
ATOM      9  C   UNL     1     124.980 126.230 133.422  1.00  0.00     0.094 A 
ATOM     10  C   UNL     1     126.331 126.221 133.066  1.00  0.00     0.146 A 
ATOM     11  O   UNL     1     127.018 127.354 133.158  1.00  0.00    -0.452 OA
ENDROOT
BRANCH   1  12
ATOM     12  C   UNL     1     128.952 128.781 132.984  1.00  0.00     0.021 A 
ATOM     13  C   UNL     1     128.737 129.745 131.985  1.00  0.00     0.016 A 
ATOM     14  C   UNL     1     129.353 130.998 132.065  1.00  0.00     0.047 A 
ATOM     15  C   UNL     1     130.202 131.298 133.135  1.00  0.00     0.115 A 
ATOM     16  C   UNL     1     129.823 129.082 134.048  1.00  0.00     0.016 A 
ATOM     17  C   UNL     1     130.438 130.335 134.125  1.00  0.00     0.047 A 
BRANCH  15  18
ATOM     18  O   UNL     1     130.808 132.550 133.202  1.00  0.00    -0.508 OA
ATOM     19  H   UNL     1     130.563 133.219 133.924  1.00  0.00     0.293 HD
ENDBRANCH  15  18
ENDBRANCH   1  12
BRANCH   2  20
ATOM     20  O   UNL     1     130.405 126.380 132.264  1.00  0.00    -0.502 OA
ATOM     21  H   UNL     1     130.865 125.865 131.522  1.00  0.00     0.293 HD
ENDBRANCH   2  20
BRANCH   6  22
ATOM     22  O   UNL     1     126.619 122.644 131.962  1.00  0.00    -0.507 OA
ATOM     23  H   UNL     1     127.526 122.515 131.540  1.00  0.00     0.293 HD
ENDBRANCH   6  22
BRANCH   8  24
ATOM     24  O   UNL     1     122.882 125.056 133.726  1.00  0.00    -0.508 OA
ATOM     25  H   UNL     1     122.152 125.347 133.086  1.00  0.00     0.293 HD
ENDBRANCH   8  24
TORSDOF 5
ENDMDL
MODEL 6
REMARK VINA RESULT:    -5.419      2.013      6.597
REMARK INTER + INTRA:          -6.506
REMARK INTER:                  -6.249
REMARK INTRA:                  -0.257
REMARK UNBOUND:                -0.137
REMARK SMILES O=c1c(O)c(-c2ccc(O)cc2)oc2cc(O)cc(O)c12
REMARK SMILES IDX 5 1 3 2 2 3 1 4 21 5 19 6 18 7 16 8 15 9 14 10 13 11 6 12
REMARK SMILES IDX 7 13 8 14 9 15 12 16 11 17 10 18 4 20 20 22 17 24
REMARK H PARENT 10 19 4 21 20 23 17 25
REMARK Flexibility Score: inf
ROOT
ATOM      1  C   UNL     1     131.322 131.867 132.863  1.00  0.00     0.180 A 
ATOM      2  C   UNL     1     129.930 132.032 132.750  1.00  0.00     0.208 A 
ATOM      3  C   UNL     1     129.105 130.896 132.783  1.00  0.00     0.238 A 
ATOM      4  O   UNL     1     127.865 131.046 132.627  1.00  0.00    -0.285 OA
ATOM      5  C   UNL     1     129.678 129.612 132.945  1.00  0.00     0.111 A 
ATOM      6  C   UNL     1     128.935 128.398 133.032  1.00  0.00     0.134 A 
ATOM      7  C   UNL     1     129.613 127.173 133.060  1.00  0.00     0.093 A 
ATOM      8  C   UNL     1     131.007 127.122 133.071  1.00  0.00     0.123 A 
ATOM      9  C   UNL     1     131.745 128.307 133.046  1.00  0.00     0.094 A 
ATOM     10  C   UNL     1     131.096 129.542 132.980  1.00  0.00     0.146 A 
ATOM     11  O   UNL     1     131.834 130.645 132.947  1.00  0.00    -0.452 OA
ENDROOT
BRANCH   1  12
ATOM     12  C   UNL     1     132.254 133.017 132.862  1.00  0.00     0.021 A 
ATOM     13  C   UNL     1     132.721 133.530 134.084  1.00  0.00     0.016 A 
ATOM     14  C   UNL     1     133.585 134.629 134.107  1.00  0.00     0.047 A 
ATOM     15  C   UNL     1     133.979 135.239 132.913  1.00  0.00     0.115 A 
ATOM     16  C   UNL     1     132.639 133.648 131.664  1.00  0.00     0.016 A 
ATOM     17  C   UNL     1     133.502 134.748 131.691  1.00  0.00     0.047 A 
BRANCH  15  18
ATOM     18  O   UNL     1     134.840 136.334 132.951  1.00  0.00    -0.508 OA
ATOM     19  H   UNL     1     134.869 136.956 133.751  1.00  0.00     0.293 HD
ENDBRANCH  15  18
ENDBRANCH   1  12
BRANCH   2  20
ATOM     20  O   UNL     1     129.386 133.307 132.570  1.00  0.00    -0.502 OA
ATOM     21  H   UNL     1     129.633 133.898 131.785  1.00  0.00     0.293 HD
ENDBRANCH   2  20
BRANCH   6  22
ATOM     22  O   UNL     1     127.541 128.340 133.121  1.00  0.00    -0.507 OA
ATOM     23  H   UNL     1     126.981 128.913 133.734  1.00  0.00     0.293 HD
ENDBRANCH   6  22
BRANCH   8  24
ATOM     24  O   UNL     1     131.649 125.886 133.114  1.00  0.00    -0.508 OA
ATOM     25  H   UNL     1     131.758 125.376 133.983  1.00  0.00     0.293 HD
ENDBRANCH   8  24
TORSDOF 5
ENDMDL
MODEL 7
REMARK VINA RESULT:    -5.210      1.736      3.630
REMARK INTER + INTRA:          -6.261
REMARK INTER:                  -5.967
REMARK INTRA:                  -0.294
REMARK UNBOUND:                -0.137
REMARK SMILES O=c1c(O)c(-c2ccc(O)cc2)oc2cc(O)cc(O)c12
REMARK SMILES IDX 5 1 3 2 2 3 1 4 21 5 19 6 18 7 16 8 15 9 14 10 13 11 6 12
REMARK SMILES IDX 7 13 8 14 9 15 12 16 11 17 10 18 4 20 20 22 17 24
REMARK H PARENT 10 19 4 21 20 23 17 25
REMARK Flexibility Score: inf
ROOT
ATOM      1  C   UNL     1     130.882 132.776 132.954  1.00  0.00     0.180 A 
ATOM      2  C   UNL     1     132.277 132.825 132.792  1.00  0.00     0.208 A 
ATOM      3  C   UNL     1     132.924 134.070 132.828  1.00  0.00     0.238 A 
ATOM      4  O   UNL     1     134.166 134.112 132.629  1.00  0.00    -0.285 OA
ATOM      5  C   UNL     1     132.171 135.250 133.043  1.00  0.00     0.111 A 
ATOM      6  C   UNL     1     132.727 136.560 133.138  1.00  0.00     0.134 A 
ATOM      7  C   UNL     1     131.874 137.668 133.220  1.00  0.00     0.093 A 
ATOM      8  C   UNL     1     130.490 137.509 133.277  1.00  0.00     0.123 A 
ATOM      9  C   UNL     1     129.938 136.227 133.245  1.00  0.00     0.094 A 
ATOM     10  C   UNL     1     130.761 135.105 133.126  1.00  0.00     0.146 A 
ATOM     11  O   UNL     1     130.196 133.904 133.087  1.00  0.00    -0.452 OA
ENDROOT
BRANCH   1  12
ATOM     12  C   UNL     1     130.133 131.499 132.954  1.00  0.00     0.021 A 
ATOM     13  C   UNL     1     129.498 131.070 131.775  1.00  0.00     0.016 A 
ATOM     14  C   UNL     1     128.767 129.878 131.758  1.00  0.00     0.047 A 
ATOM     15  C   UNL     1     128.647 129.109 132.920  1.00  0.00     0.115 A 
ATOM     16  C   UNL     1     129.991 130.730 134.124  1.00  0.00     0.016 A 
ATOM     17  C   UNL     1     129.259 129.540 134.104  1.00  0.00     0.047 A 
BRANCH  15  18
ATOM     18  O   UNL     1     127.916 127.924 132.887  1.00  0.00    -0.508 OA
ATOM     19  H   UNL     1     128.348 127.042 132.636  1.00  0.00     0.293 HD
ENDBRANCH  15  18
ENDBRANCH   1  12
BRANCH   2  20
ATOM     20  O   UNL     1     132.999 131.650 132.561  1.00  0.00    -0.502 OA
ATOM     21  H   UNL     1     133.922 131.652 132.141  1.00  0.00     0.293 HD
ENDBRANCH   2  20
BRANCH   6  22
ATOM     22  O   UNL     1     134.099 136.825 133.183  1.00  0.00    -0.507 OA
ATOM     23  H   UNL     1     134.524 137.558 133.730  1.00  0.00     0.293 HD
ENDBRANCH   6  22
BRANCH   8  24
ATOM     24  O   UNL     1     129.672 138.632 133.374  1.00  0.00    -0.508 OA
ATOM     25  H   UNL     1     130.060 139.564 133.461  1.00  0.00     0.293 HD
ENDBRANCH   8  24
TORSDOF 5
ENDMDL
MODEL 8
REMARK VINA RESULT:    -5.130      2.660      4.646
REMARK INTER + INTRA:          -6.167
REMARK INTER:                  -6.036
REMARK INTRA:                  -0.130
REMARK UNBOUND:                -0.137
REMARK SMILES O=c1c(O)c(-c2ccc(O)cc2)oc2cc(O)cc(O)c12
REMARK SMILES IDX 5 1 3 2 2 3 1 4 21 5 19 6 18 7 16 8 15 9 14 10 13 11 6 12
REMARK SMILES IDX 7 13 8 14 9 15 12 16 11 17 10 18 4 20 20 22 17 24
REMARK H PARENT 10 19 4 21 20 23 17 25
REMARK Flexibility Score: inf
ROOT
ATOM      1  C   UNL     1     132.216 133.643 132.907  1.00  0.00     0.180 A 
ATOM      2  C   UNL     1     133.499 134.151 133.177  1.00  0.00     0.208 A 
ATOM      3  C   UNL     1     133.696 135.541 133.175  1.00  0.00     0.238 A 
ATOM      4  O   UNL     1     134.857 135.987 133.365  1.00  0.00    -0.285 OA
ATOM      5  C   UNL     1     132.605 136.407 132.920  1.00  0.00     0.111 A 
ATOM      6  C   UNL     1     132.681 137.832 132.931  1.00  0.00     0.134 A 
ATOM      7  C   UNL     1     131.570 138.586 132.536  1.00  0.00     0.093 A 
ATOM      8  C   UNL     1     130.367 137.970 132.192  1.00  0.00     0.123 A 
ATOM      9  C   UNL     1     130.263 136.579 132.233  1.00  0.00     0.094 A 
ATOM     10  C   UNL     1     131.366 135.799 132.589  1.00  0.00     0.146 A 
ATOM     11  O   UNL     1     131.229 134.478 132.606  1.00  0.00    -0.452 OA
ENDROOT
BRANCH   1  12
ATOM     12  C   UNL     1     131.926 132.192 132.916  1.00  0.00     0.021 A 
ATOM     13  C   UNL     1     132.498 131.365 131.934  1.00  0.00     0.016 A 
ATOM     14  C   UNL     1     132.219 129.995 131.911  1.00  0.00     0.047 A 
ATOM     15  C   UNL     1     131.354 129.437 132.857  1.00  0.00     0.115 A 
ATOM     16  C   UNL     1     131.041 131.626 133.854  1.00  0.00     0.016 A 
ATOM     17  C   UNL     1     130.763 130.257 133.827  1.00  0.00     0.047 A 
BRANCH  15  18
ATOM     18  O   UNL     1     131.086 128.070 132.822  1.00  0.00    -0.508 OA
ATOM     19  H   UNL     1     130.136 127.718 132.793  1.00  0.00     0.293 HD
ENDBRANCH  15  18
ENDBRANCH   1  12
BRANCH   2  20
ATOM     20  O   UNL     1     134.566 133.278 133.407  1.00  0.00    -0.502 OA
ATOM     21  H   UNL     1     134.463 132.419 133.935  1.00  0.00     0.293 HD
ENDBRANCH   2  20
BRANCH   6  22
ATOM     22  O   UNL     1     133.806 138.550 133.347  1.00  0.00    -0.507 OA
ATOM     23  H   UNL     1     134.755 138.334 133.083  1.00  0.00     0.293 HD
ENDBRANCH   6  22
BRANCH   8  24
ATOM     24  O   UNL     1     129.277 138.753 131.817  1.00  0.00    -0.508 OA
ATOM     25  H   UNL     1     129.390 139.575 131.235  1.00  0.00     0.293 HD
ENDBRANCH   8  24
TORSDOF 5
ENDMDL
