MODEL 1
REMARK VINA RESULT:    -3.122      0.000      0.000
REMARK INTER + INTRA:          -6.611
REMARK INTER:                  -5.311
REMARK INTRA:                  -1.299
REMARK UNBOUND:                -1.299
REMARK SMILES CCCCCCCCCCCCCC(=O)[O-]
REMARK SMILES IDX 8 1 9 2 10 3 11 4 12 5 13 6 14 7 15 8 16 9 7 10 6 11 5 12
REMARK SMILES IDX 4 13 3 14 2 15 1 16
REMARK H PARENT
REMARK Flexibility Score: inf
ROOT
ATOM      1  C   UNL     1      -5.738  -6.688  -5.958  1.00  0.00     0.000 C 
ENDROOT
BRANCH   1   2
ATOM      2  C   UNL     1      -5.784  -6.503  -7.484  1.00  0.00     0.000 C 
BRANCH   2   3
ATOM      3  C   UNL     1      -4.483  -6.925  -8.199  1.00  0.00     0.000 C 
BRANCH   3   4
ATOM      4  C   UNL     1      -4.744  -7.912  -9.347  1.00  0.00     0.000 C 
BRANCH   4   5
ATOM      5  C   UNL     1      -3.967  -9.218  -9.139  1.00  0.00     0.006 C 
BRANCH   5   6
ATOM      6  C   UNL     1      -4.675 -10.125  -8.130  1.00  0.00     0.053 C 
BRANCH   6   7
ATOM      7  C   UNL     1      -4.134  -9.900  -6.753  1.00  0.00     0.041 C 
ATOM      8  O   UNL     1      -2.964  -9.465  -6.595  1.00  0.00    -0.550 OA
ATOM      9  O   UNL     1      -4.941 -10.125  -5.644  1.00  0.00    -0.550 OA
ENDBRANCH   6   7
ENDBRANCH   5   6
ENDBRANCH   4   5
ENDBRANCH   3   4
ENDBRANCH   2   3
ENDBRANCH   1   2
BRANCH   1  10
ATOM     10  C   UNL     1      -7.064  -7.200  -5.378  1.00  0.00     0.000 C 
BRANCH  10  11
ATOM     11  C   UNL     1      -7.651  -8.316  -6.249  1.00  0.00    -0.000 C 
BRANCH  11  12
ATOM     12  C   UNL     1      -9.183  -8.310  -6.192  1.00  0.00    -0.000 C 
BRANCH  12  13
ATOM     13  C   UNL     1      -9.746  -6.946  -6.612  1.00  0.00    -0.000 C 
BRANCH  13  14
ATOM     14  C   UNL     1      -9.558  -6.716  -8.119  1.00  0.00    -0.000 C 
BRANCH  14  15
ATOM     15  C   UNL     1      -9.802  -5.255  -8.527  1.00  0.00    -0.003 C 
ATOM     16  C   UNL     1      -9.699  -4.286  -7.349  1.00  0.00     0.004 C 
ENDBRANCH  14  15
ENDBRANCH  13  14
ENDBRANCH  12  13
ENDBRANCH  11  12
ENDBRANCH  10  11
ENDBRANCH   1  10
TORSDOF 12
ENDMDL
MODEL 2
REMARK VINA RESULT:    -3.112      2.686      5.546
REMARK INTER + INTRA:          -6.594
REMARK INTER:                  -4.784
REMARK INTRA:                  -1.811
REMARK UNBOUND:                -1.299
REMARK SMILES CCCCCCCCCCCCCC(=O)[O-]
REMARK SMILES IDX 8 1 9 2 10 3 11 4 12 5 13 6 14 7 15 8 16 9 7 10 6 11 5 12
REMARK SMILES IDX 4 13 3 14 2 15 1 16
REMARK H PARENT
REMARK Flexibility Score: inf
ROOT
ATOM      1  C   UNL     1      -5.957 -10.099  -6.006  1.00  0.00     0.000 C 
ENDROOT
BRANCH   1   2
ATOM      2  C   UNL     1      -6.958 -10.032  -4.840  1.00  0.00     0.000 C 
BRANCH   2   3
ATOM      3  C   UNL     1      -8.411  -9.765  -5.285  1.00  0.00     0.000 C 
BRANCH   3   4
ATOM      4  C   UNL     1      -8.511  -9.462  -6.788  1.00  0.00     0.000 C 
BRANCH   4   5
ATOM      5  C   UNL     1      -9.567  -8.385  -7.064  1.00  0.00     0.006 C 
BRANCH   5   6
ATOM      6  C   UNL     1      -9.479  -7.253  -6.038  1.00  0.00     0.053 C 
BRANCH   6   7
ATOM      7  C   UNL     1      -9.545  -5.922  -6.719  1.00  0.00     0.041 C 
ATOM      8  O   UNL     1     -10.001  -4.920  -6.109  1.00  0.00    -0.550 OA
ATOM      9  O   UNL     1      -9.054  -5.778  -8.011  1.00  0.00    -0.550 OA
ENDBRANCH   6   7
ENDBRANCH   5   6
ENDBRANCH   4   5
ENDBRANCH   3   4
ENDBRANCH   2   3
ENDBRANCH   1   2
BRANCH   1  10
ATOM     10  C   UNL     1      -4.495 -10.063  -5.541  1.00  0.00     0.000 C 
BRANCH  10  11
ATOM     11  C   UNL     1      -3.558  -9.704  -6.700  1.00  0.00    -0.000 C 
BRANCH  11  12
ATOM     12  C   UNL     1      -4.313  -9.688  -8.033  1.00  0.00    -0.000 C 
BRANCH  12  13
ATOM     13  C   UNL     1      -4.013  -8.407  -8.823  1.00  0.00    -0.000 C 
BRANCH  13  14
ATOM     14  C   UNL     1      -4.075  -7.173  -7.910  1.00  0.00    -0.000 C 
BRANCH  14  15
ATOM     15  C   UNL     1      -5.513  -6.694  -7.664  1.00  0.00    -0.003 C 
ATOM     16  C   UNL     1      -5.854  -6.584  -6.177  1.00  0.00     0.004 C 
ENDBRANCH  14  15
ENDBRANCH  13  14
ENDBRANCH  12  13
ENDBRANCH  11  12
ENDBRANCH  10  11
ENDBRANCH   1  10
TORSDOF 12
ENDMDL
MODEL 3
REMARK VINA RESULT:    -2.825      1.389      2.080
REMARK INTER + INTRA:          -6.106
REMARK INTER:                  -4.910
REMARK INTRA:                  -1.196
REMARK UNBOUND:                -1.299
REMARK SMILES CCCCCCCCCCCCCC(=O)[O-]
REMARK SMILES IDX 8 1 9 2 10 3 11 4 12 5 13 6 14 7 15 8 16 9 7 10 6 11 5 12
REMARK SMILES IDX 4 13 3 14 2 15 1 16
REMARK H PARENT
REMARK Flexibility Score: inf
ROOT
ATOM      1  C   UNL     1      -7.013  -8.790  -5.317  1.00  0.00     0.000 C 
ENDROOT
BRANCH   1   2
ATOM      2  C   UNL     1      -6.574  -7.619  -6.213  1.00  0.00     0.000 C 
BRANCH   2   3
ATOM      3  C   UNL     1      -5.070  -7.634  -6.560  1.00  0.00     0.000 C 
BRANCH   3   4
ATOM      4  C   UNL     1      -4.770  -6.893  -7.872  1.00  0.00     0.000 C 
BRANCH   4   5
ATOM      5  C   UNL     1      -5.232  -7.709  -9.085  1.00  0.00     0.006 C 
BRANCH   5   6
ATOM      6  C   UNL     1      -5.020  -9.207  -8.853  1.00  0.00     0.053 C 
BRANCH   6   7
ATOM      7  C   UNL     1      -3.576  -9.564  -9.019  1.00  0.00     0.041 C 
ATOM      8  O   UNL     1      -2.983  -9.318 -10.102  1.00  0.00    -0.550 OA
ATOM      9  O   UNL     1      -2.872 -10.124  -7.960  1.00  0.00    -0.550 OA
ENDBRANCH   6   7
ENDBRANCH   5   6
ENDBRANCH   4   5
ENDBRANCH   3   4
ENDBRANCH   2   3
ENDBRANCH   1   2
BRANCH   1  10
ATOM     10  C   UNL     1      -7.669  -9.931  -6.106  1.00  0.00     0.000 C 
BRANCH  10  11
ATOM     11  C   UNL     1      -8.454  -9.391  -7.306  1.00  0.00    -0.000 C 
BRANCH  11  12
ATOM     12  C   UNL     1      -9.819  -8.845  -6.869  1.00  0.00    -0.000 C 
BRANCH  12  13
ATOM     13  C   UNL     1     -10.125  -7.509  -7.558  1.00  0.00    -0.000 C 
BRANCH  13  14
ATOM     14  C   UNL     1     -10.106  -6.353  -6.546  1.00  0.00    -0.000 C 
BRANCH  14  15
ATOM     15  C   UNL     1      -9.293  -5.148  -7.042  1.00  0.00    -0.003 C 
ATOM     16  C   UNL     1     -10.123  -4.182  -7.888  1.00  0.00     0.004 C 
ENDBRANCH  14  15
ENDBRANCH  13  14
ENDBRANCH  12  13
ENDBRANCH  11  12
ENDBRANCH  10  11
ENDBRANCH   1  10
TORSDOF 12
ENDMDL
MODEL 4
REMARK VINA RESULT:    -2.535      3.106      5.727
REMARK INTER + INTRA:          -5.612
REMARK INTER:                  -4.464
REMARK INTRA:                  -1.149
REMARK UNBOUND:                -1.299
REMARK SMILES CCCCCCCCCCCCCC(=O)[O-]
REMARK SMILES IDX 8 1 9 2 10 3 11 4 12 5 13 6 14 7 15 8 16 9 7 10 6 11 5 12
REMARK SMILES IDX 4 13 3 14 2 15 1 16
REMARK H PARENT
REMARK Flexibility Score: inf
ROOT
ATOM      1  C   UNL     1      -6.333  -7.795  -6.011  1.00  0.00     0.000 C 
ENDROOT
BRANCH   1   2
ATOM      2  C   UNL     1      -7.786  -7.291  -5.963  1.00  0.00     0.000 C 
BRANCH   2   3
ATOM      3  C   UNL     1      -8.798  -8.259  -6.610  1.00  0.00     0.000 C 
BRANCH   3   4
ATOM      4  C   UNL     1      -8.903  -8.059  -8.130  1.00  0.00     0.000 C 
BRANCH   4   5
ATOM      5  C   UNL     1      -8.767  -6.577  -8.502  1.00  0.00     0.006 C 
BRANCH   5   6
ATOM      6  C   UNL     1     -10.125  -5.872  -8.453  1.00  0.00     0.053 C 
BRANCH   6   7
ATOM      7  C   UNL     1      -9.988  -4.514  -7.840  1.00  0.00     0.041 C 
ATOM      8  O   UNL     1      -9.964  -4.383  -6.588  1.00  0.00    -0.550 OA
ATOM      9  O   UNL     1      -9.837  -3.396  -8.652  1.00  0.00    -0.550 OA
ENDBRANCH   6   7
ENDBRANCH   5   6
ENDBRANCH   4   5
ENDBRANCH   3   4
ENDBRANCH   2   3
ENDBRANCH   1   2
BRANCH   1  10
ATOM     10  C   UNL     1      -6.127  -9.099  -5.228  1.00  0.00     0.000 C 
BRANCH  10  11
ATOM     11  C   UNL     1      -5.143 -10.025  -5.951  1.00  0.00    -0.000 C 
BRANCH  11  12
ATOM     12  C   UNL     1      -5.276  -9.889  -7.472  1.00  0.00    -0.000 C 
BRANCH  12  13
ATOM     13  C   UNL     1      -3.902  -9.715  -8.133  1.00  0.00    -0.000 C 
BRANCH  13  14
ATOM     14  C   UNL     1      -3.704  -8.271  -8.616  1.00  0.00    -0.000 C 
BRANCH  14  15
ATOM     15  C   UNL     1      -5.034  -7.525  -8.807  1.00  0.00    -0.003 C 
ATOM     16  C   UNL     1      -5.729  -7.881 -10.121  1.00  0.00     0.004 C 
ENDBRANCH  14  15
ENDBRANCH  13  14
ENDBRANCH  12  13
ENDBRANCH  11  12
ENDBRANCH  10  11
ENDBRANCH   1  10
TORSDOF 12
ENDMDL
MODEL 5
REMARK VINA RESULT:    -2.111      1.529      2.320
REMARK INTER + INTRA:          -4.891
REMARK INTER:                  -3.316
REMARK INTRA:                  -1.574
REMARK UNBOUND:                -1.299
REMARK SMILES CCCCCCCCCCCCCC(=O)[O-]
REMARK SMILES IDX 8 1 9 2 10 3 11 4 12 5 13 6 14 7 15 8 16 9 7 10 6 11 5 12
REMARK SMILES IDX 4 13 3 14 2 15 1 16
REMARK H PARENT
REMARK Flexibility Score: inf
ROOT
ATOM      1  C   UNL     1      -5.986  -6.142  -7.188  1.00  0.00     0.000 C 
ENDROOT
BRANCH   1   2
ATOM      2  C   UNL     1      -5.384  -6.892  -8.389  1.00  0.00     0.000 C 
BRANCH   2   3
ATOM      3  C   UNL     1      -4.033  -7.572  -8.080  1.00  0.00     0.000 C 
BRANCH   3   4
ATOM      4  C   UNL     1      -3.836  -8.864  -8.887  1.00  0.00     0.000 C 
BRANCH   4   5
ATOM      5  C   UNL     1      -3.762 -10.085  -7.963  1.00  0.00     0.006 C 
BRANCH   5   6
ATOM      6  C   UNL     1      -4.956 -10.123  -7.006  1.00  0.00     0.053 C 
BRANCH   6   7
ATOM      7  C   UNL     1      -4.491 -10.080  -5.585  1.00  0.00     0.041 C 
ATOM      8  O   UNL     1      -3.262 -10.124  -5.318  1.00  0.00    -0.550 OA
ATOM      9  O   UNL     1      -5.414  -9.940  -4.555  1.00  0.00    -0.550 OA
ENDBRANCH   6   7
ENDBRANCH   5   6
ENDBRANCH   4   5
ENDBRANCH   3   4
ENDBRANCH   2   3
ENDBRANCH   1   2
BRANCH   1  10
ATOM     10  C   UNL     1      -7.467  -6.472  -6.958  1.00  0.00     0.000 C 
BRANCH  10  11
ATOM     11  C   UNL     1      -7.638  -7.442  -5.784  1.00  0.00    -0.000 C 
BRANCH  11  12
ATOM     12  C   UNL     1      -8.656  -8.538  -6.120  1.00  0.00    -0.000 C 
BRANCH  12  13
ATOM     13  C   UNL     1      -9.711  -8.027  -7.109  1.00  0.00    -0.000 C 
BRANCH  13  14
ATOM     14  C   UNL     1      -9.857  -8.985  -8.301  1.00  0.00    -0.000 C 
BRANCH  14  15
ATOM     15  C   UNL     1      -8.724 -10.022  -8.366  1.00  0.00    -0.003 C 
ATOM     16  C   UNL     1      -7.616  -9.627  -9.342  1.00  0.00     0.004 C 
ENDBRANCH  14  15
ENDBRANCH  13  14
ENDBRANCH  12  13
ENDBRANCH  11  12
ENDBRANCH  10  11
ENDBRANCH   1  10
TORSDOF 12
ENDMDL
MODEL 6
REMARK VINA RESULT:    -2.024      2.018      2.752
REMARK INTER + INTRA:          -4.743
REMARK INTER:                  -3.246
REMARK INTRA:                  -1.497
REMARK UNBOUND:                -1.299
REMARK SMILES CCCCCCCCCCCCCC(=O)[O-]
REMARK SMILES IDX 8 1 9 2 10 3 11 4 12 5 13 6 14 7 15 8 16 9 7 10 6 11 5 12
REMARK SMILES IDX 4 13 3 14 2 15 1 16
REMARK H PARENT
REMARK Flexibility Score: inf
ROOT
ATOM      1  C   UNL     1      -6.839  -6.356  -6.475  1.00  0.00     0.000 C 
ENDROOT
BRANCH   1   2
ATOM      2  C   UNL     1      -5.923  -7.296  -7.278  1.00  0.00     0.000 C 
BRANCH   2   3
ATOM      3  C   UNL     1      -5.072  -8.233  -6.395  1.00  0.00     0.000 C 
BRANCH   3   4
ATOM      4  C   UNL     1      -4.665  -9.516  -7.136  1.00  0.00     0.000 C 
BRANCH   4   5
ATOM      5  C   UNL     1      -5.661  -9.849  -8.253  1.00  0.00     0.006 C 
BRANCH   5   6
ATOM      6  C   UNL     1      -4.982  -9.812  -9.624  1.00  0.00     0.053 C 
BRANCH   6   7
ATOM      7  C   UNL     1      -3.577  -9.312  -9.500  1.00  0.00     0.041 C 
ATOM      8  O   UNL     1      -2.618 -10.124  -9.435  1.00  0.00    -0.550 OA
ATOM      9  O   UNL     1      -3.323  -7.945  -9.507  1.00  0.00    -0.550 OA
ENDBRANCH   6   7
ENDBRANCH   5   6
ENDBRANCH   4   5
ENDBRANCH   3   4
ENDBRANCH   2   3
ENDBRANCH   1   2
BRANCH   1  10
ATOM     10  C   UNL     1      -8.326  -6.705  -6.618  1.00  0.00     0.000 C 
BRANCH  10  11
ATOM     11  C   UNL     1      -8.698  -7.900  -5.733  1.00  0.00    -0.000 C 
BRANCH  11  12
ATOM     12  C   UNL     1      -9.071  -9.119  -6.583  1.00  0.00    -0.000 C 
BRANCH  12  13
ATOM     13  C   UNL     1      -9.763  -8.694  -7.885  1.00  0.00    -0.000 C 
BRANCH  13  14
ATOM     14  C   UNL     1      -9.544  -9.738  -8.989  1.00  0.00    -0.000 C 
BRANCH  14  15
ATOM     15  C   UNL     1      -8.649  -9.217 -10.125  1.00  0.00    -0.003 C 
ATOM     16  C   UNL     1      -8.506  -7.695 -10.113  1.00  0.00     0.004 C 
ENDBRANCH  14  15
ENDBRANCH  13  14
ENDBRANCH  12  13
ENDBRANCH  11  12
ENDBRANCH  10  11
ENDBRANCH   1  10
TORSDOF 12
ENDMDL
MODEL 7
REMARK VINA RESULT:    -1.200      2.126      4.483
REMARK INTER + INTRA:          -3.342
REMARK INTER:                  -3.075
REMARK INTRA:                  -0.267
REMARK UNBOUND:                -1.299
REMARK SMILES CCCCCCCCCCCCCC(=O)[O-]
REMARK SMILES IDX 8 1 9 2 10 3 11 4 12 5 13 6 14 7 15 8 16 9 7 10 6 11 5 12
REMARK SMILES IDX 4 13 3 14 2 15 1 16
REMARK H PARENT
REMARK Flexibility Score: inf
ROOT
ATOM      1  C   UNL     1      -5.182  -5.864  -6.802  1.00  0.00     0.000 C 
ENDROOT
BRANCH   1   2
ATOM      2  C   UNL     1      -6.036  -6.140  -5.554  1.00  0.00     0.000 C 
BRANCH   2   3
ATOM      3  C   UNL     1      -7.177  -7.151  -5.795  1.00  0.00     0.000 C 
BRANCH   3   4
ATOM      4  C   UNL     1      -8.421  -6.488  -6.406  1.00  0.00     0.000 C 
BRANCH   4   5
ATOM      5  C   UNL     1      -9.707  -7.081  -5.818  1.00  0.00     0.006 C 
BRANCH   5   6
ATOM      6  C   UNL     1      -9.965  -8.486  -6.367  1.00  0.00     0.053 C 
BRANCH   6   7
ATOM      7  C   UNL     1      -9.247  -9.510  -5.546  1.00  0.00     0.041 C 
ATOM      8  O   UNL     1      -9.700  -9.853  -4.423  1.00  0.00    -0.550 OA
ATOM      9  O   UNL     1      -8.104 -10.125  -6.044  1.00  0.00    -0.550 OA
ENDBRANCH   6   7
ENDBRANCH   5   6
ENDBRANCH   4   5
ENDBRANCH   3   4
ENDBRANCH   2   3
ENDBRANCH   1   2
BRANCH   1  10
ATOM     10  C   UNL     1      -4.478  -7.119  -7.336  1.00  0.00     0.000 C 
BRANCH  10  11
ATOM     11  C   UNL     1      -5.497  -8.148  -7.840  1.00  0.00    -0.000 C 
BRANCH  11  12
ATOM     12  C   UNL     1      -5.167  -8.592  -9.270  1.00  0.00    -0.000 C 
BRANCH  12  13
ATOM     13  C   UNL     1      -6.437  -8.689 -10.125  1.00  0.00    -0.000 C 
BRANCH  13  14
ATOM     14  C   UNL     1      -7.684  -8.836  -9.240  1.00  0.00    -0.000 C 
BRANCH  14  15
ATOM     15  C   UNL     1      -8.990  -8.606 -10.017  1.00  0.00    -0.003 C 
ATOM     16  C   UNL     1      -9.475  -7.158  -9.943  1.00  0.00     0.004 C 
ENDBRANCH  14  15
ENDBRANCH  13  14
ENDBRANCH  12  13
ENDBRANCH  11  12
ENDBRANCH  10  11
ENDBRANCH   1  10
TORSDOF 12
ENDMDL
MODEL 8
REMARK VINA RESULT:    -1.029      1.677      3.095
REMARK INTER + INTRA:          -3.050
REMARK INTER:                  -2.318
REMARK INTRA:                  -0.732
REMARK UNBOUND:                -1.299
REMARK SMILES CCCCCCCCCCCCCC(=O)[O-]
REMARK SMILES IDX 8 1 9 2 10 3 11 4 12 5 13 6 14 7 15 8 16 9 7 10 6 11 5 12
REMARK SMILES IDX 4 13 3 14 2 15 1 16
REMARK H PARENT
REMARK Flexibility Score: inf
ROOT
ATOM      1  C   UNL     1      -7.857  -6.656  -7.885  1.00  0.00     0.000 C 
ENDROOT
BRANCH   1   2
ATOM      2  C   UNL     1      -7.320  -7.082  -9.263  1.00  0.00     0.000 C 
BRANCH   2   3
ATOM      3  C   UNL     1      -6.598  -8.445  -9.251  1.00  0.00     0.000 C 
BRANCH   3   4
ATOM      4  C   UNL     1      -5.312  -8.428 -10.092  1.00  0.00     0.000 C 
BRANCH   4   5
ATOM      5  C   UNL     1      -4.631  -9.802 -10.086  1.00  0.00     0.006 C 
BRANCH   5   6
ATOM      6  C   UNL     1      -3.386  -9.794  -9.196  1.00  0.00     0.053 C 
BRANCH   6   7
ATOM      7  C   UNL     1      -3.744  -9.401  -7.798  1.00  0.00     0.041 C 
ATOM      8  O   UNL     1      -3.215  -8.389  -7.268  1.00  0.00    -0.550 OA
ATOM      9  O   UNL     1      -4.701 -10.125  -7.096  1.00  0.00    -0.550 OA
ENDBRANCH   6   7
ENDBRANCH   5   6
ENDBRANCH   4   5
ENDBRANCH   3   4
ENDBRANCH   2   3
ENDBRANCH   1   2
BRANCH   1  10
ATOM     10  C   UNL     1      -9.370  -6.394  -7.888  1.00  0.00     0.000 C 
BRANCH  10  11
ATOM     11  C   UNL     1     -10.124  -7.523  -7.177  1.00  0.00    -0.000 C 
BRANCH  11  12
ATOM     12  C   UNL     1      -9.904  -8.864  -7.887  1.00  0.00    -0.000 C 
BRANCH  12  13
ATOM     13  C   UNL     1      -9.790 -10.011  -6.874  1.00  0.00    -0.000 C 
BRANCH  13  14
ATOM     14  C   UNL     1      -9.852  -9.481  -5.434  1.00  0.00    -0.000 C 
BRANCH  14  15
ATOM     15  C   UNL     1      -8.549  -9.729  -4.658  1.00  0.00    -0.003 C 
ATOM     16  C   UNL     1      -7.300  -9.437  -5.490  1.00  0.00     0.004 C 
ENDBRANCH  14  15
ENDBRANCH  13  14
ENDBRANCH  12  13
ENDBRANCH  11  12
ENDBRANCH  10  11
ENDBRANCH   1  10
TORSDOF 12
ENDMDL
MODEL 9
REMARK VINA RESULT:    -0.925      1.623      3.050
REMARK INTER + INTRA:          -2.873
REMARK INTER:                  -1.628
REMARK INTRA:                  -1.244
REMARK UNBOUND:                -1.299
REMARK SMILES CCCCCCCCCCCCCC(=O)[O-]
REMARK SMILES IDX 8 1 9 2 10 3 11 4 12 5 13 6 14 7 15 8 16 9 7 10 6 11 5 12
REMARK SMILES IDX 4 13 3 14 2 15 1 16
REMARK H PARENT
REMARK Flexibility Score: inf
ROOT
ATOM      1  C   UNL     1      -6.218  -6.252  -5.669  1.00  0.00     0.000 C 
ENDROOT
BRANCH   1   2
ATOM      2  C   UNL     1      -5.398  -6.639  -6.912  1.00  0.00     0.000 C 
BRANCH   2   3
ATOM      3  C   UNL     1      -5.526  -8.127  -7.300  1.00  0.00     0.000 C 
BRANCH   3   4
ATOM      4  C   UNL     1      -5.501  -8.334  -8.822  1.00  0.00     0.000 C 
BRANCH   4   5
ATOM      5  C   UNL     1      -5.450  -9.825  -9.175  1.00  0.00     0.006 C 
BRANCH   5   6
ATOM      6  C   UNL     1      -4.287 -10.125 -10.125  1.00  0.00     0.053 C 
BRANCH   6   7
ATOM      7  C   UNL     1      -2.984 -10.077  -9.390  1.00  0.00     0.041 C 
ATOM      8  O   UNL     1      -2.964 -10.097  -8.132  1.00  0.00    -0.550 OA
ATOM      9  O   UNL     1      -1.788 -10.062 -10.098  1.00  0.00    -0.550 OA
ENDBRANCH   6   7
ENDBRANCH   5   6
ENDBRANCH   4   5
ENDBRANCH   3   4
ENDBRANCH   2   3
ENDBRANCH   1   2
BRANCH   1  10
ATOM     10  C   UNL     1      -7.468  -5.430  -6.010  1.00  0.00     0.000 C 
BRANCH  10  11
ATOM     11  C   UNL     1      -8.740  -6.272  -5.857  1.00  0.00    -0.000 C 
BRANCH  11  12
ATOM     12  C   UNL     1      -9.339  -6.616  -7.225  1.00  0.00    -0.000 C 
BRANCH  12  13
ATOM     13  C   UNL     1      -9.199  -8.114  -7.528  1.00  0.00    -0.000 C 
BRANCH  13  14
ATOM     14  C   UNL     1      -9.227  -8.940  -6.233  1.00  0.00    -0.000 C 
BRANCH  14  15
ATOM     15  C   UNL     1      -8.025  -9.889  -6.113  1.00  0.00    -0.003 C 
ATOM     16  C   UNL     1      -7.199  -9.641  -4.851  1.00  0.00     0.004 C 
ENDBRANCH  14  15
ENDBRANCH  13  14
ENDBRANCH  12  13
ENDBRANCH  11  12
ENDBRANCH  10  11
ENDBRANCH   1  10
TORSDOF 12
ENDMDL
