MODEL 1
REMARK VINA RESULT:    -4.419      0.000      0.000
REMARK INTER + INTRA:          -5.166
REMARK INTER:                  -5.065
REMARK INTRA:                  -0.101
REMARK UNBOUND:                -0.101
REMARK SMILES COc1ccc(C(C)=O)cc1O
REMARK SMILES IDX 6 1 10 2 11 3 3 4 4 5 5 6 7 7 8 8 9 9 12 10 2 12 1 13
REMARK H PARENT 12 11
REMARK Flexibility Score: inf
ROOT
ATOM      1  C   UNL     1       0.302  26.969  54.209  1.00  0.00     0.021 A 
ATOM      2  C   UNL     1       0.502  28.342  53.970  1.00  0.00     0.062 A 
ATOM      3  C   UNL     1      -0.152  28.990  52.914  1.00  0.00     0.158 A 
ATOM      4  C   UNL     1      -1.021  28.273  52.075  1.00  0.00     0.160 A 
ATOM      5  C   UNL     1      -1.224  26.901  52.310  1.00  0.00     0.051 A 
ATOM      6  C   UNL     1      -0.570  26.259  53.365  1.00  0.00     0.016 A 
ENDROOT
BRANCH   1   7
ATOM      7  C   UNL     1       0.990  26.269  55.328  1.00  0.00     0.159 C 
ATOM      8  C   UNL     1       0.416  25.039  55.965  1.00  0.00     0.093 C 
ATOM      9  O   UNL     1       2.086  26.713  55.763  1.00  0.00    -0.295 OA
ENDBRANCH   1   7
BRANCH   3  10
ATOM     10  O   UNL     1       0.078  30.352  52.718  1.00  0.00    -0.504 OA
ATOM     11  H   UNL     1       0.129  31.008  53.487  1.00  0.00     0.293 HD
ENDBRANCH   3  10
BRANCH   4  12
ATOM     12  O   UNL     1      -1.662  28.950  51.024  1.00  0.00    -0.493 OA
ATOM     13  C   UNL     1      -1.088  29.178  49.742  1.00  0.00     0.278 C 
ENDBRANCH   4  12
TORSDOF 3
ENDMDL
MODEL 2
REMARK VINA RESULT:    -4.163      2.006      4.984
REMARK INTER + INTRA:          -4.872
REMARK INTER:                  -4.773
REMARK INTRA:                  -0.098
REMARK UNBOUND:                -0.101
REMARK SMILES COc1ccc(C(C)=O)cc1O
REMARK SMILES IDX 6 1 10 2 11 3 3 4 4 5 5 6 7 7 8 8 9 9 12 10 2 12 1 13
REMARK H PARENT 12 11
REMARK Flexibility Score: inf
ROOT
ATOM      1  C   UNL     1      -0.495  28.851  53.462  1.00  0.00     0.021 A 
ATOM      2  C   UNL     1      -1.560  28.599  54.348  1.00  0.00     0.062 A 
ATOM      3  C   UNL     1      -1.430  27.661  55.379  1.00  0.00     0.158 A 
ATOM      4  C   UNL     1      -0.226  26.955  55.544  1.00  0.00     0.160 A 
ATOM      5  C   UNL     1       0.841  27.204  54.661  1.00  0.00     0.051 A 
ATOM      6  C   UNL     1       0.706  28.141  53.634  1.00  0.00     0.016 A 
ENDROOT
BRANCH   1   7
ATOM      7  C   UNL     1      -0.621  29.846  52.362  1.00  0.00     0.159 C 
ATOM      8  C   UNL     1      -0.439  31.316  52.598  1.00  0.00     0.093 C 
ATOM      9  O   UNL     1      -0.891  29.456  51.195  1.00  0.00    -0.295 OA
ENDBRANCH   1   7
BRANCH   3  10
ATOM     10  O   UNL     1      -2.513  27.445  56.231  1.00  0.00    -0.504 OA
ATOM     11  H   UNL     1      -3.362  27.994  56.175  1.00  0.00     0.293 HD
ENDBRANCH   3  10
BRANCH   4  12
ATOM     12  O   UNL     1      -0.124  26.020  56.587  1.00  0.00    -0.493 OA
ATOM     13  C   UNL     1       0.549  24.769  56.488  1.00  0.00     0.278 C 
ENDBRANCH   4  12
TORSDOF 3
ENDMDL
MODEL 3
REMARK VINA RESULT:    -4.157      1.583      1.738
REMARK INTER + INTRA:          -4.865
REMARK INTER:                  -4.733
REMARK INTRA:                  -0.132
REMARK UNBOUND:                -0.101
REMARK SMILES COc1ccc(C(C)=O)cc1O
REMARK SMILES IDX 6 1 10 2 11 3 3 4 4 5 5 6 7 7 8 8 9 9 12 10 2 12 1 13
REMARK H PARENT 12 11
REMARK Flexibility Score: inf
ROOT
ATOM      1  C   UNL     1       0.158  27.461  54.780  1.00  0.00     0.021 A 
ATOM      2  C   UNL     1       0.768  28.137  53.706  1.00  0.00     0.062 A 
ATOM      3  C   UNL     1       0.038  29.030  52.912  1.00  0.00     0.158 A 
ATOM      4  C   UNL     1      -1.321  29.264  53.179  1.00  0.00     0.160 A 
ATOM      5  C   UNL     1      -1.935  28.590  54.251  1.00  0.00     0.051 A 
ATOM      6  C   UNL     1      -1.202  27.701  55.041  1.00  0.00     0.016 A 
ENDROOT
BRANCH   1   7
ATOM      7  C   UNL     1       0.923  26.510  55.632  1.00  0.00     0.159 C 
ATOM      8  C   UNL     1       0.284  25.294  56.233  1.00  0.00     0.093 C 
ATOM      9  O   UNL     1       2.143  26.722  55.865  1.00  0.00    -0.295 OA
ENDBRANCH   1   7
BRANCH   3  10
ATOM     10  O   UNL     1       0.686  29.675  51.859  1.00  0.00    -0.504 OA
ATOM     11  H   UNL     1       0.638  29.337  50.905  1.00  0.00     0.293 HD
ENDBRANCH   3  10
BRANCH   4  12
ATOM     12  O   UNL     1      -2.028  30.164  52.364  1.00  0.00    -0.493 OA
ATOM     13  C   UNL     1      -2.225  31.541  52.666  1.00  0.00     0.278 C 
ENDBRANCH   4  12
TORSDOF 3
ENDMDL
MODEL 4
REMARK VINA RESULT:    -4.149      1.515      4.830
REMARK INTER + INTRA:          -4.856
REMARK INTER:                  -4.752
REMARK INTRA:                  -0.104
REMARK UNBOUND:                -0.101
REMARK SMILES COc1ccc(C(C)=O)cc1O
REMARK SMILES IDX 6 1 10 2 11 3 3 4 4 5 5 6 7 7 8 8 9 9 12 10 2 12 1 13
REMARK H PARENT 12 11
REMARK Flexibility Score: inf
ROOT
ATOM      1  C   UNL     1      -0.161  28.662  53.404  1.00  0.00     0.021 A 
ATOM      2  C   UNL     1       1.103  28.074  53.600  1.00  0.00     0.062 A 
ATOM      3  C   UNL     1       1.315  27.152  54.633  1.00  0.00     0.158 A 
ATOM      4  C   UNL     1       0.260  26.801  55.493  1.00  0.00     0.160 A 
ATOM      5  C   UNL     1      -1.005  27.386  55.301  1.00  0.00     0.051 A 
ATOM      6  C   UNL     1      -1.211  28.304  54.269  1.00  0.00     0.016 A 
ENDROOT
BRANCH   1   7
ATOM      7  C   UNL     1      -0.399  29.642  52.310  1.00  0.00     0.159 C 
ATOM      8  C   UNL     1      -0.942  29.225  50.976  1.00  0.00     0.093 C 
ATOM      9  O   UNL     1      -0.139  30.861  52.495  1.00  0.00    -0.295 OA
ENDBRANCH   1   7
BRANCH   3  10
ATOM     10  O   UNL     1       2.584  26.597  54.787  1.00  0.00    -0.504 OA
ATOM     11  H   UNL     1       2.725  25.659  55.142  1.00  0.00     0.293 HD
ENDBRANCH   3  10
BRANCH   4  12
ATOM     12  O   UNL     1       0.502  25.874  56.520  1.00  0.00    -0.493 OA
ATOM     13  C   UNL     1       0.348  24.465  56.390  1.00  0.00     0.278 C 
ENDBRANCH   4  12
TORSDOF 3
ENDMDL
MODEL 5
REMARK VINA RESULT:    -4.085      1.671      4.440
REMARK INTER + INTRA:          -4.782
REMARK INTER:                  -4.661
REMARK INTRA:                  -0.121
REMARK UNBOUND:                -0.101
REMARK SMILES COc1ccc(C(C)=O)cc1O
REMARK SMILES IDX 6 1 10 2 11 3 3 4 4 5 5 6 7 7 8 8 9 9 12 10 2 12 1 13
REMARK H PARENT 12 11
REMARK Flexibility Score: inf
ROOT
ATOM      1  C   UNL     1      -2.268  27.478  52.195  1.00  0.00     0.021 A 
ATOM      2  C   UNL     1      -1.636  28.711  52.448  1.00  0.00     0.062 A 
ATOM      3  C   UNL     1      -0.387  28.762  53.079  1.00  0.00     0.158 A 
ATOM      4  C   UNL     1       0.257  27.575  53.468  1.00  0.00     0.160 A 
ATOM      5  C   UNL     1      -0.370  26.341  53.216  1.00  0.00     0.051 A 
ATOM      6  C   UNL     1      -1.617  26.295  52.587  1.00  0.00     0.016 A 
ENDROOT
BRANCH   1   7
ATOM      7  C   UNL     1      -3.595  27.410  51.525  1.00  0.00     0.159 C 
ATOM      8  C   UNL     1      -4.582  26.324  51.830  1.00  0.00     0.093 C 
ATOM      9  O   UNL     1      -3.911  28.284  50.673  1.00  0.00    -0.295 OA
ENDBRANCH   1   7
BRANCH   3  10
ATOM     10  O   UNL     1       0.198  30.007  53.309  1.00  0.00    -0.504 OA
ATOM     11  H   UNL     1      -0.106  30.844  52.827  1.00  0.00     0.293 HD
ENDBRANCH   3  10
BRANCH   4  12
ATOM     12  O   UNL     1       1.509  27.658  54.099  1.00  0.00    -0.493 OA
ATOM     13  C   UNL     1       1.874  26.931  55.267  1.00  0.00     0.278 C 
ENDBRANCH   4  12
TORSDOF 3
ENDMDL
MODEL 6
REMARK VINA RESULT:    -4.054      1.261      4.750
REMARK INTER + INTRA:          -4.747
REMARK INTER:                  -4.650
REMARK INTRA:                  -0.097
REMARK UNBOUND:                -0.101
REMARK SMILES COc1ccc(C(C)=O)cc1O
REMARK SMILES IDX 6 1 10 2 11 3 3 4 4 5 5 6 7 7 8 8 9 9 12 10 2 12 1 13
REMARK H PARENT 12 11
REMARK Flexibility Score: inf
ROOT
ATOM      1  C   UNL     1      -1.125  28.463  51.924  1.00  0.00     0.021 A 
ATOM      2  C   UNL     1      -0.068  28.875  52.758  1.00  0.00     0.062 A 
ATOM      3  C   UNL     1       0.571  27.965  53.610  1.00  0.00     0.158 A 
ATOM      4  C   UNL     1       0.163  26.621  53.641  1.00  0.00     0.160 A 
ATOM      5  C   UNL     1      -0.892  26.205  52.809  1.00  0.00     0.051 A 
ATOM      6  C   UNL     1      -1.527  27.116  51.961  1.00  0.00     0.016 A 
ENDROOT
BRANCH   1   7
ATOM      7  C   UNL     1      -1.812  29.420  51.014  1.00  0.00     0.159 C 
ATOM      8  C   UNL     1      -1.368  29.625  49.597  1.00  0.00     0.093 C 
ATOM      9  O   UNL     1      -2.796  30.086  51.435  1.00  0.00    -0.295 OA
ENDBRANCH   1   7
BRANCH   3  10
ATOM     10  O   UNL     1       1.612  28.420  54.418  1.00  0.00    -0.504 OA
ATOM     11  H   UNL     1       1.791  29.406  54.566  1.00  0.00     0.293 HD
ENDBRANCH   3  10
BRANCH   4  12
ATOM     12  O   UNL     1       0.822  25.731  54.505  1.00  0.00    -0.493 OA
ATOM     13  C   UNL     1       0.455  25.500  55.861  1.00  0.00     0.278 C 
ENDBRANCH   4  12
TORSDOF 3
ENDMDL
MODEL 7
REMARK VINA RESULT:    -4.027      1.167      2.131
REMARK INTER + INTRA:          -4.716
REMARK INTER:                  -4.622
REMARK INTRA:                  -0.094
REMARK UNBOUND:                -0.101
REMARK SMILES COc1ccc(C(C)=O)cc1O
REMARK SMILES IDX 6 1 10 2 11 3 3 4 4 5 5 6 7 7 8 8 9 9 12 10 2 12 1 13
REMARK H PARENT 12 11
REMARK Flexibility Score: inf
ROOT
ATOM      1  C   UNL     1       0.153  27.133  53.982  1.00  0.00     0.021 A 
ATOM      2  C   UNL     1      -0.563  26.211  53.194  1.00  0.00     0.062 A 
ATOM      3  C   UNL     1      -1.274  26.633  52.064  1.00  0.00     0.158 A 
ATOM      4  C   UNL     1      -1.282  27.990  51.699  1.00  0.00     0.160 A 
ATOM      5  C   UNL     1      -0.568  28.914  52.484  1.00  0.00     0.051 A 
ATOM      6  C   UNL     1       0.140  28.489  53.610  1.00  0.00     0.016 A 
ENDROOT
BRANCH   1   7
ATOM      7  C   UNL     1       0.913  26.697  55.185  1.00  0.00     0.159 C 
ATOM      8  C   UNL     1       0.347  25.717  56.168  1.00  0.00     0.093 C 
ATOM      9  O   UNL     1       2.066  27.160  55.397  1.00  0.00    -0.295 OA
ENDBRANCH   1   7
BRANCH   3  10
ATOM     10  O   UNL     1      -1.968  25.683  51.315  1.00  0.00    -0.504 OA
ATOM     11  H   UNL     1      -2.835  25.898  50.838  1.00  0.00     0.293 HD
ENDBRANCH   3  10
BRANCH   4  12
ATOM     12  O   UNL     1      -2.005  28.383  50.561  1.00  0.00    -0.493 OA
ATOM     13  C   UNL     1      -1.737  29.556  49.800  1.00  0.00     0.278 C 
ENDBRANCH   4  12
TORSDOF 3
ENDMDL
MODEL 8
REMARK VINA RESULT:    -4.018      1.437      1.439
REMARK INTER + INTRA:          -4.706
REMARK INTER:                  -4.594
REMARK INTRA:                  -0.112
REMARK UNBOUND:                -0.101
REMARK SMILES COc1ccc(C(C)=O)cc1O
REMARK SMILES IDX 6 1 10 2 11 3 3 4 4 5 5 6 7 7 8 8 9 9 12 10 2 12 1 13
REMARK H PARENT 12 11
REMARK Flexibility Score: inf
ROOT
ATOM      1  C   UNL     1      -0.203  26.855  54.459  1.00  0.00     0.021 A 
ATOM      2  C   UNL     1      -1.008  27.975  54.742  1.00  0.00     0.062 A 
ATOM      3  C   UNL     1      -1.919  28.463  53.797  1.00  0.00     0.158 A 
ATOM      4  C   UNL     1      -2.042  27.834  52.546  1.00  0.00     0.160 A 
ATOM      5  C   UNL     1      -1.241  26.714  52.259  1.00  0.00     0.051 A 
ATOM      6  C   UNL     1      -0.333  26.232  53.206  1.00  0.00     0.016 A 
ENDROOT
BRANCH   1   7
ATOM      7  C   UNL     1       0.768  26.327  55.456  1.00  0.00     0.159 C 
ATOM      8  C   UNL     1       0.472  25.115  56.287  1.00  0.00     0.093 C 
ATOM      9  O   UNL     1       1.875  26.908  55.618  1.00  0.00    -0.295 OA
ENDBRANCH   1   7
BRANCH   3  10
ATOM     10  O   UNL     1      -2.693  29.575  54.123  1.00  0.00    -0.504 OA
ATOM     11  H   UNL     1      -2.355  30.309  54.734  1.00  0.00     0.293 HD
ENDBRANCH   3  10
BRANCH   4  12
ATOM     12  O   UNL     1      -2.964  28.346  51.617  1.00  0.00    -0.493 OA
ATOM     13  C   UNL     1      -2.621  28.839  50.327  1.00  0.00     0.278 C 
ENDBRANCH   4  12
TORSDOF 3
ENDMDL
MODEL 9
REMARK VINA RESULT:    -3.994      2.764      4.322
REMARK INTER + INTRA:          -4.679
REMARK INTER:                  -4.560
REMARK INTRA:                  -0.119
REMARK UNBOUND:                -0.101
REMARK SMILES COc1ccc(C(C)=O)cc1O
REMARK SMILES IDX 6 1 10 2 11 3 3 4 4 5 5 6 7 7 8 8 9 9 12 10 2 12 1 13
REMARK H PARENT 12 11
REMARK Flexibility Score: inf
ROOT
ATOM      1  C   UNL     1      -1.223  27.728  55.376  1.00  0.00     0.021 A 
ATOM      2  C   UNL     1      -0.405  26.822  56.078  1.00  0.00     0.062 A 
ATOM      3  C   UNL     1       0.767  26.316  55.502  1.00  0.00     0.158 A 
ATOM      4  C   UNL     1       1.144  26.710  54.207  1.00  0.00     0.160 A 
ATOM      5  C   UNL     1       0.330  27.615  53.501  1.00  0.00     0.051 A 
ATOM      6  C   UNL     1      -0.838  28.117  54.081  1.00  0.00     0.016 A 
ENDROOT
BRANCH   1   7
ATOM      7  C   UNL     1      -2.471  28.273  55.977  1.00  0.00     0.159 C 
ATOM      8  C   UNL     1      -3.794  28.176  55.280  1.00  0.00     0.093 C 
ATOM      9  O   UNL     1      -2.427  28.836  57.104  1.00  0.00    -0.295 OA
ENDBRANCH   1   7
BRANCH   3  10
ATOM     10  O   UNL     1       1.544  25.422  56.237  1.00  0.00    -0.504 OA
ATOM     11  H   UNL     1       2.522  25.593  56.438  1.00  0.00     0.293 HD
ENDBRANCH   3  10
BRANCH   4  12
ATOM     12  O   UNL     1       2.325  26.186  53.655  1.00  0.00    -0.493 OA
ATOM     13  C   UNL     1       3.423  26.971  53.203  1.00  0.00     0.278 C 
ENDBRANCH   4  12
TORSDOF 3
ENDMDL
