MODEL 1
REMARK VINA RESULT:    -5.118      0.000      0.000
REMARK INTER + INTRA:          -9.799
REMARK INTER:                  -7.811
REMARK INTRA:                  -1.987
REMARK UNBOUND:                -1.987
REMARK SMILES CC(=O)CCC=C(C)CCC=C(C)CCC=C(C)C
REMARK SMILES IDX 10 1 11 2 12 3 13 4 14 5 15 6 16 7 18 8 17 9 19 10 9 11 7 12
REMARK SMILES IDX 6 13 8 14 5 15 4 16 2 17 3 18 1 19
REMARK H PARENT
REMARK Flexibility Score: inf
ROOT
ATOM      1  C   UNL     1     -14.470  11.885 -29.906  1.00  0.00     0.032 C 
ENDROOT
BRANCH   1   2
ATOM      2  C   UNL     1     -13.257  11.421 -29.134  1.00  0.00    -0.028 C 
ATOM      3  C   UNL     1     -12.628  12.114 -28.156  1.00  0.00    -0.077 C 
ATOM      4  C   UNL     1     -11.468  11.452 -27.455  1.00  0.00     0.039 C 
BRANCH   3   5
ATOM      5  C   UNL     1     -13.007  13.524 -27.742  1.00  0.00     0.034 C 
BRANCH   5   6
ATOM      6  C   UNL     1     -12.021  14.568 -28.286  1.00  0.00     0.032 C 
BRANCH   6   7
ATOM      7  C   UNL     1     -11.776  14.382 -29.764  1.00  0.00    -0.028 C 
ATOM      8  C   UNL     1     -12.117  14.687 -32.177  1.00  0.00     0.039 C 
ATOM      9  C   UNL     1     -12.543  14.901 -30.748  1.00  0.00    -0.080 C 
ATOM     10  C   UNL     1     -13.803  15.681 -30.457  1.00  0.00     0.039 C 
ENDBRANCH   6   7
ENDBRANCH   5   6
ENDBRANCH   3   5
ENDBRANCH   1   2
BRANCH   1  11
ATOM     11  C   UNL     1     -15.620  10.876 -29.795  1.00  0.00     0.034 C 
BRANCH  11  12
ATOM     12  C   UNL     1     -16.684  11.327 -28.811  1.00  0.00    -0.077 C 
ATOM     13  C   UNL     1     -17.721  12.124 -29.157  1.00  0.00    -0.028 C 
ATOM     14  C   UNL     1     -16.582  10.878 -27.376  1.00  0.00     0.039 C 
BRANCH  13  15
ATOM     15  C   UNL     1     -18.013  12.628 -30.552  1.00  0.00     0.035 C 
BRANCH  15  16
ATOM     16  C   UNL     1     -17.415  14.023 -30.767  1.00  0.00     0.079 C 
BRANCH  16  17
ATOM     17  C   UNL     1     -16.964  14.217 -32.191  1.00  0.00     0.130 C 
ATOM     18  O   UNL     1     -17.626  14.916 -32.942  1.00  0.00    -0.300 OA
ATOM     19  C   UNL     1     -15.712  13.570 -32.704  1.00  0.00     0.087 C 
ENDBRANCH  16  17
ENDBRANCH  15  16
ENDBRANCH  13  15
ENDBRANCH  11  12
ENDBRANCH   1  11
TORSDOF 9
ENDMDL
MODEL 2
REMARK VINA RESULT:    -5.031      2.474      6.189
REMARK INTER + INTRA:          -9.666
REMARK INTER:                  -7.632
REMARK INTRA:                  -2.034
REMARK UNBOUND:                -1.987
REMARK SMILES CC(=O)CCC=C(C)CCC=C(C)CCC=C(C)C
REMARK SMILES IDX 10 1 11 2 12 3 13 4 14 5 15 6 16 7 18 8 17 9 19 10 9 11 7 12
REMARK SMILES IDX 6 13 8 14 5 15 4 16 2 17 3 18 1 19
REMARK H PARENT
REMARK Flexibility Score: inf
ROOT
ATOM      1  C   UNL     1     -14.498  14.190 -32.360  1.00  0.00     0.032 C 
ENDROOT
BRANCH   1   2
ATOM      2  C   UNL     1     -14.494  12.870 -31.626  1.00  0.00    -0.028 C 
ATOM      3  C   UNL     1     -15.052  12.635 -30.415  1.00  0.00    -0.077 C 
ATOM      4  C   UNL     1     -15.000  11.229 -29.874  1.00  0.00     0.039 C 
BRANCH   3   5
ATOM      5  C   UNL     1     -15.702  13.709 -29.562  1.00  0.00     0.034 C 
BRANCH   5   6
ATOM      6  C   UNL     1     -16.745  13.125 -28.598  1.00  0.00     0.032 C 
BRANCH   6   7
ATOM      7  C   UNL     1     -18.150  13.323 -29.114  1.00  0.00    -0.028 C 
ATOM      8  C   UNL     1     -20.395  12.692 -29.883  1.00  0.00     0.039 C 
ATOM      9  C   UNL     1     -18.995  12.328 -29.459  1.00  0.00    -0.080 C 
ATOM     10  C   UNL     1     -18.582  10.876 -29.430  1.00  0.00     0.039 C 
ENDBRANCH   6   7
ENDBRANCH   5   6
ENDBRANCH   3   5
ENDBRANCH   1   2
BRANCH   1  11
ATOM     11  C   UNL     1     -13.598  15.218 -31.664  1.00  0.00     0.034 C 
BRANCH  11  12
ATOM     12  C   UNL     1     -12.157  14.750 -31.575  1.00  0.00    -0.077 C 
ATOM     13  C   UNL     1     -11.539  14.478 -30.403  1.00  0.00    -0.028 C 
ATOM     14  C   UNL     1     -11.367  14.586 -32.848  1.00  0.00     0.039 C 
BRANCH  13  15
ATOM     15  C   UNL     1     -12.183  14.536 -29.037  1.00  0.00     0.035 C 
BRANCH  15  16
ATOM     16  C   UNL     1     -11.908  13.252 -28.246  1.00  0.00     0.079 C 
BRANCH  16  17
ATOM     17  C   UNL     1     -12.638  13.249 -26.928  1.00  0.00     0.130 C 
ATOM     18  O   UNL     1     -12.375  14.099 -26.093  1.00  0.00    -0.300 OA
ATOM     19  C   UNL     1     -13.687  12.222 -26.625  1.00  0.00     0.087 C 
ENDBRANCH  16  17
ENDBRANCH  15  16
ENDBRANCH  13  15
ENDBRANCH  11  12
ENDBRANCH   1  11
TORSDOF 9
ENDMDL
MODEL 3
REMARK VINA RESULT:    -4.870      1.677      2.617
REMARK INTER + INTRA:          -9.419
REMARK INTER:                  -7.149
REMARK INTRA:                  -2.270
REMARK UNBOUND:                -1.987
REMARK SMILES CC(=O)CCC=C(C)CCC=C(C)CCC=C(C)C
REMARK SMILES IDX 10 1 11 2 12 3 13 4 14 5 15 6 16 7 18 8 17 9 19 10 9 11 7 12
REMARK SMILES IDX 6 13 8 14 5 15 4 16 2 17 3 18 1 19
REMARK H PARENT
REMARK Flexibility Score: inf
ROOT
ATOM      1  C   UNL     1     -14.970  12.246 -27.008  1.00  0.00     0.032 C 
ENDROOT
BRANCH   1   2
ATOM      2  C   UNL     1     -13.578  11.713 -26.766  1.00  0.00    -0.028 C 
ATOM      3  C   UNL     1     -12.429  12.423 -26.859  1.00  0.00    -0.077 C 
ATOM      4  C   UNL     1     -11.137  11.727 -26.514  1.00  0.00     0.039 C 
BRANCH   3   5
ATOM      5  C   UNL     1     -12.366  13.870 -27.314  1.00  0.00     0.034 C 
BRANCH   5   6
ATOM      6  C   UNL     1     -11.937  13.993 -28.783  1.00  0.00     0.032 C 
BRANCH   6   7
ATOM      7  C   UNL     1     -12.889  14.864 -29.568  1.00  0.00    -0.028 C 
ATOM      8  C   UNL     1     -14.066  15.737 -31.538  1.00  0.00     0.039 C 
ATOM      9  C   UNL     1     -13.011  14.861 -30.913  1.00  0.00    -0.080 C 
ATOM     10  C   UNL     1     -12.130  14.013 -31.798  1.00  0.00     0.039 C 
ENDBRANCH   6   7
ENDBRANCH   5   6
ENDBRANCH   3   5
ENDBRANCH   1   2
BRANCH   1  11
ATOM     11  C   UNL     1     -15.689  11.451 -28.105  1.00  0.00     0.034 C 
BRANCH  11  12
ATOM     12  C   UNL     1     -15.318  11.931 -29.496  1.00  0.00    -0.077 C 
ATOM     13  C   UNL     1     -16.057  12.826 -30.191  1.00  0.00    -0.028 C 
ATOM     14  C   UNL     1     -14.073  11.382 -30.145  1.00  0.00     0.039 C 
BRANCH  13  15
ATOM     15  C   UNL     1     -17.301  13.519 -29.684  1.00  0.00     0.035 C 
BRANCH  15  16
ATOM     16  C   UNL     1     -18.490  13.259 -30.614  1.00  0.00     0.079 C 
BRANCH  16  17
ATOM     17  C   UNL     1     -19.597  12.524 -29.904  1.00  0.00     0.130 C 
ATOM     18  O   UNL     1     -20.754  12.877 -30.066  1.00  0.00    -0.300 OA
ATOM     19  C   UNL     1     -19.303  11.361 -29.003  1.00  0.00     0.087 C 
ENDBRANCH  16  17
ENDBRANCH  15  16
ENDBRANCH  13  15
ENDBRANCH  11  12
ENDBRANCH   1  11
TORSDOF 9
ENDMDL
MODEL 4
REMARK VINA RESULT:    -4.781      1.736      4.919
REMARK INTER + INTRA:          -9.284
REMARK INTER:                  -6.963
REMARK INTRA:                  -2.320
REMARK UNBOUND:                -1.987
REMARK SMILES CC(=O)CCC=C(C)CCC=C(C)CCC=C(C)C
REMARK SMILES IDX 10 1 11 2 12 3 13 4 14 5 15 6 16 7 18 8 17 9 19 10 9 11 7 12
REMARK SMILES IDX 6 13 8 14 5 15 4 16 2 17 3 18 1 19
REMARK H PARENT
REMARK Flexibility Score: inf
ROOT
ATOM      1  C   UNL     1     -12.726  11.207 -27.423  1.00  0.00     0.032 C 
ENDROOT
BRANCH   1   2
ATOM      2  C   UNL     1     -13.533  10.882 -28.657  1.00  0.00    -0.028 C 
ATOM      3  C   UNL     1     -14.711  11.449 -29.007  1.00  0.00    -0.077 C 
ATOM      4  C   UNL     1     -15.334  11.037 -30.317  1.00  0.00     0.039 C 
BRANCH   3   5
ATOM      5  C   UNL     1     -15.452  12.456 -28.145  1.00  0.00     0.034 C 
BRANCH   5   6
ATOM      6  C   UNL     1     -16.258  13.453 -28.990  1.00  0.00     0.032 C 
BRANCH   6   7
ATOM      7  C   UNL     1     -17.738  13.168 -28.922  1.00  0.00    -0.028 C 
ATOM      8  C   UNL     1     -20.014  12.772 -29.755  1.00  0.00     0.039 C 
ATOM      9  C   UNL     1     -18.573  13.151 -29.983  1.00  0.00    -0.080 C 
ATOM     10  C   UNL     1     -18.108  13.498 -31.377  1.00  0.00     0.039 C 
ENDBRANCH   6   7
ENDBRANCH   5   6
ENDBRANCH   3   5
ENDBRANCH   1   2
BRANCH   1  11
ATOM     11  C   UNL     1     -11.625  12.230 -27.729  1.00  0.00     0.034 C 
BRANCH  11  12
ATOM     12  C   UNL     1     -12.068  13.651 -27.434  1.00  0.00    -0.077 C 
ATOM     13  C   UNL     1     -12.192  14.601 -28.389  1.00  0.00    -0.028 C 
ATOM     14  C   UNL     1     -12.376  14.034 -26.009  1.00  0.00     0.039 C 
BRANCH  13  15
ATOM     15  C   UNL     1     -11.976  14.390 -29.870  1.00  0.00     0.035 C 
BRANCH  15  16
ATOM     16  C   UNL     1     -13.201  14.841 -30.672  1.00  0.00     0.079 C 
BRANCH  16  17
ATOM     17  C   UNL     1     -13.356  14.040 -31.939  1.00  0.00     0.130 C 
ATOM     18  O   UNL     1     -12.376  13.516 -32.443  1.00  0.00    -0.300 OA
ATOM     19  C   UNL     1     -14.696  13.869 -32.591  1.00  0.00     0.087 C 
ENDBRANCH  16  17
ENDBRANCH  15  16
ENDBRANCH  13  15
ENDBRANCH  11  12
ENDBRANCH   1  11
TORSDOF 9
ENDMDL
MODEL 5
REMARK VINA RESULT:    -4.759     10.585     13.853
REMARK INTER + INTRA:          -9.251
REMARK INTER:                  -8.264
REMARK INTRA:                  -0.987
REMARK UNBOUND:                -1.987
REMARK SMILES CC(=O)CCC=C(C)CCC=C(C)CCC=C(C)C
REMARK SMILES IDX 10 1 11 2 12 3 13 4 14 5 15 6 16 7 18 8 17 9 19 10 9 11 7 12
REMARK SMILES IDX 6 13 8 14 5 15 4 16 2 17 3 18 1 19
REMARK H PARENT
REMARK Flexibility Score: inf
ROOT
ATOM      1  C   UNL     1     -26.678  16.206 -30.733  1.00  0.00     0.032 C 
ENDROOT
BRANCH   1   2
ATOM      2  C   UNL     1     -25.758  15.215 -30.060  1.00  0.00    -0.028 C 
ATOM      3  C   UNL     1     -25.642  13.902 -30.372  1.00  0.00    -0.077 C 
ATOM      4  C   UNL     1     -24.616  13.087 -29.628  1.00  0.00     0.039 C 
BRANCH   3   5
ATOM      5  C   UNL     1     -26.502  13.202 -31.408  1.00  0.00     0.034 C 
BRANCH   5   6
ATOM      6  C   UNL     1     -27.132  11.914 -30.858  1.00  0.00     0.032 C 
BRANCH   6   7
ATOM      7  C   UNL     1     -28.342  12.209 -30.006  1.00  0.00    -0.028 C 
ATOM      8  C   UNL     1     -29.679  12.412 -27.956  1.00  0.00     0.039 C 
ATOM      9  C   UNL     1     -28.424  11.990 -28.675  1.00  0.00    -0.080 C 
ATOM     10  C   UNL     1     -27.305  11.341 -27.897  1.00  0.00     0.039 C 
ENDBRANCH   6   7
ENDBRANCH   5   6
ENDBRANCH   3   5
ENDBRANCH   1   2
BRANCH   1  11
ATOM     11  C   UNL     1     -26.282  17.650 -30.397  1.00  0.00     0.034 C 
BRANCH  11  12
ATOM     12  C   UNL     1     -25.808  18.412 -31.621  1.00  0.00    -0.077 C 
ATOM     13  C   UNL     1     -26.653  18.927 -32.544  1.00  0.00    -0.028 C 
ATOM     14  C   UNL     1     -24.328  18.601 -31.830  1.00  0.00     0.039 C 
BRANCH  13  15
ATOM     15  C   UNL     1     -28.162  18.880 -32.476  1.00  0.00     0.035 C 
BRANCH  15  16
ATOM     16  C   UNL     1     -28.787  19.704 -33.606  1.00  0.00     0.079 C 
BRANCH  16  17
ATOM     17  C   UNL     1     -28.014  20.973 -33.858  1.00  0.00     0.130 C 
ATOM     18  O   UNL     1     -27.192  21.007 -34.759  1.00  0.00    -0.300 OA
ATOM     19  C   UNL     1     -28.240  22.198 -33.024  1.00  0.00     0.087 C 
ENDBRANCH  16  17
ENDBRANCH  15  16
ENDBRANCH  13  15
ENDBRANCH  11  12
ENDBRANCH   1  11
TORSDOF 9
ENDMDL
MODEL 6
REMARK VINA RESULT:    -4.734      2.390      4.636
REMARK INTER + INTRA:          -9.212
REMARK INTER:                  -6.884
REMARK INTRA:                  -2.327
REMARK UNBOUND:                -1.987
REMARK SMILES CC(=O)CCC=C(C)CCC=C(C)CCC=C(C)C
REMARK SMILES IDX 10 1 11 2 12 3 13 4 14 5 15 6 16 7 18 8 17 9 19 10 9 11 7 12
REMARK SMILES IDX 6 13 8 14 5 15 4 16 2 17 3 18 1 19
REMARK H PARENT
REMARK Flexibility Score: inf
ROOT
ATOM      1  C   UNL     1     -17.810  13.897 -29.389  1.00  0.00     0.032 C 
ENDROOT
BRANCH   1   2
ATOM      2  C   UNL     1     -17.210  13.665 -30.755  1.00  0.00    -0.028 C 
ATOM      3  C   UNL     1     -16.149  14.324 -31.277  1.00  0.00    -0.077 C 
ATOM      4  C   UNL     1     -15.654  13.902 -32.637  1.00  0.00     0.039 C 
BRANCH   3   5
ATOM      5  C   UNL     1     -15.446  15.477 -30.584  1.00  0.00     0.034 C 
BRANCH   5   6
ATOM      6  C   UNL     1     -14.048  15.732 -31.165  1.00  0.00     0.032 C 
BRANCH   6   7
ATOM      7  C   UNL     1     -12.981  15.004 -30.383  1.00  0.00    -0.028 C 
ATOM      8  C   UNL     1     -10.965  13.654 -30.009  1.00  0.00     0.039 C 
ATOM      9  C   UNL     1     -12.001  14.251 -30.926  1.00  0.00    -0.080 C 
ATOM     10  C   UNL     1     -11.915  13.993 -32.411  1.00  0.00     0.039 C 
ENDBRANCH   6   7
ENDBRANCH   5   6
ENDBRANCH   3   5
ENDBRANCH   1   2
BRANCH   1  11
ATOM     11  C   UNL     1     -16.989  13.204 -28.293  1.00  0.00     0.034 C 
BRANCH  11  12
ATOM     12  C   UNL     1     -16.915  11.703 -28.498  1.00  0.00    -0.077 C 
ATOM     13  C   UNL     1     -15.792  11.065 -28.899  1.00  0.00    -0.028 C 
ATOM     14  C   UNL     1     -18.151  10.875 -28.253  1.00  0.00     0.039 C 
BRANCH  13  15
ATOM     15  C   UNL     1     -14.451  11.720 -29.142  1.00  0.00     0.035 C 
BRANCH  15  16
ATOM     16  C   UNL     1     -13.333  10.966 -28.413  1.00  0.00     0.079 C 
BRANCH  16  17
ATOM     17  C   UNL     1     -12.962  11.645 -27.121  1.00  0.00     0.130 C 
ATOM     18  O   UNL     1     -12.547  10.976 -26.187  1.00  0.00    -0.300 OA
ATOM     19  C   UNL     1     -13.086  13.131 -26.960  1.00  0.00     0.087 C 
ENDBRANCH  16  17
ENDBRANCH  15  16
ENDBRANCH  13  15
ENDBRANCH  11  12
ENDBRANCH   1  11
TORSDOF 9
ENDMDL
MODEL 7
REMARK VINA RESULT:    -4.673      1.933      4.255
REMARK INTER + INTRA:          -9.119
REMARK INTER:                  -6.975
REMARK INTRA:                  -2.145
REMARK UNBOUND:                -1.987
REMARK SMILES CC(=O)CCC=C(C)CCC=C(C)CCC=C(C)C
REMARK SMILES IDX 10 1 11 2 12 3 13 4 14 5 15 6 16 7 18 8 17 9 19 10 9 11 7 12
REMARK SMILES IDX 6 13 8 14 5 15 4 16 2 17 3 18 1 19
REMARK H PARENT
REMARK Flexibility Score: inf
ROOT
ATOM      1  C   UNL     1     -13.676  15.110 -30.190  1.00  0.00     0.032 C 
ENDROOT
BRANCH   1   2
ATOM      2  C   UNL     1     -12.674  15.056 -31.319  1.00  0.00    -0.028 C 
ATOM      3  C   UNL     1     -11.955  13.971 -31.690  1.00  0.00    -0.077 C 
ATOM      4  C   UNL     1     -11.050  14.098 -32.889  1.00  0.00     0.039 C 
BRANCH   3   5
ATOM      5  C   UNL     1     -11.988  12.644 -30.953  1.00  0.00     0.034 C 
BRANCH   5   6
ATOM      6  C   UNL     1     -11.245  12.711 -29.612  1.00  0.00     0.032 C 
BRANCH   6   7
ATOM      7  C   UNL     1     -11.959  11.921 -28.542  1.00  0.00    -0.028 C 
ATOM      8  C   UNL     1     -13.223  11.528 -26.474  1.00  0.00     0.039 C 
ATOM      9  C   UNL     1     -12.469  12.442 -27.405  1.00  0.00    -0.080 C 
ATOM     10  C   UNL     1     -12.308  13.899 -27.045  1.00  0.00     0.039 C 
ENDBRANCH   6   7
ENDBRANCH   5   6
ENDBRANCH   3   5
ENDBRANCH   1   2
BRANCH   1  11
ATOM     11  C   UNL     1     -15.115  15.103 -30.721  1.00  0.00     0.034 C 
BRANCH  11  12
ATOM     12  C   UNL     1     -15.525  13.739 -31.244  1.00  0.00    -0.077 C 
ATOM     13  C   UNL     1     -15.850  12.704 -30.436  1.00  0.00    -0.028 C 
ATOM     14  C   UNL     1     -15.565  13.515 -32.734  1.00  0.00     0.039 C 
BRANCH  13  15
ATOM     15  C   UNL     1     -15.915  12.756 -28.927  1.00  0.00     0.035 C 
BRANCH  15  16
ATOM     16  C   UNL     1     -17.287  13.249 -28.454  1.00  0.00     0.079 C 
BRANCH  16  17
ATOM     17  C   UNL     1     -18.397  12.374 -28.976  1.00  0.00     0.130 C 
ATOM     18  O   UNL     1     -18.486  11.220 -28.589  1.00  0.00    -0.300 OA
ATOM     19  C   UNL     1     -19.401  12.897 -29.959  1.00  0.00     0.087 C 
ENDBRANCH  16  17
ENDBRANCH  15  16
ENDBRANCH  13  15
ENDBRANCH  11  12
ENDBRANCH   1  11
TORSDOF 9
ENDMDL
MODEL 8
REMARK VINA RESULT:    -4.642      1.257      2.244
REMARK INTER + INTRA:          -9.071
REMARK INTER:                  -7.028
REMARK INTRA:                  -2.043
REMARK UNBOUND:                -1.987
REMARK SMILES CC(=O)CCC=C(C)CCC=C(C)CCC=C(C)C
REMARK SMILES IDX 10 1 11 2 12 3 13 4 14 5 15 6 16 7 18 8 17 9 19 10 9 11 7 12
REMARK SMILES IDX 6 13 8 14 5 15 4 16 2 17 3 18 1 19
REMARK H PARENT
REMARK Flexibility Score: inf
ROOT
ATOM      1  C   UNL     1     -16.558  11.723 -27.211  1.00  0.00     0.032 C 
ENDROOT
BRANCH   1   2
ATOM      2  C   UNL     1     -15.212  11.105 -26.917  1.00  0.00    -0.028 C 
ATOM      3  C   UNL     1     -14.010  11.706 -27.084  1.00  0.00    -0.077 C 
ATOM      4  C   UNL     1     -12.776  10.946 -26.670  1.00  0.00     0.039 C 
BRANCH   3   5
ATOM      5  C   UNL     1     -13.834  13.089 -27.684  1.00  0.00     0.034 C 
BRANCH   5   6
ATOM      6  C   UNL     1     -12.354  13.482 -27.798  1.00  0.00     0.032 C 
BRANCH   6   7
ATOM      7  C   UNL     1     -12.072  14.212 -29.089  1.00  0.00    -0.028 C 
ATOM      8  C   UNL     1     -11.580  14.490 -31.479  1.00  0.00     0.039 C 
ATOM      9  C   UNL     1     -11.755  13.620 -30.261  1.00  0.00    -0.080 C 
ATOM     10  C   UNL     1     -11.574  12.126 -30.383  1.00  0.00     0.039 C 
ENDBRANCH   6   7
ENDBRANCH   5   6
ENDBRANCH   3   5
ENDBRANCH   1   2
BRANCH   1  11
ATOM     11  C   UNL     1     -17.303  10.944 -28.303  1.00  0.00     0.034 C 
BRANCH  11  12
ATOM     12  C   UNL     1     -17.862  11.858 -29.378  1.00  0.00    -0.077 C 
ATOM     13  C   UNL     1     -17.100  12.404 -30.354  1.00  0.00    -0.028 C 
ATOM     14  C   UNL     1     -19.333  12.186 -29.359  1.00  0.00     0.039 C 
BRANCH  13  15
ATOM     15  C   UNL     1     -15.625  12.150 -30.561  1.00  0.00     0.035 C 
BRANCH  15  16
ATOM     16  C   UNL     1     -15.116  12.869 -31.815  1.00  0.00     0.079 C 
BRANCH  16  17
ATOM     17  C   UNL     1     -15.660  14.270 -31.907  1.00  0.00     0.130 C 
ATOM     18  O   UNL     1     -16.482  14.541 -32.768  1.00  0.00    -0.300 OA
ATOM     19  C   UNL     1     -15.215  15.341 -30.955  1.00  0.00     0.087 C 
ENDBRANCH  16  17
ENDBRANCH  15  16
ENDBRANCH  13  15
ENDBRANCH  11  12
ENDBRANCH   1  11
TORSDOF 9
ENDMDL
MODEL 9
REMARK VINA RESULT:    -2.315      2.085      5.506
REMARK INTER + INTRA:          -5.521
REMARK INTER:                  -3.275
REMARK INTRA:                  -2.246
REMARK UNBOUND:                -1.987
REMARK SMILES CC(=O)CCC=C(C)CCC=C(C)CCC=C(C)C
REMARK SMILES IDX 10 1 11 2 12 3 13 4 14 5 15 6 16 7 18 8 17 9 19 10 9 11 7 12
REMARK SMILES IDX 6 13 8 14 5 15 4 16 2 17 3 18 1 19
REMARK H PARENT
REMARK Flexibility Score: inf
ROOT
ATOM      1  C   UNL     1     -16.575  14.270 -31.613  1.00  0.00     0.032 C 
ENDROOT
BRANCH   1   2
ATOM      2  C   UNL     1     -17.664  13.277 -31.286  1.00  0.00    -0.028 C 
ATOM      3  C   UNL     1     -18.112  12.971 -30.046  1.00  0.00    -0.077 C 
ATOM      4  C   UNL     1     -19.258  11.997 -29.928  1.00  0.00     0.039 C 
BRANCH   3   5
ATOM      5  C   UNL     1     -17.513  13.532 -28.769  1.00  0.00     0.034 C 
BRANCH   5   6
ATOM      6  C   UNL     1     -17.020  12.423 -27.829  1.00  0.00     0.032 C 
BRANCH   6   7
ATOM      7  C   UNL     1     -15.583  12.639 -27.422  1.00  0.00    -0.028 C 
ATOM      8  C   UNL     1     -13.140  12.400 -27.505  1.00  0.00     0.039 C 
ATOM      9  C   UNL     1     -14.519  12.014 -27.973  1.00  0.00    -0.080 C 
ATOM     10  C   UNL     1     -14.673  10.951 -29.034  1.00  0.00     0.039 C 
ENDBRANCH   6   7
ENDBRANCH   5   6
ENDBRANCH   3   5
ENDBRANCH   1   2
BRANCH   1  11
ATOM     11  C   UNL     1     -15.189  13.615 -31.563  1.00  0.00     0.034 C 
BRANCH  11  12
ATOM     12  C   UNL     1     -14.150  14.521 -30.929  1.00  0.00    -0.077 C 
ATOM     13  C   UNL     1     -12.871  14.139 -30.709  1.00  0.00    -0.028 C 
ATOM     14  C   UNL     1     -14.557  15.912 -30.514  1.00  0.00     0.039 C 
BRANCH  13  15
ATOM     15  C   UNL     1     -12.272  12.809 -31.103  1.00  0.00     0.035 C 
BRANCH  15  16
ATOM     16  C   UNL     1     -10.905  12.999 -31.769  1.00  0.00     0.079 C 
BRANCH  16  17
ATOM     17  C   UNL     1     -11.025  13.741 -33.074  1.00  0.00     0.130 C 
ATOM     18  O   UNL     1     -11.254  13.120 -34.100  1.00  0.00    -0.300 OA
ATOM     19  C   UNL     1     -10.875  15.232 -33.137  1.00  0.00     0.087 C 
ENDBRANCH  16  17
ENDBRANCH  15  16
ENDBRANCH  13  15
ENDBRANCH  11  12
ENDBRANCH   1  11
TORSDOF 9
ENDMDL
