MODEL 1
REMARK VINA RESULT:    -3.771      0.000      0.000
REMARK INTER + INTRA:          -6.285
REMARK INTER:                  -5.756
REMARK INTRA:                  -0.529
REMARK UNBOUND:                -0.529
REMARK SMILES O=C([O-])CCCCCCCCC(=O)[O-]
REMARK SMILES IDX 7 1 6 2 5 3 4 4 2 5 1 6 3 7 8 8 9 9 10 10 11 11 12 12 13 13
REMARK SMILES IDX 14 14
REMARK H PARENT
REMARK Flexibility Score: inf
ROOT
ATOM      1  C   UNL     1     -19.529  -2.045   9.039  1.00  0.00     0.000 C 
ENDROOT
BRANCH   1   2
ATOM      2  C   UNL     1     -20.361  -2.387  10.287  1.00  0.00     0.000 C 
BRANCH   2   3
ATOM      3  C   UNL     1     -19.981  -1.527  11.505  1.00  0.00     0.006 C 
BRANCH   3   4
ATOM      4  C   UNL     1     -20.721  -1.966  12.776  1.00  0.00     0.053 C 
BRANCH   4   5
ATOM      5  C   UNL     1     -21.139  -0.795  13.611  1.00  0.00     0.041 C 
ATOM      6  O   UNL     1     -21.159   0.363  13.115  1.00  0.00    -0.550 OA
ATOM      7  O   UNL     1     -21.536  -0.986  14.929  1.00  0.00    -0.550 OA
ENDBRANCH   4   5
ENDBRANCH   3   4
ENDBRANCH   2   3
ENDBRANCH   1   2
BRANCH   1   8
ATOM      8  C   UNL     1     -20.402  -1.836   7.789  1.00  0.00     0.000 C 
BRANCH   8   9
ATOM      9  C   UNL     1     -19.888  -0.701   6.884  1.00  0.00     0.000 C 
BRANCH   9  10
ATOM     10  C   UNL     1     -20.816   0.527   6.779  1.00  0.00     0.006 C 
BRANCH  10  11
ATOM     11  C   UNL     1     -20.353   1.748   7.589  1.00  0.00     0.053 C 
BRANCH  11  12
ATOM     12  C   UNL     1     -21.173   1.944   8.826  1.00  0.00     0.041 C 
ATOM     13  O   UNL     1     -21.183   1.063   9.725  1.00  0.00    -0.550 OA
ATOM     14  O   UNL     1     -21.900   3.114   9.001  1.00  0.00    -0.550 OA
ENDBRANCH  11  12
ENDBRANCH  10  11
ENDBRANCH   9  10
ENDBRANCH   8   9
ENDBRANCH   1   8
TORSDOF 9
ENDMDL
MODEL 2
REMARK VINA RESULT:    -3.767      0.754      5.157
REMARK INTER + INTRA:          -6.279
REMARK INTER:                  -5.855
REMARK INTRA:                  -0.424
REMARK UNBOUND:                -0.529
REMARK SMILES O=C([O-])CCCCCCCCC(=O)[O-]
REMARK SMILES IDX 7 1 6 2 5 3 4 4 2 5 1 6 3 7 8 8 9 9 10 10 11 11 12 12 13 13
REMARK SMILES IDX 14 14
REMARK H PARENT
REMARK Flexibility Score: inf
ROOT
ATOM      1  C   UNL     1     -20.355  -1.285   7.834  1.00  0.00     0.000 C 
ENDROOT
BRANCH   1   2
ATOM      2  C   UNL     1     -20.315  -0.053   6.913  1.00  0.00     0.000 C 
BRANCH   2   3
ATOM      3  C   UNL     1     -19.967   1.240   7.670  1.00  0.00     0.006 C 
BRANCH   3   4
ATOM      4  C   UNL     1     -21.038   2.323   7.485  1.00  0.00     0.053 C 
BRANCH   4   5
ATOM      5  C   UNL     1     -21.549   2.832   8.798  1.00  0.00     0.041 C 
ATOM      6  O   UNL     1     -21.685   2.046   9.773  1.00  0.00    -0.550 OA
ATOM      7  O   UNL     1     -21.847   4.181   8.955  1.00  0.00    -0.550 OA
ENDBRANCH   4   5
ENDBRANCH   3   4
ENDBRANCH   2   3
ENDBRANCH   1   2
BRANCH   1   8
ATOM      8  C   UNL     1     -20.384  -0.906   9.324  1.00  0.00     0.000 C 
BRANCH   8   9
ATOM      9  C   UNL     1     -20.043  -2.089  10.250  1.00  0.00     0.000 C 
BRANCH   9  10
ATOM     10  C   UNL     1     -19.714  -1.708  11.709  1.00  0.00     0.006 C 
BRANCH  10  11
ATOM     11  C   UNL     1     -20.825  -2.033  12.719  1.00  0.00     0.053 C 
BRANCH  11  12
ATOM     12  C   UNL     1     -21.208  -0.839  13.537  1.00  0.00     0.041 C 
ATOM     13  O   UNL     1     -21.501  -0.973  14.754  1.00  0.00    -0.550 OA
ATOM     14  O   UNL     1     -21.209   0.426  12.965  1.00  0.00    -0.550 OA
ENDBRANCH  11  12
ENDBRANCH  10  11
ENDBRANCH   9  10
ENDBRANCH   8   9
ENDBRANCH   1   8
TORSDOF 9
ENDMDL
MODEL 3
REMARK VINA RESULT:    -3.747      2.078      4.407
REMARK INTER + INTRA:          -6.247
REMARK INTER:                  -5.645
REMARK INTRA:                  -0.602
REMARK UNBOUND:                -0.529
REMARK SMILES O=C([O-])CCCCCCCCC(=O)[O-]
REMARK SMILES IDX 7 1 6 2 5 3 4 4 2 5 1 6 3 7 8 8 9 9 10 10 11 11 12 12 13 13
REMARK SMILES IDX 14 14
REMARK H PARENT
REMARK Flexibility Score: inf
ROOT
ATOM      1  C   UNL     1     -20.024   1.383   7.655  1.00  0.00     0.000 C 
ENDROOT
BRANCH   1   2
ATOM      2  C   UNL     1     -20.629   0.217   6.856  1.00  0.00     0.000 C 
BRANCH   2   3
ATOM      3  C   UNL     1     -20.400  -1.146   7.532  1.00  0.00     0.006 C 
BRANCH   3   4
ATOM      4  C   UNL     1     -20.396  -1.038   9.063  1.00  0.00     0.053 C 
BRANCH   4   5
ATOM      5  C   UNL     1     -19.654  -2.172   9.701  1.00  0.00     0.041 C 
ATOM      6  O   UNL     1     -19.350  -2.123  10.923  1.00  0.00    -0.550 OA
ATOM      7  O   UNL     1     -19.325  -3.297   8.955  1.00  0.00    -0.550 OA
ENDBRANCH   4   5
ENDBRANCH   3   4
ENDBRANCH   2   3
ENDBRANCH   1   2
BRANCH   1   8
ATOM      8  C   UNL     1     -20.991   2.573   7.784  1.00  0.00     0.000 C 
BRANCH   8   9
ATOM      9  C   UNL     1     -21.829   2.527   9.075  1.00  0.00     0.000 C 
BRANCH   9  10
ATOM     10  C   UNL     1     -21.067   2.069  10.337  1.00  0.00     0.006 C 
BRANCH  10  11
ATOM     11  C   UNL     1     -21.905   1.242  11.324  1.00  0.00     0.053 C 
BRANCH  11  12
ATOM     12  C   UNL     1     -21.265   1.163  12.675  1.00  0.00     0.041 C 
ATOM     13  O   UNL     1     -20.795   2.198  13.214  1.00  0.00    -0.550 OA
ATOM     14  O   UNL     1     -21.218  -0.048  13.353  1.00  0.00    -0.550 OA
ENDBRANCH  11  12
ENDBRANCH  10  11
ENDBRANCH   9  10
ENDBRANCH   8   9
ENDBRANCH   1   8
TORSDOF 9
ENDMDL
MODEL 4
REMARK VINA RESULT:    -3.690      1.890      3.407
REMARK INTER + INTRA:          -6.160
REMARK INTER:                  -5.605
REMARK INTRA:                  -0.555
REMARK UNBOUND:                -0.529
REMARK SMILES O=C([O-])CCCCCCCCC(=O)[O-]
REMARK SMILES IDX 7 1 6 2 5 3 4 4 2 5 1 6 3 7 8 8 9 9 10 10 11 11 12 12 13 13
REMARK SMILES IDX 14 14
REMARK H PARENT
REMARK Flexibility Score: inf
ROOT
ATOM      1  C   UNL     1     -21.719   1.748   9.447  1.00  0.00     0.000 C 
ENDROOT
BRANCH   1   2
ATOM      2  C   UNL     1     -21.072   1.879  10.836  1.00  0.00     0.000 C 
BRANCH   2   3
ATOM      3  C   UNL     1     -21.838   1.103  11.921  1.00  0.00     0.006 C 
BRANCH   3   4
ATOM      4  C   UNL     1     -21.015   0.945  13.207  1.00  0.00     0.053 C 
BRANCH   4   5
ATOM      5  C   UNL     1     -21.113  -0.442  13.765  1.00  0.00     0.041 C 
ATOM      6  O   UNL     1     -20.656  -1.420  13.116  1.00  0.00    -0.550 OA
ATOM      7  O   UNL     1     -21.681  -0.652  15.016  1.00  0.00    -0.550 OA
ENDBRANCH   4   5
ENDBRANCH   3   4
ENDBRANCH   2   3
ENDBRANCH   1   2
BRANCH   1   8
ATOM      8  C   UNL     1     -20.747   2.104   8.309  1.00  0.00     0.000 C 
BRANCH   8   9
ATOM      9  C   UNL     1     -20.839   1.132   7.117  1.00  0.00     0.000 C 
BRANCH   9  10
ATOM     10  C   UNL     1     -19.811  -0.020   7.129  1.00  0.00     0.006 C 
BRANCH  10  11
ATOM     11  C   UNL     1     -20.405  -1.401   7.445  1.00  0.00     0.053 C 
BRANCH  11  12
ATOM     12  C   UNL     1     -19.924  -1.932   8.759  1.00  0.00     0.041 C 
ATOM     13  O   UNL     1     -20.097  -1.264   9.813  1.00  0.00    -0.550 OA
ATOM     14  O   UNL     1     -19.316  -3.178   8.828  1.00  0.00    -0.550 OA
ENDBRANCH  11  12
ENDBRANCH  10  11
ENDBRANCH   9  10
ENDBRANCH   8   9
ENDBRANCH   1   8
TORSDOF 9
ENDMDL
MODEL 5
REMARK VINA RESULT:    -3.124      3.119      4.010
REMARK INTER + INTRA:          -5.297
REMARK INTER:                  -4.846
REMARK INTRA:                  -0.451
REMARK UNBOUND:                -0.529
REMARK SMILES O=C([O-])CCCCCCCCC(=O)[O-]
REMARK SMILES IDX 7 1 6 2 5 3 4 4 2 5 1 6 3 7 8 8 9 9 10 10 11 11 12 12 13 13
REMARK SMILES IDX 14 14
REMARK H PARENT
REMARK Flexibility Score: inf
ROOT
ATOM      1  C   UNL     1     -19.998  -1.596   9.105  1.00  0.00     0.000 C 
ENDROOT
BRANCH   1   2
ATOM      2  C   UNL     1     -19.326  -2.906   9.550  1.00  0.00     0.000 C 
BRANCH   2   3
ATOM      3  C   UNL     1     -19.146  -3.902   8.392  1.00  0.00     0.006 C 
BRANCH   3   4
ATOM      4  C   UNL     1     -19.206  -5.360   8.868  1.00  0.00     0.053 C 
BRANCH   4   5
ATOM      5  C   UNL     1     -20.614  -5.867   8.937  1.00  0.00     0.041 C 
ATOM      6  O   UNL     1     -21.156  -6.372   7.917  1.00  0.00    -0.550 OA
ATOM      7  O   UNL     1     -21.318  -5.811  10.133  1.00  0.00    -0.550 OA
ENDBRANCH   4   5
ENDBRANCH   3   4
ENDBRANCH   2   3
ENDBRANCH   1   2
BRANCH   1   8
ATOM      8  C   UNL     1     -20.375  -1.604   7.614  1.00  0.00     0.000 C 
BRANCH   8   9
ATOM      9  C   UNL     1     -19.861  -0.363   6.860  1.00  0.00     0.000 C 
BRANCH   9  10
ATOM     10  C   UNL     1     -20.849   0.820   6.792  1.00  0.00     0.006 C 
BRANCH  10  11
ATOM     11  C   UNL     1     -20.418   2.059   7.593  1.00  0.00     0.053 C 
BRANCH  11  12
ATOM     12  C   UNL     1     -21.290   2.286   8.788  1.00  0.00     0.041 C 
ATOM     13  O   UNL     1     -21.922   3.367   8.914  1.00  0.00    -0.550 OA
ATOM     14  O   UNL     1     -21.433   1.290   9.746  1.00  0.00    -0.550 OA
ENDBRANCH  11  12
ENDBRANCH  10  11
ENDBRANCH   9  10
ENDBRANCH   8   9
ENDBRANCH   1   8
TORSDOF 9
ENDMDL
MODEL 6
REMARK VINA RESULT:    -3.044      2.672      4.313
REMARK INTER + INTRA:          -5.175
REMARK INTER:                  -5.017
REMARK INTRA:                  -0.157
REMARK UNBOUND:                -0.529
REMARK SMILES O=C([O-])CCCCCCCCC(=O)[O-]
REMARK SMILES IDX 7 1 6 2 5 3 4 4 2 5 1 6 3 7 8 8 9 9 10 10 11 11 12 12 13 13
REMARK SMILES IDX 14 14
REMARK H PARENT
REMARK Flexibility Score: inf
ROOT
ATOM      1  C   UNL     1     -20.412  -0.812  13.246  1.00  0.00     0.000 C 
ENDROOT
BRANCH   1   2
ATOM      2  C   UNL     1     -20.726  -2.046  12.385  1.00  0.00     0.000 C 
BRANCH   2   3
ATOM      3  C   UNL     1     -19.701  -2.259  11.258  1.00  0.00     0.006 C 
BRANCH   3   4
ATOM      4  C   UNL     1     -20.070  -1.483   9.986  1.00  0.00     0.053 C 
BRANCH   4   5
ATOM      5  C   UNL     1     -19.761  -2.264   8.746  1.00  0.00     0.041 C 
ATOM      6  O   UNL     1     -19.233  -3.405   8.831  1.00  0.00    -0.550 OA
ATOM      7  O   UNL     1     -20.084  -1.746   7.498  1.00  0.00    -0.550 OA
ENDBRANCH   4   5
ENDBRANCH   3   4
ENDBRANCH   2   3
ENDBRANCH   1   2
BRANCH   1   8
ATOM      8  C   UNL     1     -21.537   0.237  13.205  1.00  0.00     0.000 C 
BRANCH   8   9
ATOM      9  C   UNL     1     -21.144   1.507  12.428  1.00  0.00     0.000 C 
BRANCH   9  10
ATOM     10  C   UNL     1     -21.881   1.711  11.088  1.00  0.00     0.006 C 
BRANCH  10  11
ATOM     11  C   UNL     1     -21.136   1.164   9.860  1.00  0.00     0.053 C 
BRANCH  11  12
ATOM     12  C   UNL     1     -21.190   2.110   8.702  1.00  0.00     0.041 C 
ATOM     13  O   UNL     1     -20.685   1.786   7.595  1.00  0.00    -0.550 OA
ATOM     14  O   UNL     1     -21.827   3.337   8.833  1.00  0.00    -0.550 OA
ENDBRANCH  11  12
ENDBRANCH  10  11
ENDBRANCH   9  10
ENDBRANCH   8   9
ENDBRANCH   1   8
TORSDOF 9
ENDMDL
MODEL 7
REMARK VINA RESULT:    -3.010      2.726      5.341
REMARK INTER + INTRA:          -5.123
REMARK INTER:                  -4.338
REMARK INTRA:                  -0.784
REMARK UNBOUND:                -0.529
REMARK SMILES O=C([O-])CCCCCCCCC(=O)[O-]
REMARK SMILES IDX 7 1 6 2 5 3 4 4 2 5 1 6 3 7 8 8 9 9 10 10 11 11 12 12 13 13
REMARK SMILES IDX 14 14
REMARK H PARENT
REMARK Flexibility Score: inf
ROOT
ATOM      1  C   UNL     1     -20.752   0.511  13.252  1.00  0.00     0.000 C 
ENDROOT
BRANCH   1   2
ATOM      2  C   UNL     1     -21.770   1.264  12.380  1.00  0.00     0.000 C 
BRANCH   2   3
ATOM      3  C   UNL     1     -21.108   2.009  11.208  1.00  0.00     0.006 C 
BRANCH   3   4
ATOM      4  C   UNL     1     -21.296   1.272   9.875  1.00  0.00     0.053 C 
BRANCH   4   5
ATOM      5  C   UNL     1     -21.248   2.209   8.707  1.00  0.00     0.041 C 
ATOM      6  O   UNL     1     -20.712   1.847   7.626  1.00  0.00    -0.550 OA
ATOM      7  O   UNL     1     -21.823   3.471   8.802  1.00  0.00    -0.550 OA
ENDBRANCH   4   5
ENDBRANCH   3   4
ENDBRANCH   2   3
ENDBRANCH   1   2
BRANCH   1   8
ATOM      8  C   UNL     1     -21.244  -0.889  13.657  1.00  0.00     0.000 C 
BRANCH   8   9
ATOM      9  C   UNL     1     -20.481  -2.022  12.944  1.00  0.00     0.000 C 
BRANCH   9  10
ATOM     10  C   UNL     1     -20.716  -2.115  11.421  1.00  0.00     0.006 C 
BRANCH  10  11
ATOM     11  C   UNL     1     -19.473  -1.830  10.565  1.00  0.00     0.053 C 
BRANCH  11  12
ATOM     12  C   UNL     1     -19.619  -2.353   9.170  1.00  0.00     0.041 C 
ATOM     13  O   UNL     1     -19.265  -3.529   8.895  1.00  0.00    -0.550 OA
ATOM     14  O   UNL     1     -20.178  -1.553   8.182  1.00  0.00    -0.550 OA
ENDBRANCH  11  12
ENDBRANCH  10  11
ENDBRANCH   9  10
ENDBRANCH   8   9
ENDBRANCH   1   8
TORSDOF 9
ENDMDL
MODEL 8
REMARK VINA RESULT:    -2.897      3.126      5.898
REMARK INTER + INTRA:          -4.950
REMARK INTER:                  -4.962
REMARK INTRA:                   0.012
REMARK UNBOUND:                -0.529
REMARK SMILES O=C([O-])CCCCCCCCC(=O)[O-]
REMARK SMILES IDX 7 1 6 2 5 3 4 4 2 5 1 6 3 7 8 8 9 9 10 10 11 11 12 12 13 13
REMARK SMILES IDX 14 14
REMARK H PARENT
REMARK Flexibility Score: inf
ROOT
ATOM      1  C   UNL     1     -20.196  -1.208   7.657  1.00  0.00     0.000 C 
ENDROOT
BRANCH   1   2
ATOM      2  C   UNL     1     -19.950   0.067   6.833  1.00  0.00     0.000 C 
BRANCH   2   3
ATOM      3  C   UNL     1     -21.073   1.105   6.999  1.00  0.00     0.006 C 
BRANCH   3   4
ATOM      4  C   UNL     1     -20.585   2.376   7.706  1.00  0.00     0.053 C 
BRANCH   4   5
ATOM      5  C   UNL     1     -21.521   2.805   8.794  1.00  0.00     0.041 C 
ATOM      6  O   UNL     1     -21.890   1.981   9.674  1.00  0.00    -0.550 OA
ATOM      7  O   UNL     1     -21.962   4.121   8.856  1.00  0.00    -0.550 OA
ENDBRANCH   4   5
ENDBRANCH   3   4
ENDBRANCH   2   3
ENDBRANCH   1   2
BRANCH   1   8
ATOM      8  C   UNL     1     -20.445  -0.908   9.145  1.00  0.00     0.000 C 
BRANCH   8   9
ATOM      9  C   UNL     1     -19.625  -1.813  10.083  1.00  0.00     0.000 C 
BRANCH   9  10
ATOM     10  C   UNL     1     -19.883  -3.327   9.928  1.00  0.00     0.006 C 
BRANCH  10  11
ATOM     11  C   UNL     1     -19.142  -3.984   8.754  1.00  0.00     0.053 C 
BRANCH  11  12
ATOM     12  C   UNL     1     -19.483  -5.435   8.616  1.00  0.00     0.041 C 
ATOM     13  O   UNL     1     -18.699  -6.215   8.014  1.00  0.00    -0.550 OA
ATOM     14  O   UNL     1     -20.650  -5.933   9.179  1.00  0.00    -0.550 OA
ENDBRANCH  11  12
ENDBRANCH  10  11
ENDBRANCH   9  10
ENDBRANCH   8   9
ENDBRANCH   1   8
TORSDOF 9
ENDMDL
MODEL 9
REMARK VINA RESULT:    -2.853      2.625      4.106
REMARK INTER + INTRA:          -4.883
REMARK INTER:                  -4.734
REMARK INTRA:                  -0.149
REMARK UNBOUND:                -0.529
REMARK SMILES O=C([O-])CCCCCCCCC(=O)[O-]
REMARK SMILES IDX 7 1 6 2 5 3 4 4 2 5 1 6 3 7 8 8 9 9 10 10 11 11 12 12 13 13
REMARK SMILES IDX 14 14
REMARK H PARENT
REMARK Flexibility Score: inf
ROOT
ATOM      1  C   UNL     1     -19.879   0.776   6.853  1.00  0.00     0.000 C 
ENDROOT
BRANCH   1   2
ATOM      2  C   UNL     1     -20.777  -0.471   6.789  1.00  0.00     0.000 C 
BRANCH   2   3
ATOM      3  C   UNL     1     -20.213  -1.649   7.602  1.00  0.00     0.006 C 
BRANCH   3   4
ATOM      4  C   UNL     1     -20.337  -1.419   9.114  1.00  0.00     0.053 C 
BRANCH   4   5
ATOM      5  C   UNL     1     -19.485  -2.372   9.895  1.00  0.00     0.041 C 
ATOM      6  O   UNL     1     -19.182  -2.117  11.091  1.00  0.00    -0.550 OA
ATOM      7  O   UNL     1     -19.050  -3.556   9.313  1.00  0.00    -0.550 OA
ENDBRANCH   4   5
ENDBRANCH   3   4
ENDBRANCH   2   3
ENDBRANCH   1   2
BRANCH   1   8
ATOM      8  C   UNL     1     -20.581   1.973   7.517  1.00  0.00     0.000 C 
BRANCH   8   9
ATOM      9  C   UNL     1     -21.137   1.642   8.914  1.00  0.00     0.000 C 
BRANCH   9  10
ATOM     10  C   UNL     1     -21.564   2.863   9.757  1.00  0.00     0.006 C 
BRANCH  10  11
ATOM     11  C   UNL     1     -22.301   3.956   8.969  1.00  0.00     0.053 C 
BRANCH  11  12
ATOM     12  C   UNL     1     -21.632   5.289   9.098  1.00  0.00     0.041 C 
ATOM     13  O   UNL     1     -21.968   6.242   8.346  1.00  0.00    -0.550 OA
ATOM     14  O   UNL     1     -20.661   5.490  10.070  1.00  0.00    -0.550 OA
ENDBRANCH  11  12
ENDBRANCH  10  11
ENDBRANCH   9  10
ENDBRANCH   8   9
ENDBRANCH   1   8
TORSDOF 9
ENDMDL
