MODEL 1
REMARK VINA RESULT:    -3.430      0.000      0.000
REMARK INTER + INTRA:          -4.079
REMARK INTER:                  -3.931
REMARK INTRA:                  -0.148
REMARK UNBOUND:                -0.148
REMARK SMILES O=C([O-])C=Cc1ccc(O)cc1
REMARK SMILES IDX 6 1 7 2 12 3 8 4 11 5 9 6 5 7 4 8 2 9 1 10 3 11 10 12
REMARK H PARENT 10 13
REMARK Flexibility Score: inf
ROOT
ATOM      1  C   UNL     1      16.778  23.109   5.395  1.00  0.00    -0.025 A 
ATOM      2  C   UNL     1      16.499  24.477   5.201  1.00  0.00     0.012 A 
ATOM      3  C   UNL     1      17.104  22.319   4.278  1.00  0.00     0.012 A 
ATOM      4  C   UNL     1      16.569  25.040   3.922  1.00  0.00     0.047 A 
ATOM      5  C   UNL     1      17.174  22.886   3.002  1.00  0.00     0.047 A 
ATOM      6  C   UNL     1      16.910  24.246   2.820  1.00  0.00     0.115 A 
ENDROOT
BRANCH   1   7
ATOM      7  C   UNL     1      16.708  22.460   6.727  1.00  0.00     0.010 C 
ATOM      8  C   UNL     1      16.302  21.197   6.920  1.00  0.00     0.025 C 
BRANCH   8   9
ATOM      9  C   UNL     1      16.234  20.589   8.261  1.00  0.00     0.064 C 
ATOM     10  O   UNL     1      17.220  20.625   9.044  1.00  0.00    -0.545 OA
ATOM     11  O   UNL     1      15.062  19.964   8.667  1.00  0.00    -0.545 OA
ENDBRANCH   8   9
ENDBRANCH   1   7
BRANCH   6  12
ATOM     12  O   UNL     1      16.983  24.796   1.543  1.00  0.00    -0.508 OA
ATOM     13  H   UNL     1      16.443  24.419   0.773  1.00  0.00     0.293 HD
ENDBRANCH   6  12
TORSDOF 3
ENDMDL
MODEL 2
REMARK VINA RESULT:    -3.378      4.121      8.336
REMARK INTER + INTRA:          -4.020
REMARK INTER:                  -3.881
REMARK INTRA:                  -0.139
REMARK UNBOUND:                -0.148
REMARK SMILES O=C([O-])C=Cc1ccc(O)cc1
REMARK SMILES IDX 6 1 7 2 12 3 8 4 11 5 9 6 5 7 4 8 2 9 1 10 3 11 10 12
REMARK H PARENT 10 13
REMARK Flexibility Score: inf
ROOT
ATOM      1  C   UNL     1      16.490  24.077  -0.158  1.00  0.00    -0.025 A 
ATOM      2  C   UNL     1      17.201  24.848   0.784  1.00  0.00     0.012 A 
ATOM      3  C   UNL     1      15.752  22.968   0.293  1.00  0.00     0.012 A 
ATOM      4  C   UNL     1      17.151  24.526   2.145  1.00  0.00     0.047 A 
ATOM      5  C   UNL     1      15.705  22.651   1.654  1.00  0.00     0.047 A 
ATOM      6  C   UNL     1      16.400  23.429   2.583  1.00  0.00     0.115 A 
ENDROOT
BRANCH   1   7
ATOM      7  C   UNL     1      16.518  24.368  -1.612  1.00  0.00     0.010 C 
ATOM      8  C   UNL     1      17.645  24.460  -2.333  1.00  0.00     0.025 C 
BRANCH   8   9
ATOM      9  C   UNL     1      17.633  24.761  -3.775  1.00  0.00     0.064 C 
ATOM     10  O   UNL     1      16.558  24.765  -4.432  1.00  0.00    -0.545 OA
ATOM     11  O   UNL     1      18.829  25.044  -4.422  1.00  0.00    -0.545 OA
ENDBRANCH   8   9
ENDBRANCH   1   7
BRANCH   6  12
ATOM     12  O   UNL     1      16.343  23.100   3.935  1.00  0.00    -0.508 OA
ATOM     13  H   UNL     1      16.869  22.320   4.312  1.00  0.00     0.293 HD
ENDBRANCH   6  12
TORSDOF 3
ENDMDL
MODEL 3
REMARK VINA RESULT:    -3.294      1.665      5.509
REMARK INTER + INTRA:          -3.923
REMARK INTER:                  -3.783
REMARK INTRA:                  -0.141
REMARK UNBOUND:                -0.148
REMARK SMILES O=C([O-])C=Cc1ccc(O)cc1
REMARK SMILES IDX 6 1 7 2 12 3 8 4 11 5 9 6 5 7 4 8 2 9 1 10 3 11 10 12
REMARK H PARENT 10 13
REMARK Flexibility Score: inf
ROOT
ATOM      1  C   UNL     1      16.754  23.557   6.124  1.00  0.00    -0.025 A 
ATOM      2  C   UNL     1      17.111  24.597   7.006  1.00  0.00     0.012 A 
ATOM      3  C   UNL     1      16.761  22.234   6.599  1.00  0.00     0.012 A 
ATOM      4  C   UNL     1      17.440  24.316   8.336  1.00  0.00     0.047 A 
ATOM      5  C   UNL     1      17.090  21.958   7.930  1.00  0.00     0.047 A 
ATOM      6  C   UNL     1      17.428  22.996   8.802  1.00  0.00     0.115 A 
ENDROOT
BRANCH   1   7
ATOM      7  C   UNL     1      16.407  23.798   4.702  1.00  0.00     0.010 C 
ATOM      8  C   UNL     1      17.026  23.204   3.672  1.00  0.00     0.025 C 
BRANCH   8   9
ATOM      9  C   UNL     1      16.661  23.477   2.271  1.00  0.00     0.064 C 
ATOM     10  O   UNL     1      17.109  24.487   1.665  1.00  0.00    -0.545 OA
ATOM     11  O   UNL     1      15.806  22.607   1.608  1.00  0.00    -0.545 OA
ENDBRANCH   8   9
ENDBRANCH   1   7
BRANCH   6  12
ATOM     12  O   UNL     1      17.753  22.705  10.124  1.00  0.00    -0.508 OA
ATOM     13  H   UNL     1      17.258  21.990  10.646  1.00  0.00     0.293 HD
ENDBRANCH   6  12
TORSDOF 3
ENDMDL
MODEL 4
REMARK VINA RESULT:    -3.098      1.254      5.880
REMARK INTER + INTRA:          -3.699
REMARK INTER:                  -3.560
REMARK INTRA:                  -0.139
REMARK UNBOUND:                -0.148
REMARK SMILES O=C([O-])C=Cc1ccc(O)cc1
REMARK SMILES IDX 6 1 7 2 12 3 8 4 11 5 9 6 5 7 4 8 2 9 1 10 3 11 10 12
REMARK H PARENT 10 13
REMARK Flexibility Score: inf
ROOT
ATOM      1  C   UNL     1      16.347  22.344   6.496  1.00  0.00    -0.025 A 
ATOM      2  C   UNL     1      16.382  20.966   6.199  1.00  0.00     0.012 A 
ATOM      3  C   UNL     1      15.793  22.758   7.720  1.00  0.00     0.012 A 
ATOM      4  C   UNL     1      15.896  20.031   7.118  1.00  0.00     0.047 A 
ATOM      5  C   UNL     1      15.309  21.820   8.636  1.00  0.00     0.047 A 
ATOM      6  C   UNL     1      15.361  20.455   8.340  1.00  0.00     0.115 A 
ENDROOT
BRANCH   1   7
ATOM      7  C   UNL     1      16.839  23.378   5.553  1.00  0.00     0.010 C 
ATOM      8  C   UNL     1      17.217  23.119   4.294  1.00  0.00     0.025 C 
BRANCH   8   9
ATOM      9  C   UNL     1      17.711  24.172   3.389  1.00  0.00     0.064 C 
ATOM     10  O   UNL     1      17.295  24.262   2.204  1.00  0.00    -0.545 OA
ATOM     11  O   UNL     1      18.654  25.080   3.852  1.00  0.00    -0.545 OA
ENDBRANCH   8   9
ENDBRANCH   1   7
BRANCH   6  12
ATOM     12  O   UNL     1      14.875  19.532   9.263  1.00  0.00    -0.508 OA
ATOM     13  H   UNL     1      13.884  19.450   9.457  1.00  0.00     0.293 HD
ENDBRANCH   6  12
TORSDOF 3
ENDMDL
MODEL 5
REMARK VINA RESULT:    -3.093      2.177      6.241
REMARK INTER + INTRA:          -3.693
REMARK INTER:                  -3.550
REMARK INTRA:                  -0.142
REMARK UNBOUND:                -0.148
REMARK SMILES O=C([O-])C=Cc1ccc(O)cc1
REMARK SMILES IDX 6 1 7 2 12 3 8 4 11 5 9 6 5 7 4 8 2 9 1 10 3 11 10 12
REMARK H PARENT 10 13
REMARK Flexibility Score: inf
ROOT
ATOM      1  C   UNL     1      16.696  23.641   3.006  1.00  0.00    -0.025 A 
ATOM      2  C   UNL     1      16.434  24.602   4.004  1.00  0.00     0.012 A 
ATOM      3  C   UNL     1      17.074  22.344   3.398  1.00  0.00     0.012 A 
ATOM      4  C   UNL     1      16.527  24.261   5.358  1.00  0.00     0.047 A 
ATOM      5  C   UNL     1      17.165  22.008   4.752  1.00  0.00     0.047 A 
ATOM      6  C   UNL     1      16.890  22.963   5.735  1.00  0.00     0.115 A 
ENDROOT
BRANCH   1   7
ATOM      7  C   UNL     1      16.623  23.951   1.558  1.00  0.00     0.010 C 
ATOM      8  C   UNL     1      15.959  23.201   0.667  1.00  0.00     0.025 C 
BRANCH   8   9
ATOM      9  C   UNL     1      15.919  23.535  -0.767  1.00  0.00     0.064 C 
ATOM     10  O   UNL     1      14.878  23.348  -1.452  1.00  0.00    -0.545 OA
ATOM     11  O   UNL     1      17.049  24.066  -1.376  1.00  0.00    -0.545 OA
ENDBRANCH   8   9
ENDBRANCH   1   7
BRANCH   6  12
ATOM     12  O   UNL     1      16.984  22.613   7.079  1.00  0.00    -0.508 OA
ATOM     13  H   UNL     1      17.198  23.302   7.791  1.00  0.00     0.293 HD
ENDBRANCH   6  12
TORSDOF 3
ENDMDL
MODEL 6
REMARK VINA RESULT:    -3.050      3.799      5.296
REMARK INTER + INTRA:          -3.644
REMARK INTER:                  -3.502
REMARK INTRA:                  -0.142
REMARK UNBOUND:                -0.148
REMARK SMILES O=C([O-])C=Cc1ccc(O)cc1
REMARK SMILES IDX 6 1 7 2 12 3 8 4 11 5 9 6 5 7 4 8 2 9 1 10 3 11 10 12
REMARK H PARENT 10 13
REMARK Flexibility Score: inf
ROOT
ATOM      1  C   UNL     1      16.435  21.307   7.415  1.00  0.00    -0.025 A 
ATOM      2  C   UNL     1      16.556  20.854   6.085  1.00  0.00     0.012 A 
ATOM      3  C   UNL     1      15.910  20.431   8.383  1.00  0.00     0.012 A 
ATOM      4  C   UNL     1      16.184  19.550   5.744  1.00  0.00     0.047 A 
ATOM      5  C   UNL     1      15.540  19.128   8.037  1.00  0.00     0.047 A 
ATOM      6  C   UNL     1      15.677  18.683   6.720  1.00  0.00     0.115 A 
ENDROOT
BRANCH   1   7
ATOM      7  C   UNL     1      16.805  22.682   7.829  1.00  0.00     0.010 C 
ATOM      8  C   UNL     1      17.503  22.965   8.938  1.00  0.00     0.025 C 
BRANCH   8   9
ATOM      9  C   UNL     1      17.843  24.346   9.322  1.00  0.00     0.064 C 
ATOM     10  O   UNL     1      17.015  25.077   9.928  1.00  0.00    -0.545 OA
ATOM     11  O   UNL     1      19.098  24.851   9.009  1.00  0.00    -0.545 OA
ENDBRANCH   8   9
ENDBRANCH   1   7
BRANCH   6  12
ATOM     12  O   UNL     1      15.303  17.383   6.391  1.00  0.00    -0.508 OA
ATOM     13  H   UNL     1      15.056  17.127   5.442  1.00  0.00     0.293 HD
ENDBRANCH   6  12
TORSDOF 3
ENDMDL
MODEL 7
REMARK VINA RESULT:    -2.922      3.158      4.336
REMARK INTER + INTRA:          -3.497
REMARK INTER:                  -3.363
REMARK INTRA:                  -0.134
REMARK UNBOUND:                -0.148
REMARK SMILES O=C([O-])C=Cc1ccc(O)cc1
REMARK SMILES IDX 6 1 7 2 12 3 8 4 11 5 9 6 5 7 4 8 2 9 1 10 3 11 10 12
REMARK H PARENT 10 13
REMARK Flexibility Score: inf
ROOT
ATOM      1  C   UNL     1      16.230  23.789   1.329  1.00  0.00    -0.025 A 
ATOM      2  C   UNL     1      17.020  24.678   0.572  1.00  0.00     0.012 A 
ATOM      3  C   UNL     1      15.382  22.893   0.653  1.00  0.00     0.012 A 
ATOM      4  C   UNL     1      16.976  24.649  -0.826  1.00  0.00     0.047 A 
ATOM      5  C   UNL     1      15.343  22.867  -0.744  1.00  0.00     0.047 A 
ATOM      6  C   UNL     1      16.140  23.742  -1.487  1.00  0.00     0.115 A 
ENDROOT
BRANCH   1   7
ATOM      7  C   UNL     1      16.229  23.784   2.812  1.00  0.00     0.010 C 
ATOM      8  C   UNL     1      17.050  23.029   3.556  1.00  0.00     0.025 C 
BRANCH   8   9
ATOM      9  C   UNL     1      17.013  23.043   5.028  1.00  0.00     0.064 C 
ATOM     10  O   UNL     1      17.054  24.125   5.672  1.00  0.00    -0.545 OA
ATOM     11  O   UNL     1      16.932  21.841   5.720  1.00  0.00    -0.545 OA
ENDBRANCH   8   9
ENDBRANCH   1   7
BRANCH   6  12
ATOM     12  O   UNL     1      16.090  23.704  -2.878  1.00  0.00    -0.508 OA
ATOM     13  H   UNL     1      15.483  24.323  -3.403  1.00  0.00     0.293 HD
ENDBRANCH   6  12
TORSDOF 3
ENDMDL
MODEL 8
REMARK VINA RESULT:    -2.873      4.746      6.781
REMARK INTER + INTRA:          -3.441
REMARK INTER:                  -3.292
REMARK INTRA:                  -0.149
REMARK UNBOUND:                -0.148
REMARK SMILES O=C([O-])C=Cc1ccc(O)cc1
REMARK SMILES IDX 6 1 7 2 12 3 8 4 11 5 9 6 5 7 4 8 2 9 1 10 3 11 10 12
REMARK H PARENT 10 13
REMARK Flexibility Score: inf
ROOT
ATOM      1  C   UNL     1      16.512  24.166  -1.263  1.00  0.00    -0.025 A 
ATOM      2  C   UNL     1      17.484  24.684  -2.144  1.00  0.00     0.012 A 
ATOM      3  C   UNL     1      15.260  23.793  -1.782  1.00  0.00     0.012 A 
ATOM      4  C   UNL     1      17.212  24.800  -3.510  1.00  0.00     0.047 A 
ATOM      5  C   UNL     1      14.992  23.910  -3.149  1.00  0.00     0.047 A 
ATOM      6  C   UNL     1      15.966  24.411  -4.017  1.00  0.00     0.115 A 
ENDROOT
BRANCH   1   7
ATOM      7  C   UNL     1      16.745  24.032   0.196  1.00  0.00     0.010 C 
ATOM      8  C   UNL     1      16.012  23.248   0.999  1.00  0.00     0.025 C 
BRANCH   8   9
ATOM      9  C   UNL     1      16.266  23.149   2.446  1.00  0.00     0.064 C 
ATOM     10  O   UNL     1      16.781  22.115   2.949  1.00  0.00    -0.545 OA
ATOM     11  O   UNL     1      15.930  24.214   3.272  1.00  0.00    -0.545 OA
ENDBRANCH   8   9
ENDBRANCH   1   7
BRANCH   6  12
ATOM     12  O   UNL     1      15.685  24.521  -5.376  1.00  0.00    -0.508 OA
ATOM     13  H   UNL     1      16.203  25.154  -5.974  1.00  0.00     0.293 HD
ENDBRANCH   6  12
TORSDOF 3
ENDMDL
