MODEL 1
REMARK VINA RESULT:    -1.381      0.000      0.000
REMARK INTER + INTRA:          -3.088
REMARK INTER:                  -1.865
REMARK INTRA:                  -1.223
REMARK UNBOUND:                -1.223
REMARK SMILES CC(=O)CCC=C(C)CCC=C(C)C
REMARK SMILES IDX 7 1 6 2 8 3 9 4 10 5 11 6 13 7 12 8 14 9 5 10 4 11 2 12 3 13
REMARK SMILES IDX 1 14
REMARK H PARENT
REMARK Flexibility Score: inf
ROOT
ATOM      1  C   UNL     1      93.507  30.455  15.178  1.00  0.00    -0.077 C 
ATOM      2  C   UNL     1      93.704  29.951  16.419  1.00  0.00    -0.028 C 
ATOM      3  C   UNL     1      94.718  30.686  14.309  1.00  0.00     0.039 C 
ENDROOT
BRANCH   1   4
ATOM      4  C   UNL     1      92.137  30.793  14.621  1.00  0.00     0.034 C 
BRANCH   4   5
ATOM      5  C   UNL     1      91.940  30.185  13.227  1.00  0.00     0.032 C 
BRANCH   5   6
ATOM      6  C   UNL     1      91.645  28.709  13.326  1.00  0.00    -0.028 C 
ATOM      7  C   UNL     1      91.694  26.342  12.665  1.00  0.00     0.039 C 
ATOM      8  C   UNL     1      92.025  27.791  12.411  1.00  0.00    -0.080 C 
ATOM      9  C   UNL     1      92.751  28.177  11.143  1.00  0.00     0.039 C 
ENDBRANCH   5   6
ENDBRANCH   4   5
ENDBRANCH   1   4
BRANCH   2  10
ATOM     10  C   UNL     1      92.625  29.669  17.439  1.00  0.00     0.035 C 
BRANCH  10  11
ATOM     11  C   UNL     1      92.555  28.163  17.728  1.00  0.00     0.079 C 
BRANCH  11  12
ATOM     12  C   UNL     1      91.642  27.388  16.805  1.00  0.00     0.130 C 
ATOM     13  O   UNL     1      92.079  26.382  16.268  1.00  0.00    -0.300 OA
ATOM     14  C   UNL     1      90.221  27.797  16.524  1.00  0.00     0.087 C 
ENDBRANCH  11  12
ENDBRANCH  10  11
ENDBRANCH   2  10
TORSDOF 6
ENDMDL
MODEL 2
REMARK VINA RESULT:    -1.356      4.573      6.530
REMARK INTER + INTRA:          -3.055
REMARK INTER:                  -1.301
REMARK INTRA:                  -1.754
REMARK UNBOUND:                -1.223
REMARK SMILES CC(=O)CCC=C(C)CCC=C(C)C
REMARK SMILES IDX 7 1 6 2 8 3 9 4 10 5 11 6 13 7 12 8 14 9 5 10 4 11 2 12 3 13
REMARK SMILES IDX 1 14
REMARK H PARENT
REMARK Flexibility Score: inf
ROOT
ATOM      1  C   UNL     1      91.820  27.179  11.515  1.00  0.00    -0.077 C 
ATOM      2  C   UNL     1      92.540  28.292  11.792  1.00  0.00    -0.028 C 
ATOM      3  C   UNL     1      92.158  25.914  12.264  1.00  0.00     0.039 C 
ENDROOT
BRANCH   1   4
ATOM      4  C   UNL     1      90.694  27.143  10.499  1.00  0.00     0.034 C 
BRANCH   4   5
ATOM      5  C   UNL     1      90.966  26.102   9.407  1.00  0.00     0.032 C 
BRANCH   5   6
ATOM      6  C   UNL     1      91.677  26.732   8.235  1.00  0.00    -0.028 C 
ATOM      7  C   UNL     1      93.567  27.269   6.758  1.00  0.00     0.039 C 
ATOM      8  C   UNL     1      93.002  26.618   7.995  1.00  0.00    -0.080 C 
ATOM      9  C   UNL     1      93.925  25.876   8.933  1.00  0.00     0.039 C 
ENDBRANCH   5   6
ENDBRANCH   4   5
ENDBRANCH   1   4
BRANCH   2  10
ATOM     10  C   UNL     1      92.365  29.642  11.137  1.00  0.00     0.035 C 
BRANCH  10  11
ATOM     11  C   UNL     1      93.303  29.765   9.926  1.00  0.00     0.079 C 
BRANCH  11  12
ATOM     12  C   UNL     1      92.648  30.317   8.680  1.00  0.00     0.130 C 
ATOM     13  O   UNL     1      93.367  30.714   7.776  1.00  0.00    -0.300 OA
ATOM     14  C   UNL     1      91.156  30.392   8.502  1.00  0.00     0.087 C 
ENDBRANCH  11  12
ENDBRANCH  10  11
ENDBRANCH   2  10
TORSDOF 6
ENDMDL
MODEL 3
REMARK VINA RESULT:    -1.338      1.797      3.854
REMARK INTER + INTRA:          -3.031
REMARK INTER:                  -1.557
REMARK INTRA:                  -1.474
REMARK UNBOUND:                -1.223
REMARK SMILES CC(=O)CCC=C(C)CCC=C(C)C
REMARK SMILES IDX 7 1 6 2 8 3 9 4 10 5 11 6 13 7 12 8 14 9 5 10 4 11 2 12 3 13
REMARK SMILES IDX 1 14
REMARK H PARENT
REMARK Flexibility Score: inf
ROOT
ATOM      1  C   UNL     1      92.006  29.295  10.942  1.00  0.00    -0.077 C 
ATOM      2  C   UNL     1      92.075  30.121  12.013  1.00  0.00    -0.028 C 
ATOM      3  C   UNL     1      91.067  29.668   9.822  1.00  0.00     0.039 C 
ENDROOT
BRANCH   1   4
ATOM      4  C   UNL     1      92.824  28.024  10.812  1.00  0.00     0.034 C 
BRANCH   4   5
ATOM      5  C   UNL     1      91.951  26.779  11.013  1.00  0.00     0.032 C 
BRANCH   5   6
ATOM      6  C   UNL     1      92.050  26.282  12.433  1.00  0.00    -0.028 C 
ATOM      7  C   UNL     1      91.319  25.875  14.744  1.00  0.00     0.039 C 
ATOM      8  C   UNL     1      91.100  26.468  13.376  1.00  0.00    -0.080 C 
ATOM      9  C   UNL     1      89.843  27.260  13.100  1.00  0.00     0.039 C 
ENDBRANCH   5   6
ENDBRANCH   4   5
ENDBRANCH   1   4
BRANCH   2  10
ATOM     10  C   UNL     1      92.937  29.910  13.236  1.00  0.00     0.035 C 
BRANCH  10  11
ATOM     11  C   UNL     1      92.072  29.954  14.504  1.00  0.00     0.079 C 
BRANCH  11  12
ATOM     12  C   UNL     1      92.820  29.663  15.785  1.00  0.00     0.130 C 
ATOM     13  O   UNL     1      93.915  30.179  15.946  1.00  0.00    -0.300 OA
ATOM     14  C   UNL     1      92.275  28.773  16.869  1.00  0.00     0.087 C 
ENDBRANCH  11  12
ENDBRANCH  10  11
ENDBRANCH   2  10
TORSDOF 6
ENDMDL
MODEL 4
REMARK VINA RESULT:    -1.336      4.084      6.735
REMARK INTER + INTRA:          -3.028
REMARK INTER:                  -1.341
REMARK INTRA:                  -1.688
REMARK UNBOUND:                -1.223
REMARK SMILES CC(=O)CCC=C(C)CCC=C(C)C
REMARK SMILES IDX 7 1 6 2 8 3 9 4 10 5 11 6 13 7 12 8 14 9 5 10 4 11 2 12 3 13
REMARK SMILES IDX 1 14
REMARK H PARENT
REMARK Flexibility Score: inf
ROOT
ATOM      1  C   UNL     1      91.097  26.600  11.014  1.00  0.00    -0.077 C 
ATOM      2  C   UNL     1      91.745  26.197   9.896  1.00  0.00    -0.028 C 
ATOM      3  C   UNL     1      89.605  26.810  10.929  1.00  0.00     0.039 C 
ENDROOT
BRANCH   1   4
ATOM      4  C   UNL     1      91.791  26.845  12.340  1.00  0.00     0.034 C 
BRANCH   4   5
ATOM      5  C   UNL     1      91.673  28.313  12.766  1.00  0.00     0.032 C 
BRANCH   5   6
ATOM      6  C   UNL     1      92.721  29.153  12.079  1.00  0.00    -0.028 C 
ATOM      7  C   UNL     1      93.607  30.856  10.545  1.00  0.00     0.039 C 
ATOM      8  C   UNL     1      92.461  30.058  11.110  1.00  0.00    -0.080 C 
ATOM      9  C   UNL     1      91.066  30.275  10.572  1.00  0.00     0.039 C 
ENDBRANCH   5   6
ENDBRANCH   4   5
ENDBRANCH   1   4
BRANCH   2  10
ATOM     10  C   UNL     1      93.231  25.952   9.777  1.00  0.00     0.035 C 
BRANCH  10  11
ATOM     11  C   UNL     1      93.922  27.188   9.181  1.00  0.00     0.079 C 
BRANCH  11  12
ATOM     12  C   UNL     1      93.454  27.560   7.792  1.00  0.00     0.130 C 
ATOM     13  O   UNL     1      93.662  26.774   6.881  1.00  0.00    -0.300 OA
ATOM     14  C   UNL     1      92.739  28.848   7.485  1.00  0.00     0.087 C 
ENDBRANCH  11  12
ENDBRANCH  10  11
ENDBRANCH   2  10
TORSDOF 6
ENDMDL
MODEL 5
REMARK VINA RESULT:    -1.315      4.940      7.140
REMARK INTER + INTRA:          -3.000
REMARK INTER:                  -1.242
REMARK INTRA:                  -1.758
REMARK UNBOUND:                -1.223
REMARK SMILES CC(=O)CCC=C(C)CCC=C(C)C
REMARK SMILES IDX 7 1 6 2 8 3 9 4 10 5 11 6 13 7 12 8 14 9 5 10 4 11 2 12 3 13
REMARK SMILES IDX 1 14
REMARK H PARENT
REMARK Flexibility Score: inf
ROOT
ATOM      1  C   UNL     1      92.158  26.561  11.017  1.00  0.00    -0.077 C 
ATOM      2  C   UNL     1      92.758  25.875  10.015  1.00  0.00    -0.028 C 
ATOM      3  C   UNL     1      91.049  25.876  11.776  1.00  0.00     0.039 C 
ENDROOT
BRANCH   1   4
ATOM      4  C   UNL     1      92.547  27.973  11.413  1.00  0.00     0.034 C 
BRANCH   4   5
ATOM      5  C   UNL     1      91.358  28.932  11.286  1.00  0.00     0.032 C 
BRANCH   5   6
ATOM      6  C   UNL     1      91.322  29.559   9.915  1.00  0.00    -0.028 C 
ATOM      7  C   UNL     1      90.520  29.946   7.624  1.00  0.00     0.039 C 
ATOM      8  C   UNL     1      90.467  29.199   8.932  1.00  0.00    -0.080 C 
ATOM      9  C   UNL     1      89.480  28.068   9.105  1.00  0.00     0.039 C 
ENDBRANCH   5   6
ENDBRANCH   4   5
ENDBRANCH   1   4
BRANCH   2  10
ATOM     10  C   UNL     1      93.868  26.394   9.131  1.00  0.00     0.035 C 
BRANCH  10  11
ATOM     11  C   UNL     1      93.282  26.979   7.838  1.00  0.00     0.079 C 
BRANCH  11  12
ATOM     12  C   UNL     1      93.867  28.313   7.432  1.00  0.00     0.130 C 
ATOM     13  O   UNL     1      93.690  28.699   6.286  1.00  0.00    -0.300 OA
ATOM     14  C   UNL     1      94.650  29.186   8.374  1.00  0.00     0.087 C 
ENDBRANCH  11  12
ENDBRANCH  10  11
ENDBRANCH   2  10
TORSDOF 6
ENDMDL
MODEL 6
REMARK VINA RESULT:    -1.314      1.354      2.714
REMARK INTER + INTRA:          -2.998
REMARK INTER:                  -1.621
REMARK INTRA:                  -1.377
REMARK UNBOUND:                -1.223
REMARK SMILES CC(=O)CCC=C(C)CCC=C(C)C
REMARK SMILES IDX 7 1 6 2 8 3 9 4 10 5 11 6 13 7 12 8 14 9 5 10 4 11 2 12 3 13
REMARK SMILES IDX 1 14
REMARK H PARENT
REMARK Flexibility Score: inf
ROOT
ATOM      1  C   UNL     1      91.931  31.094  12.410  1.00  0.00    -0.077 C 
ATOM      2  C   UNL     1      91.696  30.868  13.725  1.00  0.00    -0.028 C 
ATOM      3  C   UNL     1      90.976  31.993  11.666  1.00  0.00     0.039 C 
ENDROOT
BRANCH   1   4
ATOM      4  C   UNL     1      93.103  30.494  11.656  1.00  0.00     0.034 C 
BRANCH   4   5
ATOM      5  C   UNL     1      92.646  29.361  10.730  1.00  0.00     0.032 C 
BRANCH   5   6
ATOM      6  C   UNL     1      92.765  28.026  11.422  1.00  0.00    -0.028 C 
ATOM      7  C   UNL     1      91.988  25.976  12.532  1.00  0.00     0.039 C 
ATOM      8  C   UNL     1      91.719  27.317  11.901  1.00  0.00    -0.080 C 
ATOM      9  C   UNL     1      90.302  27.838  11.833  1.00  0.00     0.039 C 
ENDBRANCH   5   6
ENDBRANCH   4   5
ENDBRANCH   1   4
BRANCH   2  10
ATOM     10  C   UNL     1      92.523  29.987  14.631  1.00  0.00     0.035 C 
BRANCH  10  11
ATOM     11  C   UNL     1      91.637  28.904  15.265  1.00  0.00     0.079 C 
BRANCH  11  12
ATOM     12  C   UNL     1      92.174  28.331  16.557  1.00  0.00     0.130 C 
ATOM     13  O   UNL     1      91.994  27.145  16.784  1.00  0.00    -0.300 OA
ATOM     14  C   UNL     1      92.922  29.154  17.570  1.00  0.00     0.087 C 
ENDBRANCH  11  12
ENDBRANCH  10  11
ENDBRANCH   2  10
TORSDOF 6
ENDMDL
MODEL 7
REMARK VINA RESULT:    -1.296      2.632      5.296
REMARK INTER + INTRA:          -2.973
REMARK INTER:                  -1.277
REMARK INTRA:                  -1.697
REMARK UNBOUND:                -1.223
REMARK SMILES CC(=O)CCC=C(C)CCC=C(C)C
REMARK SMILES IDX 7 1 6 2 8 3 9 4 10 5 11 6 13 7 12 8 14 9 5 10 4 11 2 12 3 13
REMARK SMILES IDX 1 14
REMARK H PARENT
REMARK Flexibility Score: inf
ROOT
ATOM      1  C   UNL     1      91.016  30.066  14.110  1.00  0.00    -0.077 C 
ATOM      2  C   UNL     1      91.962  30.711  13.387  1.00  0.00    -0.028 C 
ATOM      3  C   UNL     1      89.733  30.801  14.409  1.00  0.00     0.039 C 
ENDROOT
BRANCH   1   4
ATOM      4  C   UNL     1      91.180  28.650  14.628  1.00  0.00     0.034 C 
BRANCH   4   5
ATOM      5  C   UNL     1      91.223  28.621  16.160  1.00  0.00     0.032 C 
BRANCH   5   6
ATOM      6  C   UNL     1      92.609  28.942  16.661  1.00  0.00    -0.028 C 
ATOM      7  C   UNL     1      94.364  30.249  17.780  1.00  0.00     0.039 C 
ATOM      8  C   UNL     1      92.945  30.086  17.297  1.00  0.00    -0.080 C 
ATOM      9  C   UNL     1      91.950  31.200  17.520  1.00  0.00     0.039 C 
ENDBRANCH   5   6
ENDBRANCH   4   5
ENDBRANCH   1   4
BRANCH   2  10
ATOM     10  C   UNL     1      93.312  30.152  13.003  1.00  0.00     0.035 C 
BRANCH  10  11
ATOM     11  C   UNL     1      94.397  30.713  13.935  1.00  0.00     0.079 C 
BRANCH  11  12
ATOM     12  C   UNL     1      94.491  32.222  13.952  1.00  0.00     0.130 C 
ATOM     13  O   UNL     1      94.806  32.795  12.920  1.00  0.00    -0.300 OA
ATOM     14  C   UNL     1      94.209  33.047  15.178  1.00  0.00     0.087 C 
ENDBRANCH  11  12
ENDBRANCH  10  11
ENDBRANCH   2  10
TORSDOF 6
ENDMDL
MODEL 8
REMARK VINA RESULT:    -1.280      2.267      4.897
REMARK INTER + INTRA:          -2.952
REMARK INTER:                  -1.260
REMARK INTRA:                  -1.692
REMARK UNBOUND:                -1.223
REMARK SMILES CC(=O)CCC=C(C)CCC=C(C)C
REMARK SMILES IDX 7 1 6 2 8 3 9 4 10 5 11 6 13 7 12 8 14 9 5 10 4 11 2 12 3 13
REMARK SMILES IDX 1 14
REMARK H PARENT
REMARK Flexibility Score: inf
ROOT
ATOM      1  C   UNL     1      91.350  29.744  16.104  1.00  0.00    -0.077 C 
ATOM      2  C   UNL     1      90.843  29.475  14.878  1.00  0.00    -0.028 C 
ATOM      3  C   UNL     1      90.605  30.722  16.977  1.00  0.00     0.039 C 
ENDROOT
BRANCH   1   4
ATOM      4  C   UNL     1      92.621  29.112  16.640  1.00  0.00     0.034 C 
BRANCH   4   5
ATOM      5  C   UNL     1      93.721  30.161  16.840  1.00  0.00     0.032 C 
BRANCH   5   6
ATOM      6  C   UNL     1      94.431  30.443  15.539  1.00  0.00    -0.028 C 
ATOM      7  C   UNL     1      95.123  31.751  13.577  1.00  0.00     0.039 C 
ATOM      8  C   UNL     1      94.317  31.594  14.841  1.00  0.00    -0.080 C 
ATOM      9  C   UNL     1      93.400  32.711  15.282  1.00  0.00     0.039 C 
ENDBRANCH   5   6
ENDBRANCH   4   5
ENDBRANCH   1   4
BRANCH   2  10
ATOM     10  C   UNL     1      91.451  28.543  13.856  1.00  0.00     0.035 C 
BRANCH  10  11
ATOM     11  C   UNL     1      92.229  29.350  12.805  1.00  0.00     0.079 C 
BRANCH  11  12
ATOM     12  C   UNL     1      91.396  30.356  12.044  1.00  0.00     0.130 C 
ATOM     13  O   UNL     1      90.444  29.949  11.397  1.00  0.00    -0.300 OA
ATOM     14  C   UNL     1      91.684  31.833  12.053  1.00  0.00     0.087 C 
ENDBRANCH  11  12
ENDBRANCH  10  11
ENDBRANCH   2  10
TORSDOF 6
ENDMDL
MODEL 9
REMARK VINA RESULT:    -1.276      2.227      4.393
REMARK INTER + INTRA:          -2.947
REMARK INTER:                  -1.245
REMARK INTRA:                  -1.702
REMARK UNBOUND:                -1.223
REMARK SMILES CC(=O)CCC=C(C)CCC=C(C)C
REMARK SMILES IDX 7 1 6 2 8 3 9 4 10 5 11 6 13 7 12 8 14 9 5 10 4 11 2 12 3 13
REMARK SMILES IDX 1 14
REMARK H PARENT
REMARK Flexibility Score: inf
ROOT
ATOM      1  C   UNL     1      93.762  31.578  14.527  1.00  0.00    -0.077 C 
ATOM      2  C   UNL     1      93.081  31.246  13.404  1.00  0.00    -0.028 C 
ATOM      3  C   UNL     1      93.677  33.005  15.008  1.00  0.00     0.039 C 
ENDROOT
BRANCH   1   4
ATOM      4  C   UNL     1      94.596  30.591  15.321  1.00  0.00     0.034 C 
BRANCH   4   5
ATOM      5  C   UNL     1      94.003  30.359  16.715  1.00  0.00     0.032 C 
BRANCH   5   6
ATOM      6  C   UNL     1      92.905  29.325  16.662  1.00  0.00    -0.028 C 
ATOM      7  C   UNL     1      90.602  28.468  16.659  1.00  0.00     0.039 C 
ATOM      8  C   UNL     1      91.588  29.602  16.774  1.00  0.00    -0.080 C 
ATOM      9  C   UNL     1      91.084  31.004  17.026  1.00  0.00     0.039 C 
ENDBRANCH   5   6
ENDBRANCH   4   5
ENDBRANCH   1   4
BRANCH   2  10
ATOM     10  C   UNL     1      93.057  29.881  12.758  1.00  0.00     0.035 C 
BRANCH  10  11
ATOM     11  C   UNL     1      91.751  29.154  13.112  1.00  0.00     0.079 C 
BRANCH  11  12
ATOM     12  C   UNL     1      90.495  29.873  12.677  1.00  0.00     0.130 C 
ATOM     13  O   UNL     1      90.302  30.032  11.481  1.00  0.00    -0.300 OA
ATOM     14  C   UNL     1      89.471  30.395  13.648  1.00  0.00     0.087 C 
ENDBRANCH  11  12
ENDBRANCH  10  11
ENDBRANCH   2  10
TORSDOF 6
ENDMDL
