MODEL 1
REMARK VINA RESULT:   136.287      0.000      0.000
REMARK INTER + INTRA:         140.271
REMARK INTER:                 140.271
REMARK INTRA:                   0.000
REMARK UNBOUND:                 0.000
REMARK SMILES C[C@@H]1CC[C@]2(OC1)O[C@@H]1C[C@H]3[C@H]4CC=C5C[C@H](O)CC[C@@]5(C)[C@@H]4CC[C@]3(C)[C@@H]1[C@@H]2C
REMARK SMILES IDX 1 1 2 2 3 3 4 4 5 5 29 6 28 7 9 8 8 9 10 10 11 11 26 12
REMARK SMILES IDX 25 13 24 14 23 15 12 16 13 17 14 18 15 19 21 20 20 21 19 22
REMARK SMILES IDX 17 23 16 24 22 25 27 26 30 27 6 28 7 29 18 30
REMARK H PARENT 18 31
REMARK Flexibility Score: inf
ROOT
ATOM      1  C   UNL     1     -27.995  24.639 -16.396  1.00  0.00     0.010 C 
ATOM      2  C   UNL     1     -28.871  25.243 -15.288  1.00  0.00     0.012 C 
ATOM      3  C   UNL     1     -30.356  25.270 -15.679  1.00  0.00     0.011 C 
ATOM      4  C   UNL     1     -30.637  26.374 -16.702  1.00  0.00     0.066 C 
ATOM      5  C   UNL     1     -30.069  27.738 -16.205  1.00  0.00     0.171 C 
ATOM      6  C   UNL     1     -30.249  28.917 -17.207  1.00  0.00     0.052 C 
ATOM      7  C   UNL     1     -31.313  29.855 -16.579  1.00  0.00     0.033 C 
ATOM      8  C   UNL     1     -31.662  29.113 -15.277  1.00  0.00     0.126 C 
ATOM      9  O   UNL     1     -30.728  28.098 -15.007  1.00  0.00    -0.346 OA
ATOM     10  C   UNL     1     -33.089  28.534 -15.432  1.00  0.00     0.037 C 
ATOM     11  C   UNL     1     -33.493  28.896 -16.859  1.00  0.00     0.002 C 
ATOM     12  C   UNL     1     -32.724  30.182 -17.193  1.00  0.00    -0.024 C 
ATOM     13  C   UNL     1     -32.840  30.534 -18.723  1.00  0.00     0.008 C 
ATOM     14  C   UNL     1     -33.997  29.789 -19.451  1.00  0.00     0.005 C 
ATOM     15  C   UNL     1     -35.252  29.730 -18.541  1.00  0.00     0.003 C 
ATOM     16  C   UNL     1     -34.988  28.851 -17.288  1.00  0.00     0.000 C 
ATOM     17  C   UNL     1     -36.027  29.205 -16.221  1.00  0.00     0.031 C 
ATOM     18  C   UNL     1     -37.426  29.150 -16.801  1.00  0.00    -0.027 C 
ATOM     19  C   UNL     1     -37.706  29.253 -18.129  1.00  0.00    -0.065 C 
ATOM     20  C   UNL     1     -36.613  29.345 -19.217  1.00  0.00    -0.008 C 
ATOM     21  C   UNL     1     -37.014  30.461 -20.236  1.00  0.00     0.014 C 
ATOM     22  C   UNL     1     -38.475  30.384 -20.707  1.00  0.00     0.033 C 
ATOM     23  C   UNL     1     -39.443  30.400 -19.520  1.00  0.00     0.118 C 
ATOM     24  C   UNL     1     -39.154  29.227 -18.574  1.00  0.00     0.063 C 
ATOM     25  C   UNL     1     -36.510  27.989 -19.967  1.00  0.00     0.016 C 
ATOM     26  C   UNL     1     -33.283  31.410 -16.387  1.00  0.00     0.012 C 
ATOM     27  C   UNL     1     -30.332  28.512 -18.690  1.00  0.00     0.014 C 
ATOM     28  O   UNL     1     -28.671  27.591 -15.960  1.00  0.00    -0.349 OA
ATOM     29  C   UNL     1     -28.401  26.661 -14.921  1.00  0.00     0.167 C 
ENDROOT
BRANCH  23  30
ATOM     30  O   UNL     1     -40.759  30.312 -20.000  1.00  0.00    -0.393 OA
ATOM     31  H   UNL     1     -40.827  29.450 -20.489  1.00  0.00     0.210 HD
ENDBRANCH  23  30
TORSDOF 1
ENDMDL
MODEL 2
REMARK VINA RESULT:   137.663     11.385     13.532
REMARK INTER + INTRA:         141.687
REMARK INTER:                 141.687
REMARK INTRA:                   0.000
REMARK UNBOUND:                 0.000
REMARK SMILES C[C@@H]1CC[C@]2(OC1)O[C@@H]1C[C@H]3[C@H]4CC=C5C[C@H](O)CC[C@@]5(C)[C@@H]4CC[C@]3(C)[C@@H]1[C@@H]2C
REMARK SMILES IDX 1 1 2 2 3 3 4 4 5 5 29 6 28 7 9 8 8 9 10 10 11 11 26 12
REMARK SMILES IDX 25 13 24 14 23 15 12 16 13 17 14 18 15 19 21 20 20 21 19 22
REMARK SMILES IDX 17 23 16 24 22 25 27 26 30 27 6 28 7 29 18 30
REMARK H PARENT 18 31
REMARK Flexibility Score: inf
ROOT
ATOM      1  C   UNL     1     -39.257  41.125  -9.492  1.00  0.00     0.010 C 
ATOM      2  C   UNL     1     -38.420  40.409 -10.563  1.00  0.00     0.012 C 
ATOM      3  C   UNL     1     -38.918  40.715 -11.983  1.00  0.00     0.011 C 
ATOM      4  C   UNL     1     -40.215  39.959 -12.288  1.00  0.00     0.066 C 
ATOM      5  C   UNL     1     -40.052  38.443 -11.966  1.00  0.00     0.171 C 
ATOM      6  C   UNL     1     -41.341  37.594 -12.182  1.00  0.00     0.052 C 
ATOM      7  C   UNL     1     -41.067  36.709 -13.426  1.00  0.00     0.033 C 
ATOM      8  C   UNL     1     -39.647  37.148 -13.823  1.00  0.00     0.126 C 
ATOM      9  O   UNL     1     -39.046  37.904 -12.800  1.00  0.00    -0.346 OA
ATOM     10  C   UNL     1     -39.753  37.965 -15.133  1.00  0.00     0.037 C 
ATOM     11  C   UNL     1     -41.253  38.039 -15.413  1.00  0.00     0.002 C 
ATOM     12  C   UNL     1     -41.853  36.772 -14.788  1.00  0.00    -0.024 C 
ATOM     13  C   UNL     1     -43.426  36.835 -14.771  1.00  0.00     0.008 C 
ATOM     14  C   UNL     1     -44.019  37.911 -15.728  1.00  0.00     0.005 C 
ATOM     15  C   UNL     1     -43.227  37.939 -17.061  1.00  0.00     0.003 C 
ATOM     16  C   UNL     1     -41.769  38.424 -16.829  1.00  0.00     0.000 C 
ATOM     17  C   UNL     1     -40.918  37.983 -18.023  1.00  0.00     0.031 C 
ATOM     18  C   UNL     1     -41.569  38.401 -19.326  1.00  0.00    -0.027 C 
ATOM     19  C   UNL     1     -42.895  38.678 -19.461  1.00  0.00    -0.065 C 
ATOM     20  C   UNL     1     -43.881  38.689 -18.272  1.00  0.00    -0.008 C 
ATOM     21  C   UNL     1     -45.186  37.940 -18.696  1.00  0.00     0.014 C 
ATOM     22  C   UNL     1     -45.731  38.361 -20.070  1.00  0.00     0.033 C 
ATOM     23  C   UNL     1     -44.670  38.202 -21.161  1.00  0.00     0.118 C 
ATOM     24  C   UNL     1     -43.429  39.042 -20.832  1.00  0.00     0.063 C 
ATOM     25  C   UNL     1     -44.235  40.155 -17.904  1.00  0.00     0.016 C 
ATOM     26  C   UNL     1     -41.445  35.485 -15.593  1.00  0.00     0.012 C 
ATOM     27  C   UNL     1     -42.666  38.364 -12.039  1.00  0.00     0.014 C 
ATOM     28  O   UNL     1     -39.669  38.301 -10.598  1.00  0.00    -0.349 OA
ATOM     29  C   UNL     1     -38.405  38.888 -10.330  1.00  0.00     0.167 C 
ENDROOT
BRANCH  23  30
ATOM     30  O   UNL     1     -45.210  38.614 -22.390  1.00  0.00    -0.393 OA
ATOM     31  H   UNL     1     -46.175  38.381 -22.369  1.00  0.00     0.210 HD
ENDBRANCH  23  30
TORSDOF 1
ENDMDL
