MODEL 1
REMARK VINA RESULT:    -4.629      0.000      0.000
REMARK INTER + INTRA:          -5.171
REMARK INTER:                  -5.171
REMARK INTRA:                   0.000
REMARK UNBOUND:                 0.000
REMARK SMILES Oc1cc(O)c2c(ccc3ccc(O)c(O)c32)c1
REMARK SMILES IDX 9 1 8 2 7 3 18 4 2 5 3 6 4 7 6 8 17 9 10 10 11 11 12 12
REMARK SMILES IDX 13 13 15 14 16 15 1 17 5 19 14 21
REMARK H PARENT 16 16 1 18 5 20 14 22
REMARK Flexibility Score: inf
ROOT
ATOM      1  C   UNL     1     159.922 158.862 163.796  1.00  0.00     0.009 A 
ATOM      2  C   UNL     1     159.171 159.949 163.367  1.00  0.00     0.009 A 
ATOM      3  C   UNL     1     158.568 160.803 164.295  1.00  0.00    -0.010 A 
ATOM      4  C   UNL     1     157.878 161.936 163.836  1.00  0.00     0.055 A 
ATOM      5  C   UNL     1     157.381 162.873 164.737  1.00  0.00     0.119 A 
ATOM      6  C   UNL     1     157.624 162.716 166.103  1.00  0.00     0.093 A 
ATOM      7  C   UNL     1     158.330 161.603 166.582  1.00  0.00     0.127 A 
ATOM      8  C   UNL     1     158.695 160.553 165.691  1.00  0.00     0.035 A 
ATOM      9  C   UNL     1     159.274 159.312 166.114  1.00  0.00     0.039 A 
ATOM     10  C   UNL     1     159.975 158.530 165.154  1.00  0.00    -0.014 A 
ATOM     11  C   UNL     1     160.687 157.391 165.553  1.00  0.00     0.013 A 
ATOM     12  C   UNL     1     160.671 156.983 166.881  1.00  0.00     0.051 A 
ATOM     13  C   UNL     1     159.874 157.643 167.813  1.00  0.00     0.158 A 
ATOM     14  C   UNL     1     159.098 158.757 167.414  1.00  0.00     0.166 A 
ENDROOT
BRANCH  14  15
ATOM     15  O   UNL     1     158.075 159.230 168.241  1.00  0.00    -0.504 OA
ATOM     16  H   UNL     1     157.112 158.930 168.173  1.00  0.00     0.293 HD
ENDBRANCH  14  15
BRANCH   5  17
ATOM     17  O   UNL     1     156.680 163.980 164.263  1.00  0.00    -0.508 OA
ATOM     18  H   UNL     1     156.650 164.207 163.276  1.00  0.00     0.293 HD
ENDBRANCH   5  17
BRANCH   7  19
ATOM     19  O   UNL     1     158.744 161.604 167.913  1.00  0.00    -0.507 OA
ATOM     20  H   UNL     1     158.139 161.921 168.662  1.00  0.00     0.293 HD
ENDBRANCH   7  19
BRANCH  13  21
ATOM     21  O   UNL     1     159.869 157.163 169.125  1.00  0.00    -0.504 OA
ATOM     22  H   UNL     1     159.943 157.759 169.937  1.00  0.00     0.293 HD
ENDBRANCH  13  21
TORSDOF 4
ENDMDL
MODEL 2
REMARK VINA RESULT:    -4.580      5.144      7.242
REMARK INTER + INTRA:          -5.116
REMARK INTER:                  -5.116
REMARK INTRA:                   0.000
REMARK UNBOUND:                 0.000
REMARK SMILES Oc1cc(O)c2c(ccc3ccc(O)c(O)c32)c1
REMARK SMILES IDX 9 1 8 2 7 3 18 4 2 5 3 6 4 7 6 8 17 9 10 10 11 11 12 12
REMARK SMILES IDX 13 13 15 14 16 15 1 17 5 19 14 21
REMARK H PARENT 16 16 1 18 5 20 14 22
REMARK Flexibility Score: inf
ROOT
ATOM      1  C   UNL     1     155.212 156.340 163.609  1.00  0.00     0.009 A 
ATOM      2  C   UNL     1     155.973 155.262 163.174  1.00  0.00     0.009 A 
ATOM      3  C   UNL     1     156.568 154.398 164.098  1.00  0.00    -0.010 A 
ATOM      4  C   UNL     1     157.268 153.274 163.633  1.00  0.00     0.055 A 
ATOM      5  C   UNL     1     157.757 152.327 164.527  1.00  0.00     0.119 A 
ATOM      6  C   UNL     1     157.498 152.465 165.892  1.00  0.00     0.093 A 
ATOM      7  C   UNL     1     156.781 153.569 166.377  1.00  0.00     0.127 A 
ATOM      8  C   UNL     1     156.423 154.629 165.496  1.00  0.00     0.035 A 
ATOM      9  C   UNL     1     155.834 155.862 165.928  1.00  0.00     0.039 A 
ATOM     10  C   UNL     1     155.142 156.654 164.970  1.00  0.00    -0.014 A 
ATOM     11  C   UNL     1     154.420 157.784 165.375  1.00  0.00     0.013 A 
ATOM     12  C   UNL     1     154.418 158.175 166.709  1.00  0.00     0.051 A 
ATOM     13  C   UNL     1     155.207 157.506 167.642  1.00  0.00     0.158 A 
ATOM     14  C   UNL     1     155.992 156.400 167.237  1.00  0.00     0.166 A 
ENDROOT
BRANCH  14  15
ATOM     15  O   UNL     1     157.006 155.920 168.070  1.00  0.00    -0.504 OA
ATOM     16  H   UNL     1     157.989 155.941 167.831  1.00  0.00     0.293 HD
ENDBRANCH  14  15
BRANCH   5  17
ATOM     17  O   UNL     1     158.469 151.229 164.047  1.00  0.00    -0.508 OA
ATOM     18  H   UNL     1     158.431 150.328 164.510  1.00  0.00     0.293 HD
ENDBRANCH   5  17
BRANCH   7  19
ATOM     19  O   UNL     1     156.352 153.548 167.703  1.00  0.00    -0.507 OA
ATOM     20  H   UNL     1     156.189 152.681 168.200  1.00  0.00     0.293 HD
ENDBRANCH   7  19
BRANCH  13  21
ATOM     21  O   UNL     1     155.194 157.969 168.960  1.00  0.00    -0.504 OA
ATOM     22  H   UNL     1     155.341 158.936 169.212  1.00  0.00     0.293 HD
ENDBRANCH  13  21
TORSDOF 4
ENDMDL
MODEL 3
REMARK VINA RESULT:    -4.541      4.475      5.114
REMARK INTER + INTRA:          -5.072
REMARK INTER:                  -5.072
REMARK INTRA:                   0.000
REMARK UNBOUND:                 0.000
REMARK SMILES Oc1cc(O)c2c(ccc3ccc(O)c(O)c32)c1
REMARK SMILES IDX 9 1 8 2 7 3 18 4 2 5 3 6 4 7 6 8 17 9 10 10 11 11 12 12
REMARK SMILES IDX 13 13 15 14 16 15 1 17 5 19 14 21
REMARK H PARENT 16 16 1 18 5 20 14 22
REMARK Flexibility Score: inf
ROOT
ATOM      1  C   UNL     1     158.583 154.948 163.699  1.00  0.00     0.009 A 
ATOM      2  C   UNL     1     159.587 155.770 163.201  1.00  0.00     0.009 A 
ATOM      3  C   UNL     1     160.444 156.447 164.072  1.00  0.00    -0.010 A 
ATOM      4  C   UNL     1     161.496 157.211 163.542  1.00  0.00     0.055 A 
ATOM      5  C   UNL     1     162.442 157.789 164.384  1.00  0.00     0.119 A 
ATOM      6  C   UNL     1     162.380 157.556 165.758  1.00  0.00     0.093 A 
ATOM      7  C   UNL     1     161.350 156.777 166.307  1.00  0.00     0.127 A 
ATOM      8  C   UNL     1     160.282 156.323 165.482  1.00  0.00     0.035 A 
ATOM      9  C   UNL     1     159.112 155.662 165.980  1.00  0.00     0.039 A 
ATOM     10  C   UNL     1     158.332 154.891 165.073  1.00  0.00    -0.014 A 
ATOM     11  C   UNL     1     157.273 154.104 165.544  1.00  0.00     0.013 A 
ATOM     12  C   UNL     1     156.939 154.110 166.893  1.00  0.00     0.051 A 
ATOM     13  C   UNL     1     157.589 154.967 167.778  1.00  0.00     0.158 A 
ATOM     14  C   UNL     1     158.619 155.817 167.307  1.00  0.00     0.166 A 
ENDROOT
BRANCH  14  15
ATOM     15  O   UNL     1     159.061 156.883 168.095  1.00  0.00    -0.504 OA
ATOM     16  H   UNL     1     159.157 157.831 167.756  1.00  0.00     0.293 HD
ENDBRANCH  14  15
BRANCH   5  17
ATOM     17  O   UNL     1     163.466 158.562 163.840  1.00  0.00    -0.508 OA
ATOM     18  H   UNL     1     164.422 158.226 163.801  1.00  0.00     0.293 HD
ENDBRANCH   5  17
BRANCH   7  19
ATOM     19  O   UNL     1     161.455 156.385 167.641  1.00  0.00    -0.507 OA
ATOM     20  H   UNL     1     161.328 157.040 168.404  1.00  0.00     0.293 HD
ENDBRANCH   7  19
BRANCH  13  21
ATOM     21  O   UNL     1     157.183 154.957 169.114  1.00  0.00    -0.504 OA
ATOM     22  H   UNL     1     157.689 154.478 169.846  1.00  0.00     0.293 HD
ENDBRANCH  13  21
TORSDOF 4
ENDMDL
MODEL 4
REMARK VINA RESULT:    -4.516      4.353      5.075
REMARK INTER + INTRA:          -5.044
REMARK INTER:                  -5.044
REMARK INTRA:                   0.000
REMARK UNBOUND:                 0.000
REMARK SMILES Oc1cc(O)c2c(ccc3ccc(O)c(O)c32)c1
REMARK SMILES IDX 9 1 8 2 7 3 18 4 2 5 3 6 4 7 6 8 17 9 10 10 11 11 12 12
REMARK SMILES IDX 13 13 15 14 16 15 1 17 5 19 14 21
REMARK H PARENT 16 16 1 18 5 20 14 22
REMARK Flexibility Score: inf
ROOT
ATOM      1  C   UNL     1     156.515 160.065 163.678  1.00  0.00     0.009 A 
ATOM      2  C   UNL     1     155.509 159.248 163.180  1.00  0.00     0.009 A 
ATOM      3  C   UNL     1     154.617 158.613 164.049  1.00  0.00    -0.010 A 
ATOM      4  C   UNL     1     153.564 157.853 163.517  1.00  0.00     0.055 A 
ATOM      5  C   UNL     1     152.586 157.319 164.351  1.00  0.00     0.119 A 
ATOM      6  C   UNL     1     152.620 157.592 165.719  1.00  0.00     0.093 A 
ATOM      7  C   UNL     1     153.651 158.367 166.270  1.00  0.00     0.127 A 
ATOM      8  C   UNL     1     154.747 158.776 165.458  1.00  0.00     0.035 A 
ATOM      9  C   UNL     1     155.917 159.430 165.966  1.00  0.00     0.039 A 
ATOM     10  C   UNL     1     156.734 160.158 165.057  1.00  0.00    -0.014 A 
ATOM     11  C   UNL     1     157.796 160.940 165.530  1.00  0.00     0.013 A 
ATOM     12  C   UNL     1     158.097 160.968 166.886  1.00  0.00     0.051 A 
ATOM     13  C   UNL     1     157.409 160.150 167.780  1.00  0.00     0.158 A 
ATOM     14  C   UNL     1     156.375 159.306 167.309  1.00  0.00     0.166 A 
ENDROOT
BRANCH  14  15
ATOM     15  O   UNL     1     155.893 158.272 168.116  1.00  0.00    -0.504 OA
ATOM     16  H   UNL     1     155.082 157.712 167.891  1.00  0.00     0.293 HD
ENDBRANCH  14  15
BRANCH   5  17
ATOM     17  O   UNL     1     151.561 156.549 163.805  1.00  0.00    -0.508 OA
ATOM     18  H   UNL     1     150.660 156.951 163.573  1.00  0.00     0.293 HD
ENDBRANCH   5  17
BRANCH   7  19
ATOM     19  O   UNL     1     153.521 158.801 167.588  1.00  0.00    -0.507 OA
ATOM     20  H   UNL     1     154.002 159.624 167.932  1.00  0.00     0.293 HD
ENDBRANCH   7  19
BRANCH  13  21
ATOM     21  O   UNL     1     157.782 160.193 169.125  1.00  0.00    -0.504 OA
ATOM     22  H   UNL     1     158.417 159.530 169.549  1.00  0.00     0.293 HD
ENDBRANCH  13  21
TORSDOF 4
ENDMDL
MODEL 5
REMARK VINA RESULT:    -4.429      2.092      4.625
REMARK INTER + INTRA:          -4.947
REMARK INTER:                  -4.947
REMARK INTRA:                   0.000
REMARK UNBOUND:                 0.000
REMARK SMILES Oc1cc(O)c2c(ccc3ccc(O)c(O)c32)c1
REMARK SMILES IDX 9 1 8 2 7 3 18 4 2 5 3 6 4 7 6 8 17 9 10 10 11 11 12 12
REMARK SMILES IDX 13 13 15 14 16 15 1 17 5 19 14 21
REMARK H PARENT 16 16 1 18 5 20 14 22
REMARK Flexibility Score: inf
ROOT
ATOM      1  C   UNL     1     158.684 160.299 163.817  1.00  0.00     0.009 A 
ATOM      2  C   UNL     1     159.981 159.877 163.556  1.00  0.00     0.009 A 
ATOM      3  C   UNL     1     160.667 159.083 164.480  1.00  0.00    -0.010 A 
ATOM      4  C   UNL     1     161.948 158.609 164.159  1.00  0.00     0.055 A 
ATOM      5  C   UNL     1     162.600 157.711 165.000  1.00  0.00     0.119 A 
ATOM      6  C   UNL     1     161.950 157.233 166.139  1.00  0.00     0.093 A 
ATOM      7  C   UNL     1     160.660 157.677 166.467  1.00  0.00     0.127 A 
ATOM      8  C   UNL     1     160.052 158.720 165.712  1.00  0.00     0.035 A 
ATOM      9  C   UNL     1     158.811 159.344 166.068  1.00  0.00     0.039 A 
ATOM     10  C   UNL     1     158.095 160.049 165.061  1.00  0.00    -0.014 A 
ATOM     11  C   UNL     1     156.809 160.541 165.320  1.00  0.00     0.013 A 
ATOM     12  C   UNL     1     156.243 160.394 166.581  1.00  0.00     0.051 A 
ATOM     13  C   UNL     1     156.979 159.842 167.626  1.00  0.00     0.158 A 
ATOM     14  C   UNL     1     158.303 159.398 167.398  1.00  0.00     0.166 A 
ENDROOT
BRANCH  14  15
ATOM     15  O   UNL     1     159.149 159.134 168.478  1.00  0.00    -0.504 OA
ATOM     16  H   UNL     1     159.002 159.496 169.410  1.00  0.00     0.293 HD
ENDBRANCH  14  15
BRANCH   5  17
ATOM     17  O   UNL     1     163.880 157.269 164.675  1.00  0.00    -0.508 OA
ATOM     18  H   UNL     1     164.430 156.713 165.319  1.00  0.00     0.293 HD
ENDBRANCH   5  17
BRANCH   7  19
ATOM     19  O   UNL     1     159.967 157.009 167.475  1.00  0.00    -0.507 OA
ATOM     20  H   UNL     1     160.252 157.061 168.447  1.00  0.00     0.293 HD
ENDBRANCH   7  19
BRANCH  13  21
ATOM     21  O   UNL     1     156.370 159.756 168.880  1.00  0.00    -0.504 OA
ATOM     22  H   UNL     1     156.171 160.560 169.459  1.00  0.00     0.293 HD
ENDBRANCH  13  21
TORSDOF 4
ENDMDL
MODEL 6
REMARK VINA RESULT:    -4.419      3.232      5.942
REMARK INTER + INTRA:          -4.935
REMARK INTER:                  -4.935
REMARK INTRA:                   0.000
REMARK UNBOUND:                 0.000
REMARK SMILES Oc1cc(O)c2c(ccc3ccc(O)c(O)c32)c1
REMARK SMILES IDX 9 1 8 2 7 3 18 4 2 5 3 6 4 7 6 8 17 9 10 10 11 11 12 12
REMARK SMILES IDX 13 13 15 14 16 15 1 17 5 19 14 21
REMARK H PARENT 16 16 1 18 5 20 14 22
REMARK Flexibility Score: inf
ROOT
ATOM      1  C   UNL     1     159.843 157.628 166.919  1.00  0.00     0.009 A 
ATOM      2  C   UNL     1     159.459 156.355 167.322  1.00  0.00     0.009 A 
ATOM      3  C   UNL     1     158.125 155.951 167.213  1.00  0.00    -0.010 A 
ATOM      4  C   UNL     1     157.777 154.635 167.556  1.00  0.00     0.055 A 
ATOM      5  C   UNL     1     156.485 154.166 167.334  1.00  0.00     0.119 A 
ATOM      6  C   UNL     1     155.547 154.990 166.711  1.00  0.00     0.093 A 
ATOM      7  C   UNL     1     155.880 156.301 166.340  1.00  0.00     0.127 A 
ATOM      8  C   UNL     1     157.140 156.850 166.713  1.00  0.00     0.035 A 
ATOM      9  C   UNL     1     157.503 158.223 166.517  1.00  0.00     0.039 A 
ATOM     10  C   UNL     1     158.884 158.566 166.526  1.00  0.00    -0.014 A 
ATOM     11  C   UNL     1     159.293 159.862 166.186  1.00  0.00     0.013 A 
ATOM     12  C   UNL     1     158.351 160.840 165.891  1.00  0.00     0.051 A 
ATOM     13  C   UNL     1     156.990 160.573 166.019  1.00  0.00     0.158 A 
ATOM     14  C   UNL     1     156.560 159.287 166.424  1.00  0.00     0.166 A 
ENDROOT
BRANCH  14  15
ATOM     15  O   UNL     1     155.244 159.091 166.851  1.00  0.00    -0.504 OA
ATOM     16  H   UNL     1     154.432 159.275 166.278  1.00  0.00     0.293 HD
ENDBRANCH  14  15
BRANCH   5  17
ATOM     17  O   UNL     1     156.153 152.864 167.703  1.00  0.00    -0.508 OA
ATOM     18  H   UNL     1     156.760 152.081 167.489  1.00  0.00     0.293 HD
ENDBRANCH   5  17
BRANCH   7  19
ATOM     19  O   UNL     1     154.994 157.002 165.523  1.00  0.00    -0.507 OA
ATOM     20  H   UNL     1     155.216 157.920 165.155  1.00  0.00     0.293 HD
ENDBRANCH   7  19
BRANCH  13  21
ATOM     21  O   UNL     1     156.092 161.607 165.746  1.00  0.00    -0.504 OA
ATOM     22  H   UNL     1     155.109 161.460 165.570  1.00  0.00     0.293 HD
ENDBRANCH  13  21
TORSDOF 4
ENDMDL
MODEL 7
REMARK VINA RESULT:    -4.411      3.264      4.300
REMARK INTER + INTRA:          -4.927
REMARK INTER:                  -4.927
REMARK INTRA:                   0.000
REMARK UNBOUND:                 0.000
REMARK SMILES Oc1cc(O)c2c(ccc3ccc(O)c(O)c32)c1
REMARK SMILES IDX 9 1 8 2 7 3 18 4 2 5 3 6 4 7 6 8 17 9 10 10 11 11 12 12
REMARK SMILES IDX 13 13 15 14 16 15 1 17 5 19 14 21
REMARK H PARENT 16 16 1 18 5 20 14 22
REMARK Flexibility Score: inf
ROOT
ATOM      1  C   UNL     1     159.354 160.242 166.985  1.00  0.00     0.009 A 
ATOM      2  C   UNL     1     158.047 160.501 167.376  1.00  0.00     0.009 A 
ATOM      3  C   UNL     1     157.034 159.573 167.118  1.00  0.00    -0.010 A 
ATOM      4  C   UNL     1     155.736 159.826 167.590  1.00  0.00     0.055 A 
ATOM      5  C   UNL     1     154.739 158.863 167.464  1.00  0.00     0.119 A 
ATOM      6  C   UNL     1     155.047 157.616 166.920  1.00  0.00     0.093 A 
ATOM      7  C   UNL     1     156.342 157.334 166.462  1.00  0.00     0.127 A 
ATOM      8  C   UNL     1     157.326 158.362 166.427  1.00  0.00     0.035 A 
ATOM      9  C   UNL     1     158.621 158.210 165.832  1.00  0.00     0.039 A 
ATOM     10  C   UNL     1     159.651 159.115 166.212  1.00  0.00    -0.014 A 
ATOM     11  C   UNL     1     160.967 158.911 165.777  1.00  0.00     0.013 A 
ATOM     12  C   UNL     1     161.269 157.855 164.925  1.00  0.00     0.051 A 
ATOM     13  C   UNL     1     160.256 157.044 164.418  1.00  0.00     0.158 A 
ATOM     14  C   UNL     1     158.913 157.276 164.797  1.00  0.00     0.166 A 
ENDROOT
BRANCH  14  15
ATOM     15  O   UNL     1     157.871 156.687 164.076  1.00  0.00    -0.504 OA
ATOM     16  H   UNL     1     157.993 156.226 163.185  1.00  0.00     0.293 HD
ENDBRANCH  14  15
BRANCH   5  17
ATOM     17  O   UNL     1     153.452 159.142 167.919  1.00  0.00    -0.508 OA
ATOM     18  H   UNL     1     152.706 159.393 167.281  1.00  0.00     0.293 HD
ENDBRANCH   5  17
BRANCH   7  19
ATOM     19  O   UNL     1     156.658 156.014 166.141  1.00  0.00    -0.507 OA
ATOM     20  H   UNL     1     157.307 155.784 165.398  1.00  0.00     0.293 HD
ENDBRANCH   7  19
BRANCH  13  21
ATOM     21  O   UNL     1     160.617 156.023 163.536  1.00  0.00    -0.504 OA
ATOM     22  H   UNL     1     161.572 155.737 163.375  1.00  0.00     0.293 HD
ENDBRANCH  13  21
TORSDOF 4
ENDMDL
MODEL 8
REMARK VINA RESULT:    -4.401      3.740      6.148
REMARK INTER + INTRA:          -4.916
REMARK INTER:                  -4.916
REMARK INTRA:                   0.000
REMARK UNBOUND:                 0.000
REMARK SMILES Oc1cc(O)c2c(ccc3ccc(O)c(O)c32)c1
REMARK SMILES IDX 9 1 8 2 7 3 18 4 2 5 3 6 4 7 6 8 17 9 10 10 11 11 12 12
REMARK SMILES IDX 13 13 15 14 16 15 1 17 5 19 14 21
REMARK H PARENT 16 16 1 18 5 20 14 22
REMARK Flexibility Score: inf
ROOT
ATOM      1  C   UNL     1     155.854 154.950 166.984  1.00  0.00     0.009 A 
ATOM      2  C   UNL     1     157.161 154.710 167.391  1.00  0.00     0.009 A 
ATOM      3  C   UNL     1     158.164 155.650 167.139  1.00  0.00    -0.010 A 
ATOM      4  C   UNL     1     159.460 155.418 167.627  1.00  0.00     0.055 A 
ATOM      5  C   UNL     1     160.445 156.393 167.506  1.00  0.00     0.119 A 
ATOM      6  C   UNL     1     160.127 157.633 166.951  1.00  0.00     0.093 A 
ATOM      7  C   UNL     1     158.833 157.895 166.477  1.00  0.00     0.127 A 
ATOM      8  C   UNL     1     157.863 156.853 166.438  1.00  0.00     0.035 A 
ATOM      9  C   UNL     1     156.573 156.984 165.827  1.00  0.00     0.039 A 
ATOM     10  C   UNL     1     155.551 156.068 166.201  1.00  0.00    -0.014 A 
ATOM     11  C   UNL     1     154.237 156.252 165.750  1.00  0.00     0.013 A 
ATOM     12  C   UNL     1     153.930 157.298 164.889  1.00  0.00     0.051 A 
ATOM     13  C   UNL     1     154.938 158.120 164.388  1.00  0.00     0.158 A 
ATOM     14  C   UNL     1     156.280 157.909 164.783  1.00  0.00     0.166 A 
ENDROOT
BRANCH  14  15
ATOM     15  O   UNL     1     157.322 158.507 164.070  1.00  0.00    -0.504 OA
ATOM     16  H   UNL     1     158.000 159.134 164.482  1.00  0.00     0.293 HD
ENDBRANCH  14  15
BRANCH   5  17
ATOM     17  O   UNL     1     161.731 156.135 167.977  1.00  0.00    -0.508 OA
ATOM     18  H   UNL     1     162.553 156.456 167.480  1.00  0.00     0.293 HD
ENDBRANCH   5  17
BRANCH   7  19
ATOM     19  O   UNL     1     158.503 159.208 166.144  1.00  0.00    -0.507 OA
ATOM     20  H   UNL     1     157.558 159.563 166.236  1.00  0.00     0.293 HD
ENDBRANCH   7  19
BRANCH  13  21
ATOM     21  O   UNL     1     154.574 159.130 163.495  1.00  0.00    -0.504 OA
ATOM     22  H   UNL     1     153.783 159.063 162.870  1.00  0.00     0.293 HD
ENDBRANCH  13  21
TORSDOF 4
ENDMDL
MODEL 9
REMARK VINA RESULT:    -4.390      3.278      4.451
REMARK INTER + INTRA:          -4.903
REMARK INTER:                  -4.903
REMARK INTRA:                   0.000
REMARK UNBOUND:                 0.000
REMARK SMILES Oc1cc(O)c2c(ccc3ccc(O)c(O)c32)c1
REMARK SMILES IDX 9 1 8 2 7 3 18 4 2 5 3 6 4 7 6 8 17 9 10 10 11 11 12 12
REMARK SMILES IDX 13 13 15 14 16 15 1 17 5 19 14 21
REMARK H PARENT 16 16 1 18 5 20 14 22
REMARK Flexibility Score: inf
ROOT
ATOM      1  C   UNL     1     159.766 155.814 167.142  1.00  0.00     0.009 A 
ATOM      2  C   UNL     1     160.034 157.126 167.512  1.00  0.00     0.009 A 
ATOM      3  C   UNL     1     159.139 158.149 167.188  1.00  0.00    -0.010 A 
ATOM      4  C   UNL     1     159.396 159.453 167.638  1.00  0.00     0.055 A 
ATOM      5  C   UNL     1     158.460 160.465 167.445  1.00  0.00     0.119 A 
ATOM      6  C   UNL     1     157.232 160.167 166.853  1.00  0.00     0.093 A 
ATOM      7  C   UNL     1     156.945 158.866 166.415  1.00  0.00     0.127 A 
ATOM      8  C   UNL     1     157.954 157.862 166.451  1.00  0.00     0.035 A 
ATOM      9  C   UNL     1     157.802 156.556 165.881  1.00  0.00     0.039 A 
ATOM     10  C   UNL     1     158.668 155.518 166.327  1.00  0.00    -0.014 A 
ATOM     11  C   UNL     1     158.458 154.196 165.917  1.00  0.00     0.013 A 
ATOM     12  C   UNL     1     157.435 153.892 165.026  1.00  0.00     0.051 A 
ATOM     13  C   UNL     1     156.667 154.906 164.459  1.00  0.00     0.158 A 
ATOM     14  C   UNL     1     156.909 156.255 164.814  1.00  0.00     0.166 A 
ENDROOT
BRANCH  14  15
ATOM     15  O   UNL     1     156.374 157.289 164.041  1.00  0.00    -0.504 OA
ATOM     16  H   UNL     1     155.408 157.331 163.746  1.00  0.00     0.293 HD
ENDBRANCH  14  15
BRANCH   5  17
ATOM     17  O   UNL     1     158.744 161.758 167.880  1.00  0.00    -0.508 OA
ATOM     18  H   UNL     1     158.008 162.404 168.141  1.00  0.00     0.293 HD
ENDBRANCH   5  17
BRANCH   7  19
ATOM     19  O   UNL     1     155.635 158.567 166.043  1.00  0.00    -0.507 OA
ATOM     20  H   UNL     1     154.972 158.163 166.694  1.00  0.00     0.293 HD
ENDBRANCH   7  19
BRANCH  13  21
ATOM     21  O   UNL     1     155.680 154.543 163.540  1.00  0.00    -0.504 OA
ATOM     22  H   UNL     1     155.800 154.604 162.539  1.00  0.00     0.293 HD
ENDBRANCH  13  21
TORSDOF 4
ENDMDL
