MODEL 1
REMARK VINA RESULT:     4.146      0.000      0.000
REMARK INTER + INTRA:           4.941
REMARK INTER:                   6.327
REMARK INTRA:                  -1.387
REMARK UNBOUND:                -1.387
REMARK SMILES OC[C@H]1O[C@](CO)(O[C@@H]2O[C@H](CO)[C@@H](O)[C@H](O)[C@H]2O)[C@H](O)[C@H]1O
REMARK SMILES IDX 8 1 9 2 11 3 14 4 10 5 16 6 18 7 12 8 13 9 15 11 17 13 19 15
REMARK SMILES IDX 5 17 20 18 4 19 22 20 3 21 6 22 7 23 21 25 23 27 2 29 1 30
REMARK H PARENT 13 10 15 12 17 14 19 16 7 24 21 26 23 28 1 31
REMARK Flexibility Score: inf
ROOT
ATOM      1  O   UNL     1      34.916 -18.020 -29.985  1.00  0.00    -0.313 OA
ENDROOT
BRANCH   1   2
ATOM      2  C   UNL     1      34.650 -18.983 -28.974  1.00  0.00     0.285 C 
ATOM      3  C   UNL     1      32.683 -19.882 -30.003  1.00  0.00     0.178 C 
ATOM      4  C   UNL     1      31.747 -19.124 -29.017  1.00  0.00     0.177 C 
ATOM      5  O   UNL     1      33.998 -20.124 -29.511  1.00  0.00    -0.341 OA
ATOM      6  C   UNL     1      32.440 -17.945 -28.306  1.00  0.00     0.179 C 
ATOM      7  C   UNL     1      33.841 -18.341 -27.833  1.00  0.00     0.202 C 
BRANCH   3   8
ATOM      8  C   UNL     1      32.663 -19.366 -31.459  1.00  0.00     0.191 C 
BRANCH   8   9
ATOM      9  O   UNL     1      33.765 -19.810 -32.197  1.00  0.00    -0.394 OA
ATOM     10  H   UNL     1      33.700 -19.370 -33.085  1.00  0.00     0.210 HD
ENDBRANCH   8   9
ENDBRANCH   3   8
BRANCH   4  11
ATOM     11  O   UNL     1      31.279 -20.018 -28.036  1.00  0.00    -0.387 OA
ATOM     12  H   UNL     1      31.453 -19.598 -27.152  1.00  0.00     0.211 HD
ENDBRANCH   4  11
BRANCH   6  13
ATOM     13  O   UNL     1      32.523 -16.822 -29.147  1.00  0.00    -0.387 OA
ATOM     14  H   UNL     1      32.944 -17.126 -29.993  1.00  0.00     0.211 HD
ENDBRANCH   6  13
BRANCH   7  15
ATOM     15  O   UNL     1      33.734 -19.240 -26.757  1.00  0.00    -0.385 OA
ATOM     16  H   UNL     1      34.361 -19.988 -26.942  1.00  0.00     0.211 HD
ENDBRANCH   7  15
ENDBRANCH   1   2
BRANCH   1  17
ATOM     17  C   UNL     1      36.282 -17.617 -30.133  1.00  0.00     0.224 C 
ATOM     18  C   UNL     1      36.748 -17.769 -31.594  1.00  0.00     0.208 C 
ATOM     19  O   UNL     1      37.043 -18.533 -29.372  1.00  0.00    -0.337 OA
ATOM     20  C   UNL     1      37.091 -19.231 -31.669  1.00  0.00     0.180 C 
ATOM     21  C   UNL     1      37.517 -19.552 -30.230  1.00  0.00     0.179 C 
BRANCH  17  22
ATOM     22  C   UNL     1      36.592 -16.196 -29.577  1.00  0.00     0.225 C 
BRANCH  22  23
ATOM     23  O   UNL     1      35.415 -15.547 -29.173  1.00  0.00    -0.391 OA
ATOM     24  H   UNL     1      35.586 -15.168 -28.272  1.00  0.00     0.210 HD
ENDBRANCH  22  23
ENDBRANCH  17  22
BRANCH  18  25
ATOM     25  O   UNL     1      35.750 -17.436 -32.523  1.00  0.00    -0.385 OA
ATOM     26  H   UNL     1      35.647 -16.449 -32.487  1.00  0.00     0.211 HD
ENDBRANCH  18  25
BRANCH  20  27
ATOM     27  O   UNL     1      38.099 -19.460 -32.620  1.00  0.00    -0.387 OA
ATOM     28  H   UNL     1      38.928 -19.059 -32.252  1.00  0.00     0.211 HD
ENDBRANCH  20  27
BRANCH  21  29
ATOM     29  C   UNL     1      39.034 -19.702 -30.033  1.00  0.00     0.191 C 
BRANCH  29  30
ATOM     30  O   UNL     1      39.457 -20.976 -30.436  1.00  0.00    -0.394 OA
ATOM     31  H   UNL     1      38.645 -21.546 -30.442  1.00  0.00     0.210 HD
ENDBRANCH  29  30
ENDBRANCH  21  29
ENDBRANCH   1  17
TORSDOF 13
ENDMDL
MODEL 2
REMARK VINA RESULT:     4.393      1.346      5.319
REMARK INTER + INTRA:           5.318
REMARK INTER:                   4.561
REMARK INTRA:                   0.757
REMARK UNBOUND:                -1.387
REMARK SMILES OC[C@H]1O[C@](CO)(O[C@@H]2O[C@H](CO)[C@@H](O)[C@H](O)[C@H]2O)[C@H](O)[C@H]1O
REMARK SMILES IDX 8 1 9 2 11 3 14 4 10 5 16 6 18 7 12 8 13 9 15 11 17 13 19 15
REMARK SMILES IDX 5 17 20 18 4 19 22 20 3 21 6 22 7 23 21 25 23 27 2 29 1 30
REMARK H PARENT 13 10 15 12 17 14 19 16 7 24 21 26 23 28 1 31
REMARK Flexibility Score: inf
ROOT
ATOM      1  O   UNL     1      35.258 -18.035 -28.835  1.00  0.00    -0.313 OA
ENDROOT
BRANCH   1   2
ATOM      2  C   UNL     1      35.941 -17.210 -29.769  1.00  0.00     0.285 C 
ATOM      3  C   UNL     1      35.509 -18.590 -31.678  1.00  0.00     0.178 C 
ATOM      4  C   UNL     1      36.959 -19.158 -31.672  1.00  0.00     0.177 C 
ATOM      5  O   UNL     1      35.365 -17.314 -31.062  1.00  0.00    -0.341 OA
ATOM      6  C   UNL     1      37.682 -18.961 -30.325  1.00  0.00     0.179 C 
ATOM      7  C   UNL     1      37.442 -17.551 -29.778  1.00  0.00     0.202 C 
BRANCH   3   8
ATOM      8  C   UNL     1      34.408 -19.593 -31.266  1.00  0.00     0.191 C 
BRANCH   8   9
ATOM      9  O   UNL     1      33.911 -20.316 -32.356  1.00  0.00    -0.394 OA
ATOM     10  H   UNL     1      33.612 -21.191 -31.996  1.00  0.00     0.210 HD
ENDBRANCH   8   9
ENDBRANCH   3   8
BRANCH   4  11
ATOM     11  O   UNL     1      37.714 -18.523 -32.676  1.00  0.00    -0.387 OA
ATOM     12  H   UNL     1      37.129 -18.448 -33.476  1.00  0.00     0.211 HD
ENDBRANCH   4  11
BRANCH   6  13
ATOM     13  O   UNL     1      37.267 -19.914 -29.381  1.00  0.00    -0.387 OA
ATOM     14  H   UNL     1      36.274 -19.909 -29.383  1.00  0.00     0.211 HD
ENDBRANCH   6  13
BRANCH   7  15
ATOM     15  O   UNL     1      38.141 -16.619 -30.564  1.00  0.00    -0.385 OA
ATOM     16  H   UNL     1      38.392 -17.082 -31.406  1.00  0.00     0.211 HD
ENDBRANCH   7  15
ENDBRANCH   1   2
BRANCH   1  17
ATOM     17  C   UNL     1      34.024 -17.523 -28.320  1.00  0.00     0.224 C 
ATOM     18  C   UNL     1      33.349 -18.544 -27.385  1.00  0.00     0.208 C 
ATOM     19  O   UNL     1      33.168 -17.375 -29.436  1.00  0.00    -0.337 OA
ATOM     20  C   UNL     1      32.654 -19.458 -28.356  1.00  0.00     0.180 C 
ATOM     21  C   UNL     1      32.354 -18.527 -29.538  1.00  0.00     0.179 C 
BRANCH  17  22
ATOM     22  C   UNL     1      34.143 -16.122 -27.651  1.00  0.00     0.225 C 
BRANCH  22  23
ATOM     23  O   UNL     1      34.349 -15.122 -28.613  1.00  0.00    -0.391 OA
ATOM     24  H   UNL     1      35.035 -15.463 -29.244  1.00  0.00     0.210 HD
ENDBRANCH  22  23
ENDBRANCH  17  22
BRANCH  18  25
ATOM     25  O   UNL     1      34.269 -19.252 -26.596  1.00  0.00    -0.385 OA
ATOM     26  H   UNL     1      34.911 -18.584 -26.238  1.00  0.00     0.211 HD
ENDBRANCH  18  25
BRANCH  20  27
ATOM     27  O   UNL     1      31.506 -20.023 -27.777  1.00  0.00    -0.387 OA
ATOM     28  H   UNL     1      31.731 -20.202 -26.827  1.00  0.00     0.211 HD
ENDBRANCH  20  27
BRANCH  21  29
ATOM     29  C   UNL     1      30.884 -18.088 -29.646  1.00  0.00     0.191 C 
BRANCH  29  30
ATOM     30  O   UNL     1      30.071 -19.177 -29.987  1.00  0.00    -0.394 OA
ATOM     31  H   UNL     1      29.151 -18.930 -29.708  1.00  0.00     0.210 HD
ENDBRANCH  29  30
ENDBRANCH  21  29
ENDBRANCH   1  17
TORSDOF 13
ENDMDL
MODEL 3
REMARK VINA RESULT:     4.996      1.386      2.337
REMARK INTER + INTRA:           6.238
REMARK INTER:                   7.245
REMARK INTRA:                  -1.007
REMARK UNBOUND:                -1.387
REMARK SMILES OC[C@H]1O[C@](CO)(O[C@@H]2O[C@H](CO)[C@@H](O)[C@H](O)[C@H]2O)[C@H](O)[C@H]1O
REMARK SMILES IDX 8 1 9 2 11 3 14 4 10 5 16 6 18 7 12 8 13 9 15 11 17 13 19 15
REMARK SMILES IDX 5 17 20 18 4 19 22 20 3 21 6 22 7 23 21 25 23 27 2 29 1 30
REMARK H PARENT 13 10 15 12 17 14 19 16 7 24 21 26 23 28 1 31
REMARK Flexibility Score: inf
ROOT
ATOM      1  O   UNL     1      33.922 -18.397 -29.218  1.00  0.00    -0.313 OA
ENDROOT
BRANCH   1   2
ATOM      2  C   UNL     1      33.092 -19.395 -28.640  1.00  0.00     0.285 C 
ATOM      3  C   UNL     1      32.062 -20.077 -30.692  1.00  0.00     0.178 C 
ATOM      4  C   UNL     1      30.749 -19.309 -30.359  1.00  0.00     0.177 C 
ATOM      5  O   UNL     1      32.840 -20.448 -29.558  1.00  0.00    -0.341 OA
ATOM      6  C   UNL     1      30.934 -18.232 -29.272  1.00  0.00     0.179 C 
ATOM      7  C   UNL     1      31.789 -18.763 -28.118  1.00  0.00     0.202 C 
BRANCH   3   8
ATOM      8  C   UNL     1      32.904 -19.474 -31.838  1.00  0.00     0.191 C 
BRANCH   8   9
ATOM      9  O   UNL     1      34.217 -19.957 -31.846  1.00  0.00    -0.394 OA
ATOM     10  H   UNL     1      34.338 -20.448 -30.992  1.00  0.00     0.210 HD
ENDBRANCH   8   9
ENDBRANCH   3   8
BRANCH   4  11
ATOM     11  O   UNL     1      29.774 -20.221 -29.915  1.00  0.00    -0.387 OA
ATOM     12  H   UNL     1      29.036 -19.688 -29.516  1.00  0.00     0.211 HD
ENDBRANCH   4  11
BRANCH   6  13
ATOM     13  O   UNL     1      31.521 -17.071 -29.802  1.00  0.00    -0.387 OA
ATOM     14  H   UNL     1      32.080 -17.355 -30.572  1.00  0.00     0.211 HD
ENDBRANCH   6  13
BRANCH   7  15
ATOM     15  O   UNL     1      31.053 -19.713 -27.390  1.00  0.00    -0.385 OA
ATOM     16  H   UNL     1      30.113 -19.392 -27.363  1.00  0.00     0.211 HD
ENDBRANCH   7  15
ENDBRANCH   1   2
BRANCH   1  17
ATOM     17  C   UNL     1      35.258 -18.312 -28.711  1.00  0.00     0.224 C 
ATOM     18  C   UNL     1      35.883 -16.940 -29.027  1.00  0.00     0.208 C 
ATOM     19  O   UNL     1      36.009 -19.269 -29.431  1.00  0.00    -0.337 OA
ATOM     20  C   UNL     1      36.350 -17.120 -30.445  1.00  0.00     0.180 C 
ATOM     21  C   UNL     1      36.650 -18.623 -30.513  1.00  0.00     0.179 C 
BRANCH  17  22
ATOM     22  C   UNL     1      35.393 -18.670 -27.202  1.00  0.00     0.225 C 
BRANCH  22  23
ATOM     23  O   UNL     1      35.842 -19.990 -27.037  1.00  0.00    -0.391 OA
ATOM     24  H   UNL     1      36.816 -19.945 -26.852  1.00  0.00     0.210 HD
ENDBRANCH  22  23
ENDBRANCH  17  22
BRANCH  18  25
ATOM     25  O   UNL     1      34.962 -15.885 -28.929  1.00  0.00    -0.385 OA
ATOM     26  H   UNL     1      34.272 -16.171 -28.275  1.00  0.00     0.211 HD
ENDBRANCH  18  25
BRANCH  20  27
ATOM     27  O   UNL     1      37.466 -16.309 -30.711  1.00  0.00    -0.387 OA
ATOM     28  H   UNL     1      37.122 -15.502 -31.173  1.00  0.00     0.211 HD
ENDBRANCH  20  27
BRANCH  21  29
ATOM     29  C   UNL     1      38.146 -18.977 -30.487  1.00  0.00     0.191 C 
BRANCH  29  30
ATOM     30  O   UNL     1      38.339 -20.257 -29.950  1.00  0.00    -0.394 OA
ATOM     31  H   UNL     1      38.960 -20.143 -29.185  1.00  0.00     0.210 HD
ENDBRANCH  29  30
ENDBRANCH  21  29
ENDBRANCH   1  17
TORSDOF 13
ENDMDL
MODEL 4
REMARK VINA RESULT:     5.116      1.466      5.557
REMARK INTER + INTRA:           6.421
REMARK INTER:                   7.301
REMARK INTRA:                  -0.880
REMARK UNBOUND:                -1.387
REMARK SMILES OC[C@H]1O[C@](CO)(O[C@@H]2O[C@H](CO)[C@@H](O)[C@H](O)[C@H]2O)[C@H](O)[C@H]1O
REMARK SMILES IDX 8 1 9 2 11 3 14 4 10 5 16 6 18 7 12 8 13 9 15 11 17 13 19 15
REMARK SMILES IDX 5 17 20 18 4 19 22 20 3 21 6 22 7 23 21 25 23 27 2 29 1 30
REMARK H PARENT 13 10 15 12 17 14 19 16 7 24 21 26 23 28 1 31
REMARK Flexibility Score: inf
ROOT
ATOM      1  O   UNL     1      34.892 -18.781 -30.349  1.00  0.00    -0.313 OA
ENDROOT
BRANCH   1   2
ATOM      2  C   UNL     1      36.256 -18.834 -29.955  1.00  0.00     0.285 C 
ATOM      3  C   UNL     1      36.470 -16.494 -29.492  1.00  0.00     0.178 C 
ATOM      4  C   UNL     1      37.242 -16.239 -30.820  1.00  0.00     0.177 C 
ATOM      5  O   UNL     1      36.554 -17.828 -28.999  1.00  0.00    -0.341 OA
ATOM      6  C   UNL     1      37.056 -17.365 -31.855  1.00  0.00     0.179 C 
ATOM      7  C   UNL     1      37.168 -18.741 -31.192  1.00  0.00     0.202 C 
BRANCH   3   8
ATOM      8  C   UNL     1      35.038 -15.915 -29.441  1.00  0.00     0.191 C 
BRANCH   8   9
ATOM      9  O   UNL     1      34.512 -15.907 -28.144  1.00  0.00    -0.394 OA
ATOM     10  H   UNL     1      34.830 -15.067 -27.721  1.00  0.00     0.210 HD
ENDBRANCH   8   9
ENDBRANCH   3   8
BRANCH   4  11
ATOM     11  O   UNL     1      38.616 -16.113 -30.545  1.00  0.00    -0.387 OA
ATOM     12  H   UNL     1      39.090 -16.768 -31.124  1.00  0.00     0.211 HD
ENDBRANCH   4  11
BRANCH   6  13
ATOM     13  O   UNL     1      35.819 -17.254 -32.512  1.00  0.00    -0.387 OA
ATOM     14  H   UNL     1      35.961 -17.553 -33.448  1.00  0.00     0.211 HD
ENDBRANCH   6  13
BRANCH   7  15
ATOM     15  O   UNL     1      38.504 -18.973 -30.821  1.00  0.00    -0.385 OA
ATOM     16  H   UNL     1      38.759 -18.249 -30.191  1.00  0.00     0.211 HD
ENDBRANCH   7  15
ENDBRANCH   1   2
BRANCH   1  17
ATOM     17  C   UNL     1      33.935 -19.234 -29.385  1.00  0.00     0.224 C 
ATOM     18  C   UNL     1      33.153 -20.452 -29.913  1.00  0.00     0.208 C 
ATOM     19  O   UNL     1      32.998 -18.186 -29.244  1.00  0.00    -0.337 OA
ATOM     20  C   UNL     1      32.099 -19.808 -30.770  1.00  0.00     0.180 C 
ATOM     21  C   UNL     1      31.894 -18.449 -30.087  1.00  0.00     0.179 C 
BRANCH  17  22
ATOM     22  C   UNL     1      34.531 -19.504 -27.972  1.00  0.00     0.225 C 
BRANCH  22  23
ATOM     23  O   UNL     1      34.276 -18.428 -27.106  1.00  0.00    -0.391 OA
ATOM     24  H   UNL     1      35.011 -17.773 -27.234  1.00  0.00     0.210 HD
ENDBRANCH  22  23
ENDBRANCH  17  22
BRANCH  18  25
ATOM     25  O   UNL     1      33.950 -21.328 -30.666  1.00  0.00    -0.385 OA
ATOM     26  H   UNL     1      34.520 -21.821 -30.020  1.00  0.00     0.211 HD
ENDBRANCH  18  25
BRANCH  20  27
ATOM     27  O   UNL     1      30.939 -20.598 -30.815  1.00  0.00    -0.387 OA
ATOM     28  H   UNL     1      30.874 -21.051 -29.934  1.00  0.00     0.211 HD
ENDBRANCH  20  27
BRANCH  21  29
ATOM     29  C   UNL     1      30.601 -18.340 -29.262  1.00  0.00     0.191 C 
BRANCH  29  30
ATOM     30  O   UNL     1      30.893 -17.981 -27.938  1.00  0.00    -0.394 OA
ATOM     31  H   UNL     1      30.068 -17.564 -27.579  1.00  0.00     0.210 HD
ENDBRANCH  29  30
ENDBRANCH  21  29
ENDBRANCH   1  17
TORSDOF 13
ENDMDL
MODEL 5
REMARK VINA RESULT:     6.107      1.440      5.646
REMARK INTER + INTRA:           7.933
REMARK INTER:                   9.085
REMARK INTRA:                  -1.151
REMARK UNBOUND:                -1.387
REMARK SMILES OC[C@H]1O[C@](CO)(O[C@@H]2O[C@H](CO)[C@@H](O)[C@H](O)[C@H]2O)[C@H](O)[C@H]1O
REMARK SMILES IDX 8 1 9 2 11 3 14 4 10 5 16 6 18 7 12 8 13 9 15 11 17 13 19 15
REMARK SMILES IDX 5 17 20 18 4 19 22 20 3 21 6 22 7 23 21 25 23 27 2 29 1 30
REMARK H PARENT 13 10 15 12 17 14 19 16 7 24 21 26 23 28 1 31
REMARK Flexibility Score: inf
ROOT
ATOM      1  O   UNL     1      34.346 -18.722 -30.391  1.00  0.00    -0.313 OA
ENDROOT
BRANCH   1   2
ATOM      2  C   UNL     1      35.566 -19.086 -29.758  1.00  0.00     0.285 C 
ATOM      3  C   UNL     1      36.195 -16.860 -29.139  1.00  0.00     0.178 C 
ATOM      4  C   UNL     1      37.241 -16.769 -30.288  1.00  0.00     0.177 C 
ATOM      5  O   UNL     1      35.890 -18.184 -28.712  1.00  0.00    -0.341 OA
ATOM      6  C   UNL     1      37.013 -17.813 -31.400  1.00  0.00     0.179 C 
ATOM      7  C   UNL     1      36.693 -19.186 -30.802  1.00  0.00     0.202 C 
BRANCH   3   8
ATOM      8  C   UNL     1      34.941 -15.974 -29.318  1.00  0.00     0.191 C 
BRANCH   8   9
ATOM      9  O   UNL     1      34.297 -15.710 -28.105  1.00  0.00    -0.394 OA
ATOM     10  H   UNL     1      33.570 -15.066 -28.310  1.00  0.00     0.210 HD
ENDBRANCH   8   9
ENDBRANCH   3   8
BRANCH   4  11
ATOM     11  O   UNL     1      38.532 -16.959 -29.762  1.00  0.00    -0.387 OA
ATOM     12  H   UNL     1      38.546 -17.860 -29.343  1.00  0.00     0.211 HD
ENDBRANCH   4  11
BRANCH   6  13
ATOM     13  O   UNL     1      35.977 -17.418 -32.263  1.00  0.00    -0.387 OA
ATOM     14  H   UNL     1      36.406 -17.076 -33.091  1.00  0.00     0.211 HD
ENDBRANCH   6  13
BRANCH   7  15
ATOM     15  O   UNL     1      37.851 -19.717 -30.207  1.00  0.00    -0.385 OA
ATOM     16  H   UNL     1      37.646 -19.851 -29.244  1.00  0.00     0.211 HD
ENDBRANCH   7  15
ENDBRANCH   1   2
BRANCH   1  17
ATOM     17  C   UNL     1      33.202 -19.521 -30.069  1.00  0.00     0.224 C 
ATOM     18  C   UNL     1      31.899 -18.806 -30.471  1.00  0.00     0.208 C 
ATOM     19  O   UNL     1      33.184 -19.625 -28.659  1.00  0.00    -0.337 OA
ATOM     20  C   UNL     1      31.672 -17.877 -29.311  1.00  0.00     0.180 C 
ATOM     21  C   UNL     1      32.320 -18.633 -28.143  1.00  0.00     0.179 C 
BRANCH  17  22
ATOM     22  C   UNL     1      33.258 -20.972 -30.630  1.00  0.00     0.225 C 
BRANCH  22  23
ATOM     23  O   UNL     1      33.631 -20.973 -31.983  1.00  0.00    -0.391 OA
ATOM     24  H   UNL     1      34.271 -20.224 -32.109  1.00  0.00     0.210 HD
ENDBRANCH  22  23
ENDBRANCH  17  22
BRANCH  18  25
ATOM     25  O   UNL     1      32.016 -18.093 -31.674  1.00  0.00    -0.385 OA
ATOM     26  H   UNL     1      32.979 -18.096 -31.913  1.00  0.00     0.211 HD
ENDBRANCH  18  25
BRANCH  20  27
ATOM     27  O   UNL     1      30.302 -17.626 -29.131  1.00  0.00    -0.387 OA
ATOM     28  H   UNL     1      29.874 -17.761 -30.015  1.00  0.00     0.211 HD
ENDBRANCH  20  27
BRANCH  21  29
ATOM     29  C   UNL     1      31.321 -19.296 -27.180  1.00  0.00     0.191 C 
BRANCH  29  30
ATOM     30  O   UNL     1      30.661 -20.358 -27.814  1.00  0.00    -0.394 OA
ATOM     31  H   UNL     1      31.169 -20.538 -28.647  1.00  0.00     0.210 HD
ENDBRANCH  29  30
ENDBRANCH  21  29
ENDBRANCH   1  17
TORSDOF 13
ENDMDL
