MODEL 1
REMARK VINA RESULT:    -4.097      0.000      0.000
REMARK INTER + INTRA:          -4.535
REMARK INTER:                  -4.337
REMARK INTRA:                  -0.199
REMARK UNBOUND:                -0.199
REMARK SMILES CC1=CC[C@H](C(C)C)C=C1
REMARK SMILES IDX 1 1 2 2 3 3 4 4 5 5 9 6 10 7 6 8 7 9 8 10
REMARK H PARENT
REMARK Flexibility Score: inf
ROOT
ATOM      1  C   UNL     1      29.900   7.991  27.313  1.00  0.00     0.044 C 
ATOM      2  C   UNL     1      30.276   8.117  28.758  1.00  0.00    -0.055 C 
ATOM      3  C   UNL     1      29.958   9.223  29.449  1.00  0.00    -0.023 C 
ATOM      4  C   UNL     1      30.452   9.420  30.859  1.00  0.00     0.035 C 
ATOM      5  C   UNL     1      30.551   8.070  31.616  1.00  0.00     0.018 C 
ATOM      6  C   UNL     1      31.262   7.057  30.732  1.00  0.00    -0.023 C 
ATOM      7  C   UNL     1      31.076   7.057  29.408  1.00  0.00    -0.001 C 
ENDROOT
BRANCH   5   8
ATOM      8  C   UNL     1      31.247   8.200  33.008  1.00  0.00    -0.010 C 
ATOM      9  C   UNL     1      32.222   9.391  33.034  1.00  0.00     0.008 C 
ATOM     10  C   UNL     1      32.017   6.928  33.405  1.00  0.00     0.008 C 
ENDBRANCH   5   8
TORSDOF 1
ENDMDL
MODEL 2
REMARK VINA RESULT:    -4.068      3.174      5.385
REMARK INTER + INTRA:          -4.505
REMARK INTER:                  -4.343
REMARK INTRA:                  -0.161
REMARK UNBOUND:                -0.199
REMARK SMILES CC1=CC[C@H](C(C)C)C=C1
REMARK SMILES IDX 1 1 2 2 3 3 4 4 5 5 9 6 10 7 6 8 7 9 8 10
REMARK H PARENT
REMARK Flexibility Score: inf
ROOT
ATOM      1  C   UNL     1      30.763   6.001  36.746  1.00  0.00     0.044 C 
ATOM      2  C   UNL     1      31.139   6.977  35.672  1.00  0.00    -0.055 C 
ATOM      3  C   UNL     1      31.402   6.550  34.428  1.00  0.00    -0.023 C 
ATOM      4  C   UNL     1      31.915   7.502  33.378  1.00  0.00     0.035 C 
ATOM      5  C   UNL     1      31.327   8.924  33.570  1.00  0.00     0.018 C 
ATOM      6  C   UNL     1      31.452   9.319  35.033  1.00  0.00    -0.023 C 
ATOM      7  C   UNL     1      31.304   8.410  36.002  1.00  0.00    -0.001 C 
ENDROOT
BRANCH   5   8
ATOM      8  C   UNL     1      31.981   9.988  32.633  1.00  0.00    -0.010 C 
ATOM      9  C   UNL     1      33.125  10.731  33.349  1.00  0.00     0.008 C 
ATOM     10  C   UNL     1      30.968  11.026  32.119  1.00  0.00     0.008 C 
ENDBRANCH   5   8
TORSDOF 1
ENDMDL
MODEL 3
REMARK VINA RESULT:    -4.048      1.535      2.479
REMARK INTER + INTRA:          -4.484
REMARK INTER:                  -4.295
REMARK INTRA:                  -0.188
REMARK UNBOUND:                -0.199
REMARK SMILES CC1=CC[C@H](C(C)C)C=C1
REMARK SMILES IDX 1 1 2 2 3 3 4 4 5 5 9 6 10 7 6 8 7 9 8 10
REMARK H PARENT
REMARK Flexibility Score: inf
ROOT
ATOM      1  C   UNL     1      30.626   6.235  30.006  1.00  0.00     0.044 C 
ATOM      2  C   UNL     1      30.912   7.336  30.982  1.00  0.00    -0.055 C 
ATOM      3  C   UNL     1      30.582   8.604  30.692  1.00  0.00    -0.023 C 
ATOM      4  C   UNL     1      30.990   9.734  31.602  1.00  0.00     0.035 C 
ATOM      5  C   UNL     1      31.001   9.288  33.087  1.00  0.00     0.018 C 
ATOM      6  C   UNL     1      31.736   7.962  33.201  1.00  0.00    -0.023 C 
ATOM      7  C   UNL     1      31.636   7.040  32.237  1.00  0.00    -0.001 C 
ENDROOT
BRANCH   5   8
ATOM      8  C   UNL     1      31.608  10.361  34.044  1.00  0.00    -0.010 C 
ATOM      9  C   UNL     1      33.037  10.745  33.614  1.00  0.00     0.008 C 
ATOM     10  C   UNL     1      31.647   9.892  35.509  1.00  0.00     0.008 C 
ENDBRANCH   5   8
TORSDOF 1
ENDMDL
MODEL 4
REMARK VINA RESULT:    -4.038      0.873      1.422
REMARK INTER + INTRA:          -4.473
REMARK INTER:                  -4.338
REMARK INTRA:                  -0.135
REMARK UNBOUND:                -0.199
REMARK SMILES CC1=CC[C@H](C(C)C)C=C1
REMARK SMILES IDX 1 1 2 2 3 3 4 4 5 5 9 6 10 7 6 8 7 9 8 10
REMARK H PARENT
REMARK Flexibility Score: inf
ROOT
ATOM      1  C   UNL     1      29.945   7.258  27.038  1.00  0.00     0.044 C 
ATOM      2  C   UNL     1      30.406   7.340  28.462  1.00  0.00    -0.055 C 
ATOM      3  C   UNL     1      30.028   8.367  29.240  1.00  0.00    -0.023 C 
ATOM      4  C   UNL     1      30.596   8.533  30.626  1.00  0.00     0.035 C 
ATOM      5  C   UNL     1      30.880   7.160  31.288  1.00  0.00     0.018 C 
ATOM      6  C   UNL     1      31.624   6.277  30.300  1.00  0.00    -0.023 C 
ATOM      7  C   UNL     1      31.349   6.332  28.992  1.00  0.00    -0.001 C 
ENDROOT
BRANCH   5   8
ATOM      8  C   UNL     1      31.652   7.281  32.640  1.00  0.00    -0.010 C 
ATOM      9  C   UNL     1      30.847   6.665  33.799  1.00  0.00     0.008 C 
ATOM     10  C   UNL     1      31.989   8.740  32.999  1.00  0.00     0.008 C 
ENDBRANCH   5   8
TORSDOF 1
ENDMDL
MODEL 5
REMARK VINA RESULT:    -4.020      3.382      6.626
REMARK INTER + INTRA:          -4.454
REMARK INTER:                  -4.255
REMARK INTRA:                  -0.199
REMARK UNBOUND:                -0.199
REMARK SMILES CC1=CC[C@H](C(C)C)C=C1
REMARK SMILES IDX 1 1 2 2 3 3 4 4 5 5 9 6 10 7 6 8 7 9 8 10
REMARK H PARENT
REMARK Flexibility Score: inf
ROOT
ATOM      1  C   UNL     1      30.828   8.838  39.261  1.00  0.00     0.044 C 
ATOM      2  C   UNL     1      31.009   8.697  37.779  1.00  0.00    -0.055 C 
ATOM      3  C   UNL     1      30.704   7.545  37.164  1.00  0.00    -0.023 C 
ATOM      4  C   UNL     1      31.012   7.346  35.702  1.00  0.00     0.035 C 
ATOM      5  C   UNL     1      30.876   8.673  34.911  1.00  0.00     0.018 C 
ATOM      6  C   UNL     1      31.603   9.776  35.664  1.00  0.00    -0.023 C 
ATOM      7  C   UNL     1      31.606   9.804  37.001  1.00  0.00    -0.001 C 
ENDROOT
BRANCH   5   8
ATOM      8  C   UNL     1      31.378   8.561  33.437  1.00  0.00    -0.010 C 
ATOM      9  C   UNL     1      31.946   7.158  33.148  1.00  0.00     0.008 C 
ATOM     10  C   UNL     1      32.458   9.605  33.100  1.00  0.00     0.008 C 
ENDBRANCH   5   8
TORSDOF 1
ENDMDL
MODEL 6
REMARK VINA RESULT:    -4.006      0.987      4.460
REMARK INTER + INTRA:          -4.439
REMARK INTER:                  -4.240
REMARK INTRA:                  -0.199
REMARK UNBOUND:                -0.199
REMARK SMILES CC1=CC[C@H](C(C)C)C=C1
REMARK SMILES IDX 1 1 2 2 3 3 4 4 5 5 9 6 10 7 6 8 7 9 8 10
REMARK H PARENT
REMARK Flexibility Score: inf
ROOT
ATOM      1  C   UNL     1      31.446   8.734  33.931  1.00  0.00     0.044 C 
ATOM      2  C   UNL     1      31.221   8.316  32.509  1.00  0.00    -0.055 C 
ATOM      3  C   UNL     1      31.449   7.049  32.129  1.00  0.00    -0.023 C 
ATOM      4  C   UNL     1      31.360   6.651  30.678  1.00  0.00     0.035 C 
ATOM      5  C   UNL     1      30.273   7.470  29.934  1.00  0.00     0.018 C 
ATOM      6  C   UNL     1      30.440   8.942  30.275  1.00  0.00    -0.023 C 
ATOM      7  C   UNL     1      30.826   9.320  31.498  1.00  0.00    -0.001 C 
ENDROOT
BRANCH   5   8
ATOM      8  C   UNL     1      30.283   7.237  28.390  1.00  0.00    -0.010 C 
ATOM      9  C   UNL     1      31.683   6.822  27.898  1.00  0.00     0.008 C 
ATOM     10  C   UNL     1      29.837   8.482  27.602  1.00  0.00     0.008 C 
ENDBRANCH   5   8
TORSDOF 1
ENDMDL
MODEL 7
REMARK VINA RESULT:    -3.999      1.993      5.178
REMARK INTER + INTRA:          -4.432
REMARK INTER:                  -4.232
REMARK INTRA:                  -0.199
REMARK UNBOUND:                -0.199
REMARK SMILES CC1=CC[C@H](C(C)C)C=C1
REMARK SMILES IDX 1 1 2 2 3 3 4 4 5 5 9 6 10 7 6 8 7 9 8 10
REMARK H PARENT
REMARK Flexibility Score: inf
ROOT
ATOM      1  C   UNL     1      33.112  10.743  33.750  1.00  0.00     0.044 C 
ATOM      2  C   UNL     1      32.147  10.729  32.603  1.00  0.00    -0.055 C 
ATOM      3  C   UNL     1      31.469   9.611  32.299  1.00  0.00    -0.023 C 
ATOM      4  C   UNL     1      30.604   9.545  31.067  1.00  0.00     0.035 C 
ATOM      5  C   UNL     1      29.955  10.920  30.758  1.00  0.00     0.018 C 
ATOM      6  C   UNL     1      31.021  12.001  30.841  1.00  0.00    -0.023 C 
ATOM      7  C   UNL     1      32.002  11.926  31.746  1.00  0.00    -0.001 C 
ENDROOT
BRANCH   5   8
ATOM      8  C   UNL     1      29.216  10.952  29.383  1.00  0.00    -0.010 C 
ATOM      9  C   UNL     1      29.483   9.667  28.577  1.00  0.00     0.008 C 
ATOM     10  C   UNL     1      29.620  12.162  28.523  1.00  0.00     0.008 C 
ENDBRANCH   5   8
TORSDOF 1
ENDMDL
MODEL 8
REMARK VINA RESULT:    -3.951      1.132      2.214
REMARK INTER + INTRA:          -4.381
REMARK INTER:                  -4.247
REMARK INTRA:                  -0.133
REMARK UNBOUND:                -0.199
REMARK SMILES CC1=CC[C@H](C(C)C)C=C1
REMARK SMILES IDX 1 1 2 2 3 3 4 4 5 5 9 6 10 7 6 8 7 9 8 10
REMARK H PARENT
REMARK Flexibility Score: inf
ROOT
ATOM      1  C   UNL     1      29.962   7.713  28.459  1.00  0.00     0.044 C 
ATOM      2  C   UNL     1      30.360   8.278  29.789  1.00  0.00    -0.055 C 
ATOM      3  C   UNL     1      30.935   7.495  30.715  1.00  0.00    -0.023 C 
ATOM      4  C   UNL     1      31.211   8.016  32.102  1.00  0.00     0.035 C 
ATOM      5  C   UNL     1      31.564   9.526  32.077  1.00  0.00     0.018 C 
ATOM      6  C   UNL     1      30.550  10.259  31.214  1.00  0.00    -0.023 C 
ATOM      7  C   UNL     1      30.043   9.684  30.118  1.00  0.00    -0.001 C 
ENDROOT
BRANCH   5   8
ATOM      8  C   UNL     1      31.660  10.155  33.503  1.00  0.00    -0.010 C 
ATOM      9  C   UNL     1      33.040  10.800  33.736  1.00  0.00     0.008 C 
ATOM     10  C   UNL     1      31.406   9.127  34.621  1.00  0.00     0.008 C 
ENDBRANCH   5   8
TORSDOF 1
ENDMDL
MODEL 9
REMARK VINA RESULT:    -3.893      1.314      4.968
REMARK INTER + INTRA:          -4.320
REMARK INTER:                  -4.191
REMARK INTRA:                  -0.129
REMARK UNBOUND:                -0.199
REMARK SMILES CC1=CC[C@H](C(C)C)C=C1
REMARK SMILES IDX 1 1 2 2 3 3 4 4 5 5 9 6 10 7 6 8 7 9 8 10
REMARK H PARENT
REMARK Flexibility Score: inf
ROOT
ATOM      1  C   UNL     1      31.334   7.023  32.255  1.00  0.00     0.044 C 
ATOM      2  C   UNL     1      31.138   7.172  30.776  1.00  0.00    -0.055 C 
ATOM      3  C   UNL     1      31.634   6.256  29.930  1.00  0.00    -0.023 C 
ATOM      4  C   UNL     1      31.564   6.467  28.439  1.00  0.00     0.035 C 
ATOM      5  C   UNL     1      30.279   7.237  28.037  1.00  0.00     0.018 C 
ATOM      6  C   UNL     1      30.117   8.442  28.950  1.00  0.00    -0.023 C 
ATOM      7  C   UNL     1      30.468   8.376  30.239  1.00  0.00    -0.001 C 
ENDROOT
BRANCH   5   8
ATOM      8  C   UNL     1      30.261   7.654  26.533  1.00  0.00    -0.010 C 
ATOM      9  C   UNL     1      29.293   8.828  26.292  1.00  0.00     0.008 C 
ATOM     10  C   UNL     1      29.864   6.494  25.603  1.00  0.00     0.008 C 
ENDBRANCH   5   8
TORSDOF 1
ENDMDL
