MODEL 1
REMARK VINA RESULT:    -3.189      0.000      0.000
REMARK INTER + INTRA:          -5.843
REMARK INTER:                  -4.867
REMARK INTRA:                  -0.976
REMARK UNBOUND:                -0.976
REMARK SMILES CCCCCCCCCCC(=O)[O-]
REMARK SMILES IDX 7 1 8 2 9 3 10 4 11 5 12 6 13 7 6 8 5 9 4 10 3 11 2 12 1 13
REMARK H PARENT
REMARK Flexibility Score: inf
ROOT
ATOM      1  C   UNL     1       8.387 -32.265  13.095  1.00  0.00     0.000 C 
ENDROOT
BRANCH   1   2
ATOM      2  C   UNL     1       9.367 -33.443  12.977  1.00  0.00     0.000 C 
BRANCH   2   3
ATOM      3  C   UNL     1      10.757 -33.054  13.494  1.00  0.00     0.006 C 
BRANCH   3   4
ATOM      4  C   UNL     1      10.887 -31.534  13.632  1.00  0.00     0.053 C 
BRANCH   4   5
ATOM      5  C   UNL     1      12.022 -31.187  14.543  1.00  0.00     0.041 C 
ATOM      6  O   UNL     1      11.800 -30.882  15.745  1.00  0.00    -0.550 OA
ATOM      7  O   UNL     1      13.329 -31.246  14.078  1.00  0.00    -0.550 OA
ENDBRANCH   4   5
ENDBRANCH   3   4
ENDBRANCH   2   3
ENDBRANCH   1   2
BRANCH   1   8
ATOM      8  C   UNL     1       6.963 -32.711  13.466  1.00  0.00     0.000 C 
BRANCH   8   9
ATOM      9  C   UNL     1       6.736 -32.755  14.987  1.00  0.00    -0.000 C 
BRANCH   9  10
ATOM     10  C   UNL     1       7.301 -34.031  15.631  1.00  0.00    -0.000 C 
BRANCH  10  11
ATOM     11  C   UNL     1       8.464 -33.744  16.598  1.00  0.00    -0.000 C 
BRANCH  11  12
ATOM     12  C   UNL     1       8.650 -32.242  16.863  1.00  0.00    -0.003 C 
ATOM     13  C   UNL     1       8.559 -31.890  18.347  1.00  0.00     0.004 C 
ENDBRANCH  11  12
ENDBRANCH  10  11
ENDBRANCH   9  10
ENDBRANCH   8   9
ENDBRANCH   1   8
TORSDOF 9
ENDMDL
MODEL 2
REMARK VINA RESULT:    -3.153      1.767      4.284
REMARK INTER + INTRA:          -5.787
REMARK INTER:                  -4.888
REMARK INTRA:                  -0.899
REMARK UNBOUND:                -0.976
REMARK SMILES CCCCCCCCCCC(=O)[O-]
REMARK SMILES IDX 7 1 8 2 9 3 10 4 11 5 12 6 13 7 6 8 5 9 4 10 3 11 2 12 1 13
REMARK H PARENT
REMARK Flexibility Score: inf
ROOT
ATOM      1  C   UNL     1       8.108 -34.192  14.067  1.00  0.00     0.000 C 
ENDROOT
BRANCH   1   2
ATOM      2  C   UNL     1       7.491 -32.799  14.270  1.00  0.00     0.000 C 
BRANCH   2   3
ATOM      3  C   UNL     1       7.350 -32.474  15.762  1.00  0.00     0.006 C 
BRANCH   3   4
ATOM      4  C   UNL     1       8.620 -32.854  16.530  1.00  0.00     0.053 C 
BRANCH   4   5
ATOM      5  C   UNL     1       8.901 -31.851  17.605  1.00  0.00     0.041 C 
ATOM      6  O   UNL     1       8.222 -31.851  18.665  1.00  0.00    -0.550 OA
ATOM      7  O   UNL     1       9.946 -30.948  17.455  1.00  0.00    -0.550 OA
ENDBRANCH   4   5
ENDBRANCH   3   4
ENDBRANCH   2   3
ENDBRANCH   1   2
BRANCH   1   8
ATOM      8  C   UNL     1       9.212 -34.202  12.997  1.00  0.00     0.000 C 
BRANCH   8   9
ATOM      9  C   UNL     1      10.619 -34.351  13.602  1.00  0.00    -0.000 C 
BRANCH   9  10
ATOM     10  C   UNL     1      11.536 -33.166  13.258  1.00  0.00    -0.000 C 
BRANCH  10  11
ATOM     11  C   UNL     1      11.037 -31.836  13.852  1.00  0.00    -0.000 C 
BRANCH  11  12
ATOM     12  C   UNL     1      12.130 -31.097  14.639  1.00  0.00    -0.003 C 
ATOM     13  C   UNL     1      13.522 -31.294  14.041  1.00  0.00     0.004 C 
ENDBRANCH  11  12
ENDBRANCH  10  11
ENDBRANCH   9  10
ENDBRANCH   8   9
ENDBRANCH   1   8
TORSDOF 9
ENDMDL
MODEL 3
REMARK VINA RESULT:    -3.008      0.829      1.558
REMARK INTER + INTRA:          -5.567
REMARK INTER:                  -4.721
REMARK INTRA:                  -0.846
REMARK UNBOUND:                -0.976
REMARK SMILES CCCCCCCCCCC(=O)[O-]
REMARK SMILES IDX 7 1 8 2 9 3 10 4 11 5 12 6 13 7 6 8 5 9 4 10 3 11 2 12 1 13
REMARK H PARENT
REMARK Flexibility Score: inf
ROOT
ATOM      1  C   UNL     1       9.135 -34.823  13.723  1.00  0.00     0.000 C 
ENDROOT
BRANCH   1   2
ATOM      2  C   UNL     1       9.616 -33.635  12.875  1.00  0.00     0.000 C 
BRANCH   2   3
ATOM      3  C   UNL     1      10.962 -33.106  13.386  1.00  0.00     0.006 C 
BRANCH   3   4
ATOM      4  C   UNL     1      10.867 -31.621  13.748  1.00  0.00     0.053 C 
BRANCH   4   5
ATOM      5  C   UNL     1      12.041 -31.209  14.580  1.00  0.00     0.041 C 
ATOM      6  O   UNL     1      13.196 -31.187  14.079  1.00  0.00    -0.550 OA
ATOM      7  O   UNL     1      11.852 -30.802  15.894  1.00  0.00    -0.550 OA
ENDBRANCH   4   5
ENDBRANCH   3   4
ENDBRANCH   2   3
ENDBRANCH   1   2
BRANCH   1   8
ATOM      8  C   UNL     1       7.874 -34.497  14.540  1.00  0.00     0.000 C 
BRANCH   8   9
ATOM      9  C   UNL     1       7.484 -33.010  14.455  1.00  0.00    -0.000 C 
BRANCH   9  10
ATOM     10  C   UNL     1       7.382 -32.348  15.839  1.00  0.00    -0.000 C 
BRANCH  10  11
ATOM     11  C   UNL     1       8.579 -32.682  16.747  1.00  0.00    -0.000 C 
BRANCH  11  12
ATOM     12  C   UNL     1       8.399 -32.148  18.176  1.00  0.00    -0.003 C 
ATOM     13  C   UNL     1       9.493 -31.159  18.578  1.00  0.00     0.004 C 
ENDBRANCH  11  12
ENDBRANCH  10  11
ENDBRANCH   9  10
ENDBRANCH   8   9
ENDBRANCH   1   8
TORSDOF 9
ENDMDL
MODEL 4
REMARK VINA RESULT:    -2.955      1.866      4.652
REMARK INTER + INTRA:          -5.486
REMARK INTER:                  -4.818
REMARK INTRA:                  -0.668
REMARK UNBOUND:                -0.976
REMARK SMILES CCCCCCCCCCC(=O)[O-]
REMARK SMILES IDX 7 1 8 2 9 3 10 4 11 5 12 6 13 7 6 8 5 9 4 10 3 11 2 12 1 13
REMARK H PARENT
REMARK Flexibility Score: inf
ROOT
ATOM      1  C   UNL     1       8.562 -32.485  14.369  1.00  0.00     0.000 C 
ENDROOT
BRANCH   1   2
ATOM      2  C   UNL     1       8.811 -33.795  15.133  1.00  0.00     0.000 C 
BRANCH   2   3
ATOM      3  C   UNL     1       8.541 -33.617  16.632  1.00  0.00     0.006 C 
BRANCH   3   4
ATOM      4  C   UNL     1       8.146 -32.172  16.951  1.00  0.00     0.053 C 
BRANCH   4   5
ATOM      5  C   UNL     1       9.162 -31.537  17.847  1.00  0.00     0.041 C 
ATOM      6  O   UNL     1       9.053 -31.635  19.098  1.00  0.00    -0.550 OA
ATOM      7  O   UNL     1      10.255 -30.878  17.300  1.00  0.00    -0.550 OA
ENDBRANCH   4   5
ENDBRANCH   3   4
ENDBRANCH   2   3
ENDBRANCH   1   2
BRANCH   1   8
ATOM      8  C   UNL     1       9.809 -31.989  13.617  1.00  0.00     0.000 C 
BRANCH   8   9
ATOM      9  C   UNL     1      10.672 -33.144  13.081  1.00  0.00    -0.000 C 
BRANCH   9  10
ATOM     10  C   UNL     1      12.170 -32.940  13.362  1.00  0.00    -0.000 C 
BRANCH  10  11
ATOM     11  C   UNL     1      12.470 -31.583  14.025  1.00  0.00    -0.000 C 
BRANCH  11  12
ATOM     12  C   UNL     1      13.975 -31.277  14.080  1.00  0.00    -0.003 C 
ATOM     13  C   UNL     1      14.307 -29.865  13.601  1.00  0.00     0.004 C 
ENDBRANCH  11  12
ENDBRANCH  10  11
ENDBRANCH   9  10
ENDBRANCH   8   9
ENDBRANCH   1   8
TORSDOF 9
ENDMDL
MODEL 5
REMARK VINA RESULT:    -2.805      1.564      2.379
REMARK INTER + INTRA:          -5.258
REMARK INTER:                  -4.375
REMARK INTRA:                  -0.882
REMARK UNBOUND:                -0.976
REMARK SMILES CCCCCCCCCCC(=O)[O-]
REMARK SMILES IDX 7 1 8 2 9 3 10 4 11 5 12 6 13 7 6 8 5 9 4 10 3 11 2 12 1 13
REMARK H PARENT
REMARK Flexibility Score: inf
ROOT
ATOM      1  C   UNL     1       7.262 -34.693  15.100  1.00  0.00     0.000 C 
ENDROOT
BRANCH   1   2
ATOM      2  C   UNL     1       7.744 -35.285  13.766  1.00  0.00     0.000 C 
BRANCH   2   3
ATOM      3  C   UNL     1       8.579 -34.265  12.983  1.00  0.00     0.006 C 
BRANCH   3   4
ATOM      4  C   UNL     1      10.011 -34.196  13.521  1.00  0.00     0.053 C 
BRANCH   4   5
ATOM      5  C   UNL     1      10.535 -32.797  13.438  1.00  0.00     0.041 C 
ATOM      6  O   UNL     1       9.740 -31.829  13.314  1.00  0.00    -0.550 OA
ATOM      7  O   UNL     1      11.899 -32.559  13.545  1.00  0.00    -0.550 OA
ENDBRANCH   4   5
ENDBRANCH   3   4
ENDBRANCH   2   3
ENDBRANCH   1   2
BRANCH   1   8
ATOM      8  C   UNL     1       6.624 -33.303  14.937  1.00  0.00     0.000 C 
BRANCH   8   9
ATOM      9  C   UNL     1       7.274 -32.245  15.846  1.00  0.00    -0.000 C 
BRANCH   9  10
ATOM     10  C   UNL     1       8.517 -32.779  16.576  1.00  0.00    -0.000 C 
BRANCH  10  11
ATOM     11  C   UNL     1       8.463 -32.538  18.095  1.00  0.00    -0.000 C 
BRANCH  11  12
ATOM     12  C   UNL     1       9.224 -31.270  18.516  1.00  0.00    -0.003 C 
ATOM     13  C   UNL     1      10.190 -30.778  17.439  1.00  0.00     0.004 C 
ENDBRANCH  11  12
ENDBRANCH  10  11
ENDBRANCH   9  10
ENDBRANCH   8   9
ENDBRANCH   1   8
TORSDOF 9
ENDMDL
MODEL 6
REMARK VINA RESULT:    -2.736      1.931      4.061
REMARK INTER + INTRA:          -5.152
REMARK INTER:                  -4.178
REMARK INTRA:                  -0.974
REMARK UNBOUND:                -0.976
REMARK SMILES CCCCCCCCCCC(=O)[O-]
REMARK SMILES IDX 7 1 8 2 9 3 10 4 11 5 12 6 13 7 6 8 5 9 4 10 3 11 2 12 1 13
REMARK H PARENT
REMARK Flexibility Score: inf
ROOT
ATOM      1  C   UNL     1       6.893 -33.702  15.345  1.00  0.00     0.000 C 
ENDROOT
BRANCH   1   2
ATOM      2  C   UNL     1       7.529 -32.363  14.936  1.00  0.00     0.000 C 
BRANCH   2   3
ATOM      3  C   UNL     1       8.698 -32.006  15.861  1.00  0.00     0.006 C 
BRANCH   3   4
ATOM      4  C   UNL     1       8.329 -32.238  17.329  1.00  0.00     0.053 C 
BRANCH   4   5
ATOM      5  C   UNL     1       9.252 -31.476  18.228  1.00  0.00     0.041 C 
ATOM      6  O   UNL     1       9.247 -31.690  19.469  1.00  0.00    -0.550 OA
ATOM      7  O   UNL     1      10.150 -30.564  17.689  1.00  0.00    -0.550 OA
ENDBRANCH   4   5
ENDBRANCH   3   4
ENDBRANCH   2   3
ENDBRANCH   1   2
BRANCH   1   8
ATOM      8  C   UNL     1       7.655 -34.916  14.788  1.00  0.00     0.000 C 
BRANCH   8   9
ATOM      9  C   UNL     1       7.973 -34.776  13.289  1.00  0.00    -0.000 C 
BRANCH   9  10
ATOM     10  C   UNL     1       9.223 -35.570  12.876  1.00  0.00    -0.000 C 
BRANCH  10  11
ATOM     11  C   UNL     1      10.532 -34.861  13.267  1.00  0.00    -0.000 C 
BRANCH  11  12
ATOM     12  C   UNL     1      10.530 -33.372  12.888  1.00  0.00    -0.003 C 
ATOM     13  C   UNL     1      11.636 -32.583  13.587  1.00  0.00     0.004 C 
ENDBRANCH  11  12
ENDBRANCH  10  11
ENDBRANCH   9  10
ENDBRANCH   8   9
ENDBRANCH   1   8
TORSDOF 9
ENDMDL
MODEL 7
REMARK VINA RESULT:    -2.608      2.168      3.937
REMARK INTER + INTRA:          -4.957
REMARK INTER:                  -3.822
REMARK INTRA:                  -1.135
REMARK UNBOUND:                -0.976
REMARK SMILES CCCCCCCCCCC(=O)[O-]
REMARK SMILES IDX 7 1 8 2 9 3 10 4 11 5 12 6 13 7 6 8 5 9 4 10 3 11 2 12 1 13
REMARK H PARENT
REMARK Flexibility Score: inf
ROOT
ATOM      1  C   UNL     1       9.543 -32.561  13.349  1.00  0.00     0.000 C 
ENDROOT
BRANCH   1   2
ATOM      2  C   UNL     1       9.970 -32.078  14.745  1.00  0.00     0.000 C 
BRANCH   2   3
ATOM      3  C   UNL     1       8.753 -31.905  15.662  1.00  0.00     0.006 C 
BRANCH   3   4
ATOM      4  C   UNL     1       8.876 -32.783  16.911  1.00  0.00     0.053 C 
BRANCH   4   5
ATOM      5  C   UNL     1       8.858 -31.939  18.147  1.00  0.00     0.041 C 
ATOM      6  O   UNL     1       8.165 -32.284  19.140  1.00  0.00    -0.550 OA
ATOM      7  O   UNL     1       9.646 -30.797  18.220  1.00  0.00    -0.550 OA
ENDBRANCH   4   5
ENDBRANCH   3   4
ENDBRANCH   2   3
ENDBRANCH   1   2
BRANCH   1   8
ATOM      8  C   UNL     1      10.305 -33.817  12.896  1.00  0.00     0.000 C 
BRANCH   8   9
ATOM      9  C   UNL     1       9.468 -35.100  13.043  1.00  0.00    -0.000 C 
BRANCH   9  10
ATOM     10  C   UNL     1       7.969 -34.808  13.219  1.00  0.00    -0.000 C 
BRANCH  10  11
ATOM     11  C   UNL     1       7.390 -35.428  14.504  1.00  0.00    -0.000 C 
BRANCH  11  12
ATOM     12  C   UNL     1       6.036 -34.814  14.893  1.00  0.00    -0.003 C 
ATOM     13  C   UNL     1       5.875 -33.378  14.398  1.00  0.00     0.004 C 
ENDBRANCH  11  12
ENDBRANCH  10  11
ENDBRANCH   9  10
ENDBRANCH   8   9
ENDBRANCH   1   8
TORSDOF 9
ENDMDL
