MODEL 1
REMARK VINA RESULT:    -5.517      0.000      0.000
REMARK INTER + INTRA:         -16.917
REMARK INTER:                 -13.901
REMARK INTRA:                  -3.016
REMARK UNBOUND:                -3.016
REMARK SMILES CCCCCCCCCCCCCCCCCCCCCCCCCCCC(=O)[O-]
REMARK SMILES IDX 15 1 16 2 17 3 18 4 19 5 20 6 21 7 22 8 23 9 24 10 25 11
REMARK SMILES IDX 26 12 27 13 28 14 29 15 30 16 14 17 13 18 12 19 11 20 10 21
REMARK SMILES IDX 9 22 8 23 7 24 6 25 5 26 4 27 3 28 2 29 1 30
REMARK H PARENT
REMARK Flexibility Score: inf
ROOT
ATOM      1  C   UNL     1       8.934  21.699  -5.808  1.00  0.00     0.000 C 
ENDROOT
BRANCH   1   2
ATOM      2  C   UNL     1       8.081  22.864  -5.279  1.00  0.00     0.000 C 
BRANCH   2   3
ATOM      3  C   UNL     1       6.707  23.024  -5.959  1.00  0.00     0.000 C 
BRANCH   3   4
ATOM      4  C   UNL     1       6.512  24.385  -6.668  1.00  0.00     0.000 C 
BRANCH   4   5
ATOM      5  C   UNL     1       7.314  24.539  -7.978  1.00  0.00     0.000 C 
BRANCH   5   6
ATOM      6  C   UNL     1       6.934  23.555  -9.103  1.00  0.00     0.000 C 
BRANCH   6   7
ATOM      7  C   UNL     1       5.950  24.100 -10.160  1.00  0.00     0.000 C 
BRANCH   7   8
ATOM      8  C   UNL     1       4.551  23.450 -10.116  1.00  0.00     0.000 C 
BRANCH   8   9
ATOM      9  C   UNL     1       4.467  22.277  -9.125  1.00  0.00     0.000 C 
BRANCH   9  10
ATOM     10  C   UNL     1       3.466  22.534  -7.986  1.00  0.00     0.000 C 
BRANCH  10  11
ATOM     11  C   UNL     1       2.135  21.783  -8.179  1.00  0.00     0.000 C 
BRANCH  11  12
ATOM     12  C   UNL     1       1.050  22.238  -7.190  1.00  0.00     0.006 C 
BRANCH  12  13
ATOM     13  C   UNL     1      -0.182  21.322  -7.202  1.00  0.00     0.053 C 
BRANCH  13  14
ATOM     14  C   UNL     1      -0.486  20.848  -8.591  1.00  0.00     0.041 C 
ATOM     15  O   UNL     1      -1.058  21.612  -9.412  1.00  0.00    -0.550 OA
ATOM     16  O   UNL     1      -0.163  19.549  -8.967  1.00  0.00    -0.550 OA
ENDBRANCH  13  14
ENDBRANCH  12  13
ENDBRANCH  11  12
ENDBRANCH  10  11
ENDBRANCH   9  10
ENDBRANCH   8   9
ENDBRANCH   7   8
ENDBRANCH   6   7
ENDBRANCH   5   6
ENDBRANCH   4   5
ENDBRANCH   3   4
ENDBRANCH   2   3
ENDBRANCH   1   2
BRANCH   1  17
ATOM     17  C   UNL     1      10.060  22.103  -6.778  1.00  0.00     0.000 C 
BRANCH  17  18
ATOM     18  C   UNL     1       9.983  21.406  -8.154  1.00  0.00     0.000 C 
BRANCH  18  19
ATOM     19  C   UNL     1      10.519  22.295  -9.290  1.00  0.00     0.000 C 
BRANCH  19  20
ATOM     20  C   UNL     1      10.798  23.737  -8.837  1.00  0.00     0.000 C 
BRANCH  20  21
ATOM     21  C   UNL     1      12.160  24.256  -9.333  1.00  0.00     0.000 C 
BRANCH  21  22
ATOM     22  C   UNL     1      13.234  24.266  -8.230  1.00  0.00    -0.000 C 
BRANCH  22  23
ATOM     23  C   UNL     1      13.771  22.879  -7.808  1.00  0.00    -0.000 C 
BRANCH  23  24
ATOM     24  C   UNL     1      13.677  22.553  -6.303  1.00  0.00    -0.000 C 
BRANCH  24  25
ATOM     25  C   UNL     1      14.471  23.512  -5.387  1.00  0.00    -0.000 C 
BRANCH  25  26
ATOM     26  C   UNL     1      14.708  22.973  -3.962  1.00  0.00    -0.000 C 
BRANCH  26  27
ATOM     27  C   UNL     1      13.507  23.158  -3.012  1.00  0.00    -0.000 C 
BRANCH  27  28
ATOM     28  C   UNL     1      13.611  24.456  -2.193  1.00  0.00    -0.000 C 
BRANCH  28  29
ATOM     29  C   UNL     1      14.967  25.158  -2.366  1.00  0.00    -0.003 C 
ATOM     30  C   UNL     1      14.829  26.597  -2.862  1.00  0.00     0.004 C 
ENDBRANCH  28  29
ENDBRANCH  27  28
ENDBRANCH  26  27
ENDBRANCH  25  26
ENDBRANCH  24  25
ENDBRANCH  23  24
ENDBRANCH  22  23
ENDBRANCH  21  22
ENDBRANCH  20  21
ENDBRANCH  19  20
ENDBRANCH  18  19
ENDBRANCH  17  18
ENDBRANCH   1  17
TORSDOF 26
ENDMDL
MODEL 2
REMARK VINA RESULT:    -5.424      3.148      4.594
REMARK INTER + INTRA:         -16.683
REMARK INTER:                 -13.326
REMARK INTRA:                  -3.356
REMARK UNBOUND:                -3.016
REMARK SMILES CCCCCCCCCCCCCCCCCCCCCCCCCCCC(=O)[O-]
REMARK SMILES IDX 15 1 16 2 17 3 18 4 19 5 20 6 21 7 22 8 23 9 24 10 25 11
REMARK SMILES IDX 26 12 27 13 28 14 29 15 30 16 14 17 13 18 12 19 11 20 10 21
REMARK SMILES IDX 9 22 8 23 7 24 6 25 5 26 4 27 3 28 2 29 1 30
REMARK H PARENT
REMARK Flexibility Score: inf
ROOT
ATOM      1  C   UNL     1      10.283  22.314  -9.234  1.00  0.00     0.000 C 
ENDROOT
BRANCH   1   2
ATOM      2  C   UNL     1      10.809  21.145  -8.384  1.00  0.00     0.000 C 
BRANCH   2   3
ATOM      3  C   UNL     1      10.005  20.862  -7.101  1.00  0.00     0.000 C 
BRANCH   3   4
ATOM      4  C   UNL     1       9.518  22.135  -6.371  1.00  0.00     0.000 C 
BRANCH   4   5
ATOM      5  C   UNL     1       8.442  21.878  -5.294  1.00  0.00     0.000 C 
BRANCH   5   6
ATOM      6  C   UNL     1       7.301  22.915  -5.242  1.00  0.00     0.000 C 
BRANCH   6   7
ATOM      7  C   UNL     1       7.310  23.974  -6.365  1.00  0.00     0.000 C 
BRANCH   7   8
ATOM      8  C   UNL     1       6.465  23.594  -7.599  1.00  0.00     0.000 C 
BRANCH   8   9
ATOM      9  C   UNL     1       7.200  23.841  -8.928  1.00  0.00     0.000 C 
BRANCH   9  10
ATOM     10  C   UNL     1       6.806  22.832 -10.019  1.00  0.00     0.000 C 
BRANCH  10  11
ATOM     11  C   UNL     1       5.299  22.856 -10.339  1.00  0.00     0.000 C 
BRANCH  11  12
ATOM     12  C   UNL     1       4.974  23.676 -11.597  1.00  0.00     0.006 C 
BRANCH  12  13
ATOM     13  C   UNL     1       4.724  25.159 -11.288  1.00  0.00     0.053 C 
BRANCH  13  14
ATOM     14  C   UNL     1       3.951  25.816 -12.390  1.00  0.00     0.041 C 
ATOM     15  O   UNL     1       4.144  27.029 -12.667  1.00  0.00    -0.550 OA
ATOM     16  O   UNL     1       2.994  25.092 -13.092  1.00  0.00    -0.550 OA
ENDBRANCH  13  14
ENDBRANCH  12  13
ENDBRANCH  11  12
ENDBRANCH  10  11
ENDBRANCH   9  10
ENDBRANCH   8   9
ENDBRANCH   7   8
ENDBRANCH   6   7
ENDBRANCH   5   6
ENDBRANCH   4   5
ENDBRANCH   3   4
ENDBRANCH   2   3
ENDBRANCH   1   2
BRANCH   1  17
ATOM     17  C   UNL     1      11.371  23.232  -9.825  1.00  0.00     0.000 C 
BRANCH  17  18
ATOM     18  C   UNL     1      11.878  24.315  -8.847  1.00  0.00     0.000 C 
BRANCH  18  19
ATOM     19  C   UNL     1      13.283  24.000  -8.306  1.00  0.00     0.000 C 
BRANCH  19  20
ATOM     20  C   UNL     1      13.256  23.392  -6.895  1.00  0.00     0.000 C 
BRANCH  20  21
ATOM     21  C   UNL     1      14.435  22.435  -6.644  1.00  0.00     0.000 C 
BRANCH  21  22
ATOM     22  C   UNL     1      15.318  22.232  -7.889  1.00  0.00    -0.000 C 
BRANCH  22  23
ATOM     23  C   UNL     1      16.836  22.129  -7.622  1.00  0.00    -0.000 C 
BRANCH  23  24
ATOM     24  C   UNL     1      17.498  23.383  -7.012  1.00  0.00    -0.000 C 
BRANCH  24  25
ATOM     25  C   UNL     1      17.416  24.646  -7.898  1.00  0.00    -0.000 C 
BRANCH  25  26
ATOM     26  C   UNL     1      17.358  25.969  -7.107  1.00  0.00    -0.000 C 
BRANCH  26  27
ATOM     27  C   UNL     1      15.944  26.352  -6.623  1.00  0.00    -0.000 C 
BRANCH  27  28
ATOM     28  C   UNL     1      15.649  25.817  -5.212  1.00  0.00    -0.000 C 
BRANCH  28  29
ATOM     29  C   UNL     1      16.874  25.883  -4.287  1.00  0.00    -0.003 C 
ATOM     30  C   UNL     1      16.566  26.543  -2.943  1.00  0.00     0.004 C 
ENDBRANCH  28  29
ENDBRANCH  27  28
ENDBRANCH  26  27
ENDBRANCH  25  26
ENDBRANCH  24  25
ENDBRANCH  23  24
ENDBRANCH  22  23
ENDBRANCH  21  22
ENDBRANCH  20  21
ENDBRANCH  19  20
ENDBRANCH  18  19
ENDBRANCH  17  18
ENDBRANCH   1  17
TORSDOF 26
ENDMDL
MODEL 3
REMARK VINA RESULT:    -5.397      1.528      2.042
REMARK INTER + INTRA:         -16.617
REMARK INTER:                 -13.898
REMARK INTRA:                  -2.718
REMARK UNBOUND:                -3.016
REMARK SMILES CCCCCCCCCCCCCCCCCCCCCCCCCCCC(=O)[O-]
REMARK SMILES IDX 15 1 16 2 17 3 18 4 19 5 20 6 21 7 22 8 23 9 24 10 25 11
REMARK SMILES IDX 26 12 27 13 28 14 29 15 30 16 14 17 13 18 12 19 11 20 10 21
REMARK SMILES IDX 9 22 8 23 7 24 6 25 5 26 4 27 3 28 2 29 1 30
REMARK H PARENT
REMARK Flexibility Score: inf
ROOT
ATOM      1  C   UNL     1       8.816  21.688  -5.393  1.00  0.00     0.000 C 
ENDROOT
BRANCH   1   2
ATOM      2  C   UNL     1       7.923  22.895  -5.060  1.00  0.00     0.000 C 
BRANCH   2   3
ATOM      3  C   UNL     1       6.830  23.202  -6.101  1.00  0.00     0.000 C 
BRANCH   3   4
ATOM      4  C   UNL     1       6.816  24.673  -6.582  1.00  0.00     0.000 C 
BRANCH   4   5
ATOM      5  C   UNL     1       7.188  24.859  -8.069  1.00  0.00     0.000 C 
BRANCH   5   6
ATOM      6  C   UNL     1       7.006  23.609  -8.955  1.00  0.00     0.000 C 
BRANCH   6   7
ATOM      7  C   UNL     1       5.885  23.698 -10.011  1.00  0.00     0.000 C 
BRANCH   7   8
ATOM      8  C   UNL     1       4.830  22.576  -9.911  1.00  0.00     0.000 C 
BRANCH   8   9
ATOM      9  C   UNL     1       4.102  22.558  -8.557  1.00  0.00     0.000 C 
BRANCH   9  10
ATOM     10  C   UNL     1       2.750  21.828  -8.621  1.00  0.00     0.000 C 
BRANCH  10  11
ATOM     11  C   UNL     1       1.853  22.122  -7.403  1.00  0.00     0.000 C 
BRANCH  11  12
ATOM     12  C   UNL     1       0.818  21.015  -7.148  1.00  0.00     0.006 C 
BRANCH  12  13
ATOM     13  C   UNL     1       0.819  19.942  -8.247  1.00  0.00     0.053 C 
BRANCH  13  14
ATOM     14  C   UNL     1      -0.431  20.012  -9.068  1.00  0.00     0.041 C 
ATOM     15  O   UNL     1      -1.024  18.957  -9.416  1.00  0.00    -0.550 OA
ATOM     16  O   UNL     1      -0.925  21.247  -9.475  1.00  0.00    -0.550 OA
ENDBRANCH  13  14
ENDBRANCH  12  13
ENDBRANCH  11  12
ENDBRANCH  10  11
ENDBRANCH   9  10
ENDBRANCH   8   9
ENDBRANCH   7   8
ENDBRANCH   6   7
ENDBRANCH   5   6
ENDBRANCH   4   5
ENDBRANCH   3   4
ENDBRANCH   2   3
ENDBRANCH   1   2
BRANCH   1  17
ATOM     17  C   UNL     1      10.001  21.992  -6.329  1.00  0.00     0.000 C 
BRANCH  17  18
ATOM     18  C   UNL     1       9.988  21.177  -7.642  1.00  0.00     0.000 C 
BRANCH  18  19
ATOM     19  C   UNL     1       9.840  22.073  -8.884  1.00  0.00     0.000 C 
BRANCH  19  20
ATOM     20  C   UNL     1      11.192  22.555  -9.435  1.00  0.00     0.000 C 
BRANCH  20  21
ATOM     21  C   UNL     1      11.479  24.027  -9.086  1.00  0.00     0.000 C 
BRANCH  21  22
ATOM     22  C   UNL     1      12.900  24.244  -8.533  1.00  0.00    -0.000 C 
BRANCH  22  23
ATOM     23  C   UNL     1      13.306  23.330  -7.356  1.00  0.00    -0.000 C 
BRANCH  23  24
ATOM     24  C   UNL     1      14.215  22.135  -7.716  1.00  0.00    -0.000 C 
BRANCH  24  25
ATOM     25  C   UNL     1      15.728  22.446  -7.678  1.00  0.00    -0.000 C 
BRANCH  25  26
ATOM     26  C   UNL     1      16.117  23.568  -6.694  1.00  0.00    -0.000 C 
BRANCH  26  27
ATOM     27  C   UNL     1      16.816  24.773  -7.357  1.00  0.00    -0.000 C 
BRANCH  27  28
ATOM     28  C   UNL     1      16.369  26.111  -6.745  1.00  0.00    -0.000 C 
BRANCH  28  29
ATOM     29  C   UNL     1      15.560  25.929  -5.451  1.00  0.00    -0.003 C 
ATOM     30  C   UNL     1      16.424  26.037  -4.194  1.00  0.00     0.004 C 
ENDBRANCH  28  29
ENDBRANCH  27  28
ENDBRANCH  26  27
ENDBRANCH  25  26
ENDBRANCH  24  25
ENDBRANCH  23  24
ENDBRANCH  22  23
ENDBRANCH  21  22
ENDBRANCH  20  21
ENDBRANCH  19  20
ENDBRANCH  18  19
ENDBRANCH  17  18
ENDBRANCH   1  17
TORSDOF 26
ENDMDL
MODEL 4
REMARK VINA RESULT:    -5.325      4.986     10.706
REMARK INTER + INTRA:         -16.435
REMARK INTER:                 -13.310
REMARK INTRA:                  -3.125
REMARK UNBOUND:                -3.016
REMARK SMILES CCCCCCCCCCCCCCCCCCCCCCCCCCCC(=O)[O-]
REMARK SMILES IDX 15 1 16 2 17 3 18 4 19 5 20 6 21 7 22 8 23 9 24 10 25 11
REMARK SMILES IDX 26 12 27 13 28 14 29 15 30 16 14 17 13 18 12 19 11 20 10 21
REMARK SMILES IDX 9 22 8 23 7 24 6 25 5 26 4 27 3 28 2 29 1 30
REMARK H PARENT
REMARK Flexibility Score: inf
ROOT
ATOM      1  C   UNL     1      13.275  23.006  -7.554  1.00  0.00     0.000 C 
ENDROOT
BRANCH   1   2
ATOM      2  C   UNL     1      14.516  22.150  -7.857  1.00  0.00     0.000 C 
BRANCH   2   3
ATOM      3  C   UNL     1      15.772  22.515  -7.042  1.00  0.00     0.000 C 
BRANCH   3   4
ATOM      4  C   UNL     1      16.765  23.430  -7.796  1.00  0.00     0.000 C 
BRANCH   4   5
ATOM      5  C   UNL     1      17.626  24.325  -6.880  1.00  0.00     0.000 C 
BRANCH   5   6
ATOM      6  C   UNL     1      17.120  25.773  -6.710  1.00  0.00     0.000 C 
BRANCH   6   7
ATOM      7  C   UNL     1      15.715  25.919  -6.088  1.00  0.00     0.000 C 
BRANCH   7   8
ATOM      8  C   UNL     1      15.693  25.836  -4.547  1.00  0.00     0.000 C 
BRANCH   8   9
ATOM      9  C   UNL     1      15.389  24.421  -4.028  1.00  0.00     0.000 C 
BRANCH   9  10
ATOM     10  C   UNL     1      14.417  24.423  -2.836  1.00  0.00     0.000 C 
BRANCH  10  11
ATOM     11  C   UNL     1      15.137  24.510  -1.477  1.00  0.00     0.000 C 
BRANCH  11  12
ATOM     12  C   UNL     1      14.757  25.771  -0.685  1.00  0.00     0.006 C 
BRANCH  12  13
ATOM     13  C   UNL     1      13.355  25.678  -0.065  1.00  0.00     0.053 C 
BRANCH  13  14
ATOM     14  C   UNL     1      13.380  24.879   1.202  1.00  0.00     0.041 C 
ATOM     15  O   UNL     1      12.628  23.878   1.338  1.00  0.00    -0.550 OA
ATOM     16  O   UNL     1      14.214  25.261   2.247  1.00  0.00    -0.550 OA
ENDBRANCH  13  14
ENDBRANCH  12  13
ENDBRANCH  11  12
ENDBRANCH  10  11
ENDBRANCH   9  10
ENDBRANCH   8   9
ENDBRANCH   7   8
ENDBRANCH   6   7
ENDBRANCH   5   6
ENDBRANCH   4   5
ENDBRANCH   3   4
ENDBRANCH   2   3
ENDBRANCH   1   2
BRANCH   1  17
ATOM     17  C   UNL     1      13.236  24.373  -8.265  1.00  0.00     0.000 C 
BRANCH  17  18
ATOM     18  C   UNL     1      12.040  24.546  -9.226  1.00  0.00     0.000 C 
BRANCH  18  19
ATOM     19  C   UNL     1      11.408  23.200  -9.621  1.00  0.00     0.000 C 
BRANCH  19  20
ATOM     20  C   UNL     1       9.891  23.158  -9.374  1.00  0.00     0.000 C 
BRANCH  20  21
ATOM     21  C   UNL     1       9.388  21.742  -9.040  1.00  0.00     0.000 C 
BRANCH  21  22
ATOM     22  C   UNL     1       9.953  21.204  -7.712  1.00  0.00    -0.000 C 
BRANCH  22  23
ATOM     23  C   UNL     1       9.819  22.149  -6.497  1.00  0.00    -0.000 C 
BRANCH  23  24
ATOM     24  C   UNL     1       8.702  21.796  -5.492  1.00  0.00    -0.000 C 
BRANCH  24  25
ATOM     25  C   UNL     1       7.585  22.857  -5.376  1.00  0.00    -0.000 C 
BRANCH  25  26
ATOM     26  C   UNL     1       7.570  23.886  -6.525  1.00  0.00    -0.000 C 
BRANCH  26  27
ATOM     27  C   UNL     1       6.454  23.653  -7.564  1.00  0.00    -0.000 C 
BRANCH  27  28
ATOM     28  C   UNL     1       6.721  24.403  -8.880  1.00  0.00    -0.000 C 
BRANCH  28  29
ATOM     29  C   UNL     1       5.843  23.900 -10.036  1.00  0.00    -0.003 C 
ATOM     30  C   UNL     1       5.320  22.482  -9.808  1.00  0.00     0.004 C 
ENDBRANCH  28  29
ENDBRANCH  27  28
ENDBRANCH  26  27
ENDBRANCH  25  26
ENDBRANCH  24  25
ENDBRANCH  23  24
ENDBRANCH  22  23
ENDBRANCH  21  22
ENDBRANCH  20  21
ENDBRANCH  19  20
ENDBRANCH  18  19
ENDBRANCH  17  18
ENDBRANCH   1  17
TORSDOF 26
ENDMDL
MODEL 5
REMARK VINA RESULT:    -5.094      4.452     10.684
REMARK INTER + INTRA:         -15.852
REMARK INTER:                 -13.198
REMARK INTRA:                  -2.654
REMARK UNBOUND:                -3.016
REMARK SMILES CCCCCCCCCCCCCCCCCCCCCCCCCCCC(=O)[O-]
REMARK SMILES IDX 15 1 16 2 17 3 18 4 19 5 20 6 21 7 22 8 23 9 24 10 25 11
REMARK SMILES IDX 26 12 27 13 28 14 29 15 30 16 14 17 13 18 12 19 11 20 10 21
REMARK SMILES IDX 9 22 8 23 7 24 6 25 5 26 4 27 3 28 2 29 1 30
REMARK H PARENT
REMARK Flexibility Score: inf
ROOT
ATOM      1  C   UNL     1      13.378  21.747  -7.782  1.00  0.00     0.000 C 
ENDROOT
BRANCH   1   2
ATOM      2  C   UNL     1      13.567  23.271  -7.859  1.00  0.00     0.000 C 
BRANCH   2   3
ATOM      3  C   UNL     1      14.829  23.805  -7.153  1.00  0.00     0.000 C 
BRANCH   3   4
ATOM      4  C   UNL     1      16.128  23.062  -7.543  1.00  0.00     0.000 C 
BRANCH   4   5
ATOM      5  C   UNL     1      17.121  22.865  -6.377  1.00  0.00     0.000 C 
BRANCH   5   6
ATOM      6  C   UNL     1      16.593  23.272  -4.986  1.00  0.00     0.000 C 
BRANCH   6   7
ATOM      7  C   UNL     1      17.293  24.485  -4.336  1.00  0.00     0.000 C 
BRANCH   7   8
ATOM      8  C   UNL     1      16.662  25.847  -4.697  1.00  0.00     0.000 C 
BRANCH   8   9
ATOM      9  C   UNL     1      15.517  26.246  -3.751  1.00  0.00     0.000 C 
BRANCH   9  10
ATOM     10  C   UNL     1      16.018  26.948  -2.478  1.00  0.00     0.000 C 
BRANCH  10  11
ATOM     11  C   UNL     1      15.496  26.287  -1.187  1.00  0.00     0.000 C 
BRANCH  11  12
ATOM     12  C   UNL     1      15.132  24.808  -1.385  1.00  0.00     0.006 C 
BRANCH  12  13
ATOM     13  C   UNL     1      13.620  24.555  -1.294  1.00  0.00     0.053 C 
BRANCH  13  14
ATOM     14  C   UNL     1      13.258  23.237  -1.908  1.00  0.00     0.041 C 
ATOM     15  O   UNL     1      12.668  22.358  -1.226  1.00  0.00    -0.550 OA
ATOM     16  O   UNL     1      13.600  22.970  -3.229  1.00  0.00    -0.550 OA
ENDBRANCH  13  14
ENDBRANCH  12  13
ENDBRANCH  11  12
ENDBRANCH  10  11
ENDBRANCH   9  10
ENDBRANCH   8   9
ENDBRANCH   7   8
ENDBRANCH   6   7
ENDBRANCH   5   6
ENDBRANCH   4   5
ENDBRANCH   3   4
ENDBRANCH   2   3
ENDBRANCH   1   2
BRANCH   1  17
ATOM     17  C   UNL     1      12.216  21.190  -8.627  1.00  0.00     0.000 C 
BRANCH  17  18
ATOM     18  C   UNL     1      11.209  20.338  -7.825  1.00  0.00     0.000 C 
BRANCH  18  19
ATOM     19  C   UNL     1       9.781  20.908  -7.888  1.00  0.00     0.000 C 
BRANCH  19  20
ATOM     20  C   UNL     1       9.744  22.438  -7.758  1.00  0.00     0.000 C 
BRANCH  20  21
ATOM     21  C   UNL     1       8.987  23.110  -8.917  1.00  0.00     0.000 C 
BRANCH  21  22
ATOM     22  C   UNL     1       8.088  22.130  -9.694  1.00  0.00    -0.000 C 
BRANCH  22  23
ATOM     23  C   UNL     1       6.988  22.778 -10.564  1.00  0.00    -0.000 C 
BRANCH  23  24
ATOM     24  C   UNL     1       5.567  22.202 -10.388  1.00  0.00    -0.000 C 
BRANCH  24  25
ATOM     25  C   UNL     1       4.605  23.103  -9.581  1.00  0.00    -0.000 C 
BRANCH  25  26
ATOM     26  C   UNL     1       3.888  22.382  -8.422  1.00  0.00    -0.000 C 
BRANCH  26  27
ATOM     27  C   UNL     1       4.066  23.065  -7.050  1.00  0.00    -0.000 C 
BRANCH  27  28
ATOM     28  C   UNL     1       5.477  22.851  -6.474  1.00  0.00    -0.000 C 
BRANCH  28  29
ATOM     29  C   UNL     1       6.424  24.021  -6.779  1.00  0.00    -0.003 C 
ATOM     30  C   UNL     1       6.512  25.025  -5.630  1.00  0.00     0.004 C 
ENDBRANCH  28  29
ENDBRANCH  27  28
ENDBRANCH  26  27
ENDBRANCH  25  26
ENDBRANCH  24  25
ENDBRANCH  23  24
ENDBRANCH  22  23
ENDBRANCH  21  22
ENDBRANCH  20  21
ENDBRANCH  19  20
ENDBRANCH  18  19
ENDBRANCH  17  18
ENDBRANCH   1  17
TORSDOF 26
ENDMDL
MODEL 6
REMARK VINA RESULT:    -5.028      5.121     10.373
REMARK INTER + INTRA:         -15.687
REMARK INTER:                 -13.620
REMARK INTRA:                  -2.067
REMARK UNBOUND:                -3.016
REMARK SMILES CCCCCCCCCCCCCCCCCCCCCCCCCCCC(=O)[O-]
REMARK SMILES IDX 15 1 16 2 17 3 18 4 19 5 20 6 21 7 22 8 23 9 24 10 25 11
REMARK SMILES IDX 26 12 27 13 28 14 29 15 30 16 14 17 13 18 12 19 11 20 10 21
REMARK SMILES IDX 9 22 8 23 7 24 6 25 5 26 4 27 3 28 2 29 1 30
REMARK H PARENT
REMARK Flexibility Score: inf
ROOT
ATOM      1  C   UNL     1      15.254  22.807  -6.647  1.00  0.00     0.000 C 
ENDROOT
BRANCH   1   2
ATOM      2  C   UNL     1      15.415  23.398  -5.236  1.00  0.00     0.000 C 
BRANCH   2   3
ATOM      3  C   UNL     1      15.872  24.869  -5.196  1.00  0.00     0.000 C 
BRANCH   3   4
ATOM      4  C   UNL     1      15.571  25.583  -3.857  1.00  0.00     0.000 C 
BRANCH   4   5
ATOM      5  C   UNL     1      14.923  24.680  -2.786  1.00  0.00     0.000 C 
BRANCH   5   6
ATOM      6  C   UNL     1      14.751  25.326  -1.396  1.00  0.00     0.000 C 
BRANCH   6   7
ATOM      7  C   UNL     1      13.343  25.204  -0.775  1.00  0.00     0.000 C 
BRANCH   7   8
ATOM      8  C   UNL     1      13.304  25.420   0.753  1.00  0.00     0.000 C 
BRANCH   8   9
ATOM      9  C   UNL     1      13.381  24.104   1.546  1.00  0.00     0.000 C 
BRANCH   9  10
ATOM     10  C   UNL     1      12.227  23.144   1.213  1.00  0.00     0.000 C 
BRANCH  10  11
ATOM     11  C   UNL     1      11.852  22.229   2.395  1.00  0.00     0.000 C 
BRANCH  11  12
ATOM     12  C   UNL     1      10.338  22.190   2.656  1.00  0.00     0.006 C 
BRANCH  12  13
ATOM     13  C   UNL     1       9.998  21.789   4.099  1.00  0.00     0.053 C 
BRANCH  13  14
ATOM     14  C   UNL     1       8.571  22.109   4.423  1.00  0.00     0.041 C 
ATOM     15  O   UNL     1       7.711  22.183   3.506  1.00  0.00    -0.550 OA
ATOM     16  O   UNL     1       8.197  22.354   5.740  1.00  0.00    -0.550 OA
ENDBRANCH  13  14
ENDBRANCH  12  13
ENDBRANCH  11  12
ENDBRANCH  10  11
ENDBRANCH   9  10
ENDBRANCH   8   9
ENDBRANCH   7   8
ENDBRANCH   6   7
ENDBRANCH   5   6
ENDBRANCH   4   5
ENDBRANCH   3   4
ENDBRANCH   2   3
ENDBRANCH   1   2
BRANCH   1  17
ATOM     17  C   UNL     1      14.647  23.765  -7.690  1.00  0.00     0.000 C 
BRANCH  17  18
ATOM     18  C   UNL     1      13.288  23.297  -8.256  1.00  0.00     0.000 C 
BRANCH  18  19
ATOM     19  C   UNL     1      12.322  24.470  -8.498  1.00  0.00     0.000 C 
BRANCH  19  20
ATOM     20  C   UNL     1      11.322  24.193  -9.632  1.00  0.00     0.000 C 
BRANCH  20  21
ATOM     21  C   UNL     1      11.104  22.688  -9.871  1.00  0.00     0.000 C 
BRANCH  21  22
ATOM     22  C   UNL     1       9.719  22.202  -9.406  1.00  0.00    -0.000 C 
BRANCH  22  23
ATOM     23  C   UNL     1       9.704  21.378  -8.099  1.00  0.00    -0.000 C 
BRANCH  23  24
ATOM     24  C   UNL     1       9.810  22.191  -6.791  1.00  0.00    -0.000 C 
BRANCH  24  25
ATOM     25  C   UNL     1       8.487  22.310  -6.001  1.00  0.00    -0.000 C 
BRANCH  25  26
ATOM     26  C   UNL     1       7.807  23.689  -6.114  1.00  0.00    -0.000 C 
BRANCH  26  27
ATOM     27  C   UNL     1       6.478  23.672  -6.897  1.00  0.00    -0.000 C 
BRANCH  27  28
ATOM     28  C   UNL     1       6.686  23.937  -8.398  1.00  0.00    -0.000 C 
BRANCH  28  29
ATOM     29  C   UNL     1       5.779  23.068  -9.283  1.00  0.00    -0.003 C 
ATOM     30  C   UNL     1       6.340  22.872 -10.691  1.00  0.00     0.004 C 
ENDBRANCH  28  29
ENDBRANCH  27  28
ENDBRANCH  26  27
ENDBRANCH  25  26
ENDBRANCH  24  25
ENDBRANCH  23  24
ENDBRANCH  22  23
ENDBRANCH  21  22
ENDBRANCH  20  21
ENDBRANCH  19  20
ENDBRANCH  18  19
ENDBRANCH  17  18
ENDBRANCH   1  17
TORSDOF 26
ENDMDL
MODEL 7
REMARK VINA RESULT:    -5.006      4.684     10.777
REMARK INTER + INTRA:         -15.631
REMARK INTER:                 -12.733
REMARK INTRA:                  -2.898
REMARK UNBOUND:                -3.016
REMARK SMILES CCCCCCCCCCCCCCCCCCCCCCCCCCCC(=O)[O-]
REMARK SMILES IDX 15 1 16 2 17 3 18 4 19 5 20 6 21 7 22 8 23 9 24 10 25 11
REMARK SMILES IDX 26 12 27 13 28 14 29 15 30 16 14 17 13 18 12 19 11 20 10 21
REMARK SMILES IDX 9 22 8 23 7 24 6 25 5 26 4 27 3 28 2 29 1 30
REMARK H PARENT
REMARK Flexibility Score: inf
ROOT
ATOM      1  C   UNL     1      10.113  20.540  -7.876  1.00  0.00     0.000 C 
ENDROOT
BRANCH   1   2
ATOM      2  C   UNL     1      11.221  21.549  -8.222  1.00  0.00     0.000 C 
BRANCH   2   3
ATOM      3  C   UNL     1      12.636  20.948  -8.328  1.00  0.00     0.000 C 
BRANCH   3   4
ATOM      4  C   UNL     1      13.720  21.762  -7.583  1.00  0.00     0.000 C 
BRANCH   4   5
ATOM      5  C   UNL     1      13.256  23.156  -7.111  1.00  0.00     0.000 C 
BRANCH   5   6
ATOM      6  C   UNL     1      13.954  24.350  -7.796  1.00  0.00     0.000 C 
BRANCH   6   7
ATOM      7  C   UNL     1      15.148  24.954  -7.027  1.00  0.00     0.000 C 
BRANCH   7   8
ATOM      8  C   UNL     1      16.527  24.444  -7.498  1.00  0.00     0.000 C 
BRANCH   8   9
ATOM      9  C   UNL     1      17.529  24.273  -6.344  1.00  0.00     0.000 C 
BRANCH   9  10
ATOM     10  C   UNL     1      17.067  23.235  -5.308  1.00  0.00     0.000 C 
BRANCH  10  11
ATOM     11  C   UNL     1      17.231  23.725  -3.856  1.00  0.00     0.000 C 
BRANCH  11  12
ATOM     12  C   UNL     1      16.066  23.296  -2.951  1.00  0.00     0.006 C 
BRANCH  12  13
ATOM     13  C   UNL     1      14.712  23.330  -3.675  1.00  0.00     0.053 C 
BRANCH  13  14
ATOM     14  C   UNL     1      13.601  23.655  -2.723  1.00  0.00     0.041 C 
ATOM     15  O   UNL     1      13.523  24.799  -2.203  1.00  0.00    -0.550 OA
ATOM     16  O   UNL     1      12.668  22.680  -2.388  1.00  0.00    -0.550 OA
ENDBRANCH  13  14
ENDBRANCH  12  13
ENDBRANCH  11  12
ENDBRANCH  10  11
ENDBRANCH   9  10
ENDBRANCH   8   9
ENDBRANCH   7   8
ENDBRANCH   6   7
ENDBRANCH   5   6
ENDBRANCH   4   5
ENDBRANCH   3   4
ENDBRANCH   2   3
ENDBRANCH   1   2
BRANCH   1  17
ATOM     17  C   UNL     1       9.527  20.675  -6.458  1.00  0.00     0.000 C 
BRANCH  17  18
ATOM     18  C   UNL     1       9.221  22.130  -6.041  1.00  0.00     0.000 C 
BRANCH  18  19
ATOM     19  C   UNL     1       8.041  22.220  -5.057  1.00  0.00     0.000 C 
BRANCH  19  20
ATOM     20  C   UNL     1       6.893  23.096  -5.583  1.00  0.00     0.000 C 
BRANCH  20  21
ATOM     21  C   UNL     1       7.389  24.434  -6.159  1.00  0.00     0.000 C 
BRANCH  21  22
ATOM     22  C   UNL     1       6.906  24.682  -7.600  1.00  0.00    -0.000 C 
BRANCH  22  23
ATOM     23  C   UNL     1       7.850  24.183  -8.716  1.00  0.00    -0.000 C 
BRANCH  23  24
ATOM     24  C   UNL     1       7.515  22.799  -9.311  1.00  0.00    -0.000 C 
BRANCH  24  25
ATOM     25  C   UNL     1       6.920  22.840 -10.736  1.00  0.00    -0.000 C 
BRANCH  25  26
ATOM     26  C   UNL     1       5.394  23.059 -10.776  1.00  0.00    -0.000 C 
BRANCH  26  27
ATOM     27  C   UNL     1       4.974  24.539 -10.888  1.00  0.00    -0.000 C 
BRANCH  27  28
ATOM     28  C   UNL     1       3.934  24.764 -11.999  1.00  0.00    -0.000 C 
BRANCH  28  29
ATOM     29  C   UNL     1       4.211  26.032 -12.821  1.00  0.00    -0.003 C 
ATOM     30  C   UNL     1       4.637  27.217 -11.955  1.00  0.00     0.004 C 
ENDBRANCH  28  29
ENDBRANCH  27  28
ENDBRANCH  26  27
ENDBRANCH  25  26
ENDBRANCH  24  25
ENDBRANCH  23  24
ENDBRANCH  22  23
ENDBRANCH  21  22
ENDBRANCH  20  21
ENDBRANCH  19  20
ENDBRANCH  18  19
ENDBRANCH  17  18
ENDBRANCH   1  17
TORSDOF 26
ENDMDL
MODEL 8
REMARK VINA RESULT:    -4.977      3.185      5.088
REMARK INTER + INTRA:         -15.557
REMARK INTER:                 -12.934
REMARK INTRA:                  -2.623
REMARK UNBOUND:                -3.016
REMARK SMILES CCCCCCCCCCCCCCCCCCCCCCCCCCCC(=O)[O-]
REMARK SMILES IDX 15 1 16 2 17 3 18 4 19 5 20 6 21 7 22 8 23 9 24 10 25 11
REMARK SMILES IDX 26 12 27 13 28 14 29 15 30 16 14 17 13 18 12 19 11 20 10 21
REMARK SMILES IDX 9 22 8 23 7 24 6 25 5 26 4 27 3 28 2 29 1 30
REMARK H PARENT
REMARK Flexibility Score: inf
ROOT
ATOM      1  C   UNL     1      13.919  23.273  -6.934  1.00  0.00     0.000 C 
ENDROOT
BRANCH   1   2
ATOM      2  C   UNL     1      12.561  22.974  -7.590  1.00  0.00     0.000 C 
BRANCH   2   3
ATOM      3  C   UNL     1      11.606  22.110  -6.743  1.00  0.00     0.000 C 
BRANCH   3   4
ATOM      4  C   UNL     1      10.240  21.840  -7.416  1.00  0.00     0.000 C 
BRANCH   4   5
ATOM      5  C   UNL     1       9.776  22.953  -8.380  1.00  0.00     0.000 C 
BRANCH   5   6
ATOM      6  C   UNL     1       9.206  22.462  -9.727  1.00  0.00     0.000 C 
BRANCH   6   7
ATOM      7  C   UNL     1       7.747  22.872 -10.022  1.00  0.00     0.000 C 
BRANCH   7   8
ATOM      8  C   UNL     1       6.849  21.713 -10.503  1.00  0.00     0.000 C 
BRANCH   8   9
ATOM      9  C   UNL     1       5.355  22.078 -10.515  1.00  0.00     0.000 C 
BRANCH   9  10
ATOM     10  C   UNL     1       5.008  23.189  -9.510  1.00  0.00     0.000 C 
BRANCH  10  11
ATOM     11  C   UNL     1       4.194  22.675  -8.308  1.00  0.00     0.000 C 
BRANCH  11  12
ATOM     12  C   UNL     1       4.818  23.066  -6.959  1.00  0.00     0.006 C 
BRANCH  12  13
ATOM     13  C   UNL     1       6.255  23.589  -7.103  1.00  0.00     0.053 C 
BRANCH  13  14
ATOM     14  C   UNL     1       6.802  24.029  -5.779  1.00  0.00     0.041 C 
ATOM     15  O   UNL     1       7.601  23.291  -5.144  1.00  0.00    -0.550 OA
ATOM     16  O   UNL     1       6.404  25.244  -5.234  1.00  0.00    -0.550 OA
ENDBRANCH  13  14
ENDBRANCH  12  13
ENDBRANCH  11  12
ENDBRANCH  10  11
ENDBRANCH   9  10
ENDBRANCH   8   9
ENDBRANCH   7   8
ENDBRANCH   6   7
ENDBRANCH   5   6
ENDBRANCH   4   5
ENDBRANCH   3   4
ENDBRANCH   2   3
ENDBRANCH   1   2
BRANCH   1  17
ATOM     17  C   UNL     1      15.133  23.187  -7.878  1.00  0.00     0.000 C 
BRANCH  17  18
ATOM     18  C   UNL     1      16.357  22.474  -7.262  1.00  0.00     0.000 C 
BRANCH  18  19
ATOM     19  C   UNL     1      17.553  23.423  -7.075  1.00  0.00     0.000 C 
BRANCH  19  20
ATOM     20  C   UNL     1      17.413  24.724  -7.882  1.00  0.00     0.000 C 
BRANCH  20  21
ATOM     21  C   UNL     1      17.710  25.976  -7.037  1.00  0.00     0.000 C 
BRANCH  21  22
ATOM     22  C   UNL     1      18.021  25.645  -5.565  1.00  0.00    -0.000 C 
BRANCH  22  23
ATOM     23  C   UNL     1      16.981  26.139  -4.535  1.00  0.00    -0.000 C 
BRANCH  23  24
ATOM     24  C   UNL     1      15.647  25.364  -4.503  1.00  0.00    -0.000 C 
BRANCH  24  25
ATOM     25  C   UNL     1      15.685  24.054  -3.684  1.00  0.00    -0.000 C 
BRANCH  25  26
ATOM     26  C   UNL     1      14.348  23.287  -3.656  1.00  0.00    -0.000 C 
BRANCH  26  27
ATOM     27  C   UNL     1      13.592  23.388  -2.315  1.00  0.00    -0.000 C 
BRANCH  27  28
ATOM     28  C   UNL     1      13.577  24.824  -1.764  1.00  0.00    -0.000 C 
BRANCH  28  29
ATOM     29  C   UNL     1      14.078  24.906  -0.313  1.00  0.00    -0.003 C 
ATOM     30  C   UNL     1      13.103  25.640   0.608  1.00  0.00     0.004 C 
ENDBRANCH  28  29
ENDBRANCH  27  28
ENDBRANCH  26  27
ENDBRANCH  25  26
ENDBRANCH  24  25
ENDBRANCH  23  24
ENDBRANCH  22  23
ENDBRANCH  21  22
ENDBRANCH  20  21
ENDBRANCH  19  20
ENDBRANCH  18  19
ENDBRANCH  17  18
ENDBRANCH   1  17
TORSDOF 26
ENDMDL
MODEL 9
REMARK VINA RESULT:    -4.972      4.926      8.497
REMARK INTER + INTRA:         -15.544
REMARK INTER:                 -13.694
REMARK INTRA:                  -1.850
REMARK UNBOUND:                -3.016
REMARK SMILES CCCCCCCCCCCCCCCCCCCCCCCCCCCC(=O)[O-]
REMARK SMILES IDX 15 1 16 2 17 3 18 4 19 5 20 6 21 7 22 8 23 9 24 10 25 11
REMARK SMILES IDX 26 12 27 13 28 14 29 15 30 16 14 17 13 18 12 19 11 20 10 21
REMARK SMILES IDX 9 22 8 23 7 24 6 25 5 26 4 27 3 28 2 29 1 30
REMARK H PARENT
REMARK Flexibility Score: inf
ROOT
ATOM      1  C   UNL     1      15.849  23.374  -3.738  1.00  0.00     0.000 C 
ENDROOT
BRANCH   1   2
ATOM      2  C   UNL     1      16.184  23.468  -5.236  1.00  0.00     0.000 C 
BRANCH   2   3
ATOM      3  C   UNL     1      15.456  24.594  -5.995  1.00  0.00     0.000 C 
BRANCH   3   4
ATOM      4  C   UNL     1      14.869  24.155  -7.358  1.00  0.00     0.000 C 
BRANCH   4   5
ATOM      5  C   UNL     1      14.439  22.674  -7.416  1.00  0.00     0.000 C 
BRANCH   5   6
ATOM      6  C   UNL     1      13.123  22.340  -6.683  1.00  0.00     0.000 C 
BRANCH   6   7
ATOM      7  C   UNL     1      11.829  22.756  -7.415  1.00  0.00     0.000 C 
BRANCH   7   8
ATOM      8  C   UNL     1      12.005  22.981  -8.932  1.00  0.00     0.000 C 
BRANCH   8   9
ATOM      9  C   UNL     1      10.827  22.437  -9.758  1.00  0.00     0.000 C 
BRANCH   9  10
ATOM     10  C   UNL     1       9.587  22.141  -8.899  1.00  0.00     0.000 C 
BRANCH  10  11
ATOM     11  C   UNL     1       8.306  22.794  -9.453  1.00  0.00     0.000 C 
BRANCH  11  12
ATOM     12  C   UNL     1       7.918  24.074  -8.695  1.00  0.00     0.006 C 
BRANCH  12  13
ATOM     13  C   UNL     1       6.598  23.926  -7.924  1.00  0.00     0.053 C 
BRANCH  13  14
ATOM     14  C   UNL     1       6.839  23.900  -6.446  1.00  0.00     0.041 C 
ATOM     15  O   UNL     1       6.091  24.549  -5.668  1.00  0.00    -0.550 OA
ATOM     16  O   UNL     1       7.910  23.180  -5.930  1.00  0.00    -0.550 OA
ENDBRANCH  13  14
ENDBRANCH  12  13
ENDBRANCH  11  12
ENDBRANCH  10  11
ENDBRANCH   9  10
ENDBRANCH   8   9
ENDBRANCH   7   8
ENDBRANCH   6   7
ENDBRANCH   5   6
ENDBRANCH   4   5
ENDBRANCH   3   4
ENDBRANCH   2   3
ENDBRANCH   1   2
BRANCH   1  17
ATOM     17  C   UNL     1      14.348  23.438  -3.400  1.00  0.00     0.000 C 
BRANCH  17  18
ATOM     18  C   UNL     1      13.982  24.532  -2.372  1.00  0.00     0.000 C 
BRANCH  18  19
ATOM     19  C   UNL     1      15.190  24.962  -1.523  1.00  0.00     0.000 C 
BRANCH  19  20
ATOM     20  C   UNL     1      14.889  24.965  -0.016  1.00  0.00     0.000 C 
BRANCH  20  21
ATOM     21  C   UNL     1      13.405  25.238   0.287  1.00  0.00     0.000 C 
BRANCH  21  22
ATOM     22  C   UNL     1      12.888  24.453   1.508  1.00  0.00    -0.000 C 
BRANCH  22  23
ATOM     23  C   UNL     1      12.585  22.958   1.261  1.00  0.00    -0.000 C 
BRANCH  23  24
ATOM     24  C   UNL     1      11.155  22.496   1.612  1.00  0.00    -0.000 C 
BRANCH  24  25
ATOM     25  C   UNL     1      11.044  21.698   2.931  1.00  0.00    -0.000 C 
BRANCH  25  26
ATOM     26  C   UNL     1       9.877  22.137   3.838  1.00  0.00    -0.000 C 
BRANCH  26  27
ATOM     27  C   UNL     1       8.885  21.006   4.178  1.00  0.00    -0.000 C 
BRANCH  27  28
ATOM     28  C   UNL     1       7.422  21.439   3.984  1.00  0.00    -0.000 C 
BRANCH  28  29
ATOM     29  C   UNL     1       6.962  22.456   5.041  1.00  0.00    -0.003 C 
ATOM     30  C   UNL     1       7.431  22.097   6.450  1.00  0.00     0.004 C 
ENDBRANCH  28  29
ENDBRANCH  27  28
ENDBRANCH  26  27
ENDBRANCH  25  26
ENDBRANCH  24  25
ENDBRANCH  23  24
ENDBRANCH  22  23
ENDBRANCH  21  22
ENDBRANCH  20  21
ENDBRANCH  19  20
ENDBRANCH  18  19
ENDBRANCH  17  18
ENDBRANCH   1  17
TORSDOF 26
ENDMDL
