MODEL 1
REMARK VINA RESULT:    -3.610      0.000      0.000
REMARK INTER + INTRA:          -9.546
REMARK INTER:                  -6.988
REMARK INTRA:                  -2.558
REMARK UNBOUND:                -2.558
REMARK SMILES CCCCCCCCCCCCCCCCCC(=O)[O-]
REMARK SMILES IDX 10 1 11 2 12 3 13 4 14 5 15 6 16 7 17 8 18 9 19 10 20 11
REMARK SMILES IDX 9 12 8 13 7 14 6 15 5 16 4 17 3 18 2 19 1 20
REMARK H PARENT
REMARK Flexibility Score: inf
ROOT
ATOM      1  C   UNL     1      17.400 134.350  61.886  1.00  0.00     0.000 C 
ENDROOT
BRANCH   1   2
ATOM      2  C   UNL     1      15.976 134.491  62.437  1.00  0.00     0.000 C 
BRANCH   2   3
ATOM      3  C   UNL     1      15.577 133.252  63.251  1.00  0.00     0.000 C 
BRANCH   3   4
ATOM      4  C   UNL     1      14.674 132.292  62.461  1.00  0.00     0.000 C 
BRANCH   4   5
ATOM      5  C   UNL     1      15.469 131.365  61.526  1.00  0.00     0.000 C 
BRANCH   5   6
ATOM      6  C   UNL     1      14.909 131.339  60.094  1.00  0.00     0.000 C 
BRANCH   6   7
ATOM      7  C   UNL     1      15.563 132.375  59.156  1.00  0.00     0.006 C 
BRANCH   7   8
ATOM      8  C   UNL     1      17.002 131.994  58.783  1.00  0.00     0.053 C 
BRANCH   8   9
ATOM      9  C   UNL     1      17.072 131.540  57.359  1.00  0.00     0.041 C 
ATOM     10  O   UNL     1      16.152 130.831  56.874  1.00  0.00    -0.550 OA
ATOM     11  O   UNL     1      18.131 131.939  56.553  1.00  0.00    -0.550 OA
ENDBRANCH   8   9
ENDBRANCH   7   8
ENDBRANCH   6   7
ENDBRANCH   5   6
ENDBRANCH   4   5
ENDBRANCH   3   4
ENDBRANCH   2   3
ENDBRANCH   1   2
BRANCH   1  12
ATOM     12  C   UNL     1      18.354 133.806  62.955  1.00  0.00     0.000 C 
BRANCH  12  13
ATOM     13  C   UNL     1      19.196 132.648  62.404  1.00  0.00    -0.000 C 
BRANCH  13  14
ATOM     14  C   UNL     1      19.538 131.640  63.507  1.00  0.00    -0.000 C 
BRANCH  14  15
ATOM     15  C   UNL     1      18.849 132.015  64.827  1.00  0.00    -0.000 C 
BRANCH  15  16
ATOM     16  C   UNL     1      17.818 130.966  65.274  1.00  0.00    -0.000 C 
BRANCH  16  17
ATOM     17  C   UNL     1      17.503 129.940  64.170  1.00  0.00    -0.000 C 
BRANCH  17  18
ATOM     18  C   UNL     1      17.881 128.502  64.569  1.00  0.00    -0.000 C 
BRANCH  18  19
ATOM     19  C   UNL     1      18.875 127.810  63.619  1.00  0.00    -0.003 C 
ATOM     20  C   UNL     1      20.333 128.029  64.017  1.00  0.00     0.004 C 
ENDBRANCH  18  19
ENDBRANCH  17  18
ENDBRANCH  16  17
ENDBRANCH  15  16
ENDBRANCH  14  15
ENDBRANCH  13  14
ENDBRANCH  12  13
ENDBRANCH   1  12
TORSDOF 16
ENDMDL
MODEL 2
REMARK VINA RESULT:    -3.537      2.942      6.680
REMARK INTER + INTRA:          -9.404
REMARK INTER:                  -7.710
REMARK INTRA:                  -1.693
REMARK UNBOUND:                -2.558
REMARK SMILES CCCCCCCCCCCCCCCCCC(=O)[O-]
REMARK SMILES IDX 10 1 11 2 12 3 13 4 14 5 15 6 16 7 17 8 18 9 19 10 20 11
REMARK SMILES IDX 9 12 8 13 7 14 6 15 5 16 4 17 3 18 2 19 1 20
REMARK H PARENT
REMARK Flexibility Score: inf
ROOT
ATOM      1  C   UNL     1      18.325 133.498  58.749  1.00  0.00     0.000 C 
ENDROOT
BRANCH   1   2
ATOM      2  C   UNL     1      17.994 133.580  60.244  1.00  0.00     0.000 C 
BRANCH   2   3
ATOM      3  C   UNL     1      19.252 133.889  61.069  1.00  0.00     0.000 C 
BRANCH   3   4
ATOM      4  C   UNL     1      19.628 132.745  62.023  1.00  0.00     0.000 C 
BRANCH   4   5
ATOM      5  C   UNL     1      18.463 132.326  62.935  1.00  0.00     0.000 C 
BRANCH   5   6
ATOM      6  C   UNL     1      18.796 132.464  64.430  1.00  0.00     0.000 C 
BRANCH   6   7
ATOM      7  C   UNL     1      18.750 131.128  65.199  1.00  0.00     0.006 C 
BRANCH   7   8
ATOM      8  C   UNL     1      18.916 129.917  64.271  1.00  0.00     0.053 C 
BRANCH   8   9
ATOM      9  C   UNL     1      17.728 129.013  64.371  1.00  0.00     0.041 C 
ATOM     10  O   UNL     1      17.750 127.875  63.833  1.00  0.00    -0.550 OA
ATOM     11  O   UNL     1      16.613 129.408  65.099  1.00  0.00    -0.550 OA
ENDBRANCH   8   9
ENDBRANCH   7   8
ENDBRANCH   6   7
ENDBRANCH   5   6
ENDBRANCH   4   5
ENDBRANCH   3   4
ENDBRANCH   2   3
ENDBRANCH   1   2
BRANCH   1  12
ATOM     12  C   UNL     1      17.827 132.180  58.145  1.00  0.00     0.000 C 
BRANCH  12  13
ATOM     13  C   UNL     1      18.117 132.118  56.640  1.00  0.00    -0.000 C 
BRANCH  13  14
ATOM     14  C   UNL     1      16.858 131.744  55.849  1.00  0.00    -0.000 C 
BRANCH  14  15
ATOM     15  C   UNL     1      15.719 131.330  56.793  1.00  0.00    -0.000 C 
BRANCH  15  16
ATOM     16  C   UNL     1      14.631 132.409  56.912  1.00  0.00    -0.000 C 
BRANCH  16  17
ATOM     17  C   UNL     1      13.893 132.356  58.262  1.00  0.00    -0.000 C 
BRANCH  17  18
ATOM     18  C   UNL     1      14.375 131.202  59.159  1.00  0.00    -0.000 C 
BRANCH  18  19
ATOM     19  C   UNL     1      14.784 131.620  60.583  1.00  0.00    -0.003 C 
ATOM     20  C   UNL     1      14.384 133.054  60.922  1.00  0.00     0.004 C 
ENDBRANCH  18  19
ENDBRANCH  17  18
ENDBRANCH  16  17
ENDBRANCH  15  16
ENDBRANCH  14  15
ENDBRANCH  13  14
ENDBRANCH  12  13
ENDBRANCH   1  12
TORSDOF 16
ENDMDL
MODEL 3
REMARK VINA RESULT:    -3.517      2.897      6.892
REMARK INTER + INTRA:          -9.365
REMARK INTER:                  -6.808
REMARK INTRA:                  -2.557
REMARK UNBOUND:                -2.558
REMARK SMILES CCCCCCCCCCCCCCCCCC(=O)[O-]
REMARK SMILES IDX 10 1 11 2 12 3 13 4 14 5 15 6 16 7 17 8 18 9 19 10 20 11
REMARK SMILES IDX 9 12 8 13 7 14 6 15 5 16 4 17 3 18 2 19 1 20
REMARK H PARENT
REMARK Flexibility Score: inf
ROOT
ATOM      1  C   UNL     1      15.459 131.594  59.003  1.00  0.00     0.000 C 
ENDROOT
BRANCH   1   2
ATOM      2  C   UNL     1      14.807 131.819  60.373  1.00  0.00     0.000 C 
BRANCH   2   3
ATOM      3  C   UNL     1      15.800 131.530  61.508  1.00  0.00     0.000 C 
BRANCH   3   4
ATOM      4  C   UNL     1      16.469 132.804  62.047  1.00  0.00     0.000 C 
BRANCH   4   5
ATOM      5  C   UNL     1      18.001 132.766  61.925  1.00  0.00     0.000 C 
BRANCH   5   6
ATOM      6  C   UNL     1      18.708 132.747  63.290  1.00  0.00     0.000 C 
BRANCH   6   7
ATOM      7  C   UNL     1      19.346 131.386  63.636  1.00  0.00     0.006 C 
BRANCH   7   8
ATOM      8  C   UNL     1      18.714 130.748  64.881  1.00  0.00     0.053 C 
BRANCH   8   9
ATOM      9  C   UNL     1      17.537 129.907  64.499  1.00  0.00     0.041 C 
ATOM     10  O   UNL     1      17.709 128.791  63.943  1.00  0.00    -0.550 OA
ATOM     11  O   UNL     1      16.250 130.336  64.799  1.00  0.00    -0.550 OA
ENDBRANCH   8   9
ENDBRANCH   7   8
ENDBRANCH   6   7
ENDBRANCH   5   6
ENDBRANCH   4   5
ENDBRANCH   3   4
ENDBRANCH   2   3
ENDBRANCH   1   2
BRANCH   1  12
ATOM     12  C   UNL     1      14.693 132.332  57.899  1.00  0.00     0.000 C 
BRANCH  12  13
ATOM     13  C   UNL     1      15.260 131.996  56.515  1.00  0.00    -0.000 C 
BRANCH  13  14
ATOM     14  C   UNL     1      16.249 130.827  56.592  1.00  0.00    -0.000 C 
BRANCH  14  15
ATOM     15  C   UNL     1      17.455 131.066  55.671  1.00  0.00    -0.000 C 
BRANCH  15  16
ATOM     16  C   UNL     1      18.123 132.429  55.915  1.00  0.00    -0.000 C 
BRANCH  16  17
ATOM     17  C   UNL     1      19.099 132.403  57.104  1.00  0.00    -0.000 C 
BRANCH  17  18
ATOM     18  C   UNL     1      18.603 133.235  58.300  1.00  0.00    -0.000 C 
BRANCH  18  19
ATOM     19  C   UNL     1      17.785 134.484  57.923  1.00  0.00    -0.003 C 
ATOM     20  C   UNL     1      16.967 135.036  59.089  1.00  0.00     0.004 C 
ENDBRANCH  18  19
ENDBRANCH  17  18
ENDBRANCH  16  17
ENDBRANCH  15  16
ENDBRANCH  14  15
ENDBRANCH  13  14
ENDBRANCH  12  13
ENDBRANCH   1  12
TORSDOF 16
ENDMDL
MODEL 4
REMARK VINA RESULT:    -3.504      3.052      6.783
REMARK INTER + INTRA:          -9.340
REMARK INTER:                  -7.442
REMARK INTRA:                  -1.898
REMARK UNBOUND:                -2.558
REMARK SMILES CCCCCCCCCCCCCCCCCC(=O)[O-]
REMARK SMILES IDX 10 1 11 2 12 3 13 4 14 5 15 6 16 7 17 8 18 9 19 10 20 11
REMARK SMILES IDX 9 12 8 13 7 14 6 15 5 16 4 17 3 18 2 19 1 20
REMARK H PARENT
REMARK Flexibility Score: inf
ROOT
ATOM      1  C   UNL     1      18.015 134.307  59.551  1.00  0.00     0.000 C 
ENDROOT
BRANCH   1   2
ATOM      2  C   UNL     1      17.585 132.902  59.991  1.00  0.00     0.000 C 
BRANCH   2   3
ATOM      3  C   UNL     1      17.606 132.776  61.521  1.00  0.00     0.000 C 
BRANCH   3   4
ATOM      4  C   UNL     1      18.943 133.222  62.133  1.00  0.00     0.000 C 
BRANCH   4   5
ATOM      5  C   UNL     1      19.475 132.231  63.181  1.00  0.00     0.000 C 
BRANCH   5   6
ATOM      6  C   UNL     1      18.785 132.379  64.547  1.00  0.00     0.000 C 
BRANCH   6   7
ATOM      7  C   UNL     1      18.692 131.059  65.339  1.00  0.00     0.006 C 
BRANCH   7   8
ATOM      8  C   UNL     1      18.879 129.828  64.442  1.00  0.00     0.053 C 
BRANCH   8   9
ATOM      9  C   UNL     1      17.633 129.000  64.423  1.00  0.00     0.041 C 
ATOM     10  O   UNL     1      17.591 127.933  63.756  1.00  0.00    -0.550 OA
ATOM     11  O   UNL     1      16.533 129.382  65.180  1.00  0.00    -0.550 OA
ENDBRANCH   8   9
ENDBRANCH   7   8
ENDBRANCH   6   7
ENDBRANCH   5   6
ENDBRANCH   4   5
ENDBRANCH   3   4
ENDBRANCH   2   3
ENDBRANCH   1   2
BRANCH   1  12
ATOM     12  C   UNL     1      18.762 134.263  58.213  1.00  0.00     0.000 C 
BRANCH  12  13
ATOM     13  C   UNL     1      19.759 133.098  58.177  1.00  0.00    -0.000 C 
BRANCH  13  14
ATOM     14  C   UNL     1      19.725 132.383  56.822  1.00  0.00    -0.000 C 
BRANCH  14  15
ATOM     15  C   UNL     1      18.387 132.623  56.107  1.00  0.00    -0.000 C 
BRANCH  15  16
ATOM     16  C   UNL     1      17.575 131.331  55.925  1.00  0.00    -0.000 C 
BRANCH  16  17
ATOM     17  C   UNL     1      16.575 131.096  57.071  1.00  0.00    -0.000 C 
BRANCH  17  18
ATOM     18  C   UNL     1      15.398 132.088  57.047  1.00  0.00    -0.000 C 
BRANCH  18  19
ATOM     19  C   UNL     1      14.276 131.781  58.055  1.00  0.00    -0.003 C 
ATOM     20  C   UNL     1      14.104 132.874  59.109  1.00  0.00     0.004 C 
ENDBRANCH  18  19
ENDBRANCH  17  18
ENDBRANCH  16  17
ENDBRANCH  15  16
ENDBRANCH  14  15
ENDBRANCH  13  14
ENDBRANCH  12  13
ENDBRANCH   1  12
TORSDOF 16
ENDMDL
MODEL 5
REMARK VINA RESULT:    -3.470      3.571      7.943
REMARK INTER + INTRA:          -9.274
REMARK INTER:                  -6.725
REMARK INTRA:                  -2.550
REMARK UNBOUND:                -2.558
REMARK SMILES CCCCCCCCCCCCCCCCCC(=O)[O-]
REMARK SMILES IDX 10 1 11 2 12 3 13 4 14 5 15 6 16 7 17 8 18 9 19 10 20 11
REMARK SMILES IDX 9 12 8 13 7 14 6 15 5 16 4 17 3 18 2 19 1 20
REMARK H PARENT
REMARK Flexibility Score: inf
ROOT
ATOM      1  C   UNL     1      16.435 130.741  56.543  1.00  0.00     0.000 C 
ENDROOT
BRANCH   1   2
ATOM      2  C   UNL     1      15.227 131.673  56.694  1.00  0.00     0.000 C 
BRANCH   2   3
ATOM      3  C   UNL     1      15.205 132.321  58.086  1.00  0.00     0.000 C 
BRANCH   3   4
ATOM      4  C   UNL     1      16.425 131.936  58.937  1.00  0.00     0.000 C 
BRANCH   4   5
ATOM      5  C   UNL     1      17.074 133.148  59.625  1.00  0.00     0.000 C 
BRANCH   5   6
ATOM      6  C   UNL     1      18.610 133.073  59.643  1.00  0.00     0.000 C 
BRANCH   6   7
ATOM      7  C   UNL     1      19.249 133.777  60.858  1.00  0.00     0.006 C 
BRANCH   7   8
ATOM      8  C   UNL     1      20.115 132.823  61.692  1.00  0.00     0.053 C 
BRANCH   8   9
ATOM      9  C   UNL     1      19.353 132.326  62.880  1.00  0.00     0.041 C 
ATOM     10  O   UNL     1      18.308 132.920  63.257  1.00  0.00    -0.550 OA
ATOM     11  O   UNL     1      19.769 131.178  63.543  1.00  0.00    -0.550 OA
ENDBRANCH   8   9
ENDBRANCH   7   8
ENDBRANCH   6   7
ENDBRANCH   5   6
ENDBRANCH   4   5
ENDBRANCH   3   4
ENDBRANCH   2   3
ENDBRANCH   1   2
BRANCH   1  12
ATOM     12  C   UNL     1      16.940 130.722  55.095  1.00  0.00     0.000 C 
BRANCH  12  13
ATOM     13  C   UNL     1      16.040 131.568  54.187  1.00  0.00    -0.000 C 
BRANCH  13  14
ATOM     14  C   UNL     1      16.858 132.278  53.103  1.00  0.00    -0.000 C 
BRANCH  14  15
ATOM     15  C   UNL     1      17.641 133.461  53.692  1.00  0.00    -0.000 C 
BRANCH  15  16
ATOM     16  C   UNL     1      16.784 134.329  54.627  1.00  0.00    -0.000 C 
BRANCH  16  17
ATOM     17  C   UNL     1      17.465 134.583  55.984  1.00  0.00    -0.000 C 
BRANCH  17  18
ATOM     18  C   UNL     1      18.762 133.773  56.161  1.00  0.00    -0.000 C 
BRANCH  18  19
ATOM     19  C   UNL     1      19.977 134.596  56.628  1.00  0.00    -0.003 C 
ATOM     20  C   UNL     1      20.049 135.976  55.978  1.00  0.00     0.004 C 
ENDBRANCH  18  19
ENDBRANCH  17  18
ENDBRANCH  16  17
ENDBRANCH  15  16
ENDBRANCH  14  15
ENDBRANCH  13  14
ENDBRANCH  12  13
ENDBRANCH   1  12
TORSDOF 16
ENDMDL
MODEL 6
REMARK VINA RESULT:    -3.460      3.088      6.932
REMARK INTER + INTRA:          -9.255
REMARK INTER:                  -6.703
REMARK INTRA:                  -2.552
REMARK UNBOUND:                -2.558
REMARK SMILES CCCCCCCCCCCCCCCCCC(=O)[O-]
REMARK SMILES IDX 10 1 11 2 12 3 13 4 14 5 15 6 16 7 17 8 18 9 19 10 20 11
REMARK SMILES IDX 9 12 8 13 7 14 6 15 5 16 4 17 3 18 2 19 1 20
REMARK H PARENT
REMARK Flexibility Score: inf
ROOT
ATOM      1  C   UNL     1      13.745 133.420  57.173  1.00  0.00     0.000 C 
ENDROOT
BRANCH   1   2
ATOM      2  C   UNL     1      14.076 133.174  58.650  1.00  0.00     0.000 C 
BRANCH   2   3
ATOM      3  C   UNL     1      14.025 131.675  58.982  1.00  0.00     0.000 C 
BRANCH   3   4
ATOM      4  C   UNL     1      14.894 131.309  60.195  1.00  0.00     0.000 C 
BRANCH   4   5
ATOM      5  C   UNL     1      15.584 132.533  60.821  1.00  0.00     0.000 C 
BRANCH   5   6
ATOM      6  C   UNL     1      16.614 132.152  61.897  1.00  0.00     0.000 C 
BRANCH   6   7
ATOM      7  C   UNL     1      17.879 133.036  61.882  1.00  0.00     0.006 C 
BRANCH   7   8
ATOM      8  C   UNL     1      18.603 133.037  63.235  1.00  0.00     0.053 C 
BRANCH   8   9
ATOM      9  C   UNL     1      19.475 131.827  63.364  1.00  0.00     0.041 C 
ATOM     10  O   UNL     1      20.541 131.741  62.701  1.00  0.00    -0.550 OA
ATOM     11  O   UNL     1      19.132 130.815  64.252  1.00  0.00    -0.550 OA
ENDBRANCH   8   9
ENDBRANCH   7   8
ENDBRANCH   6   7
ENDBRANCH   5   6
ENDBRANCH   4   5
ENDBRANCH   3   4
ENDBRANCH   2   3
ENDBRANCH   1   2
BRANCH   1  12
ATOM     12  C   UNL     1      14.847 134.236  56.488  1.00  0.00     0.000 C 
BRANCH  12  13
ATOM     13  C   UNL     1      15.066 133.765  55.045  1.00  0.00    -0.000 C 
BRANCH  13  14
ATOM     14  C   UNL     1      14.609 132.313  54.862  1.00  0.00    -0.000 C 
BRANCH  14  15
ATOM     15  C   UNL     1      15.813 131.379  54.672  1.00  0.00    -0.000 C 
BRANCH  15  16
ATOM     16  C   UNL     1      16.298 130.764  55.995  1.00  0.00    -0.000 C 
BRANCH  16  17
ATOM     17  C   UNL     1      17.642 131.352  56.461  1.00  0.00    -0.000 C 
BRANCH  17  18
ATOM     18  C   UNL     1      17.582 131.910  57.895  1.00  0.00    -0.000 C 
BRANCH  18  19
ATOM     19  C   UNL     1      18.112 133.347  58.049  1.00  0.00    -0.003 C 
ATOM     20  C   UNL     1      19.638 133.426  58.030  1.00  0.00     0.004 C 
ENDBRANCH  18  19
ENDBRANCH  17  18
ENDBRANCH  16  17
ENDBRANCH  15  16
ENDBRANCH  14  15
ENDBRANCH  13  14
ENDBRANCH  12  13
ENDBRANCH   1  12
TORSDOF 16
ENDMDL
MODEL 7
REMARK VINA RESULT:    -3.451      3.084      6.677
REMARK INTER + INTRA:          -9.238
REMARK INTER:                  -6.513
REMARK INTRA:                  -2.724
REMARK UNBOUND:                -2.558
REMARK SMILES CCCCCCCCCCCCCCCCCC(=O)[O-]
REMARK SMILES IDX 10 1 11 2 12 3 13 4 14 5 15 6 16 7 17 8 18 9 19 10 20 11
REMARK SMILES IDX 9 12 8 13 7 14 6 15 5 16 4 17 3 18 2 19 1 20
REMARK H PARENT
REMARK Flexibility Score: inf
ROOT
ATOM      1  C   UNL     1      15.148 132.240  57.086  1.00  0.00     0.000 C 
ENDROOT
BRANCH   1   2
ATOM      2  C   UNL     1      14.507 132.540  58.447  1.00  0.00     0.000 C 
BRANCH   2   3
ATOM      3  C   UNL     1      14.359 131.257  59.278  1.00  0.00     0.000 C 
BRANCH   3   4
ATOM      4  C   UNL     1      15.051 131.357  60.647  1.00  0.00     0.000 C 
BRANCH   4   5
ATOM      5  C   UNL     1      16.035 132.536  60.729  1.00  0.00     0.000 C 
BRANCH   5   6
ATOM      6  C   UNL     1      15.812 133.415  61.971  1.00  0.00     0.000 C 
BRANCH   6   7
ATOM      7  C   UNL     1      17.042 133.498  62.898  1.00  0.00     0.006 C 
BRANCH   7   8
ATOM      8  C   UNL     1      18.318 132.981  62.219  1.00  0.00     0.053 C 
BRANCH   8   9
ATOM      9  C   UNL     1      18.995 131.963  63.081  1.00  0.00     0.041 C 
ATOM     10  O   UNL     1      20.246 131.827  63.039  1.00  0.00    -0.550 OA
ATOM     11  O   UNL     1      18.249 131.196  63.967  1.00  0.00    -0.550 OA
ENDBRANCH   8   9
ENDBRANCH   7   8
ENDBRANCH   6   7
ENDBRANCH   5   6
ENDBRANCH   4   5
ENDBRANCH   3   4
ENDBRANCH   2   3
ENDBRANCH   1   2
BRANCH   1  12
ATOM     12  C   UNL     1      15.890 130.900  57.108  1.00  0.00     0.000 C 
BRANCH  12  13
ATOM     13  C   UNL     1      16.993 130.863  56.044  1.00  0.00    -0.000 C 
BRANCH  13  14
ATOM     14  C   UNL     1      17.069 132.189  55.280  1.00  0.00    -0.000 C 
BRANCH  14  15
ATOM     15  C   UNL     1      18.462 132.823  55.415  1.00  0.00    -0.000 C 
BRANCH  15  16
ATOM     16  C   UNL     1      19.412 131.979  56.281  1.00  0.00    -0.000 C 
BRANCH  16  17
ATOM     17  C   UNL     1      19.948 132.756  57.497  1.00  0.00    -0.000 C 
BRANCH  17  18
ATOM     18  C   UNL     1      18.867 133.017  58.560  1.00  0.00    -0.000 C 
BRANCH  18  19
ATOM     19  C   UNL     1      18.599 134.504  58.855  1.00  0.00    -0.003 C 
ATOM     20  C   UNL     1      17.343 135.033  58.166  1.00  0.00     0.004 C 
ENDBRANCH  18  19
ENDBRANCH  17  18
ENDBRANCH  16  17
ENDBRANCH  15  16
ENDBRANCH  14  15
ENDBRANCH  13  14
ENDBRANCH  12  13
ENDBRANCH   1  12
TORSDOF 16
ENDMDL
MODEL 8
REMARK VINA RESULT:    -3.431      3.084      6.760
REMARK INTER + INTRA:          -9.198
REMARK INTER:                  -6.147
REMARK INTRA:                  -3.050
REMARK UNBOUND:                -2.558
REMARK SMILES CCCCCCCCCCCCCCCCCC(=O)[O-]
REMARK SMILES IDX 10 1 11 2 12 3 13 4 14 5 15 6 16 7 17 8 18 9 19 10 20 11
REMARK SMILES IDX 9 12 8 13 7 14 6 15 5 16 4 17 3 18 2 19 1 20
REMARK H PARENT
REMARK Flexibility Score: inf
ROOT
ATOM      1  C   UNL     1      13.369 132.794  57.737  1.00  0.00     0.000 C 
ENDROOT
BRANCH   1   2
ATOM      2  C   UNL     1      13.685 132.686  59.234  1.00  0.00     0.000 C 
BRANCH   2   3
ATOM      3  C   UNL     1      14.436 131.384  59.545  1.00  0.00     0.000 C 
BRANCH   3   4
ATOM      4  C   UNL     1      15.690 131.615  60.403  1.00  0.00     0.000 C 
BRANCH   4   5
ATOM      5  C   UNL     1      15.558 132.838  61.326  1.00  0.00     0.000 C 
BRANCH   5   6
ATOM      6  C   UNL     1      16.684 133.865  61.122  1.00  0.00     0.000 C 
BRANCH   6   7
ATOM      7  C   UNL     1      18.090 133.233  61.047  1.00  0.00     0.006 C 
BRANCH   7   8
ATOM      8  C   UNL     1      18.879 133.415  62.351  1.00  0.00     0.053 C 
BRANCH   8   9
ATOM      9  C   UNL     1      18.956 132.122  63.101  1.00  0.00     0.041 C 
ATOM     10  O   UNL     1      17.940 131.668  63.689  1.00  0.00    -0.550 OA
ATOM     11  O   UNL     1      20.139 131.394  63.110  1.00  0.00    -0.550 OA
ENDBRANCH   8   9
ENDBRANCH   7   8
ENDBRANCH   6   7
ENDBRANCH   5   6
ENDBRANCH   4   5
ENDBRANCH   3   4
ENDBRANCH   2   3
ENDBRANCH   1   2
BRANCH   1  12
ATOM     12  C   UNL     1      13.944 134.085  57.143  1.00  0.00     0.000 C 
BRANCH  12  13
ATOM     13  C   UNL     1      15.290 134.437  57.787  1.00  0.00    -0.000 C 
BRANCH  13  14
ATOM     14  C   UNL     1      16.292 134.932  56.738  1.00  0.00    -0.000 C 
BRANCH  14  15
ATOM     15  C   UNL     1      17.575 134.087  56.762  1.00  0.00    -0.000 C 
BRANCH  15  16
ATOM     16  C   UNL     1      17.409 132.786  57.564  1.00  0.00    -0.000 C 
BRANCH  16  17
ATOM     17  C   UNL     1      17.540 131.530  56.684  1.00  0.00    -0.000 C 
BRANCH  17  18
ATOM     18  C   UNL     1      16.176 130.930  56.297  1.00  0.00    -0.000 C 
BRANCH  18  19
ATOM     19  C   UNL     1      15.560 131.505  55.009  1.00  0.00    -0.003 C 
ATOM     20  C   UNL     1      16.570 131.634  53.870  1.00  0.00     0.004 C 
ENDBRANCH  18  19
ENDBRANCH  17  18
ENDBRANCH  16  17
ENDBRANCH  15  16
ENDBRANCH  14  15
ENDBRANCH  13  14
ENDBRANCH  12  13
ENDBRANCH   1  12
TORSDOF 16
ENDMDL
MODEL 9
REMARK VINA RESULT:    -3.407      1.872      3.219
REMARK INTER + INTRA:          -9.151
REMARK INTER:                  -6.850
REMARK INTRA:                  -2.301
REMARK UNBOUND:                -2.558
REMARK SMILES CCCCCCCCCCCCCCCCCC(=O)[O-]
REMARK SMILES IDX 10 1 11 2 12 3 13 4 14 5 15 6 16 7 17 8 18 9 19 10 20 11
REMARK SMILES IDX 9 12 8 13 7 14 6 15 5 16 4 17 3 18 2 19 1 20
REMARK H PARENT
REMARK Flexibility Score: inf
ROOT
ATOM      1  C   UNL     1      15.622 133.160  64.016  1.00  0.00     0.000 C 
ENDROOT
BRANCH   1   2
ATOM      2  C   UNL     1      15.751 132.026  62.992  1.00  0.00     0.000 C 
BRANCH   2   3
ATOM      3  C   UNL     1      16.721 132.409  61.866  1.00  0.00     0.000 C 
BRANCH   3   4
ATOM      4  C   UNL     1      17.180 133.873  61.954  1.00  0.00     0.000 C 
BRANCH   4   5
ATOM      5  C   UNL     1      18.500 134.126  61.207  1.00  0.00     0.000 C 
BRANCH   5   6
ATOM      6  C   UNL     1      18.805 133.050  60.152  1.00  0.00     0.000 C 
BRANCH   6   7
ATOM      7  C   UNL     1      18.422 133.466  58.717  1.00  0.00     0.006 C 
BRANCH   7   8
ATOM      8  C   UNL     1      19.648 133.586  57.800  1.00  0.00     0.053 C 
BRANCH   8   9
ATOM      9  C   UNL     1      19.763 132.382  56.919  1.00  0.00     0.041 C 
ATOM     10  O   UNL     1      18.741 131.907  56.358  1.00  0.00    -0.550 OA
ATOM     11  O   UNL     1      21.008 131.814  56.677  1.00  0.00    -0.550 OA
ENDBRANCH   8   9
ENDBRANCH   7   8
ENDBRANCH   6   7
ENDBRANCH   5   6
ENDBRANCH   4   5
ENDBRANCH   3   4
ENDBRANCH   2   3
ENDBRANCH   1   2
BRANCH   1  12
ATOM     12  C   UNL     1      15.177 132.625  65.381  1.00  0.00     0.000 C 
BRANCH  12  13
ATOM     13  C   UNL     1      15.293 131.097  65.439  1.00  0.00    -0.000 C 
BRANCH  13  14
ATOM     14  C   UNL     1      16.080 130.648  66.675  1.00  0.00    -0.000 C 
BRANCH  14  15
ATOM     15  C   UNL     1      17.129 131.698  67.070  1.00  0.00    -0.000 C 
BRANCH  15  16
ATOM     16  C   UNL     1      18.541 131.336  66.580  1.00  0.00    -0.000 C 
BRANCH  16  17
ATOM     17  C   UNL     1      18.921 132.071  65.282  1.00  0.00    -0.000 C 
BRANCH  17  18
ATOM     18  C   UNL     1      19.160 131.111  64.103  1.00  0.00    -0.000 C 
BRANCH  18  19
ATOM     19  C   UNL     1      18.569 129.702  64.288  1.00  0.00    -0.003 C 
ATOM     20  C   UNL     1      19.594 128.591  64.072  1.00  0.00     0.004 C 
ENDBRANCH  18  19
ENDBRANCH  17  18
ENDBRANCH  16  17
ENDBRANCH  15  16
ENDBRANCH  14  15
ENDBRANCH  13  14
ENDBRANCH  12  13
ENDBRANCH   1  12
TORSDOF 16
ENDMDL
