MODEL 1
REMARK VINA RESULT:    -4.545      0.000      0.000
REMARK INTER + INTRA:          -7.115
REMARK INTER:                  -5.608
REMARK INTRA:                  -1.507
REMARK UNBOUND:                -1.507
REMARK SMILES CC(C)=CCC[C@@H](C)c1ccc(C)cc1
REMARK SMILES IDX 6 1 7 2 8 3 9 4 13 5 12 6 11 7 14 8 10 9 15 10 5 11 4 12
REMARK SMILES IDX 2 13 1 14 3 15
REMARK H PARENT
REMARK Flexibility Score: inf
ROOT
ATOM      1  C   UNL     1     -20.096  -4.805  -3.646  1.00  0.00     0.012 C 
ENDROOT
BRANCH   1   2
ATOM      2  C   UNL     1     -21.370  -4.429  -4.436  1.00  0.00     0.016 C 
ATOM      3  C   UNL     1     -21.753  -2.952  -4.257  1.00  0.00     0.013 C 
BRANCH   2   4
ATOM      4  C   UNL     1     -21.193  -4.755  -5.909  1.00  0.00    -0.045 A 
ATOM      5  C   UNL     1     -20.631  -5.695 -10.088  1.00  0.00     0.044 C 
ATOM      6  C   UNL     1     -20.854  -5.381  -8.638  1.00  0.00    -0.051 A 
ATOM      7  C   UNL     1     -21.396  -4.144  -8.257  1.00  0.00     0.004 A 
ATOM      8  C   UNL     1     -20.458  -6.292  -7.648  1.00  0.00     0.004 A 
ATOM      9  C   UNL     1     -21.570  -3.836  -6.906  1.00  0.00     0.004 A 
ATOM     10  C   UNL     1     -20.631  -5.984  -6.296  1.00  0.00     0.004 A 
ENDBRANCH   2   4
ENDBRANCH   1   2
BRANCH   1  11
ATOM     11  C   UNL     1     -18.989  -3.747  -3.770  1.00  0.00     0.028 C 
BRANCH  11  12
ATOM     12  C   UNL     1     -18.060  -4.077  -4.911  1.00  0.00    -0.028 C 
ATOM     13  C   UNL     1     -17.870  -3.291  -5.994  1.00  0.00    -0.080 C 
ATOM     14  C   UNL     1     -18.633  -2.001  -6.191  1.00  0.00     0.039 C 
ATOM     15  C   UNL     1     -16.875  -3.731  -7.037  1.00  0.00     0.039 C 
ENDBRANCH  11  12
ENDBRANCH   1  11
TORSDOF 4
ENDMDL
MODEL 2
REMARK VINA RESULT:    -4.478     15.889     17.376
REMARK INTER + INTRA:          -7.032
REMARK INTER:                  -6.210
REMARK INTRA:                  -0.822
REMARK UNBOUND:                -1.507
REMARK SMILES CC(C)=CCC[C@@H](C)c1ccc(C)cc1
REMARK SMILES IDX 6 1 7 2 8 3 9 4 13 5 12 6 11 7 14 8 10 9 15 10 5 11 4 12
REMARK SMILES IDX 2 13 1 14 3 15
REMARK H PARENT
REMARK Flexibility Score: inf
ROOT
ATOM      1  C   UNL     1     -26.522   1.094   7.907  1.00  0.00     0.012 C 
ENDROOT
BRANCH   1   2
ATOM      2  C   UNL     1     -27.532   0.060   8.455  1.00  0.00     0.016 C 
ATOM      3  C   UNL     1     -28.834   0.029   7.642  1.00  0.00     0.013 C 
BRANCH   2   4
ATOM      4  C   UNL     1     -26.901  -1.320   8.500  1.00  0.00    -0.045 A 
ATOM      5  C   UNL     1     -25.070  -5.233   8.583  1.00  0.00     0.044 C 
ATOM      6  C   UNL     1     -25.709  -3.875   8.584  1.00  0.00    -0.051 A 
ATOM      7  C   UNL     1     -27.096  -3.746   8.417  1.00  0.00     0.004 A 
ATOM      8  C   UNL     1     -24.918  -2.722   8.683  1.00  0.00     0.004 A 
ATOM      9  C   UNL     1     -27.688  -2.481   8.382  1.00  0.00     0.004 A 
ATOM     10  C   UNL     1     -25.509  -1.456   8.646  1.00  0.00     0.004 A 
ENDBRANCH   2   4
ENDBRANCH   1   2
BRANCH   1  11
ATOM     11  C   UNL     1     -26.301   2.272   8.867  1.00  0.00     0.028 C 
BRANCH  11  12
ATOM     12  C   UNL     1     -27.053   3.492   8.397  1.00  0.00    -0.028 C 
ATOM     13  C   UNL     1     -28.229   3.911   8.914  1.00  0.00    -0.080 C 
ATOM     14  C   UNL     1     -28.945   3.142  10.001  1.00  0.00     0.039 C 
ATOM     15  C   UNL     1     -28.843   5.175   8.372  1.00  0.00     0.039 C 
ENDBRANCH  11  12
ENDBRANCH   1  11
TORSDOF 4
ENDMDL
MODEL 3
REMARK VINA RESULT:    -4.432     15.717     17.865
REMARK INTER + INTRA:          -6.975
REMARK INTER:                  -6.138
REMARK INTRA:                  -0.838
REMARK UNBOUND:                -1.507
REMARK SMILES CC(C)=CCC[C@@H](C)c1ccc(C)cc1
REMARK SMILES IDX 6 1 7 2 8 3 9 4 13 5 12 6 11 7 14 8 10 9 15 10 5 11 4 12
REMARK SMILES IDX 2 13 1 14 3 15
REMARK H PARENT
REMARK Flexibility Score: inf
ROOT
ATOM      1  C   UNL     1     -28.120  -1.007   8.068  1.00  0.00     0.012 C 
ENDROOT
BRANCH   1   2
ATOM      2  C   UNL     1     -27.032  -0.001   8.505  1.00  0.00     0.016 C 
ATOM      3  C   UNL     1     -25.790  -0.056   7.603  1.00  0.00     0.013 C 
BRANCH   2   4
ATOM      4  C   UNL     1     -27.599   1.408   8.540  1.00  0.00    -0.045 A 
ATOM      5  C   UNL     1     -29.244   5.402   8.591  1.00  0.00     0.044 C 
ATOM      6  C   UNL     1     -28.673   4.015   8.604  1.00  0.00    -0.051 A 
ATOM      7  C   UNL     1     -27.284   3.822   8.568  1.00  0.00     0.004 A 
ATOM      8  C   UNL     1     -29.523   2.900   8.581  1.00  0.00     0.004 A 
ATOM      9  C   UNL     1     -26.751   2.531   8.543  1.00  0.00     0.004 A 
ATOM     10  C   UNL     1     -28.990   1.608   8.554  1.00  0.00     0.004 A 
ENDBRANCH   2   4
ENDBRANCH   1   2
BRANCH   1  11
ATOM     11  C   UNL     1     -28.215  -2.220   9.005  1.00  0.00     0.028 C 
BRANCH  11  12
ATOM     12  C   UNL     1     -27.407  -3.374   8.466  1.00  0.00    -0.028 C 
ATOM     13  C   UNL     1     -26.224  -3.782   8.975  1.00  0.00    -0.080 C 
ATOM     14  C   UNL     1     -25.556  -3.063  10.125  1.00  0.00     0.039 C 
ATOM     15  C   UNL     1     -25.550  -4.981   8.358  1.00  0.00     0.039 C 
ENDBRANCH  11  12
ENDBRANCH   1  11
TORSDOF 4
ENDMDL
MODEL 4
REMARK VINA RESULT:    -4.197      1.377      4.321
REMARK INTER + INTRA:          -6.685
REMARK INTER:                  -5.382
REMARK INTRA:                  -1.303
REMARK UNBOUND:                -1.507
REMARK SMILES CC(C)=CCC[C@@H](C)c1ccc(C)cc1
REMARK SMILES IDX 6 1 7 2 8 3 9 4 13 5 12 6 11 7 14 8 10 9 15 10 5 11 4 12
REMARK SMILES IDX 2 13 1 14 3 15
REMARK H PARENT
REMARK Flexibility Score: inf
ROOT
ATOM      1  C   UNL     1     -21.549  -4.076  -8.242  1.00  0.00     0.012 C 
ENDROOT
BRANCH   1   2
ATOM      2  C   UNL     1     -20.729  -5.368  -8.457  1.00  0.00     0.016 C 
ATOM      3  C   UNL     1     -20.030  -5.394  -9.825  1.00  0.00     0.013 C 
BRANCH   2   4
ATOM      4  C   UNL     1     -19.715  -5.541  -7.340  1.00  0.00    -0.045 A 
ATOM      5  C   UNL     1     -16.875  -6.031  -4.122  1.00  0.00     0.044 C 
ATOM      6  C   UNL     1     -17.845  -5.880  -5.256  1.00  0.00    -0.051 A 
ATOM      7  C   UNL     1     -17.678  -4.854  -6.198  1.00  0.00     0.004 A 
ATOM      8  C   UNL     1     -18.965  -6.720  -5.346  1.00  0.00     0.004 A 
ATOM      9  C   UNL     1     -18.600  -4.689  -7.234  1.00  0.00     0.004 A 
ATOM     10  C   UNL     1     -19.889  -6.555  -6.382  1.00  0.00     0.004 A 
ENDBRANCH   2   4
ENDBRANCH   1   2
BRANCH   1  11
ATOM     11  C   UNL     1     -22.161  -3.991  -6.836  1.00  0.00     0.028 C 
BRANCH  11  12
ATOM     12  C   UNL     1     -21.378  -3.038  -5.969  1.00  0.00    -0.028 C 
ATOM     13  C   UNL     1     -21.035  -3.280  -4.684  1.00  0.00    -0.080 C 
ATOM     14  C   UNL     1     -21.466  -4.537  -3.963  1.00  0.00     0.039 C 
ATOM     15  C   UNL     1     -20.212  -2.251  -3.954  1.00  0.00     0.039 C 
ENDBRANCH  11  12
ENDBRANCH   1  11
TORSDOF 4
ENDMDL
MODEL 5
REMARK VINA RESULT:    -4.113      1.278      4.193
REMARK INTER + INTRA:          -6.582
REMARK INTER:                  -5.313
REMARK INTRA:                  -1.269
REMARK UNBOUND:                -1.507
REMARK SMILES CC(C)=CCC[C@@H](C)c1ccc(C)cc1
REMARK SMILES IDX 6 1 7 2 8 3 9 4 13 5 12 6 11 7 14 8 10 9 15 10 5 11 4 12
REMARK SMILES IDX 2 13 1 14 3 15
REMARK H PARENT
REMARK Flexibility Score: inf
ROOT
ATOM      1  C   UNL     1     -20.767  -5.524  -4.260  1.00  0.00     0.012 C 
ENDROOT
BRANCH   1   2
ATOM      2  C   UNL     1     -19.330  -5.882  -4.702  1.00  0.00     0.016 C 
ATOM      3  C   UNL     1     -19.291  -7.116  -5.616  1.00  0.00     0.013 C 
BRANCH   2   4
ATOM      4  C   UNL     1     -18.677  -4.694  -5.387  1.00  0.00    -0.045 A 
ATOM      5  C   UNL     1     -16.875  -1.290  -7.344  1.00  0.00     0.044 C 
ATOM      6  C   UNL     1     -17.477  -2.474  -6.645  1.00  0.00    -0.051 A 
ATOM      7  C   UNL     1     -17.226  -3.772  -7.111  1.00  0.00     0.004 A 
ATOM      8  C   UNL     1     -18.351  -2.288  -5.565  1.00  0.00     0.004 A 
ATOM      9  C   UNL     1     -17.815  -4.874  -6.484  1.00  0.00     0.004 A 
ATOM     10  C   UNL     1     -18.942  -3.389  -4.938  1.00  0.00     0.004 A 
ENDBRANCH   2   4
ENDBRANCH   1   2
BRANCH   1  11
ATOM     11  C   UNL     1     -21.766  -5.542  -5.426  1.00  0.00     0.028 C 
BRANCH  11  12
ATOM     12  C   UNL     1     -21.857  -4.182  -6.072  1.00  0.00    -0.028 C 
ATOM     13  C   UNL     1     -21.514  -3.920  -7.352  1.00  0.00    -0.080 C 
ATOM     14  C   UNL     1     -20.941  -4.982  -8.262  1.00  0.00     0.039 C 
ATOM     15  C   UNL     1     -21.699  -2.518  -7.873  1.00  0.00     0.039 C 
ENDBRANCH  11  12
ENDBRANCH   1  11
TORSDOF 4
ENDMDL
MODEL 6
REMARK VINA RESULT:    -4.039     15.960     18.247
REMARK INTER + INTRA:          -6.490
REMARK INTER:                  -5.182
REMARK INTRA:                  -1.308
REMARK UNBOUND:                -1.507
REMARK SMILES CC(C)=CCC[C@@H](C)c1ccc(C)cc1
REMARK SMILES IDX 6 1 7 2 8 3 9 4 13 5 12 6 11 7 14 8 10 9 15 10 5 11 4 12
REMARK SMILES IDX 2 13 1 14 3 15
REMARK H PARENT
REMARK Flexibility Score: inf
ROOT
ATOM      1  C   UNL     1     -33.184   3.704  -5.520  1.00  0.00     0.012 C 
ENDROOT
BRANCH   1   2
ATOM      2  C   UNL     1     -33.648   4.929  -4.701  1.00  0.00     0.016 C 
ATOM      3  C   UNL     1     -32.523   5.509  -3.830  1.00  0.00     0.013 C 
BRANCH   2   4
ATOM      4  C   UNL     1     -34.209   5.998  -5.622  1.00  0.00    -0.045 A 
ATOM      5  C   UNL     1     -35.750   9.059  -8.252  1.00  0.00     0.044 C 
ATOM      6  C   UNL     1     -35.236   7.977  -7.350  1.00  0.00    -0.051 A 
ATOM      7  C   UNL     1     -35.742   7.841  -6.049  1.00  0.00     0.004 A 
ATOM      8  C   UNL     1     -34.196   7.136  -7.775  1.00  0.00     0.004 A 
ATOM      9  C   UNL     1     -35.238   6.857  -5.194  1.00  0.00     0.004 A 
ATOM     10  C   UNL     1     -33.691   6.152  -6.920  1.00  0.00     0.004 A 
ENDBRANCH   2   4
ENDBRANCH   1   2
BRANCH   1  11
ATOM     11  C   UNL     1     -34.302   2.670  -5.722  1.00  0.00     0.028 C 
BRANCH  11  12
ATOM     12  C   UNL     1     -35.115   2.997  -6.950  1.00  0.00    -0.028 C 
ATOM     13  C   UNL     1     -36.375   3.484  -6.925  1.00  0.00    -0.080 C 
ATOM     14  C   UNL     1     -37.124   3.700  -5.629  1.00  0.00     0.039 C 
ATOM     15  C   UNL     1     -37.049   3.804  -8.234  1.00  0.00     0.039 C 
ENDBRANCH  11  12
ENDBRANCH   1  11
TORSDOF 4
ENDMDL
MODEL 7
REMARK VINA RESULT:    -3.994     15.731     17.897
REMARK INTER + INTRA:          -6.434
REMARK INTER:                  -4.967
REMARK INTRA:                  -1.468
REMARK UNBOUND:                -1.507
REMARK SMILES CC(C)=CCC[C@@H](C)c1ccc(C)cc1
REMARK SMILES IDX 6 1 7 2 8 3 9 4 13 5 12 6 11 7 14 8 10 9 15 10 5 11 4 12
REMARK SMILES IDX 2 13 1 14 3 15
REMARK H PARENT
REMARK Flexibility Score: inf
ROOT
ATOM      1  C   UNL     1     -32.583   4.794  -5.534  1.00  0.00     0.012 C 
ENDROOT
BRANCH   1   2
ATOM      2  C   UNL     1     -32.527   4.539  -7.058  1.00  0.00     0.016 C 
ATOM      3  C   UNL     1     -32.836   3.077  -7.416  1.00  0.00     0.013 C 
BRANCH   2   4
ATOM      4  C   UNL     1     -33.477   5.475  -7.784  1.00  0.00    -0.045 A 
ATOM      5  C   UNL     1     -36.216   8.135  -9.805  1.00  0.00     0.044 C 
ATOM      6  C   UNL     1     -35.241   7.227  -9.116  1.00  0.00    -0.051 A 
ATOM      7  C   UNL     1     -34.839   6.029  -9.726  1.00  0.00     0.004 A 
ATOM      8  C   UNL     1     -34.779   7.531  -7.827  1.00  0.00     0.004 A 
ATOM      9  C   UNL     1     -33.959   5.164  -9.069  1.00  0.00     0.004 A 
ATOM     10  C   UNL     1     -33.901   6.666  -7.170  1.00  0.00     0.004 A 
ENDBRANCH   2   4
ENDBRANCH   1   2
BRANCH   1  11
ATOM     11  C   UNL     1     -33.538   3.835  -4.808  1.00  0.00     0.028 C 
BRANCH  11  12
ATOM     12  C   UNL     1     -34.767   4.567  -4.329  1.00  0.00    -0.028 C 
ATOM     13  C   UNL     1     -35.972   4.516  -4.938  1.00  0.00    -0.080 C 
ATOM     14  C   UNL     1     -36.190   3.747  -6.220  1.00  0.00     0.039 C 
ATOM     15  C   UNL     1     -37.122   5.268  -4.318  1.00  0.00     0.039 C 
ENDBRANCH  11  12
ENDBRANCH   1  11
TORSDOF 4
ENDMDL
MODEL 8
REMARK VINA RESULT:    -3.974     15.669     17.077
REMARK INTER + INTRA:          -6.410
REMARK INTER:                  -5.698
REMARK INTRA:                  -0.712
REMARK UNBOUND:                -1.507
REMARK SMILES CC(C)=CCC[C@@H](C)c1ccc(C)cc1
REMARK SMILES IDX 6 1 7 2 8 3 9 4 13 5 12 6 11 7 14 8 10 9 15 10 5 11 4 12
REMARK SMILES IDX 2 13 1 14 3 15
REMARK H PARENT
REMARK Flexibility Score: inf
ROOT
ATOM      1  C   UNL     1     -25.913  -0.816   8.943  1.00  0.00     0.012 C 
ENDROOT
BRANCH   1   2
ATOM      2  C   UNL     1     -26.993  -1.892   9.197  1.00  0.00     0.016 C 
ATOM      3  C   UNL     1     -28.122  -1.843   8.156  1.00  0.00     0.013 C 
BRANCH   2   4
ATOM      4  C   UNL     1     -26.363  -3.273   9.230  1.00  0.00    -0.045 A 
ATOM      5  C   UNL     1     -24.574  -7.206   9.266  1.00  0.00     0.044 C 
ATOM      6  C   UNL     1     -25.177  -5.832   9.277  1.00  0.00    -0.051 A 
ATOM      7  C   UNL     1     -26.329  -5.571  10.035  1.00  0.00     0.004 A 
ATOM      8  C   UNL     1     -24.637  -4.816   8.476  1.00  0.00     0.004 A 
ATOM      9  C   UNL     1     -26.913  -4.302  10.017  1.00  0.00     0.004 A 
ATOM     10  C   UNL     1     -25.221  -3.547   8.457  1.00  0.00     0.004 A 
ENDBRANCH   2   4
ENDBRANCH   1   2
BRANCH   1  11
ATOM     11  C   UNL     1     -26.260   0.102   7.761  1.00  0.00     0.028 C 
BRANCH  11  12
ATOM     12  C   UNL     1     -26.243   1.549   8.186  1.00  0.00    -0.028 C 
ATOM     13  C   UNL     1     -27.332   2.240   8.588  1.00  0.00    -0.080 C 
ATOM     14  C   UNL     1     -28.713   1.625   8.597  1.00  0.00     0.039 C 
ATOM     15  C   UNL     1     -27.154   3.672   9.025  1.00  0.00     0.039 C 
ENDBRANCH  11  12
ENDBRANCH   1  11
TORSDOF 4
ENDMDL
MODEL 9
REMARK VINA RESULT:    -3.972     14.867     16.631
REMARK INTER + INTRA:          -6.408
REMARK INTER:                  -5.643
REMARK INTRA:                  -0.765
REMARK UNBOUND:                -1.507
REMARK SMILES CC(C)=CCC[C@@H](C)c1ccc(C)cc1
REMARK SMILES IDX 6 1 7 2 8 3 9 4 13 5 12 6 11 7 14 8 10 9 15 10 5 11 4 12
REMARK SMILES IDX 2 13 1 14 3 15
REMARK H PARENT
REMARK Flexibility Score: inf
ROOT
ATOM      1  C   UNL     1     -25.660  -5.251   8.513  1.00  0.00     0.012 C 
ENDROOT
BRANCH   1   2
ATOM      2  C   UNL     1     -24.946  -3.908   8.788  1.00  0.00     0.016 C 
ATOM      3  C   UNL     1     -23.724  -3.701   7.880  1.00  0.00     0.013 C 
BRANCH   2   4
ATOM      4  C   UNL     1     -25.920  -2.753   8.637  1.00  0.00    -0.045 A 
ATOM      5  C   UNL     1     -28.710   0.510   8.158  1.00  0.00     0.044 C 
ATOM      6  C   UNL     1     -27.745  -0.621   8.355  1.00  0.00    -0.051 A 
ATOM      7  C   UNL     1     -26.372  -0.365   8.482  1.00  0.00     0.004 A 
ATOM      8  C   UNL     1     -28.199  -1.948   8.342  1.00  0.00     0.004 A 
ATOM      9  C   UNL     1     -25.467  -1.420   8.629  1.00  0.00     0.004 A 
ATOM     10  C   UNL     1     -27.294  -3.004   8.487  1.00  0.00     0.004 A 
ENDBRANCH   2   4
ENDBRANCH   1   2
BRANCH   1  11
ATOM     11  C   UNL     1     -25.583  -6.216   9.705  1.00  0.00     0.028 C 
BRANCH  11  12
ATOM     12  C   UNL     1     -24.861  -7.484   9.320  1.00  0.00    -0.028 C 
ATOM     13  C   UNL     1     -23.537  -7.690   9.487  1.00  0.00    -0.080 C 
ATOM     14  C   UNL     1     -22.622  -6.619  10.038  1.00  0.00     0.039 C 
ATOM     15  C   UNL     1     -22.962  -9.026   9.093  1.00  0.00     0.039 C 
ENDBRANCH  11  12
ENDBRANCH   1  11
TORSDOF 4
ENDMDL
