MODEL 1
REMARK VINA RESULT:    -2.500      0.000      0.000
REMARK INTER + INTRA:          -2.719
REMARK INTER:                  -2.719
REMARK INTRA:                   0.000
REMARK UNBOUND:                 0.000
REMARK SMILES [NH3+]CC(=O)[O-]
REMARK SMILES IDX 2 1 1 2 3 6 4 7 5 8
REMARK H PARENT 1 3 1 4 1 5
REMARK Flexibility Score: inf
ROOT
ATOM      1  C   UNL     1      54.947  29.543   8.707  1.00  0.00     0.312 C 
ENDROOT
BRANCH   1   2
ATOM      2  N   UNL     1      55.021  30.401   9.888  1.00  0.00    -0.353 N 
ATOM      3  H   UNL     1      55.651  31.215   9.701  1.00  0.00     0.344 HD
ATOM      4  H   UNL     1      55.380  29.855  10.706  1.00  0.00     0.344 HD
ATOM      5  H   UNL     1      54.064  30.758  10.113  1.00  0.00     0.344 HD
ENDBRANCH   1   2
BRANCH   1   6
ATOM      6  C   UNL     1      53.670  29.779   7.962  1.00  0.00     0.096 C 
ATOM      7  O   UNL     1      53.092  30.895   8.033  1.00  0.00    -0.544 OA
ATOM      8  O   UNL     1      53.092  28.750   7.230  1.00  0.00    -0.544 OA
ENDBRANCH   1   6
TORSDOF 2
ENDMDL
MODEL 2
REMARK VINA RESULT:    -2.480     13.892     14.088
REMARK INTER + INTRA:          -2.697
REMARK INTER:                  -2.697
REMARK INTRA:                   0.000
REMARK UNBOUND:                 0.000
REMARK SMILES [NH3+]CC(=O)[O-]
REMARK SMILES IDX 2 1 1 2 3 6 4 7 5 8
REMARK H PARENT 1 3 1 4 1 5
REMARK Flexibility Score: inf
ROOT
ATOM      1  C   UNL     1      64.123  28.402  18.435  1.00  0.00     0.312 C 
ENDROOT
BRANCH   1   2
ATOM      2  N   UNL     1      63.090  29.345  18.010  1.00  0.00    -0.353 N 
ATOM      3  H   UNL     1      62.256  28.825  17.652  1.00  0.00     0.344 HD
ATOM      4  H   UNL     1      63.464  29.972  17.260  1.00  0.00     0.344 HD
ATOM      5  H   UNL     1      62.801  29.928  18.828  1.00  0.00     0.344 HD
ENDBRANCH   1   2
BRANCH   1   6
ATOM      6  C   UNL     1      64.660  27.641  17.263  1.00  0.00     0.096 C 
ATOM      7  O   UNL     1      64.242  26.479  17.017  1.00  0.00    -0.544 OA
ATOM      8  O   UNL     1      65.657  28.196  16.472  1.00  0.00    -0.544 OA
ENDBRANCH   1   6
TORSDOF 2
ENDMDL
MODEL 3
REMARK VINA RESULT:    -2.471     13.871     14.366
REMARK INTER + INTRA:          -2.687
REMARK INTER:                  -2.687
REMARK INTRA:                   0.000
REMARK UNBOUND:                 0.000
REMARK SMILES [NH3+]CC(=O)[O-]
REMARK SMILES IDX 2 1 1 2 3 6 4 7 5 8
REMARK H PARENT 1 3 1 4 1 5
REMARK Flexibility Score: inf
ROOT
ATOM      1  C   UNL     1      56.362  17.866  13.505  1.00  0.00     0.312 C 
ENDROOT
BRANCH   1   2
ATOM      2  N   UNL     1      55.248  17.007  13.905  1.00  0.00    -0.353 N 
ATOM      3  H   UNL     1      55.612  16.099  14.278  1.00  0.00     0.344 HD
ATOM      4  H   UNL     1      54.621  16.827  13.087  1.00  0.00     0.344 HD
ATOM      5  H   UNL     1      54.699  17.485  14.655  1.00  0.00     0.344 HD
ENDBRANCH   1   2
BRANCH   1   6
ATOM      6  C   UNL     1      57.620  17.460  14.207  1.00  0.00     0.096 C 
ATOM      7  O   UNL     1      57.758  16.282  14.631  1.00  0.00    -0.544 OA
ATOM      8  O   UNL     1      58.620  18.396  14.437  1.00  0.00    -0.544 OA
ENDBRANCH   1   6
TORSDOF 2
ENDMDL
MODEL 4
REMARK VINA RESULT:    -2.419     15.812     16.245
REMARK INTER + INTRA:          -2.631
REMARK INTER:                  -2.631
REMARK INTRA:                   0.000
REMARK UNBOUND:                 0.000
REMARK SMILES [NH3+]CC(=O)[O-]
REMARK SMILES IDX 2 1 1 2 3 6 4 7 5 8
REMARK H PARENT 1 3 1 4 1 5
REMARK Flexibility Score: inf
ROOT
ATOM      1  C   UNL     1      53.063  14.057   4.529  1.00  0.00     0.312 C 
ENDROOT
BRANCH   1   2
ATOM      2  N   UNL     1      51.647  14.170   4.876  1.00  0.00    -0.353 N 
ATOM      3  H   UNL     1      51.362  13.366   5.482  1.00  0.00     0.344 HD
ATOM      4  H   UNL     1      51.065  14.182   4.007  1.00  0.00     0.344 HD
ATOM      5  H   UNL     1      51.493  15.061   5.400  1.00  0.00     0.344 HD
ENDBRANCH   1   2
BRANCH   1   6
ATOM      6  C   UNL     1      53.912  14.068   5.762  1.00  0.00     0.096 C 
ATOM      7  O   UNL     1      54.420  15.145   6.172  1.00  0.00    -0.544 OA
ATOM      8  O   UNL     1      54.182  12.881   6.430  1.00  0.00    -0.544 OA
ENDBRANCH   1   6
TORSDOF 2
ENDMDL
MODEL 5
REMARK VINA RESULT:    -2.365      0.935      1.693
REMARK INTER + INTRA:          -2.572
REMARK INTER:                  -2.572
REMARK INTRA:                   0.000
REMARK UNBOUND:                 0.000
REMARK SMILES [NH3+]CC(=O)[O-]
REMARK SMILES IDX 2 1 1 2 3 6 4 7 5 8
REMARK H PARENT 1 3 1 4 1 5
REMARK Flexibility Score: inf
ROOT
ATOM      1  C   UNL     1      54.905  29.856   8.662  1.00  0.00     0.312 C 
ENDROOT
BRANCH   1   2
ATOM      2  N   UNL     1      55.432  30.319   9.945  1.00  0.00    -0.353 N 
ATOM      3  H   UNL     1      55.190  31.327  10.089  1.00  0.00     0.344 HD
ATOM      4  H   UNL     1      56.471  30.197   9.971  1.00  0.00     0.344 HD
ATOM      5  H   UNL     1      55.005  29.755  10.715  1.00  0.00     0.344 HD
ENDBRANCH   1   2
BRANCH   1   6
ATOM      6  C   UNL     1      53.677  30.626   8.287  1.00  0.00     0.096 C 
ATOM      7  O   UNL     1      52.982  30.268   7.299  1.00  0.00    -0.544 OA
ATOM      8  O   UNL     1      53.328  31.767   8.997  1.00  0.00    -0.544 OA
ENDBRANCH   1   6
TORSDOF 2
ENDMDL
MODEL 6
REMARK VINA RESULT:    -2.341      1.332      1.569
REMARK INTER + INTRA:          -2.546
REMARK INTER:                  -2.546
REMARK INTRA:                   0.000
REMARK UNBOUND:                 0.000
REMARK SMILES [NH3+]CC(=O)[O-]
REMARK SMILES IDX 2 1 1 2 3 6 4 7 5 8
REMARK H PARENT 1 3 1 4 1 5
REMARK Flexibility Score: inf
ROOT
ATOM      1  C   UNL     1      55.182  29.844   9.232  1.00  0.00     0.312 C 
ENDROOT
BRANCH   1   2
ATOM      2  N   UNL     1      54.338  31.006   9.504  1.00  0.00    -0.353 N 
ATOM      3  H   UNL     1      54.128  31.065  10.527  1.00  0.00     0.344 HD
ATOM      4  H   UNL     1      53.445  30.936   8.963  1.00  0.00     0.344 HD
ATOM      5  H   UNL     1      54.845  31.873   9.212  1.00  0.00     0.344 HD
ENDBRANCH   1   2
BRANCH   1   6
ATOM      6  C   UNL     1      54.676  29.090   8.042  1.00  0.00     0.096 C 
ATOM      7  O   UNL     1      53.463  29.169   7.711  1.00  0.00    -0.544 OA
ATOM      8  O   UNL     1      55.531  28.261   7.329  1.00  0.00    -0.544 OA
ENDBRANCH   1   6
TORSDOF 2
ENDMDL
MODEL 7
REMARK VINA RESULT:    -2.316      2.542      2.669
REMARK INTER + INTRA:          -2.520
REMARK INTER:                  -2.520
REMARK INTRA:                   0.000
REMARK UNBOUND:                 0.000
REMARK SMILES [NH3+]CC(=O)[O-]
REMARK SMILES IDX 2 1 1 2 3 6 4 7 5 8
REMARK H PARENT 1 3 1 4 1 5
REMARK Flexibility Score: inf
ROOT
ATOM      1  C   UNL     1      53.626  28.317   6.865  1.00  0.00     0.312 C 
ENDROOT
BRANCH   1   2
ATOM      2  N   UNL     1      52.325  27.687   7.083  1.00  0.00    -0.353 N 
ATOM      3  H   UNL     1      51.558  28.346   6.813  1.00  0.00     0.344 HD
ATOM      4  H   UNL     1      52.221  27.416   8.088  1.00  0.00     0.344 HD
ATOM      5  H   UNL     1      52.256  26.828   6.491  1.00  0.00     0.344 HD
ENDBRANCH   1   2
BRANCH   1   6
ATOM      6  C   UNL     1      53.863  29.402   7.869  1.00  0.00     0.096 C 
ATOM      7  O   UNL     1      53.114  30.414   7.896  1.00  0.00    -0.544 OA
ATOM      8  O   UNL     1      54.941  29.319   8.740  1.00  0.00    -0.544 OA
ENDBRANCH   1   6
TORSDOF 2
ENDMDL
MODEL 8
REMARK VINA RESULT:    -2.285     13.633     13.913
REMARK INTER + INTRA:          -2.485
REMARK INTER:                  -2.485
REMARK INTRA:                   0.000
REMARK UNBOUND:                 0.000
REMARK SMILES [NH3+]CC(=O)[O-]
REMARK SMILES IDX 2 1 1 2 3 6 4 7 5 8
REMARK H PARENT 1 3 1 4 1 5
REMARK Flexibility Score: inf
ROOT
ATOM      1  C   UNL     1      55.584  17.455  13.414  1.00  0.00     0.312 C 
ENDROOT
BRANCH   1   2
ATOM      2  N   UNL     1      55.985  16.754  14.633  1.00  0.00    -0.353 N 
ATOM      3  H   UNL     1      56.384  15.818  14.393  1.00  0.00     0.344 HD
ATOM      4  H   UNL     1      55.160  16.636  15.267  1.00  0.00     0.344 HD
ATOM      5  H   UNL     1      56.715  17.317  15.127  1.00  0.00     0.344 HD
ENDBRANCH   1   2
BRANCH   1   6
ATOM      6  C   UNL     1      56.423  17.020  12.254  1.00  0.00     0.096 C 
ATOM      7  O   UNL     1      57.357  17.754  11.837  1.00  0.00    -0.544 OA
ATOM      8  O   UNL     1      56.140  15.827  11.601  1.00  0.00    -0.544 OA
ENDBRANCH   1   6
TORSDOF 2
ENDMDL
MODEL 9
REMARK VINA RESULT:    -2.257     14.314     14.697
REMARK INTER + INTRA:          -2.455
REMARK INTER:                  -2.455
REMARK INTRA:                   0.000
REMARK UNBOUND:                 0.000
REMARK SMILES [NH3+]CC(=O)[O-]
REMARK SMILES IDX 2 1 1 2 3 6 4 7 5 8
REMARK H PARENT 1 3 1 4 1 5
REMARK Flexibility Score: inf
ROOT
ATOM      1  C   UNL     1      65.910  27.701  15.638  1.00  0.00     0.312 C 
ENDROOT
BRANCH   1   2
ATOM      2  N   UNL     1      64.519  27.249  15.646  1.00  0.00    -0.353 N 
ATOM      3  H   UNL     1      63.920  27.942  16.152  1.00  0.00     0.344 HD
ATOM      4  H   UNL     1      64.448  26.314  16.110  1.00  0.00     0.344 HD
ATOM      5  H   UNL     1      64.181  27.166  14.660  1.00  0.00     0.344 HD
ENDBRANCH   1   2
BRANCH   1   6
ATOM      6  C   UNL     1      66.160  28.660  16.761  1.00  0.00     0.096 C 
ATOM      7  O   UNL     1      65.212  29.022  17.508  1.00  0.00    -0.544 OA
ATOM      8  O   UNL     1      67.428  29.192  16.951  1.00  0.00    -0.544 OA
ENDBRANCH   1   6
TORSDOF 2
ENDMDL
