MODEL 1
REMARK VINA RESULT:    -5.074      0.000      0.000
REMARK INTER + INTRA:         -10.443
REMARK INTER:                  -9.226
REMARK INTRA:                  -1.217
REMARK UNBOUND:                -1.217
REMARK SMILES CCCCCCCCCCCCCCCC(=O)[O-]
REMARK SMILES IDX 9 1 10 2 11 3 12 4 13 5 14 6 15 7 16 8 17 9 18 10 8 11 7 12
REMARK SMILES IDX 6 13 5 14 4 15 3 16 2 17 1 18
REMARK H PARENT
REMARK Flexibility Score: inf
ROOT
ATOM      1  C   UNL     1      -4.352  12.504 -16.211  1.00  0.00     0.000 C 
ENDROOT
BRANCH   1   2
ATOM      2  C   UNL     1      -4.245  12.523 -14.679  1.00  0.00     0.000 C 
BRANCH   2   3
ATOM      3  C   UNL     1      -2.928  11.916 -14.167  1.00  0.00     0.000 C 
BRANCH   3   4
ATOM      4  C   UNL     1      -2.901  10.382 -14.280  1.00  0.00     0.000 C 
BRANCH   4   5
ATOM      5  C   UNL     1      -3.934   9.704 -13.363  1.00  0.00     0.000 C 
BRANCH   5   6
ATOM      6  C   UNL     1      -5.024   8.958 -14.152  1.00  0.00     0.006 C 
BRANCH   6   7
ATOM      7  C   UNL     1      -5.232   7.527 -13.637  1.00  0.00     0.053 C 
BRANCH   7   8
ATOM      8  C   UNL     1      -6.596   7.007 -13.974  1.00  0.00     0.041 C 
ATOM      9  O   UNL     1      -7.593   7.777 -13.946  1.00  0.00    -0.550 OA
ATOM     10  O   UNL     1      -6.763   5.679 -14.347  1.00  0.00    -0.550 OA
ENDBRANCH   7   8
ENDBRANCH   6   7
ENDBRANCH   5   6
ENDBRANCH   4   5
ENDBRANCH   3   4
ENDBRANCH   2   3
ENDBRANCH   1   2
BRANCH   1  11
ATOM     11  C   UNL     1      -3.107  13.130 -16.856  1.00  0.00     0.000 C 
BRANCH  11  12
ATOM     12  C   UNL     1      -2.749  12.486 -18.204  1.00  0.00    -0.000 C 
BRANCH  12  13
ATOM     13  C   UNL     1      -2.949  10.960 -18.207  1.00  0.00    -0.000 C 
BRANCH  13  14
ATOM     14  C   UNL     1      -3.690  10.473 -19.470  1.00  0.00    -0.000 C 
BRANCH  14  15
ATOM     15  C   UNL     1      -4.864  11.378 -19.882  1.00  0.00    -0.000 C 
BRANCH  15  16
ATOM     16  C   UNL     1      -5.822  10.698 -20.873  1.00  0.00    -0.000 C 
BRANCH  16  17
ATOM     17  C   UNL     1      -7.289  10.779 -20.424  1.00  0.00    -0.003 C 
ATOM     18  C   UNL     1      -8.143   9.640 -20.983  1.00  0.00     0.004 C 
ENDBRANCH  16  17
ENDBRANCH  15  16
ENDBRANCH  14  15
ENDBRANCH  13  14
ENDBRANCH  12  13
ENDBRANCH  11  12
ENDBRANCH   1  11
TORSDOF 14
ENDMDL
MODEL 2
REMARK VINA RESULT:    -4.812      1.267      1.992
REMARK INTER + INTRA:          -9.967
REMARK INTER:                  -8.800
REMARK INTRA:                  -1.166
REMARK UNBOUND:                -1.217
REMARK SMILES CCCCCCCCCCCCCCCC(=O)[O-]
REMARK SMILES IDX 9 1 10 2 11 3 12 4 13 5 14 6 15 7 16 8 17 9 18 10 8 11 7 12
REMARK SMILES IDX 6 13 5 14 4 15 3 16 2 17 1 18
REMARK H PARENT
REMARK Flexibility Score: inf
ROOT
ATOM      1  C   UNL     1      -2.310  13.745 -17.830  1.00  0.00     0.000 C 
ENDROOT
BRANCH   1   2
ATOM      2  C   UNL     1      -3.154  13.355 -16.607  1.00  0.00     0.000 C 
BRANCH   2   3
ATOM      3  C   UNL     1      -2.328  13.280 -15.313  1.00  0.00     0.000 C 
BRANCH   3   4
ATOM      4  C   UNL     1      -2.718  12.079 -14.432  1.00  0.00     0.000 C 
BRANCH   4   5
ATOM      5  C   UNL     1      -4.113  11.527 -14.771  1.00  0.00     0.000 C 
BRANCH   5   6
ATOM      6  C   UNL     1      -4.150   9.989 -14.797  1.00  0.00     0.006 C 
BRANCH   6   7
ATOM      7  C   UNL     1      -4.577   9.398 -13.447  1.00  0.00     0.053 C 
BRANCH   7   8
ATOM      8  C   UNL     1      -4.695   7.906 -13.504  1.00  0.00     0.041 C 
ATOM      9  O   UNL     1      -5.765   7.369 -13.895  1.00  0.00    -0.550 OA
ATOM     10  O   UNL     1      -3.613   7.109 -13.152  1.00  0.00    -0.550 OA
ENDBRANCH   7   8
ENDBRANCH   6   7
ENDBRANCH   5   6
ENDBRANCH   4   5
ENDBRANCH   3   4
ENDBRANCH   2   3
ENDBRANCH   1   2
BRANCH   1  11
ATOM     11  C   UNL     1      -2.446  12.699 -18.946  1.00  0.00     0.000 C 
BRANCH  11  12
ATOM     12  C   UNL     1      -2.672  11.279 -18.406  1.00  0.00    -0.000 C 
BRANCH  12  13
ATOM     13  C   UNL     1      -3.832  10.551 -19.108  1.00  0.00    -0.000 C 
BRANCH  13  14
ATOM     14  C   UNL     1      -4.650  11.498 -20.012  1.00  0.00    -0.000 C 
BRANCH  14  15
ATOM     15  C   UNL     1      -5.673  10.771 -20.901  1.00  0.00    -0.000 C 
BRANCH  15  16
ATOM     16  C   UNL     1      -7.086  10.757 -20.296  1.00  0.00    -0.000 C 
BRANCH  16  17
ATOM     17  C   UNL     1      -8.067   9.898 -21.109  1.00  0.00    -0.003 C 
ATOM     18  C   UNL     1      -8.708   8.785 -20.280  1.00  0.00     0.004 C 
ENDBRANCH  16  17
ENDBRANCH  15  16
ENDBRANCH  14  15
ENDBRANCH  13  14
ENDBRANCH  12  13
ENDBRANCH  11  12
ENDBRANCH   1  11
TORSDOF 14
ENDMDL
MODEL 3
REMARK VINA RESULT:    -4.701      2.584      6.091
REMARK INTER + INTRA:          -9.765
REMARK INTER:                  -8.839
REMARK INTRA:                  -0.926
REMARK UNBOUND:                -1.217
REMARK SMILES CCCCCCCCCCCCCCCC(=O)[O-]
REMARK SMILES IDX 9 1 10 2 11 3 12 4 13 5 14 6 15 7 16 8 17 9 18 10 8 11 7 12
REMARK SMILES IDX 6 13 5 14 4 15 3 16 2 17 1 18
REMARK H PARENT
REMARK Flexibility Score: inf
ROOT
ATOM      1  C   UNL     1      -3.472  13.038 -17.037  1.00  0.00     0.000 C 
ENDROOT
BRANCH   1   2
ATOM      2  C   UNL     1      -2.764  12.402 -18.243  1.00  0.00     0.000 C 
BRANCH   2   3
ATOM      3  C   UNL     1      -2.927  10.874 -18.292  1.00  0.00     0.000 C 
BRANCH   3   4
ATOM      4  C   UNL     1      -3.665  10.400 -19.557  1.00  0.00     0.000 C 
BRANCH   4   5
ATOM      5  C   UNL     1      -4.801  11.351 -19.970  1.00  0.00     0.000 C 
BRANCH   5   6
ATOM      6  C   UNL     1      -5.847  10.667 -20.867  1.00  0.00     0.006 C 
BRANCH   6   7
ATOM      7  C   UNL     1      -7.264  10.773 -20.287  1.00  0.00     0.053 C 
BRANCH   7   8
ATOM      8  C   UNL     1      -8.183   9.746 -20.874  1.00  0.00     0.041 C 
ATOM      9  O   UNL     1      -8.457   8.698 -20.230  1.00  0.00    -0.550 OA
ATOM     10  O   UNL     1      -8.761   9.959 -22.119  1.00  0.00    -0.550 OA
ENDBRANCH   7   8
ENDBRANCH   6   7
ENDBRANCH   5   6
ENDBRANCH   4   5
ENDBRANCH   3   4
ENDBRANCH   2   3
ENDBRANCH   1   2
BRANCH   1  11
ATOM     11  C   UNL     1      -2.475  13.323 -15.904  1.00  0.00     0.000 C 
BRANCH  11  12
ATOM     12  C   UNL     1      -2.827  12.582 -14.604  1.00  0.00    -0.000 C 
BRANCH  12  13
ATOM     13  C   UNL     1      -4.157  11.813 -14.698  1.00  0.00    -0.000 C 
BRANCH  13  14
ATOM     14  C   UNL     1      -3.948  10.284 -14.664  1.00  0.00    -0.000 C 
BRANCH  14  15
ATOM     15  C   UNL     1      -4.671   9.589 -13.498  1.00  0.00    -0.000 C 
BRANCH  15  16
ATOM     16  C   UNL     1      -4.930   8.097 -13.761  1.00  0.00    -0.000 C 
BRANCH  16  17
ATOM     17  C   UNL     1      -6.428   7.754 -13.788  1.00  0.00    -0.003 C 
ATOM     18  C   UNL     1      -6.693   6.285 -14.117  1.00  0.00     0.004 C 
ENDBRANCH  16  17
ENDBRANCH  15  16
ENDBRANCH  14  15
ENDBRANCH  13  14
ENDBRANCH  12  13
ENDBRANCH  11  12
ENDBRANCH   1  11
TORSDOF 14
ENDMDL
MODEL 4
REMARK VINA RESULT:    -4.391      2.795      6.189
REMARK INTER + INTRA:          -9.202
REMARK INTER:                  -8.134
REMARK INTRA:                  -1.068
REMARK UNBOUND:                -1.217
REMARK SMILES CCCCCCCCCCCCCCCC(=O)[O-]
REMARK SMILES IDX 9 1 10 2 11 3 12 4 13 5 14 6 15 7 16 8 17 9 18 10 8 11 7 12
REMARK SMILES IDX 6 13 5 14 4 15 3 16 2 17 1 18
REMARK H PARENT
REMARK Flexibility Score: inf
ROOT
ATOM      1  C   UNL     1      -2.478  13.248 -15.542  1.00  0.00     0.000 C 
ENDROOT
BRANCH   1   2
ATOM      2  C   UNL     1      -3.271  13.454 -16.841  1.00  0.00     0.000 C 
BRANCH   2   3
ATOM      3  C   UNL     1      -2.371  13.795 -18.040  1.00  0.00     0.000 C 
BRANCH   3   4
ATOM      4  C   UNL     1      -2.419  12.720 -19.140  1.00  0.00     0.000 C 
BRANCH   4   5
ATOM      5  C   UNL     1      -2.553  11.298 -18.569  1.00  0.00     0.000 C 
BRANCH   5   6
ATOM      6  C   UNL     1      -3.713  10.512 -19.205  1.00  0.00     0.006 C 
BRANCH   6   7
ATOM      7  C   UNL     1      -4.899  11.420 -19.560  1.00  0.00     0.053 C 
BRANCH   7   8
ATOM      8  C   UNL     1      -5.697  10.870 -20.703  1.00  0.00     0.041 C 
ATOM      9  O   UNL     1      -5.116  10.454 -21.740  1.00  0.00    -0.550 OA
ATOM     10  O   UNL     1      -7.081  10.791 -20.610  1.00  0.00    -0.550 OA
ENDBRANCH   7   8
ENDBRANCH   6   7
ENDBRANCH   5   6
ENDBRANCH   4   5
ENDBRANCH   3   4
ENDBRANCH   2   3
ENDBRANCH   1   2
BRANCH   1  11
ATOM     11  C   UNL     1      -3.277  12.400 -14.541  1.00  0.00     0.000 C 
BRANCH  11  12
ATOM     12  C   UNL     1      -3.341  10.917 -14.937  1.00  0.00    -0.000 C 
BRANCH  12  13
ATOM     13  C   UNL     1      -4.267  10.095 -14.022  1.00  0.00    -0.000 C 
BRANCH  13  14
ATOM     14  C   UNL     1      -3.510   8.968 -13.290  1.00  0.00    -0.000 C 
BRANCH  14  15
ATOM     15  C   UNL     1      -4.275   7.633 -13.255  1.00  0.00    -0.000 C 
BRANCH  15  16
ATOM     16  C   UNL     1      -5.650   7.716 -13.935  1.00  0.00    -0.000 C 
BRANCH  16  17
ATOM     17  C   UNL     1      -6.605   6.605 -13.471  1.00  0.00    -0.003 C 
ATOM     18  C   UNL     1      -7.099   5.730 -14.623  1.00  0.00     0.004 C 
ENDBRANCH  16  17
ENDBRANCH  15  16
ENDBRANCH  14  15
ENDBRANCH  13  14
ENDBRANCH  12  13
ENDBRANCH  11  12
ENDBRANCH   1  11
TORSDOF 14
ENDMDL
MODEL 5
REMARK VINA RESULT:    -4.052      5.736      8.819
REMARK INTER + INTRA:          -8.585
REMARK INTER:                  -7.880
REMARK INTRA:                  -0.705
REMARK UNBOUND:                -1.217
REMARK SMILES CCCCCCCCCCCCCCCC(=O)[O-]
REMARK SMILES IDX 9 1 10 2 11 3 12 4 13 5 14 6 15 7 16 8 17 9 18 10 8 11 7 12
REMARK SMILES IDX 6 13 5 14 4 15 3 16 2 17 1 18
REMARK H PARENT
REMARK Flexibility Score: inf
ROOT
ATOM      1  C   UNL     1      -3.156  11.500 -17.958  1.00  0.00     0.000 C 
ENDROOT
BRANCH   1   2
ATOM      2  C   UNL     1      -3.209  12.499 -19.123  1.00  0.00     0.000 C 
BRANCH   2   3
ATOM      3  C   UNL     1      -1.936  13.354 -19.233  1.00  0.00     0.000 C 
BRANCH   3   4
ATOM      4  C   UNL     1      -1.898  14.493 -18.199  1.00  0.00     0.000 C 
BRANCH   4   5
ATOM      5  C   UNL     1      -0.571  15.271 -18.226  1.00  0.00     0.000 C 
BRANCH   5   6
ATOM      6  C   UNL     1      -0.749  16.728 -18.689  1.00  0.00     0.006 C 
BRANCH   6   7
ATOM      7  C   UNL     1       0.587  17.382 -19.065  1.00  0.00     0.053 C 
BRANCH   7   8
ATOM      8  C   UNL     1       0.567  18.862 -18.835  1.00  0.00     0.041 C 
ATOM      9  O   UNL     1       1.446  19.404 -18.113  1.00  0.00    -0.550 OA
ATOM     10  O   UNL     1      -0.407  19.647 -19.439  1.00  0.00    -0.550 OA
ENDBRANCH   7   8
ENDBRANCH   6   7
ENDBRANCH   5   6
ENDBRANCH   4   5
ENDBRANCH   3   4
ENDBRANCH   2   3
ENDBRANCH   1   2
BRANCH   1  11
ATOM     11  C   UNL     1      -4.247  11.808 -16.922  1.00  0.00     0.000 C 
BRANCH  11  12
ATOM     12  C   UNL     1      -3.730  12.653 -15.747  1.00  0.00    -0.000 C 
BRANCH  12  13
ATOM     13  C   UNL     1      -3.816  11.916 -14.399  1.00  0.00    -0.000 C 
BRANCH  13  14
ATOM     14  C   UNL     1      -4.151  10.420 -14.575  1.00  0.00    -0.000 C 
BRANCH  14  15
ATOM     15  C   UNL     1      -3.689   9.542 -13.399  1.00  0.00    -0.000 C 
BRANCH  15  16
ATOM     16  C   UNL     1      -4.296   8.131 -13.434  1.00  0.00    -0.000 C 
BRANCH  16  17
ATOM     17  C   UNL     1      -5.729   8.120 -13.991  1.00  0.00    -0.003 C 
ATOM     18  C   UNL     1      -6.424   6.770 -13.810  1.00  0.00     0.004 C 
ENDBRANCH  16  17
ENDBRANCH  15  16
ENDBRANCH  14  15
ENDBRANCH  13  14
ENDBRANCH  12  13
ENDBRANCH  11  12
ENDBRANCH   1  11
TORSDOF 14
ENDMDL
MODEL 6
REMARK VINA RESULT:    -4.020      3.303      5.429
REMARK INTER + INTRA:          -8.526
REMARK INTER:                  -7.670
REMARK INTRA:                  -0.857
REMARK UNBOUND:                -1.217
REMARK SMILES CCCCCCCCCCCCCCCC(=O)[O-]
REMARK SMILES IDX 9 1 10 2 11 3 12 4 13 5 14 6 15 7 16 8 17 9 18 10 8 11 7 12
REMARK SMILES IDX 6 13 5 14 4 15 3 16 2 17 1 18
REMARK H PARENT
REMARK Flexibility Score: inf
ROOT
ATOM      1  C   UNL     1      -3.035  11.026 -19.054  1.00  0.00     0.000 C 
ENDROOT
BRANCH   1   2
ATOM      2  C   UNL     1      -3.190  10.486 -17.624  1.00  0.00     0.000 C 
BRANCH   2   3
ATOM      3  C   UNL     1      -3.968  11.443 -16.707  1.00  0.00     0.000 C 
BRANCH   3   4
ATOM      4  C   UNL     1      -3.269  11.663 -15.353  1.00  0.00     0.000 C 
BRANCH   4   5
ATOM      5  C   UNL     1      -4.170  11.307 -14.159  1.00  0.00     0.000 C 
BRANCH   5   6
ATOM      6  C   UNL     1      -4.032   9.834 -13.733  1.00  0.00     0.006 C 
BRANCH   6   7
ATOM      7  C   UNL     1      -5.232   8.989 -14.181  1.00  0.00     0.053 C 
BRANCH   7   8
ATOM      8  C   UNL     1      -5.202   7.617 -13.578  1.00  0.00     0.041 C 
ATOM      9  O   UNL     1      -6.267   6.955 -13.457  1.00  0.00    -0.550 OA
ATOM     10  O   UNL     1      -3.995   7.060 -13.176  1.00  0.00    -0.550 OA
ENDBRANCH   7   8
ENDBRANCH   6   7
ENDBRANCH   5   6
ENDBRANCH   4   5
ENDBRANCH   3   4
ENDBRANCH   2   3
ENDBRANCH   1   2
BRANCH   1  11
ATOM     11  C   UNL     1      -3.222  12.550 -19.087  1.00  0.00     0.000 C 
BRANCH  11  12
ATOM     12  C   UNL     1      -1.888  13.310 -19.156  1.00  0.00    -0.000 C 
BRANCH  12  13
ATOM     13  C   UNL     1      -1.763  14.395 -18.071  1.00  0.00    -0.000 C 
BRANCH  13  14
ATOM     14  C   UNL     1      -0.550  15.318 -18.309  1.00  0.00    -0.000 C 
BRANCH  14  15
ATOM     15  C   UNL     1      -0.935  16.751 -18.712  1.00  0.00    -0.000 C 
BRANCH  15  16
ATOM     16  C   UNL     1       0.286  17.644 -18.983  1.00  0.00    -0.000 C 
BRANCH  16  17
ATOM     17  C   UNL     1      -0.093  19.121 -19.169  1.00  0.00    -0.003 C 
ATOM     18  C   UNL     1      -1.109  19.607 -18.135  1.00  0.00     0.004 C 
ENDBRANCH  16  17
ENDBRANCH  15  16
ENDBRANCH  14  15
ENDBRANCH  13  14
ENDBRANCH  12  13
ENDBRANCH  11  12
ENDBRANCH   1  11
TORSDOF 14
ENDMDL
MODEL 7
REMARK VINA RESULT:    -3.961      4.894      7.238
REMARK INTER + INTRA:          -8.420
REMARK INTER:                  -7.131
REMARK INTRA:                  -1.289
REMARK UNBOUND:                -1.217
REMARK SMILES CCCCCCCCCCCCCCCC(=O)[O-]
REMARK SMILES IDX 9 1 10 2 11 3 12 4 13 5 14 6 15 7 16 8 17 9 18 10 8 11 7 12
REMARK SMILES IDX 6 13 5 14 4 15 3 16 2 17 1 18
REMARK H PARENT
REMARK Flexibility Score: inf
ROOT
ATOM      1  C   UNL     1      -1.972  14.601 -18.562  1.00  0.00     0.000 C 
ENDROOT
BRANCH   1   2
ATOM      2  C   UNL     1      -1.817  13.177 -19.115  1.00  0.00     0.000 C 
BRANCH   2   3
ATOM      3  C   UNL     1      -3.155  12.425 -19.210  1.00  0.00     0.000 C 
BRANCH   3   4
ATOM      4  C   UNL     1      -3.069  10.992 -18.657  1.00  0.00     0.000 C 
BRANCH   4   5
ATOM      5  C   UNL     1      -3.477  10.906 -17.176  1.00  0.00     0.000 C 
BRANCH   5   6
ATOM      6  C   UNL     1      -4.390  12.067 -16.746  1.00  0.00     0.006 C 
BRANCH   6   7
ATOM      7  C   UNL     1      -4.304  12.343 -15.239  1.00  0.00     0.053 C 
BRANCH   7   8
ATOM      8  C   UNL     1      -2.887  12.524 -14.787  1.00  0.00     0.041 C 
ATOM      9  O   UNL     1      -2.371  11.710 -13.975  1.00  0.00    -0.550 OA
ATOM     10  O   UNL     1      -2.127  13.575 -15.284  1.00  0.00    -0.550 OA
ENDBRANCH   7   8
ENDBRANCH   6   7
ENDBRANCH   5   6
ENDBRANCH   4   5
ENDBRANCH   3   4
ENDBRANCH   2   3
ENDBRANCH   1   2
BRANCH   1  11
ATOM     11  C   UNL     1      -0.633  15.132 -18.030  1.00  0.00     0.000 C 
BRANCH  11  12
ATOM     12  C   UNL     1       0.448  15.214 -19.119  1.00  0.00    -0.000 C 
BRANCH  12  13
ATOM     13  C   UNL     1       1.775  15.797 -18.600  1.00  0.00    -0.000 C 
BRANCH  13  14
ATOM     14  C   UNL     1       1.914  17.300 -18.921  1.00  0.00    -0.000 C 
BRANCH  14  15
ATOM     15  C   UNL     1       1.034  17.764 -20.094  1.00  0.00    -0.000 C 
BRANCH  15  16
ATOM     16  C   UNL     1       0.742  19.272 -20.060  1.00  0.00    -0.000 C 
BRANCH  16  17
ATOM     17  C   UNL     1       0.059  19.710 -18.755  1.00  0.00    -0.003 C 
ATOM     18  C   UNL     1      -1.241  18.952 -18.483  1.00  0.00     0.004 C 
ENDBRANCH  16  17
ENDBRANCH  15  16
ENDBRANCH  14  15
ENDBRANCH  13  14
ENDBRANCH  12  13
ENDBRANCH  11  12
ENDBRANCH   1  11
TORSDOF 14
ENDMDL
MODEL 8
REMARK VINA RESULT:    -3.846      6.258      8.889
REMARK INTER + INTRA:          -8.210
REMARK INTER:                  -6.993
REMARK INTRA:                  -1.217
REMARK UNBOUND:                -1.217
REMARK SMILES CCCCCCCCCCCCCCCC(=O)[O-]
REMARK SMILES IDX 9 1 10 2 11 3 12 4 13 5 14 6 15 7 16 8 17 9 18 10 8 11 7 12
REMARK SMILES IDX 6 13 5 14 4 15 3 16 2 17 1 18
REMARK H PARENT
REMARK Flexibility Score: inf
ROOT
ATOM      1  C   UNL     1      -1.240  14.388 -18.326  1.00  0.00     0.000 C 
ENDROOT
BRANCH   1   2
ATOM      2  C   UNL     1      -0.509  15.738 -18.373  1.00  0.00     0.000 C 
BRANCH   2   3
ATOM      3  C   UNL     1       0.978  15.598 -18.738  1.00  0.00     0.000 C 
BRANCH   3   4
ATOM      4  C   UNL     1       1.715  16.949 -18.740  1.00  0.00     0.000 C 
BRANCH   4   5
ATOM      5  C   UNL     1       1.494  17.739 -20.041  1.00  0.00     0.000 C 
BRANCH   5   6
ATOM      6  C   UNL     1       0.547  18.937 -19.852  1.00  0.00     0.006 C 
BRANCH   6   7
ATOM      7  C   UNL     1       0.766  19.639 -18.505  1.00  0.00     0.053 C 
BRANCH   7   8
ATOM      8  C   UNL     1      -0.488  19.674 -17.686  1.00  0.00     0.041 C 
ATOM      9  O   UNL     1      -1.577  19.271 -18.175  1.00  0.00    -0.550 OA
ATOM     10  O   UNL     1      -0.449  20.125 -16.372  1.00  0.00    -0.550 OA
ENDBRANCH   7   8
ENDBRANCH   6   7
ENDBRANCH   5   6
ENDBRANCH   4   5
ENDBRANCH   3   4
ENDBRANCH   2   3
ENDBRANCH   1   2
BRANCH   1  11
ATOM     11  C   UNL     1      -2.423  14.439 -17.349  1.00  0.00     0.000 C 
BRANCH  11  12
ATOM     12  C   UNL     1      -2.214  13.544 -16.117  1.00  0.00    -0.000 C 
BRANCH  12  13
ATOM     13  C   UNL     1      -3.499  12.812 -15.687  1.00  0.00    -0.000 C 
BRANCH  13  14
ATOM     14  C   UNL     1      -4.091  11.958 -16.827  1.00  0.00    -0.000 C 
BRANCH  14  15
ATOM     15  C   UNL     1      -3.235  10.730 -17.185  1.00  0.00    -0.000 C 
BRANCH  15  16
ATOM     16  C   UNL     1      -3.186  10.458 -18.697  1.00  0.00    -0.000 C 
BRANCH  16  17
ATOM     17  C   UNL     1      -3.972  11.499 -19.509  1.00  0.00    -0.003 C 
ATOM     18  C   UNL     1      -4.934  10.863 -20.514  1.00  0.00     0.004 C 
ENDBRANCH  16  17
ENDBRANCH  15  16
ENDBRANCH  14  15
ENDBRANCH  13  14
ENDBRANCH  12  13
ENDBRANCH  11  12
ENDBRANCH   1  11
TORSDOF 14
ENDMDL
MODEL 9
REMARK VINA RESULT:    -3.844      4.987      7.453
REMARK INTER + INTRA:          -8.207
REMARK INTER:                  -7.127
REMARK INTRA:                  -1.079
REMARK UNBOUND:                -1.217
REMARK SMILES CCCCCCCCCCCCCCCC(=O)[O-]
REMARK SMILES IDX 9 1 10 2 11 3 12 4 13 5 14 6 15 7 16 8 17 9 18 10 8 11 7 12
REMARK SMILES IDX 6 13 5 14 4 15 3 16 2 17 1 18
REMARK H PARENT
REMARK Flexibility Score: inf
ROOT
ATOM      1  C   UNL     1      -1.036  15.566 -18.298  1.00  0.00     0.000 C 
ENDROOT
BRANCH   1   2
ATOM      2  C   UNL     1      -1.790  14.272 -17.957  1.00  0.00     0.000 C 
BRANCH   2   3
ATOM      3  C   UNL     1      -1.965  13.347 -19.173  1.00  0.00     0.000 C 
BRANCH   3   4
ATOM      4  C   UNL     1      -3.186  12.421 -19.040  1.00  0.00     0.000 C 
BRANCH   4   5
ATOM      5  C   UNL     1      -2.792  10.963 -18.749  1.00  0.00     0.000 C 
BRANCH   5   6
ATOM      6  C   UNL     1      -3.182  10.517 -17.329  1.00  0.00     0.006 C 
BRANCH   6   7
ATOM      7  C   UNL     1      -4.068  11.551 -16.622  1.00  0.00     0.053 C 
BRANCH   7   8
ATOM      8  C   UNL     1      -3.802  11.597 -15.148  1.00  0.00     0.041 C 
ATOM      9  O   UNL     1      -3.817  12.697 -14.534  1.00  0.00    -0.550 OA
ATOM     10  O   UNL     1      -3.566  10.421 -14.447  1.00  0.00    -0.550 OA
ENDBRANCH   7   8
ENDBRANCH   6   7
ENDBRANCH   5   6
ENDBRANCH   4   5
ENDBRANCH   3   4
ENDBRANCH   2   3
ENDBRANCH   1   2
BRANCH   1  11
ATOM     11  C   UNL     1       0.459  15.290 -18.512  1.00  0.00     0.000 C 
BRANCH  11  12
ATOM     12  C   UNL     1       1.270  16.571 -18.763  1.00  0.00    -0.000 C 
BRANCH  12  13
ATOM     13  C   UNL     1       0.554  17.553 -19.708  1.00  0.00    -0.000 C 
BRANCH  13  14
ATOM     14  C   UNL     1       1.094  18.992 -19.567  1.00  0.00    -0.000 C 
BRANCH  14  15
ATOM     15  C   UNL     1       0.025  20.012 -19.137  1.00  0.00    -0.000 C 
BRANCH  15  16
ATOM     16  C   UNL     1      -1.226  19.349 -18.541  1.00  0.00    -0.000 C 
BRANCH  16  17
ATOM     17  C   UNL     1      -1.683  20.019 -17.236  1.00  0.00    -0.003 C 
ATOM     18  C   UNL     1      -0.562  20.124 -16.200  1.00  0.00     0.004 C 
ENDBRANCH  16  17
ENDBRANCH  15  16
ENDBRANCH  14  15
ENDBRANCH  13  14
ENDBRANCH  12  13
ENDBRANCH  11  12
ENDBRANCH   1  11
TORSDOF 14
ENDMDL
