MODEL 1
REMARK VINA RESULT:    -6.564      0.000      0.000
REMARK INTER + INTRA:          -8.960
REMARK INTER:                  -8.291
REMARK INTRA:                  -0.670
REMARK UNBOUND:                -0.670
REMARK SMILES O=C(C=Cc1ccc(O)cc1)c1ccc(O)cc1O
REMARK SMILES IDX 4 1 3 2 5 3 6 4 7 5 8 6 11 7 10 8 9 9 2 11 1 12 12 13 18 14
REMARK SMILES IDX 13 15 17 16 14 17 15 18 19 19 16 21
REMARK H PARENT 9 10 19 20 16 22
REMARK Flexibility Score: inf
ROOT
ATOM      1  C   UNL     1       8.593  -1.491   9.154  1.00  0.00     0.012 C 
ATOM      2  C   UNL     1       9.086  -2.577   9.764  1.00  0.00     0.053 C 
ENDROOT
BRANCH   1   3
ATOM      3  C   UNL     1       9.116  -0.119   9.366  1.00  0.00    -0.025 A 
ATOM      4  C   UNL     1      10.165   0.069  10.281  1.00  0.00     0.012 A 
ATOM      5  C   UNL     1      10.695   1.344  10.505  1.00  0.00     0.047 A 
ATOM      6  C   UNL     1      10.189   2.448   9.808  1.00  0.00     0.115 A 
ATOM      7  C   UNL     1       8.623   0.997   8.658  1.00  0.00     0.012 A 
ATOM      8  C   UNL     1       9.155   2.270   8.885  1.00  0.00     0.047 A 
BRANCH   6   9
ATOM      9  O   UNL     1      10.708   3.722  10.023  1.00  0.00    -0.508 OA
ATOM     10  H   UNL     1      10.499   4.245  10.867  1.00  0.00     0.293 HD
ENDBRANCH   6   9
ENDBRANCH   1   3
BRANCH   2  11
ATOM     11  C   UNL     1       8.548  -3.933   9.515  1.00  0.00     0.189 C 
ATOM     12  O   UNL     1       8.585  -4.421   8.353  1.00  0.00    -0.289 OA
BRANCH  11  13
ATOM     13  C   UNL     1       8.008  -4.756  10.624  1.00  0.00     0.064 A 
ATOM     14  C   UNL     1       8.571  -6.005  10.968  1.00  0.00     0.130 A 
ATOM     15  C   UNL     1       6.921  -4.267  11.370  1.00  0.00     0.020 A 
ATOM     16  C   UNL     1       8.016  -6.755  12.016  1.00  0.00     0.093 A 
ATOM     17  C   UNL     1       6.380  -5.019  12.416  1.00  0.00     0.047 A 
ATOM     18  C   UNL     1       6.924  -6.267  12.738  1.00  0.00     0.119 A 
BRANCH  14  19
ATOM     19  O   UNL     1       9.691  -6.489  10.293  1.00  0.00    -0.507 OA
ATOM     20  H   UNL     1      10.271  -5.884   9.723  1.00  0.00     0.293 HD
ENDBRANCH  14  19
BRANCH  18  21
ATOM     21  O   UNL     1       6.391  -7.028  13.776  1.00  0.00    -0.508 OA
ATOM     22  H   UNL     1       6.985  -7.559  14.402  1.00  0.00     0.293 HD
ENDBRANCH  18  21
ENDBRANCH  11  13
ENDBRANCH   2  11
TORSDOF 6
ENDMDL
MODEL 2
REMARK VINA RESULT:    -6.504      1.803      2.885
REMARK INTER + INTRA:          -8.885
REMARK INTER:                  -8.293
REMARK INTRA:                  -0.592
REMARK UNBOUND:                -0.670
REMARK SMILES O=C(C=Cc1ccc(O)cc1)c1ccc(O)cc1O
REMARK SMILES IDX 4 1 3 2 5 3 6 4 7 5 8 6 11 7 10 8 9 9 2 11 1 12 12 13 18 14
REMARK SMILES IDX 13 15 17 16 14 17 15 18 19 19 16 21
REMARK H PARENT 9 10 19 20 16 22
REMARK Flexibility Score: inf
ROOT
ATOM      1  C   UNL     1       8.909  -1.225   9.402  1.00  0.00     0.012 C 
ATOM      2  C   UNL     1       7.673  -1.566   9.015  1.00  0.00     0.053 C 
ENDROOT
BRANCH   1   3
ATOM      3  C   UNL     1       9.366   0.178   9.560  1.00  0.00    -0.025 A 
ATOM      4  C   UNL     1      10.415   0.449  10.454  1.00  0.00     0.012 A 
ATOM      5  C   UNL     1      10.884   1.755  10.627  1.00  0.00     0.047 A 
ATOM      6  C   UNL     1      10.316   2.808   9.899  1.00  0.00     0.115 A 
ATOM      7  C   UNL     1       8.810   1.243   8.820  1.00  0.00     0.012 A 
ATOM      8  C   UNL     1       9.282   2.547   8.996  1.00  0.00     0.047 A 
BRANCH   6   9
ATOM      9  O   UNL     1      10.774   4.113  10.063  1.00  0.00    -0.508 OA
ATOM     10  H   UNL     1      10.182   4.837  10.456  1.00  0.00     0.293 HD
ENDBRANCH   6   9
ENDBRANCH   1   3
BRANCH   2  11
ATOM     11  C   UNL     1       7.250  -2.977   8.883  1.00  0.00     0.189 C 
ATOM     12  O   UNL     1       6.034  -3.255   8.690  1.00  0.00    -0.289 OA
BRANCH  11  13
ATOM     13  C   UNL     1       8.241  -4.079   8.925  1.00  0.00     0.064 A 
ATOM     14  C   UNL     1       8.262  -5.024   9.975  1.00  0.00     0.130 A 
ATOM     15  C   UNL     1       9.168  -4.203   7.875  1.00  0.00     0.020 A 
ATOM     16  C   UNL     1       9.228  -6.041   9.978  1.00  0.00     0.093 A 
ATOM     17  C   UNL     1      10.122  -5.223   7.885  1.00  0.00     0.047 A 
ATOM     18  C   UNL     1      10.157  -6.142   8.940  1.00  0.00     0.119 A 
BRANCH  14  19
ATOM     19  O   UNL     1       7.314  -4.971  10.997  1.00  0.00    -0.507 OA
ATOM     20  H   UNL     1       7.381  -5.562  11.817  1.00  0.00     0.293 HD
ENDBRANCH  14  19
BRANCH  18  21
ATOM     21  O   UNL     1      11.106  -7.162   8.962  1.00  0.00    -0.508 OA
ATOM     22  H   UNL     1      11.716  -7.299   9.760  1.00  0.00     0.293 HD
ENDBRANCH  18  21
ENDBRANCH  11  13
ENDBRANCH   2  11
TORSDOF 6
ENDMDL
MODEL 3
REMARK VINA RESULT:    -5.841      1.722      7.538
REMARK INTER + INTRA:          -8.047
REMARK INTER:                  -7.669
REMARK INTRA:                  -0.379
REMARK UNBOUND:                -0.670
REMARK SMILES O=C(C=Cc1ccc(O)cc1)c1ccc(O)cc1O
REMARK SMILES IDX 4 1 3 2 5 3 6 4 7 5 8 6 11 7 10 8 9 9 2 11 1 12 12 13 18 14
REMARK SMILES IDX 13 15 17 16 14 17 15 18 19 19 16 21
REMARK H PARENT 9 10 19 20 16 22
REMARK Flexibility Score: inf
ROOT
ATOM      1  C   UNL     1       8.115  -5.296  10.752  1.00  0.00     0.012 C 
ATOM      2  C   UNL     1       8.477  -4.006  10.709  1.00  0.00     0.053 C 
ENDROOT
BRANCH   1   3
ATOM      3  C   UNL     1       7.575  -5.960  11.964  1.00  0.00    -0.025 A 
ATOM      4  C   UNL     1       8.128  -7.188  12.363  1.00  0.00     0.012 A 
ATOM      5  C   UNL     1       7.657  -7.845  13.504  1.00  0.00     0.047 A 
ATOM      6  C   UNL     1       6.632  -7.275  14.269  1.00  0.00     0.115 A 
ATOM      7  C   UNL     1       6.553  -5.387  12.750  1.00  0.00     0.012 A 
ATOM      8  C   UNL     1       6.085  -6.047  13.890  1.00  0.00     0.047 A 
BRANCH   6   9
ATOM      9  O   UNL     1       6.153  -7.921  15.408  1.00  0.00    -0.508 OA
ATOM     10  H   UNL     1       5.175  -8.166  15.506  1.00  0.00     0.293 HD
ENDBRANCH   6   9
ENDBRANCH   1   3
BRANCH   2  11
ATOM     11  C   UNL     1       8.997  -3.375   9.477  1.00  0.00     0.189 C 
ATOM     12  O   UNL     1       9.625  -4.069   8.631  1.00  0.00    -0.289 OA
BRANCH  11  13
ATOM     13  C   UNL     1       8.750  -1.942   9.190  1.00  0.00     0.064 A 
ATOM     14  C   UNL     1       9.415  -0.914   9.895  1.00  0.00     0.130 A 
ATOM     15  C   UNL     1       7.848  -1.596   8.168  1.00  0.00     0.020 A 
ATOM     16  C   UNL     1       9.138   0.429   9.597  1.00  0.00     0.093 A 
ATOM     17  C   UNL     1       7.584  -0.256   7.875  1.00  0.00     0.047 A 
ATOM     18  C   UNL     1       8.225   0.760   8.593  1.00  0.00     0.119 A 
BRANCH  14  19
ATOM     19  O   UNL     1      10.366  -1.222  10.868  1.00  0.00    -0.507 OA
ATOM     20  H   UNL     1      10.850  -0.498  11.387  1.00  0.00     0.293 HD
ENDBRANCH  14  19
BRANCH  18  21
ATOM     21  O   UNL     1       7.967   2.100   8.312  1.00  0.00    -0.508 OA
ATOM     22  H   UNL     1       8.699   2.723   7.992  1.00  0.00     0.293 HD
ENDBRANCH  18  21
ENDBRANCH  11  13
ENDBRANCH   2  11
TORSDOF 6
ENDMDL
MODEL 4
REMARK VINA RESULT:    -5.681      1.451      7.449
REMARK INTER + INTRA:          -7.845
REMARK INTER:                  -7.542
REMARK INTRA:                  -0.304
REMARK UNBOUND:                -0.670
REMARK SMILES O=C(C=Cc1ccc(O)cc1)c1ccc(O)cc1O
REMARK SMILES IDX 4 1 3 2 5 3 6 4 7 5 8 6 11 7 10 8 9 9 2 11 1 12 12 13 18 14
REMARK SMILES IDX 13 15 17 16 14 17 15 18 19 19 16 21
REMARK H PARENT 9 10 19 20 16 22
REMARK Flexibility Score: inf
ROOT
ATOM      1  C   UNL     1       8.559  -4.807  10.761  1.00  0.00     0.012 C 
ATOM      2  C   UNL     1       7.895  -3.929   9.997  1.00  0.00     0.053 C 
ENDROOT
BRANCH   1   3
ATOM      3  C   UNL     1       7.931  -5.582  11.860  1.00  0.00    -0.025 A 
ATOM      4  C   UNL     1       6.829  -5.029  12.532  1.00  0.00     0.012 A 
ATOM      5  C   UNL     1       6.201  -5.728  13.567  1.00  0.00     0.047 A 
ATOM      6  C   UNL     1       6.660  -6.998  13.937  1.00  0.00     0.115 A 
ATOM      7  C   UNL     1       8.378  -6.868  12.230  1.00  0.00     0.012 A 
ATOM      8  C   UNL     1       7.747  -7.564  13.265  1.00  0.00     0.047 A 
BRANCH   6   9
ATOM      9  O   UNL     1       6.043  -7.704  14.967  1.00  0.00    -0.508 OA
ATOM     10  H   UNL     1       6.028  -8.718  14.980  1.00  0.00     0.293 HD
ENDBRANCH   6   9
ENDBRANCH   1   3
BRANCH   2  11
ATOM     11  C   UNL     1       8.552  -3.185   8.900  1.00  0.00     0.189 C 
ATOM     12  O   UNL     1       8.988  -3.806   7.892  1.00  0.00    -0.289 OA
BRANCH  11  13
ATOM     13  C   UNL     1       8.663  -1.708   8.938  1.00  0.00     0.064 A 
ATOM     14  C   UNL     1       9.376  -1.039   9.958  1.00  0.00     0.130 A 
ATOM     15  C   UNL     1       8.064  -0.951   7.915  1.00  0.00     0.020 A 
ATOM     16  C   UNL     1       9.442   0.362   9.961  1.00  0.00     0.093 A 
ATOM     17  C   UNL     1       8.141   0.444   7.923  1.00  0.00     0.047 A 
ATOM     18  C   UNL     1       8.826   1.103   8.950  1.00  0.00     0.119 A 
BRANCH  14  19
ATOM     19  O   UNL     1      10.039  -1.762  10.951  1.00  0.00    -0.507 OA
ATOM     20  H   UNL     1      11.000  -1.563  11.202  1.00  0.00     0.293 HD
ENDBRANCH  14  19
BRANCH  18  21
ATOM     21  O   UNL     1       8.907   2.494   8.970  1.00  0.00    -0.508 OA
ATOM     22  H   UNL     1       8.813   3.042   8.123  1.00  0.00     0.293 HD
ENDBRANCH  18  21
ENDBRANCH  11  13
ENDBRANCH   2  11
TORSDOF 6
ENDMDL
MODEL 5
REMARK VINA RESULT:    -5.663      1.475      7.643
REMARK INTER + INTRA:          -7.823
REMARK INTER:                  -7.326
REMARK INTRA:                  -0.497
REMARK UNBOUND:                -0.670
REMARK SMILES O=C(C=Cc1ccc(O)cc1)c1ccc(O)cc1O
REMARK SMILES IDX 4 1 3 2 5 3 6 4 7 5 8 6 11 7 10 8 9 9 2 11 1 12 12 13 18 14
REMARK SMILES IDX 13 15 17 16 14 17 15 18 19 19 16 21
REMARK H PARENT 9 10 19 20 16 22
REMARK Flexibility Score: inf
ROOT
ATOM      1  C   UNL     1       7.137  -3.151  10.206  1.00  0.00     0.012 C 
ATOM      2  C   UNL     1       8.220  -2.493   9.771  1.00  0.00     0.053 C 
ENDROOT
BRANCH   1   3
ATOM      3  C   UNL     1       7.197  -4.359  11.065  1.00  0.00    -0.025 A 
ATOM      4  C   UNL     1       8.238  -5.280  10.862  1.00  0.00     0.012 A 
ATOM      5  C   UNL     1       8.339  -6.427  11.655  1.00  0.00     0.047 A 
ATOM      6  C   UNL     1       7.406  -6.663  12.671  1.00  0.00     0.115 A 
ATOM      7  C   UNL     1       6.270  -4.598  12.101  1.00  0.00     0.012 A 
ATOM      8  C   UNL     1       6.375  -5.746  12.892  1.00  0.00     0.047 A 
BRANCH   6   9
ATOM      9  O   UNL     1       7.496  -7.803  13.467  1.00  0.00    -0.508 OA
ATOM     10  H   UNL     1       6.725  -8.103  14.052  1.00  0.00     0.293 HD
ENDBRANCH   6   9
ENDBRANCH   1   3
BRANCH   2  11
ATOM     11  C   UNL     1       8.119  -1.282   8.927  1.00  0.00     0.189 C 
ATOM     12  O   UNL     1       7.340  -1.269   7.935  1.00  0.00    -0.289 OA
BRANCH  11  13
ATOM     13  C   UNL     1       8.885  -0.056   9.256  1.00  0.00     0.064 A 
ATOM     14  C   UNL     1       8.543   1.205   8.716  1.00  0.00     0.130 A 
ATOM     15  C   UNL     1       9.965  -0.145  10.151  1.00  0.00     0.020 A 
ATOM     16  C   UNL     1       9.306   2.335   9.046  1.00  0.00     0.093 A 
ATOM     17  C   UNL     1      10.715   0.988  10.478  1.00  0.00     0.047 A 
ATOM     18  C   UNL     1      10.389   2.230   9.921  1.00  0.00     0.119 A 
BRANCH  14  19
ATOM     19  O   UNL     1       7.436   1.341   7.878  1.00  0.00    -0.507 OA
ATOM     20  H   UNL     1       6.555   0.884   8.082  1.00  0.00     0.293 HD
ENDBRANCH  14  19
BRANCH  18  21
ATOM     21  O   UNL     1      11.131   3.366  10.237  1.00  0.00    -0.508 OA
ATOM     22  H   UNL     1      10.864   3.977  11.000  1.00  0.00     0.293 HD
ENDBRANCH  18  21
ENDBRANCH  11  13
ENDBRANCH   2  11
TORSDOF 6
ENDMDL
MODEL 6
REMARK VINA RESULT:    -5.653      1.349      7.630
REMARK INTER + INTRA:          -7.809
REMARK INTER:                  -7.268
REMARK INTRA:                  -0.541
REMARK UNBOUND:                -0.670
REMARK SMILES O=C(C=Cc1ccc(O)cc1)c1ccc(O)cc1O
REMARK SMILES IDX 4 1 3 2 5 3 6 4 7 5 8 6 11 7 10 8 9 9 2 11 1 12 12 13 18 14
REMARK SMILES IDX 13 15 17 16 14 17 15 18 19 19 16 21
REMARK H PARENT 9 10 19 20 16 22
REMARK Flexibility Score: inf
ROOT
ATOM      1  C   UNL     1       8.167  -5.161  10.826  1.00  0.00     0.012 C 
ATOM      2  C   UNL     1       8.386  -3.841  10.755  1.00  0.00     0.053 C 
ENDROOT
BRANCH   1   3
ATOM      3  C   UNL     1       7.596  -5.838  12.016  1.00  0.00    -0.025 A 
ATOM      4  C   UNL     1       6.628  -5.162  12.778  1.00  0.00     0.012 A 
ATOM      5  C   UNL     1       6.057  -5.766  13.902  1.00  0.00     0.047 A 
ATOM      6  C   UNL     1       6.438  -7.061  14.273  1.00  0.00     0.115 A 
ATOM      7  C   UNL     1       7.963  -7.148  12.390  1.00  0.00     0.012 A 
ATOM      8  C   UNL     1       7.388  -7.748  13.514  1.00  0.00     0.047 A 
BRANCH   6   9
ATOM      9  O   UNL     1       5.876  -7.673  15.392  1.00  0.00    -0.508 OA
ATOM     10  H   UNL     1       5.127  -8.351  15.305  1.00  0.00     0.293 HD
ENDBRANCH   6   9
ENDBRANCH   1   3
BRANCH   2  11
ATOM     11  C   UNL     1       8.943  -3.198   9.544  1.00  0.00     0.189 C 
ATOM     12  O   UNL     1       9.370  -3.910   8.595  1.00  0.00    -0.289 OA
BRANCH  11  13
ATOM     13  C   UNL     1       8.962  -1.723   9.402  1.00  0.00     0.064 A 
ATOM     14  C   UNL     1       8.048  -1.042   8.568  1.00  0.00     0.130 A 
ATOM     15  C   UNL     1       9.900  -0.978  10.139  1.00  0.00     0.020 A 
ATOM     16  C   UNL     1       8.113   0.354   8.454  1.00  0.00     0.093 A 
ATOM     17  C   UNL     1       9.953   0.413  10.024  1.00  0.00     0.047 A 
ATOM     18  C   UNL     1       9.062   1.082   9.177  1.00  0.00     0.119 A 
BRANCH  14  19
ATOM     19  O   UNL     1       7.061  -1.744   7.875  1.00  0.00    -0.507 OA
ATOM     20  H   UNL     1       6.745  -2.657   8.179  1.00  0.00     0.293 HD
ENDBRANCH  14  19
BRANCH  18  21
ATOM     21  O   UNL     1       9.108   2.469   9.051  1.00  0.00    -0.508 OA
ATOM     22  H   UNL     1       9.922   2.999   9.339  1.00  0.00     0.293 HD
ENDBRANCH  18  21
ENDBRANCH  11  13
ENDBRANCH   2  11
TORSDOF 6
ENDMDL
MODEL 7
REMARK VINA RESULT:    -5.620      1.119      2.005
REMARK INTER + INTRA:          -7.769
REMARK INTER:                  -7.306
REMARK INTRA:                  -0.463
REMARK UNBOUND:                -0.670
REMARK SMILES O=C(C=Cc1ccc(O)cc1)c1ccc(O)cc1O
REMARK SMILES IDX 4 1 3 2 5 3 6 4 7 5 8 6 11 7 10 8 9 9 2 11 1 12 12 13 18 14
REMARK SMILES IDX 13 15 17 16 14 17 15 18 19 19 16 21
REMARK H PARENT 9 10 19 20 16 22
REMARK Flexibility Score: inf
ROOT
ATOM      1  C   UNL     1       8.284  -2.058   9.214  1.00  0.00     0.012 C 
ATOM      2  C   UNL     1       8.881  -3.125   9.763  1.00  0.00     0.053 C 
ENDROOT
BRANCH   1   3
ATOM      3  C   UNL     1       8.819  -0.677   9.307  1.00  0.00    -0.025 A 
ATOM      4  C   UNL     1       8.197   0.339   8.562  1.00  0.00     0.012 A 
ATOM      5  C   UNL     1       8.661   1.656   8.626  1.00  0.00     0.047 A 
ATOM      6  C   UNL     1       9.748   1.978   9.447  1.00  0.00     0.115 A 
ATOM      7  C   UNL     1       9.904  -0.340  10.143  1.00  0.00     0.012 A 
ATOM      8  C   UNL     1      10.365   0.979  10.204  1.00  0.00     0.047 A 
BRANCH   6   9
ATOM      9  O   UNL     1      10.220   3.287   9.519  1.00  0.00    -0.508 OA
ATOM     10  H   UNL     1      10.901   3.642   8.858  1.00  0.00     0.293 HD
ENDBRANCH   6   9
ENDBRANCH   1   3
BRANCH   2  11
ATOM     11  C   UNL     1       8.325  -4.490   9.636  1.00  0.00     0.189 C 
ATOM     12  O   UNL     1       8.196  -5.013   8.496  1.00  0.00    -0.289 OA
BRANCH  11  13
ATOM     13  C   UNL     1       7.960  -5.281  10.835  1.00  0.00     0.064 A 
ATOM     14  C   UNL     1       6.773  -5.032  11.561  1.00  0.00     0.130 A 
ATOM     15  C   UNL     1       8.806  -6.327  11.247  1.00  0.00     0.020 A 
ATOM     16  C   UNL     1       6.477  -5.798  12.698  1.00  0.00     0.093 A 
ATOM     17  C   UNL     1       8.498  -7.088  12.377  1.00  0.00     0.047 A 
ATOM     18  C   UNL     1       7.335  -6.822  13.108  1.00  0.00     0.119 A 
BRANCH  14  19
ATOM     19  O   UNL     1       5.879  -4.048  11.141  1.00  0.00    -0.507 OA
ATOM     20  H   UNL     1       5.817  -3.763  10.171  1.00  0.00     0.293 HD
ENDBRANCH  14  19
BRANCH  18  21
ATOM     21  O   UNL     1       7.020  -7.572  14.239  1.00  0.00    -0.508 OA
ATOM     22  H   UNL     1       6.397  -8.369  14.189  1.00  0.00     0.293 HD
ENDBRANCH  18  21
ENDBRANCH  11  13
ENDBRANCH   2  11
TORSDOF 6
ENDMDL
MODEL 8
REMARK VINA RESULT:    -4.931      1.948      2.580
REMARK INTER + INTRA:          -6.899
REMARK INTER:                  -6.226
REMARK INTRA:                  -0.673
REMARK UNBOUND:                -0.670
REMARK SMILES O=C(C=Cc1ccc(O)cc1)c1ccc(O)cc1O
REMARK SMILES IDX 4 1 3 2 5 3 6 4 7 5 8 6 11 7 10 8 9 9 2 11 1 12 12 13 18 14
REMARK SMILES IDX 13 15 17 16 14 17 15 18 19 19 16 21
REMARK H PARENT 9 10 19 20 16 22
REMARK Flexibility Score: inf
ROOT
ATOM      1  C   UNL     1       8.402  -3.170   9.946  1.00  0.00     0.012 C 
ATOM      2  C   UNL     1       8.318  -4.308   9.243  1.00  0.00     0.053 C 
ENDROOT
BRANCH   1   3
ATOM      3  C   UNL     1       7.977  -1.847   9.426  1.00  0.00    -0.025 A 
ATOM      4  C   UNL     1       6.604  -1.552   9.374  1.00  0.00     0.012 A 
ATOM      5  C   UNL     1       6.159  -0.315   8.900  1.00  0.00     0.047 A 
ATOM      6  C   UNL     1       7.083   0.651   8.482  1.00  0.00     0.115 A 
ATOM      7  C   UNL     1       8.900  -0.863   9.016  1.00  0.00     0.012 A 
ATOM      8  C   UNL     1       8.451   0.374   8.543  1.00  0.00     0.047 A 
BRANCH   6   9
ATOM      9  O   UNL     1       6.651   1.888   8.007  1.00  0.00    -0.508 OA
ATOM     10  H   UNL     1       6.530   2.681   8.627  1.00  0.00     0.293 HD
ENDBRANCH   6   9
ENDBRANCH   1   3
BRANCH   2  11
ATOM     11  C   UNL     1       8.737  -5.612   9.802  1.00  0.00     0.189 C 
ATOM     12  O   UNL     1       9.750  -6.200   9.334  1.00  0.00    -0.289 OA
BRANCH  11  13
ATOM     13  C   UNL     1       8.016  -6.222  10.944  1.00  0.00     0.064 A 
ATOM     14  C   UNL     1       8.694  -6.922  11.967  1.00  0.00     0.130 A 
ATOM     15  C   UNL     1       6.620  -6.076  11.026  1.00  0.00     0.020 A 
ATOM     16  C   UNL     1       7.966  -7.494  13.021  1.00  0.00     0.093 A 
ATOM     17  C   UNL     1       5.905  -6.644  12.084  1.00  0.00     0.047 A 
ATOM     18  C   UNL     1       6.577  -7.359  13.081  1.00  0.00     0.119 A 
BRANCH  14  19
ATOM     19  O   UNL     1      10.085  -7.027  11.953  1.00  0.00    -0.507 OA
ATOM     20  H   UNL     1      10.673  -6.368  12.448  1.00  0.00     0.293 HD
ENDBRANCH  14  19
BRANCH  18  21
ATOM     21  O   UNL     1       5.875  -7.933  14.139  1.00  0.00    -0.508 OA
ATOM     22  H   UNL     1       6.312  -8.602  14.762  1.00  0.00     0.293 HD
ENDBRANCH  18  21
ENDBRANCH  11  13
ENDBRANCH   2  11
TORSDOF 6
ENDMDL
MODEL 9
REMARK VINA RESULT:    -4.784      2.118      7.669
REMARK INTER + INTRA:          -6.712
REMARK INTER:                  -6.281
REMARK INTRA:                  -0.431
REMARK UNBOUND:                -0.670
REMARK SMILES O=C(C=Cc1ccc(O)cc1)c1ccc(O)cc1O
REMARK SMILES IDX 4 1 3 2 5 3 6 4 7 5 8 6 11 7 10 8 9 9 2 11 1 12 12 13 18 14
REMARK SMILES IDX 13 15 17 16 14 17 15 18 19 19 16 21
REMARK H PARENT 9 10 19 20 16 22
REMARK Flexibility Score: inf
ROOT
ATOM      1  C   UNL     1       6.638  -5.828  11.456  1.00  0.00     0.012 C 
ATOM      2  C   UNL     1       7.480  -5.614  10.436  1.00  0.00     0.053 C 
ENDROOT
BRANCH   1   3
ATOM      3  C   UNL     1       6.918  -6.762  12.574  1.00  0.00    -0.025 A 
ATOM      4  C   UNL     1       6.265  -6.561  13.801  1.00  0.00     0.012 A 
ATOM      5  C   UNL     1       6.491  -7.423  14.878  1.00  0.00     0.047 A 
ATOM      6  C   UNL     1       7.368  -8.506  14.740  1.00  0.00     0.115 A 
ATOM      7  C   UNL     1       7.788  -7.865  12.439  1.00  0.00     0.012 A 
ATOM      8  C   UNL     1       8.012  -8.724  13.519  1.00  0.00     0.047 A 
BRANCH   6   9
ATOM      9  O   UNL     1       7.602  -9.371  15.806  1.00  0.00    -0.508 OA
ATOM     10  H   UNL     1       7.901  -9.027  16.712  1.00  0.00     0.293 HD
ENDBRANCH   6   9
ENDBRANCH   1   3
BRANCH   2  11
ATOM     11  C   UNL     1       7.172  -4.662   9.347  1.00  0.00     0.189 C 
ATOM     12  O   UNL     1       6.498  -5.042   8.351  1.00  0.00    -0.289 OA
BRANCH  11  13
ATOM     13  C   UNL     1       7.601  -3.245   9.426  1.00  0.00     0.064 A 
ATOM     14  C   UNL     1       8.958  -2.868   9.309  1.00  0.00     0.130 A 
ATOM     15  C   UNL     1       6.627  -2.245   9.597  1.00  0.00     0.020 A 
ATOM     16  C   UNL     1       9.317  -1.516   9.405  1.00  0.00     0.093 A 
ATOM     17  C   UNL     1       6.995  -0.900   9.685  1.00  0.00     0.047 A 
ATOM     18  C   UNL     1       8.342  -0.533   9.594  1.00  0.00     0.119 A 
BRANCH  14  19
ATOM     19  O   UNL     1       9.942  -3.827   9.072  1.00  0.00    -0.507 OA
ATOM     20  H   UNL     1       9.712  -4.805   8.938  1.00  0.00     0.293 HD
ENDBRANCH  14  19
BRANCH  18  21
ATOM     21  O   UNL     1       8.721   0.804   9.684  1.00  0.00    -0.508 OA
ATOM     22  H   UNL     1       9.618   1.075  10.068  1.00  0.00     0.293 HD
ENDBRANCH  18  21
ENDBRANCH  11  13
ENDBRANCH   2  11
TORSDOF 6
ENDMDL
