MODEL 1
REMARK VINA RESULT:    -5.204      0.000      0.000
REMARK INTER + INTRA:          -8.901
REMARK INTER:                  -7.942
REMARK INTRA:                  -0.958
REMARK UNBOUND:                -0.958
REMARK SMILES CC(=O)CCC=C(C)CCC=C(C)CCC=C(C)C
REMARK SMILES IDX 10 1 11 2 12 3 13 4 14 5 15 6 16 7 18 8 17 9 19 10 9 11 7 12
REMARK SMILES IDX 6 13 8 14 5 15 4 16 2 17 3 18 1 19
REMARK H PARENT
REMARK Flexibility Score: inf
ROOT
ATOM      1  C   UNL     1     -21.297  22.603  38.682  1.00  0.00     0.032 C 
ENDROOT
BRANCH   1   2
ATOM      2  C   UNL     1     -20.902  22.201  40.080  1.00  0.00    -0.028 C 
ATOM      3  C   UNL     1     -19.755  22.578  40.693  1.00  0.00    -0.077 C 
ATOM      4  C   UNL     1     -18.758  23.499  40.030  1.00  0.00     0.039 C 
BRANCH   3   5
ATOM      5  C   UNL     1     -19.478  22.088  42.100  1.00  0.00     0.034 C 
BRANCH   5   6
ATOM      6  C   UNL     1     -19.828  20.603  42.264  1.00  0.00     0.032 C 
BRANCH   6   7
ATOM      7  C   UNL     1     -18.832  19.716  41.557  1.00  0.00    -0.028 C 
ATOM      8  C   UNL     1     -17.459  19.326  43.616  1.00  0.00     0.039 C 
ATOM      9  C   UNL     1     -17.784  19.108  42.156  1.00  0.00    -0.080 C 
ATOM     10  C   UNL     1     -16.910  18.201  41.329  1.00  0.00     0.039 C 
ENDBRANCH   6   7
ENDBRANCH   5   6
ENDBRANCH   3   5
ENDBRANCH   1   2
BRANCH   1  11
ATOM     11  C   UNL     1     -22.222  21.557  38.048  1.00  0.00     0.034 C 
BRANCH  11  12
ATOM     12  C   UNL     1     -22.124  21.619  36.541  1.00  0.00    -0.077 C 
ATOM     13  C   UNL     1     -21.109  22.309  35.977  1.00  0.00    -0.028 C 
ATOM     14  C   UNL     1     -23.143  20.876  35.711  1.00  0.00     0.039 C 
BRANCH  13  15
ATOM     15  C   UNL     1     -20.822  22.354  34.495  1.00  0.00     0.035 C 
BRANCH  15  16
ATOM     16  C   UNL     1     -19.332  22.604  34.222  1.00  0.00     0.079 C 
BRANCH  16  17
ATOM     17  C   UNL     1     -19.099  23.972  33.633  1.00  0.00     0.130 C 
ATOM     18  O   UNL     1     -18.741  24.889  34.357  1.00  0.00    -0.300 OA
ATOM     19  C   UNL     1     -19.296  24.233  32.168  1.00  0.00     0.087 C 
ENDBRANCH  16  17
ENDBRANCH  15  16
ENDBRANCH  13  15
ENDBRANCH  11  12
ENDBRANCH   1  11
TORSDOF 9
ENDMDL
MODEL 2
REMARK VINA RESULT:    -5.144      2.269      7.671
REMARK INTER + INTRA:          -8.810
REMARK INTER:                  -8.073
REMARK INTRA:                  -0.736
REMARK UNBOUND:                -0.958
REMARK SMILES CC(=O)CCC=C(C)CCC=C(C)CCC=C(C)C
REMARK SMILES IDX 10 1 11 2 12 3 13 4 14 5 15 6 16 7 18 8 17 9 19 10 9 11 7 12
REMARK SMILES IDX 6 13 8 14 5 15 4 16 2 17 3 18 1 19
REMARK H PARENT
REMARK Flexibility Score: inf
ROOT
ATOM      1  C   UNL     1     -21.774  21.997  38.298  1.00  0.00     0.032 C 
ENDROOT
BRANCH   1   2
ATOM      2  C   UNL     1     -21.246  22.349  36.931  1.00  0.00    -0.028 C 
ATOM      3  C   UNL     1     -21.791  21.930  35.765  1.00  0.00    -0.077 C 
ATOM      4  C   UNL     1     -23.041  21.082  35.724  1.00  0.00     0.039 C 
BRANCH   3   5
ATOM      5  C   UNL     1     -21.147  22.350  34.459  1.00  0.00     0.034 C 
BRANCH   5   6
ATOM      6  C   UNL     1     -19.622  22.187  34.499  1.00  0.00     0.032 C 
BRANCH   6   7
ATOM      7  C   UNL     1     -18.921  23.333  33.808  1.00  0.00    -0.028 C 
ATOM      8  C   UNL     1     -16.866  21.994  33.299  1.00  0.00     0.039 C 
ATOM      9  C   UNL     1     -17.700  23.253  33.235  1.00  0.00    -0.080 C 
ATOM     10  C   UNL     1     -17.157  24.468  32.529  1.00  0.00     0.039 C 
ENDBRANCH   6   7
ENDBRANCH   5   6
ENDBRANCH   3   5
ENDBRANCH   1   2
BRANCH   1  11
ATOM     11  C   UNL     1     -21.070  22.812  39.389  1.00  0.00     0.034 C 
BRANCH  11  12
ATOM     12  C   UNL     1     -21.157  22.094  40.716  1.00  0.00    -0.077 C 
ATOM     13  C   UNL     1     -20.313  21.069  40.964  1.00  0.00    -0.028 C 
ATOM     14  C   UNL     1     -22.160  22.569  41.739  1.00  0.00     0.039 C 
BRANCH  13  15
ATOM     15  C   UNL     1     -20.209  20.345  42.286  1.00  0.00     0.035 C 
BRANCH  15  16
ATOM     16  C   UNL     1     -18.815  20.513  42.906  1.00  0.00     0.079 C 
BRANCH  16  17
ATOM     17  C   UNL     1     -17.727  20.134  41.934  1.00  0.00     0.130 C 
ATOM     18  O   UNL     1     -16.987  21.000  41.488  1.00  0.00    -0.300 OA
ATOM     19  C   UNL     1     -17.529  18.711  41.502  1.00  0.00     0.087 C 
ENDBRANCH  16  17
ENDBRANCH  15  16
ENDBRANCH  13  15
ENDBRANCH  11  12
ENDBRANCH   1  11
TORSDOF 9
ENDMDL
MODEL 3
REMARK VINA RESULT:    -4.856      6.500      8.708
REMARK INTER + INTRA:          -8.369
REMARK INTER:                  -6.788
REMARK INTRA:                  -1.581
REMARK UNBOUND:                -0.958
REMARK SMILES CC(=O)CCC=C(C)CCC=C(C)CCC=C(C)C
REMARK SMILES IDX 10 1 11 2 12 3 13 4 14 5 15 6 16 7 18 8 17 9 19 10 9 11 7 12
REMARK SMILES IDX 6 13 8 14 5 15 4 16 2 17 3 18 1 19
REMARK H PARENT
REMARK Flexibility Score: inf
ROOT
ATOM      1  C   UNL     1     -14.121  23.747  34.942  1.00  0.00     0.032 C 
ENDROOT
BRANCH   1   2
ATOM      2  C   UNL     1     -13.341  22.887  33.981  1.00  0.00    -0.028 C 
ATOM      3  C   UNL     1     -12.848  23.315  32.794  1.00  0.00    -0.077 C 
ATOM      4  C   UNL     1     -13.002  24.745  32.331  1.00  0.00     0.039 C 
BRANCH   3   5
ATOM      5  C   UNL     1     -12.092  22.337  31.918  1.00  0.00     0.034 C 
BRANCH   5   6
ATOM      6  C   UNL     1     -12.438  20.882  32.259  1.00  0.00     0.032 C 
BRANCH   6   7
ATOM      7  C   UNL     1     -11.216  19.995  32.222  1.00  0.00    -0.028 C 
ATOM      8  C   UNL     1     -10.931  19.995  34.711  1.00  0.00     0.039 C 
ATOM      9  C   UNL     1     -10.549  19.561  33.314  1.00  0.00    -0.080 C 
ATOM     10  C   UNL     1      -9.381  18.630  33.120  1.00  0.00     0.039 C 
ENDBRANCH   6   7
ENDBRANCH   5   6
ENDBRANCH   3   5
ENDBRANCH   1   2
BRANCH   1  11
ATOM     11  C   UNL     1     -15.531  23.188  35.163  1.00  0.00     0.034 C 
BRANCH  11  12
ATOM     12  C   UNL     1     -16.334  23.276  33.886  1.00  0.00    -0.077 C 
ATOM     13  C   UNL     1     -16.521  24.483  33.310  1.00  0.00    -0.028 C 
ATOM     14  C   UNL     1     -16.871  22.007  33.271  1.00  0.00     0.039 C 
BRANCH  13  15
ATOM     15  C   UNL     1     -17.195  24.702  31.977  1.00  0.00     0.035 C 
BRANCH  15  16
ATOM     16  C   UNL     1     -18.186  25.873  32.037  1.00  0.00     0.079 C 
BRANCH  16  17
ATOM     17  C   UNL     1     -19.595  25.394  32.280  1.00  0.00     0.130 C 
ATOM     18  O   UNL     1     -19.935  24.291  31.880  1.00  0.00    -0.300 OA
ATOM     19  C   UNL     1     -20.592  26.246  33.009  1.00  0.00     0.087 C 
ENDBRANCH  16  17
ENDBRANCH  15  16
ENDBRANCH  13  15
ENDBRANCH  11  12
ENDBRANCH   1  11
TORSDOF 9
ENDMDL
MODEL 4
REMARK VINA RESULT:    -4.833     15.990     18.580
REMARK INTER + INTRA:          -8.335
REMARK INTER:                  -6.107
REMARK INTRA:                  -2.228
REMARK UNBOUND:                -0.958
REMARK SMILES CC(=O)CCC=C(C)CCC=C(C)CCC=C(C)C
REMARK SMILES IDX 10 1 11 2 12 3 13 4 14 5 15 6 16 7 18 8 17 9 19 10 9 11 7 12
REMARK SMILES IDX 6 13 8 14 5 15 4 16 2 17 3 18 1 19
REMARK H PARENT
REMARK Flexibility Score: inf
ROOT
ATOM      1  C   UNL     1      -8.178  31.853  45.455  1.00  0.00     0.032 C 
ENDROOT
BRANCH   1   2
ATOM      2  C   UNL     1      -6.723  32.172  45.682  1.00  0.00    -0.028 C 
ATOM      3  C   UNL     1      -5.916  31.510  46.546  1.00  0.00    -0.077 C 
ATOM      4  C   UNL     1      -6.404  30.330  47.352  1.00  0.00     0.039 C 
BRANCH   3   5
ATOM      5  C   UNL     1      -4.472  31.947  46.684  1.00  0.00     0.034 C 
BRANCH   5   6
ATOM      6  C   UNL     1      -4.360  33.375  47.233  1.00  0.00     0.032 C 
BRANCH   6   7
ATOM      7  C   UNL     1      -4.704  33.434  48.703  1.00  0.00    -0.028 C 
ATOM      8  C   UNL     1      -6.799  34.757  48.334  1.00  0.00     0.039 C 
ATOM      9  C   UNL     1      -5.811  34.021  49.209  1.00  0.00    -0.080 C 
ATOM     10  C   UNL     1      -6.048  33.946  50.695  1.00  0.00     0.039 C 
ENDBRANCH   6   7
ENDBRANCH   5   6
ENDBRANCH   3   5
ENDBRANCH   1   2
BRANCH   1  11
ATOM     11  C   UNL     1      -8.418  31.359  44.024  1.00  0.00     0.034 C 
BRANCH  11  12
ATOM     12  C   UNL     1      -7.902  29.948  43.865  1.00  0.00    -0.077 C 
ATOM     13  C   UNL     1      -8.405  28.973  44.653  1.00  0.00    -0.028 C 
ATOM     14  C   UNL     1      -6.868  29.662  42.803  1.00  0.00     0.039 C 
BRANCH  13  15
ATOM     15  C   UNL     1      -8.071  27.506  44.521  1.00  0.00     0.035 C 
BRANCH  15  16
ATOM     16  C   UNL     1      -7.331  26.987  45.761  1.00  0.00     0.079 C 
BRANCH  16  17
ATOM     17  C   UNL     1      -5.902  26.624  45.442  1.00  0.00     0.130 C 
ATOM     18  O   UNL     1      -5.584  25.447  45.355  1.00  0.00    -0.300 OA
ATOM     19  C   UNL     1      -4.860  27.681  45.226  1.00  0.00     0.087 C 
ENDBRANCH  16  17
ENDBRANCH  15  16
ENDBRANCH  13  15
ENDBRANCH  11  12
ENDBRANCH   1  11
TORSDOF 9
ENDMDL
MODEL 5
REMARK VINA RESULT:    -4.817     14.021     16.760
REMARK INTER + INTRA:          -8.309
REMARK INTER:                  -6.346
REMARK INTRA:                  -1.963
REMARK UNBOUND:                -0.958
REMARK SMILES CC(=O)CCC=C(C)CCC=C(C)CCC=C(C)C
REMARK SMILES IDX 10 1 11 2 12 3 13 4 14 5 15 6 16 7 18 8 17 9 19 10 9 11 7 12
REMARK SMILES IDX 6 13 8 14 5 15 4 16 2 17 3 18 1 19
REMARK H PARENT
REMARK Flexibility Score: inf
ROOT
ATOM      1  C   UNL     1      -4.879  27.626  46.015  1.00  0.00     0.032 C 
ENDROOT
BRANCH   1   2
ATOM      2  C   UNL     1      -4.988  28.940  46.747  1.00  0.00    -0.028 C 
ATOM      3  C   UNL     1      -4.975  30.155  46.150  1.00  0.00    -0.077 C 
ATOM      4  C   UNL     1      -4.891  30.310  44.649  1.00  0.00     0.039 C 
BRANCH   3   5
ATOM      5  C   UNL     1      -5.079  31.398  47.011  1.00  0.00     0.034 C 
BRANCH   5   6
ATOM      6  C   UNL     1      -6.487  31.566  47.599  1.00  0.00     0.032 C 
BRANCH   6   7
ATOM      7  C   UNL     1      -7.550  31.480  46.529  1.00  0.00    -0.028 C 
ATOM      8  C   UNL     1      -7.484  33.933  46.027  1.00  0.00     0.039 C 
ATOM      9  C   UNL     1      -7.983  32.526  45.792  1.00  0.00    -0.080 C 
ATOM     10  C   UNL     1      -9.008  32.272  44.717  1.00  0.00     0.039 C 
ENDBRANCH   6   7
ENDBRANCH   5   6
ENDBRANCH   3   5
ENDBRANCH   1   2
BRANCH   1  11
ATOM     11  C   UNL     1      -6.178  26.821  46.130  1.00  0.00     0.034 C 
BRANCH  11  12
ATOM     12  C   UNL     1      -7.125  27.195  45.013  1.00  0.00    -0.077 C 
ATOM     13  C   UNL     1      -8.206  27.955  45.296  1.00  0.00    -0.028 C 
ATOM     14  C   UNL     1      -6.815  26.740  43.608  1.00  0.00     0.039 C 
BRANCH  13  15
ATOM     15  C   UNL     1      -9.163  28.501  44.264  1.00  0.00     0.035 C 
BRANCH  15  16
ATOM     16  C   UNL     1     -10.415  27.621  44.143  1.00  0.00     0.079 C 
BRANCH  16  17
ATOM     17  C   UNL     1     -10.803  27.402  42.702  1.00  0.00     0.130 C 
ATOM     18  O   UNL     1     -11.252  28.334  42.050  1.00  0.00    -0.300 OA
ATOM     19  C   UNL     1     -10.644  26.061  42.048  1.00  0.00     0.087 C 
ENDBRANCH  16  17
ENDBRANCH  15  16
ENDBRANCH  13  15
ENDBRANCH  11  12
ENDBRANCH   1  11
TORSDOF 9
ENDMDL
MODEL 6
REMARK VINA RESULT:    -4.802      2.478      7.347
REMARK INTER + INTRA:          -8.287
REMARK INTER:                  -7.072
REMARK INTRA:                  -1.215
REMARK UNBOUND:                -0.958
REMARK SMILES CC(=O)CCC=C(C)CCC=C(C)CCC=C(C)C
REMARK SMILES IDX 10 1 11 2 12 3 13 4 14 5 15 6 16 7 18 8 17 9 19 10 9 11 7 12
REMARK SMILES IDX 6 13 8 14 5 15 4 16 2 17 3 18 1 19
REMARK H PARENT
REMARK Flexibility Score: inf
ROOT
ATOM      1  C   UNL     1     -21.197  22.710  35.616  1.00  0.00     0.032 C 
ENDROOT
BRANCH   1   2
ATOM      2  C   UNL     1     -20.393  22.486  34.360  1.00  0.00    -0.028 C 
ATOM      3  C   UNL     1     -20.021  23.465  33.502  1.00  0.00    -0.077 C 
ATOM      4  C   UNL     1     -20.350  24.918  33.752  1.00  0.00     0.039 C 
BRANCH   3   5
ATOM      5  C   UNL     1     -19.223  23.096  32.267  1.00  0.00     0.034 C 
BRANCH   5   6
ATOM      6  C   UNL     1     -17.844  23.766  32.261  1.00  0.00     0.032 C 
BRANCH   6   7
ATOM      7  C   UNL     1     -16.987  23.286  33.408  1.00  0.00    -0.028 C 
ATOM      8  C   UNL     1     -16.768  25.567  34.422  1.00  0.00     0.039 C 
ATOM      9  C   UNL     1     -16.525  24.075  34.404  1.00  0.00    -0.080 C 
ATOM     10  C   UNL     1     -15.731  23.439  35.515  1.00  0.00     0.039 C 
ENDBRANCH   6   7
ENDBRANCH   5   6
ENDBRANCH   3   5
ENDBRANCH   1   2
BRANCH   1  11
ATOM     11  C   UNL     1     -22.043  21.477  35.956  1.00  0.00     0.034 C 
BRANCH  11  12
ATOM     12  C   UNL     1     -22.360  21.452  37.433  1.00  0.00    -0.077 C 
ATOM     13  C   UNL     1     -21.482  22.000  38.302  1.00  0.00    -0.028 C 
ATOM     14  C   UNL     1     -23.666  20.851  37.891  1.00  0.00     0.039 C 
BRANCH  13  15
ATOM     15  C   UNL     1     -21.725  22.153  39.784  1.00  0.00     0.035 C 
BRANCH  15  16
ATOM     16  C   UNL     1     -20.478  22.686  40.503  1.00  0.00     0.079 C 
BRANCH  16  17
ATOM     17  C   UNL     1     -19.747  21.587  41.232  1.00  0.00     0.130 C 
ATOM     18  O   UNL     1     -18.525  21.555  41.207  1.00  0.00    -0.300 OA
ATOM     19  C   UNL     1     -20.490  20.529  41.994  1.00  0.00     0.087 C 
ENDBRANCH  16  17
ENDBRANCH  15  16
ENDBRANCH  13  15
ENDBRANCH  11  12
ENDBRANCH   1  11
TORSDOF 9
ENDMDL
MODEL 7
REMARK VINA RESULT:    -4.782     15.993     18.123
REMARK INTER + INTRA:          -8.256
REMARK INTER:                  -5.751
REMARK INTRA:                  -2.506
REMARK UNBOUND:                -0.958
REMARK SMILES CC(=O)CCC=C(C)CCC=C(C)CCC=C(C)C
REMARK SMILES IDX 10 1 11 2 12 3 13 4 14 5 15 6 16 7 18 8 17 9 19 10 9 11 7 12
REMARK SMILES IDX 6 13 8 14 5 15 4 16 2 17 3 18 1 19
REMARK H PARENT
REMARK Flexibility Score: inf
ROOT
ATOM      1  C   UNL     1      -6.697  32.403  47.741  1.00  0.00     0.032 C 
ENDROOT
BRANCH   1   2
ATOM      2  C   UNL     1      -7.254  31.123  47.172  1.00  0.00    -0.028 C 
ATOM      3  C   UNL     1      -8.045  31.050  46.074  1.00  0.00    -0.077 C 
ATOM      4  C   UNL     1      -8.416  32.275  45.272  1.00  0.00     0.039 C 
BRANCH   3   5
ATOM      5  C   UNL     1      -8.546  29.695  45.619  1.00  0.00     0.034 C 
BRANCH   5   6
ATOM      6  C   UNL     1      -7.509  28.966  44.754  1.00  0.00     0.032 C 
BRANCH   6   7
ATOM      7  C   UNL     1      -7.259  27.562  45.251  1.00  0.00    -0.028 C 
ATOM      8  C   UNL     1      -5.200  28.199  46.528  1.00  0.00     0.039 C 
ATOM      9  C   UNL     1      -6.247  27.208  46.075  1.00  0.00    -0.080 C 
ATOM     10  C   UNL     1      -6.162  25.775  46.534  1.00  0.00     0.039 C 
ENDBRANCH   6   7
ENDBRANCH   5   6
ENDBRANCH   3   5
ENDBRANCH   1   2
BRANCH   1  11
ATOM     11  C   UNL     1      -5.172  32.454  47.594  1.00  0.00     0.034 C 
BRANCH  11  12
ATOM     12  C   UNL     1      -4.793  32.667  46.147  1.00  0.00    -0.077 C 
ATOM     13  C   UNL     1      -4.196  31.662  45.470  1.00  0.00    -0.028 C 
ATOM     14  C   UNL     1      -5.128  33.983  45.489  1.00  0.00     0.039 C 
BRANCH  13  15
ATOM     15  C   UNL     1      -3.875  31.693  43.995  1.00  0.00     0.035 C 
BRANCH  15  16
ATOM     16  C   UNL     1      -4.920  30.920  43.179  1.00  0.00     0.079 C 
BRANCH  16  17
ATOM     17  C   UNL     1      -5.805  31.851  42.388  1.00  0.00     0.130 C 
ATOM     18  O   UNL     1      -5.413  32.979  42.126  1.00  0.00    -0.300 OA
ATOM     19  C   UNL     1      -7.160  31.419  41.910  1.00  0.00     0.087 C 
ENDBRANCH  16  17
ENDBRANCH  15  16
ENDBRANCH  13  15
ENDBRANCH  11  12
ENDBRANCH   1  11
TORSDOF 9
ENDMDL
MODEL 8
REMARK VINA RESULT:    -4.782     14.882     17.461
REMARK INTER + INTRA:          -8.256
REMARK INTER:                  -6.942
REMARK INTRA:                  -1.314
REMARK UNBOUND:                -0.958
REMARK SMILES CC(=O)CCC=C(C)CCC=C(C)CCC=C(C)C
REMARK SMILES IDX 10 1 11 2 12 3 13 4 14 5 15 6 16 7 18 8 17 9 19 10 9 11 7 12
REMARK SMILES IDX 6 13 8 14 5 15 4 16 2 17 3 18 1 19
REMARK H PARENT
REMARK Flexibility Score: inf
ROOT
ATOM      1  C   UNL     1      -5.739  27.471  46.504  1.00  0.00     0.032 C 
ENDROOT
BRANCH   1   2
ATOM      2  C   UNL     1      -4.833  28.674  46.579  1.00  0.00    -0.028 C 
ATOM      3  C   UNL     1      -5.254  29.939  46.818  1.00  0.00    -0.077 C 
ATOM      4  C   UNL     1      -6.706  30.264  47.080  1.00  0.00     0.039 C 
BRANCH   3   5
ATOM      5  C   UNL     1      -4.233  31.058  46.854  1.00  0.00     0.034 C 
BRANCH   5   6
ATOM      6  C   UNL     1      -4.902  32.435  46.951  1.00  0.00     0.032 C 
BRANCH   6   7
ATOM      7  C   UNL     1      -5.039  32.887  48.386  1.00  0.00    -0.028 C 
ATOM      8  C   UNL     1      -7.082  34.264  47.937  1.00  0.00     0.039 C 
ATOM      9  C   UNL     1      -6.030  33.679  48.850  1.00  0.00    -0.080 C 
ATOM     10  C   UNL     1      -6.066  33.996  50.323  1.00  0.00     0.039 C 
ENDBRANCH   6   7
ENDBRANCH   5   6
ENDBRANCH   3   5
ENDBRANCH   1   2
BRANCH   1  11
ATOM     11  C   UNL     1      -5.834  26.942  45.069  1.00  0.00     0.034 C 
BRANCH  11  12
ATOM     12  C   UNL     1      -6.953  27.638  44.329  1.00  0.00    -0.077 C 
ATOM     13  C   UNL     1      -8.176  27.701  44.898  1.00  0.00    -0.028 C 
ATOM     14  C   UNL     1      -6.660  28.276  42.993  1.00  0.00     0.039 C 
BRANCH  13  15
ATOM     15  C   UNL     1      -9.348  28.466  44.329  1.00  0.00     0.035 C 
BRANCH  15  16
ATOM     16  C   UNL     1     -10.605  27.589  44.257  1.00  0.00     0.079 C 
BRANCH  16  17
ATOM     17  C   UNL     1     -10.951  27.232  42.833  1.00  0.00     0.130 C 
ATOM     18  O   UNL     1     -10.091  27.305  41.967  1.00  0.00    -0.300 OA
ATOM     19  C   UNL     1     -12.332  26.784  42.456  1.00  0.00     0.087 C 
ENDBRANCH  16  17
ENDBRANCH  15  16
ENDBRANCH  13  15
ENDBRANCH  11  12
ENDBRANCH   1  11
TORSDOF 9
ENDMDL
MODEL 9
REMARK VINA RESULT:    -4.770     14.048     16.695
REMARK INTER + INTRA:          -8.239
REMARK INTER:                  -5.826
REMARK INTRA:                  -2.412
REMARK UNBOUND:                -0.958
REMARK SMILES CC(=O)CCC=C(C)CCC=C(C)CCC=C(C)C
REMARK SMILES IDX 10 1 11 2 12 3 13 4 14 5 15 6 16 7 18 8 17 9 19 10 9 11 7 12
REMARK SMILES IDX 6 13 8 14 5 15 4 16 2 17 3 18 1 19
REMARK H PARENT
REMARK Flexibility Score: inf
ROOT
ATOM      1  C   UNL     1      -5.838  27.185  46.469  1.00  0.00     0.032 C 
ENDROOT
BRANCH   1   2
ATOM      2  C   UNL     1      -4.866  28.334  46.381  1.00  0.00    -0.028 C 
ATOM      3  C   UNL     1      -5.162  29.617  46.701  1.00  0.00    -0.077 C 
ATOM      4  C   UNL     1      -6.519  30.017  47.231  1.00  0.00     0.039 C 
BRANCH   3   5
ATOM      5  C   UNL     1      -4.090  30.677  46.552  1.00  0.00     0.034 C 
BRANCH   5   6
ATOM      6  C   UNL     1      -4.461  31.716  45.486  1.00  0.00     0.032 C 
BRANCH   6   7
ATOM      7  C   UNL     1      -4.337  31.150  44.091  1.00  0.00    -0.028 C 
ATOM      8  C   UNL     1      -6.813  31.094  43.710  1.00  0.00     0.039 C 
ATOM      9  C   UNL     1      -5.380  30.897  43.270  1.00  0.00    -0.080 C 
ATOM     10  C   UNL     1      -5.094  30.389  41.880  1.00  0.00     0.039 C 
ENDBRANCH   6   7
ENDBRANCH   5   6
ENDBRANCH   3   5
ENDBRANCH   1   2
BRANCH   1  11
ATOM     11  C   UNL     1      -6.012  26.505  45.106  1.00  0.00     0.034 C 
BRANCH  11  12
ATOM     12  C   UNL     1      -7.118  27.178  44.325  1.00  0.00    -0.077 C 
ATOM     13  C   UNL     1      -8.209  27.625  44.984  1.00  0.00    -0.028 C 
ATOM     14  C   UNL     1      -6.952  27.364  42.836  1.00  0.00     0.039 C 
BRANCH  13  15
ATOM     15  C   UNL     1      -9.327  28.419  44.352  1.00  0.00     0.035 C 
BRANCH  15  16
ATOM     16  C   UNL     1     -10.592  27.565  44.184  1.00  0.00     0.079 C 
BRANCH  16  17
ATOM     17  C   UNL     1     -10.858  27.248  42.735  1.00  0.00     0.130 C 
ATOM     18  O   UNL     1     -11.122  26.100  42.407  1.00  0.00    -0.300 OA
ATOM     19  C   UNL     1     -10.809  28.315  41.682  1.00  0.00     0.087 C 
ENDBRANCH  16  17
ENDBRANCH  15  16
ENDBRANCH  13  15
ENDBRANCH  11  12
ENDBRANCH   1  11
TORSDOF 9
ENDMDL
