MODEL 1
REMARK VINA RESULT:    -3.684      0.000      0.000
REMARK INTER + INTRA:         -12.686
REMARK INTER:                  -8.423
REMARK INTRA:                  -4.264
REMARK UNBOUND:                -4.264
REMARK SMILES CCCCCCCCCCCCCCCCCCCCCCCC(=O)[O-]
REMARK SMILES IDX 13 1 14 2 15 3 16 4 17 5 18 6 19 7 20 8 21 9 22 10 23 11
REMARK SMILES IDX 24 12 25 13 26 14 12 15 11 16 10 17 9 18 8 19 7 20 6 21 5 22
REMARK SMILES IDX 4 23 3 24 2 25 1 26
REMARK H PARENT
REMARK Flexibility Score: inf
ROOT
ATOM      1  C   UNL     1     123.202 112.372 112.136  1.00  0.00     0.000 C 
ENDROOT
BRANCH   1   2
ATOM      2  C   UNL     1     122.796 111.016 112.731  1.00  0.00     0.000 C 
BRANCH   2   3
ATOM      3  C   UNL     1     121.798 110.292 111.816  1.00  0.00     0.000 C 
BRANCH   3   4
ATOM      4  C   UNL     1     120.440 110.050 112.493  1.00  0.00     0.000 C 
BRANCH   4   5
ATOM      5  C   UNL     1     119.254 110.467 111.610  1.00  0.00     0.000 C 
BRANCH   5   6
ATOM      6  C   UNL     1     119.511 110.116 110.138  1.00  0.00     0.000 C 
BRANCH   6   7
ATOM      7  C   UNL     1     119.352 111.325 109.198  1.00  0.00     0.000 C 
BRANCH   7   8
ATOM      8  C   UNL     1     119.922 111.122 107.782  1.00  0.00     0.000 C 
BRANCH   8   9
ATOM      9  C   UNL     1     121.291 110.420 107.785  1.00  0.00     0.000 C 
BRANCH   9  10
ATOM     10  C   UNL     1     122.380 111.254 107.094  1.00  0.00     0.006 C 
BRANCH  10  11
ATOM     11  C   UNL     1     121.854 112.607 106.596  1.00  0.00     0.053 C 
BRANCH  11  12
ATOM     12  C   UNL     1     122.989 113.534 106.287  1.00  0.00     0.041 C 
ATOM     13  O   UNL     1     123.731 113.963 107.212  1.00  0.00    -0.550 OA
ATOM     14  O   UNL     1     123.234 113.918 104.973  1.00  0.00    -0.550 OA
ENDBRANCH  11  12
ENDBRANCH  10  11
ENDBRANCH   9  10
ENDBRANCH   8   9
ENDBRANCH   7   8
ENDBRANCH   6   7
ENDBRANCH   5   6
ENDBRANCH   4   5
ENDBRANCH   3   4
ENDBRANCH   2   3
ENDBRANCH   1   2
BRANCH   1  15
ATOM     15  C   UNL     1     122.861 112.494 110.639  1.00  0.00     0.000 C 
BRANCH  15  16
ATOM     16  C   UNL     1     121.833 113.589 110.292  1.00  0.00     0.000 C 
BRANCH  16  17
ATOM     17  C   UNL     1     121.406 114.484 111.471  1.00  0.00     0.000 C 
BRANCH  17  18
ATOM     18  C   UNL     1     120.036 114.141 112.090  1.00  0.00    -0.000 C 
BRANCH  18  19
ATOM     19  C   UNL     1     119.950 114.307 113.619  1.00  0.00    -0.000 C 
BRANCH  19  20
ATOM     20  C   UNL     1     120.068 112.970 114.369  1.00  0.00    -0.000 C 
BRANCH  20  21
ATOM     21  C   UNL     1     121.142 113.006 115.470  1.00  0.00    -0.000 C 
BRANCH  21  22
ATOM     22  C   UNL     1     121.396 111.620 116.090  1.00  0.00    -0.000 C 
BRANCH  22  23
ATOM     23  C   UNL     1     120.301 111.202 117.089  1.00  0.00    -0.000 C 
BRANCH  23  24
ATOM     24  C   UNL     1     119.782 112.332 117.998  1.00  0.00    -0.000 C 
BRANCH  24  25
ATOM     25  C   UNL     1     118.263 112.537 117.893  1.00  0.00    -0.003 C 
ATOM     26  C   UNL     1     117.931 113.944 117.402  1.00  0.00     0.004 C 
ENDBRANCH  24  25
ENDBRANCH  23  24
ENDBRANCH  22  23
ENDBRANCH  21  22
ENDBRANCH  20  21
ENDBRANCH  19  20
ENDBRANCH  18  19
ENDBRANCH  17  18
ENDBRANCH  16  17
ENDBRANCH  15  16
ENDBRANCH   1  15
TORSDOF 22
ENDMDL
MODEL 2
REMARK VINA RESULT:    -3.604      1.362      2.505
REMARK INTER + INTRA:         -12.504
REMARK INTER:                  -8.731
REMARK INTRA:                  -3.773
REMARK UNBOUND:                -4.264
REMARK SMILES CCCCCCCCCCCCCCCCCCCCCCCC(=O)[O-]
REMARK SMILES IDX 13 1 14 2 15 3 16 4 17 5 18 6 19 7 20 8 21 9 22 10 23 11
REMARK SMILES IDX 24 12 25 13 26 14 12 15 11 16 10 17 9 18 8 19 7 20 6 21 5 22
REMARK SMILES IDX 4 23 3 24 2 25 1 26
REMARK H PARENT
REMARK Flexibility Score: inf
ROOT
ATOM      1  C   UNL     1     122.552 110.671 113.479  1.00  0.00     0.000 C 
ENDROOT
BRANCH   1   2
ATOM      2  C   UNL     1     121.018 110.748 113.485  1.00  0.00     0.000 C 
BRANCH   2   3
ATOM      3  C   UNL     1     120.425 109.968 112.302  1.00  0.00     0.000 C 
BRANCH   3   4
ATOM      4  C   UNL     1     119.182 110.647 111.708  1.00  0.00     0.000 C 
BRANCH   4   5
ATOM      5  C   UNL     1     119.181 110.644 110.171  1.00  0.00     0.000 C 
BRANCH   5   6
ATOM      6  C   UNL     1     120.206 109.644 109.621  1.00  0.00     0.000 C 
BRANCH   6   7
ATOM      7  C   UNL     1     120.277 109.644 108.082  1.00  0.00     0.000 C 
BRANCH   7   8
ATOM      8  C   UNL     1     121.193 110.722 107.476  1.00  0.00     0.000 C 
BRANCH   8   9
ATOM      9  C   UNL     1     120.464 112.054 107.229  1.00  0.00     0.000 C 
BRANCH   9  10
ATOM     10  C   UNL     1     121.224 112.967 106.255  1.00  0.00     0.006 C 
BRANCH  10  11
ATOM     11  C   UNL     1     120.496 114.297 106.011  1.00  0.00     0.053 C 
BRANCH  11  12
ATOM     12  C   UNL     1     121.445 115.329 105.485  1.00  0.00     0.041 C 
ATOM     13  O   UNL     1     121.204 116.556 105.644  1.00  0.00    -0.550 OA
ATOM     14  O   UNL     1     122.605 114.934 104.824  1.00  0.00    -0.550 OA
ENDBRANCH  11  12
ENDBRANCH  10  11
ENDBRANCH   9  10
ENDBRANCH   8   9
ENDBRANCH   7   8
ENDBRANCH   6   7
ENDBRANCH   5   6
ENDBRANCH   4   5
ENDBRANCH   3   4
ENDBRANCH   2   3
ENDBRANCH   1   2
BRANCH   1  15
ATOM     15  C   UNL     1     123.136 110.494 112.065  1.00  0.00     0.000 C 
BRANCH  15  16
ATOM     16  C   UNL     1     123.715 111.775 111.434  1.00  0.00     0.000 C 
BRANCH  16  17
ATOM     17  C   UNL     1     122.900 112.354 110.261  1.00  0.00     0.000 C 
BRANCH  17  18
ATOM     18  C   UNL     1     121.740 113.284 110.667  1.00  0.00    -0.000 C 
BRANCH  18  19
ATOM     19  C   UNL     1     122.125 114.427 111.625  1.00  0.00    -0.000 C 
BRANCH  19  20
ATOM     20  C   UNL     1     121.493 114.271 113.019  1.00  0.00    -0.000 C 
BRANCH  20  21
ATOM     21  C   UNL     1     119.966 114.458 112.998  1.00  0.00    -0.000 C 
BRANCH  21  22
ATOM     22  C   UNL     1     119.274 113.785 114.196  1.00  0.00    -0.000 C 
BRANCH  22  23
ATOM     23  C   UNL     1     119.534 114.516 115.527  1.00  0.00    -0.000 C 
BRANCH  23  24
ATOM     24  C   UNL     1     119.517 113.620 116.778  1.00  0.00    -0.000 C 
BRANCH  24  25
ATOM     25  C   UNL     1     120.756 112.718 116.887  1.00  0.00    -0.003 C 
ATOM     26  C   UNL     1     120.358 111.248 117.001  1.00  0.00     0.004 C 
ENDBRANCH  24  25
ENDBRANCH  23  24
ENDBRANCH  22  23
ENDBRANCH  21  22
ENDBRANCH  20  21
ENDBRANCH  19  20
ENDBRANCH  18  19
ENDBRANCH  17  18
ENDBRANCH  16  17
ENDBRANCH  15  16
ENDBRANCH   1  15
TORSDOF 22
ENDMDL
MODEL 3
REMARK VINA RESULT:    -3.590      2.971      7.491
REMARK INTER + INTRA:         -12.470
REMARK INTER:                  -9.249
REMARK INTRA:                  -3.221
REMARK UNBOUND:                -4.264
REMARK SMILES CCCCCCCCCCCCCCCCCCCCCCCC(=O)[O-]
REMARK SMILES IDX 13 1 14 2 15 3 16 4 17 5 18 6 19 7 20 8 21 9 22 10 23 11
REMARK SMILES IDX 24 12 25 13 26 14 12 15 11 16 10 17 9 18 8 19 7 20 6 21 5 22
REMARK SMILES IDX 4 23 3 24 2 25 1 26
REMARK H PARENT
REMARK Flexibility Score: inf
ROOT
ATOM      1  C   UNL     1     122.898 112.358 115.063  1.00  0.00     0.000 C 
ENDROOT
BRANCH   1   2
ATOM      2  C   UNL     1     122.259 111.216 115.867  1.00  0.00     0.000 C 
BRANCH   2   3
ATOM      3  C   UNL     1     120.762 111.474 116.090  1.00  0.00     0.000 C 
BRANCH   3   4
ATOM      4  C   UNL     1     120.332 111.246 117.547  1.00  0.00     0.000 C 
BRANCH   4   5
ATOM      5  C   UNL     1     119.692 112.492 118.179  1.00  0.00     0.000 C 
BRANCH   5   6
ATOM      6  C   UNL     1     118.196 112.575 117.843  1.00  0.00     0.000 C 
BRANCH   6   7
ATOM      7  C   UNL     1     117.780 113.953 117.298  1.00  0.00     0.000 C 
BRANCH   7   8
ATOM      8  C   UNL     1     118.546 114.413 116.045  1.00  0.00     0.000 C 
BRANCH   8   9
ATOM      9  C   UNL     1     118.061 115.773 115.515  1.00  0.00     0.000 C 
BRANCH   9  10
ATOM     10  C   UNL     1     118.811 116.210 114.247  1.00  0.00     0.006 C 
BRANCH  10  11
ATOM     11  C   UNL     1     119.897 117.255 114.539  1.00  0.00     0.053 C 
BRANCH  11  12
ATOM     12  C   UNL     1     119.703 118.470 113.686  1.00  0.00     0.041 C 
ATOM     13  O   UNL     1     120.065 118.465 112.478  1.00  0.00    -0.550 OA
ATOM     14  O   UNL     1     119.112 119.609 114.224  1.00  0.00    -0.550 OA
ENDBRANCH  11  12
ENDBRANCH  10  11
ENDBRANCH   9  10
ENDBRANCH   8   9
ENDBRANCH   7   8
ENDBRANCH   6   7
ENDBRANCH   5   6
ENDBRANCH   4   5
ENDBRANCH   3   4
ENDBRANCH   2   3
ENDBRANCH   1   2
BRANCH   1  15
ATOM     15  C   UNL     1     121.982 113.590 114.942  1.00  0.00     0.000 C 
BRANCH  15  16
ATOM     16  C   UNL     1     122.050 114.322 113.588  1.00  0.00     0.000 C 
BRANCH  16  17
ATOM     17  C   UNL     1     121.385 113.584 112.410  1.00  0.00     0.000 C 
BRANCH  17  18
ATOM     18  C   UNL     1     120.015 112.950 112.725  1.00  0.00    -0.000 C 
BRANCH  18  19
ATOM     19  C   UNL     1     119.948 111.421 112.554  1.00  0.00    -0.000 C 
BRANCH  19  20
ATOM     20  C   UNL     1     121.137 110.860 111.755  1.00  0.00    -0.000 C 
BRANCH  20  21
ATOM     21  C   UNL     1     120.744 109.655 110.883  1.00  0.00    -0.000 C 
BRANCH  21  22
ATOM     22  C   UNL     1     119.591 109.979 109.916  1.00  0.00    -0.000 C 
BRANCH  22  23
ATOM     23  C   UNL     1     120.003 109.866 108.436  1.00  0.00    -0.000 C 
BRANCH  23  24
ATOM     24  C   UNL     1     120.073 111.203 107.675  1.00  0.00    -0.000 C 
BRANCH  24  25
ATOM     25  C   UNL     1     121.457 111.475 107.067  1.00  0.00    -0.003 C 
ATOM     26  C   UNL     1     122.534 111.520 108.149  1.00  0.00     0.004 C 
ENDBRANCH  24  25
ENDBRANCH  23  24
ENDBRANCH  22  23
ENDBRANCH  21  22
ENDBRANCH  20  21
ENDBRANCH  19  20
ENDBRANCH  18  19
ENDBRANCH  17  18
ENDBRANCH  16  17
ENDBRANCH  15  16
ENDBRANCH   1  15
TORSDOF 22
ENDMDL
MODEL 4
REMARK VINA RESULT:    -3.588      2.359      4.340
REMARK INTER + INTRA:         -12.465
REMARK INTER:                  -8.032
REMARK INTRA:                  -4.434
REMARK UNBOUND:                -4.264
REMARK SMILES CCCCCCCCCCCCCCCCCCCCCCCC(=O)[O-]
REMARK SMILES IDX 13 1 14 2 15 3 16 4 17 5 18 6 19 7 20 8 21 9 22 10 23 11
REMARK SMILES IDX 24 12 25 13 26 14 12 15 11 16 10 17 9 18 8 19 7 20 6 21 5 22
REMARK SMILES IDX 4 23 3 24 2 25 1 26
REMARK H PARENT
REMARK Flexibility Score: inf
ROOT
ATOM      1  C   UNL     1     121.374 109.258 106.895  1.00  0.00     0.000 C 
ENDROOT
BRANCH   1   2
ATOM      2  C   UNL     1     121.558 107.818 107.397  1.00  0.00     0.000 C 
BRANCH   2   3
ATOM      3  C   UNL     1     122.197 107.803 108.794  1.00  0.00     0.000 C 
BRANCH   3   4
ATOM      4  C   UNL     1     123.265 108.893 108.969  1.00  0.00     0.000 C 
BRANCH   4   5
ATOM      5  C   UNL     1     122.986 109.811 110.169  1.00  0.00     0.000 C 
BRANCH   5   6
ATOM      6  C   UNL     1     123.364 111.264 109.853  1.00  0.00     0.000 C 
BRANCH   6   7
ATOM      7  C   UNL     1     124.123 111.408 108.520  1.00  0.00     0.000 C 
BRANCH   7   8
ATOM      8  C   UNL     1     123.501 112.405 107.525  1.00  0.00     0.000 C 
BRANCH   8   9
ATOM      9  C   UNL     1     123.612 111.936 106.064  1.00  0.00     0.000 C 
BRANCH   9  10
ATOM     10  C   UNL     1     122.683 112.720 105.124  1.00  0.00     0.006 C 
BRANCH  10  11
ATOM     11  C   UNL     1     122.829 114.239 105.290  1.00  0.00     0.053 C 
BRANCH  11  12
ATOM     12  C   UNL     1     121.489 114.880 105.483  1.00  0.00     0.041 C 
ATOM     13  O   UNL     1     120.705 114.460 106.376  1.00  0.00    -0.550 OA
ATOM     14  O   UNL     1     121.109 115.950 104.679  1.00  0.00    -0.550 OA
ENDBRANCH  11  12
ENDBRANCH  10  11
ENDBRANCH   9  10
ENDBRANCH   8   9
ENDBRANCH   7   8
ENDBRANCH   6   7
ENDBRANCH   5   6
ENDBRANCH   4   5
ENDBRANCH   3   4
ENDBRANCH   2   3
ENDBRANCH   1   2
BRANCH   1  15
ATOM     15  C   UNL     1     119.999 109.847 107.258  1.00  0.00     0.000 C 
BRANCH  15  16
ATOM     16  C   UNL     1     120.034 111.275 107.837  1.00  0.00     0.000 C 
BRANCH  16  17
ATOM     17  C   UNL     1     119.686 111.384 109.335  1.00  0.00     0.000 C 
BRANCH  17  18
ATOM     18  C   UNL     1     119.423 110.040 110.044  1.00  0.00    -0.000 C 
BRANCH  18  19
ATOM     19  C   UNL     1     119.369 110.114 111.582  1.00  0.00    -0.000 C 
BRANCH  19  20
ATOM     20  C   UNL     1     119.707 111.514 112.122  1.00  0.00    -0.000 C 
BRANCH  20  21
ATOM     21  C   UNL     1     120.887 111.495 113.108  1.00  0.00    -0.000 C 
BRANCH  21  22
ATOM     22  C   UNL     1     121.872 112.653 112.869  1.00  0.00    -0.000 C 
BRANCH  22  23
ATOM     23  C   UNL     1     121.369 113.661 111.818  1.00  0.00    -0.000 C 
BRANCH  23  24
ATOM     24  C   UNL     1     121.077 115.074 112.356  1.00  0.00    -0.000 C 
BRANCH  24  25
ATOM     25  C   UNL     1     119.586 115.314 112.635  1.00  0.00    -0.003 C 
ATOM     26  C   UNL     1     119.246 115.029 114.096  1.00  0.00     0.004 C 
ENDBRANCH  24  25
ENDBRANCH  23  24
ENDBRANCH  22  23
ENDBRANCH  21  22
ENDBRANCH  20  21
ENDBRANCH  19  20
ENDBRANCH  18  19
ENDBRANCH  17  18
ENDBRANCH  16  17
ENDBRANCH  15  16
ENDBRANCH   1  15
TORSDOF 22
ENDMDL
MODEL 5
REMARK VINA RESULT:    -3.558      3.531      7.970
REMARK INTER + INTRA:         -12.397
REMARK INTER:                  -8.393
REMARK INTRA:                  -4.004
REMARK UNBOUND:                -4.264
REMARK SMILES CCCCCCCCCCCCCCCCCCCCCCCC(=O)[O-]
REMARK SMILES IDX 13 1 14 2 15 3 16 4 17 5 18 6 19 7 20 8 21 9 22 10 23 11
REMARK SMILES IDX 24 12 25 13 26 14 12 15 11 16 10 17 9 18 8 19 7 20 6 21 5 22
REMARK SMILES IDX 4 23 3 24 2 25 1 26
REMARK H PARENT
REMARK Flexibility Score: inf
ROOT
ATOM      1  C   UNL     1     119.103 110.397 110.293  1.00  0.00     0.000 C 
ENDROOT
BRANCH   1   2
ATOM      2  C   UNL     1     119.225 110.737 111.785  1.00  0.00     0.000 C 
BRANCH   2   3
ATOM      3  C   UNL     1     120.383 109.964 112.432  1.00  0.00     0.000 C 
BRANCH   3   4
ATOM      4  C   UNL     1     121.014 110.718 113.613  1.00  0.00     0.000 C 
BRANCH   4   5
ATOM      5  C   UNL     1     121.262 112.203 113.304  1.00  0.00     0.000 C 
BRANCH   5   6
ATOM      6  C   UNL     1     121.009 113.073 114.543  1.00  0.00     0.000 C 
BRANCH   6   7
ATOM      7  C   UNL     1     119.658 113.810 114.491  1.00  0.00     0.000 C 
BRANCH   7   8
ATOM      8  C   UNL     1     118.975 114.007 115.856  1.00  0.00     0.000 C 
BRANCH   8   9
ATOM      9  C   UNL     1     119.803 113.443 117.024  1.00  0.00     0.000 C 
BRANCH   9  10
ATOM     10  C   UNL     1     119.147 112.213 117.668  1.00  0.00     0.006 C 
BRANCH  10  11
ATOM     11  C   UNL     1     119.978 110.937 117.474  1.00  0.00     0.053 C 
BRANCH  11  12
ATOM     12  C   UNL     1     121.340 111.098 118.076  1.00  0.00     0.041 C 
ATOM     13  O   UNL     1     122.370 111.019 117.352  1.00  0.00    -0.550 OA
ATOM     14  O   UNL     1     121.473 111.342 119.439  1.00  0.00    -0.550 OA
ENDBRANCH  11  12
ENDBRANCH  10  11
ENDBRANCH   9  10
ENDBRANCH   8   9
ENDBRANCH   7   8
ENDBRANCH   6   7
ENDBRANCH   5   6
ENDBRANCH   4   5
ENDBRANCH   3   4
ENDBRANCH   2   3
ENDBRANCH   1   2
BRANCH   1  15
ATOM     15  C   UNL     1     120.285 109.559 109.773  1.00  0.00     0.000 C 
BRANCH  15  16
ATOM     16  C   UNL     1     120.415 109.497 108.238  1.00  0.00     0.000 C 
BRANCH  16  17
ATOM     17  C   UNL     1     121.786 109.023 107.716  1.00  0.00     0.000 C 
BRANCH  17  18
ATOM     18  C   UNL     1     122.576 110.072 106.908  1.00  0.00    -0.000 C 
BRANCH  18  19
ATOM     19  C   UNL     1     121.819 111.383 106.625  1.00  0.00    -0.000 C 
BRANCH  19  20
ATOM     20  C   UNL     1     122.398 112.582 107.397  1.00  0.00    -0.000 C 
BRANCH  20  21
ATOM     21  C   UNL     1     121.447 113.088 108.496  1.00  0.00    -0.000 C 
BRANCH  21  22
ATOM     22  C   UNL     1     121.974 112.795 109.912  1.00  0.00    -0.000 C 
BRANCH  22  23
ATOM     23  C   UNL     1     123.389 112.184 109.910  1.00  0.00    -0.000 C 
BRANCH  23  24
ATOM     24  C   UNL     1     123.513 110.824 110.620  1.00  0.00    -0.000 C 
BRANCH  24  25
ATOM     25  C   UNL     1     124.722 110.748 111.564  1.00  0.00    -0.003 C 
ATOM     26  C   UNL     1     124.453 109.799 112.729  1.00  0.00     0.004 C 
ENDBRANCH  24  25
ENDBRANCH  23  24
ENDBRANCH  22  23
ENDBRANCH  21  22
ENDBRANCH  20  21
ENDBRANCH  19  20
ENDBRANCH  18  19
ENDBRANCH  17  18
ENDBRANCH  16  17
ENDBRANCH  15  16
ENDBRANCH   1  15
TORSDOF 22
ENDMDL
MODEL 6
REMARK VINA RESULT:    -3.533      3.799      8.316
REMARK INTER + INTRA:         -12.340
REMARK INTER:                  -8.755
REMARK INTRA:                  -3.585
REMARK UNBOUND:                -4.264
REMARK SMILES CCCCCCCCCCCCCCCCCCCCCCCC(=O)[O-]
REMARK SMILES IDX 13 1 14 2 15 3 16 4 17 5 18 6 19 7 20 8 21 9 22 10 23 11
REMARK SMILES IDX 24 12 25 13 26 14 12 15 11 16 10 17 9 18 8 19 7 20 6 21 5 22
REMARK SMILES IDX 4 23 3 24 2 25 1 26
REMARK H PARENT
REMARK Flexibility Score: inf
ROOT
ATOM      1  C   UNL     1     120.234 109.978 112.405  1.00  0.00     0.000 C 
ENDROOT
BRANCH   1   2
ATOM      2  C   UNL     1     120.739 111.164 113.240  1.00  0.00     0.000 C 
BRANCH   2   3
ATOM      3  C   UNL     1     120.523 112.490 112.495  1.00  0.00     0.000 C 
BRANCH   3   4
ATOM      4  C   UNL     1     121.826 113.281 112.303  1.00  0.00     0.000 C 
BRANCH   4   5
ATOM      5  C   UNL     1     122.291 113.981 113.590  1.00  0.00     0.000 C 
BRANCH   5   6
ATOM      6  C   UNL     1     121.250 115.003 114.069  1.00  0.00     0.000 C 
BRANCH   6   7
ATOM      7  C   UNL     1     120.865 114.817 115.548  1.00  0.00     0.000 C 
BRANCH   7   8
ATOM      8  C   UNL     1     119.439 114.288 115.785  1.00  0.00     0.000 C 
BRANCH   8   9
ATOM      9  C   UNL     1     119.391 113.142 116.811  1.00  0.00     0.000 C 
BRANCH   9  10
ATOM     10  C   UNL     1     120.492 112.097 116.576  1.00  0.00     0.006 C 
BRANCH  10  11
ATOM     11  C   UNL     1     120.411 110.928 117.567  1.00  0.00     0.053 C 
BRANCH  11  12
ATOM     12  C   UNL     1     121.678 110.817 118.358  1.00  0.00     0.041 C 
ATOM     13  O   UNL     1     121.881 109.817 119.099  1.00  0.00    -0.550 OA
ATOM     14  O   UNL     1     122.642 111.817 118.269  1.00  0.00    -0.550 OA
ENDBRANCH  11  12
ENDBRANCH  10  11
ENDBRANCH   9  10
ENDBRANCH   8   9
ENDBRANCH   7   8
ENDBRANCH   6   7
ENDBRANCH   5   6
ENDBRANCH   4   5
ENDBRANCH   3   4
ENDBRANCH   2   3
ENDBRANCH   1   2
BRANCH   1  15
ATOM     15  C   UNL     1     119.090 110.363 111.450  1.00  0.00     0.000 C 
BRANCH  15  16
ATOM     16  C   UNL     1     119.320 109.991 109.972  1.00  0.00     0.000 C 
BRANCH  16  17
ATOM     17  C   UNL     1     119.639 111.177 109.041  1.00  0.00     0.000 C 
BRANCH  17  18
ATOM     18  C   UNL     1     120.126 110.788 107.630  1.00  0.00    -0.000 C 
BRANCH  18  19
ATOM     19  C   UNL     1     120.053 109.284 107.307  1.00  0.00    -0.000 C 
BRANCH  19  20
ATOM     20  C   UNL     1     121.306 108.773 106.574  1.00  0.00    -0.000 C 
BRANCH  20  21
ATOM     21  C   UNL     1     121.968 107.588 107.297  1.00  0.00    -0.000 C 
BRANCH  21  22
ATOM     22  C   UNL     1     122.132 107.837 108.808  1.00  0.00    -0.000 C 
BRANCH  22  23
ATOM     23  C   UNL     1     123.307 108.778 109.135  1.00  0.00    -0.000 C 
BRANCH  23  24
ATOM     24  C   UNL     1     122.988 109.890 110.152  1.00  0.00    -0.000 C 
BRANCH  24  25
ATOM     25  C   UNL     1     123.884 111.127 109.988  1.00  0.00    -0.003 C 
ATOM     26  C   UNL     1     123.231 112.162 109.074  1.00  0.00     0.004 C 
ENDBRANCH  24  25
ENDBRANCH  23  24
ENDBRANCH  22  23
ENDBRANCH  21  22
ENDBRANCH  20  21
ENDBRANCH  19  20
ENDBRANCH  18  19
ENDBRANCH  17  18
ENDBRANCH  16  17
ENDBRANCH  15  16
ENDBRANCH   1  15
TORSDOF 22
ENDMDL
MODEL 7
REMARK VINA RESULT:    -3.523      3.287      7.224
REMARK INTER + INTRA:         -12.317
REMARK INTER:                  -7.480
REMARK INTRA:                  -4.837
REMARK UNBOUND:                -4.264
REMARK SMILES CCCCCCCCCCCCCCCCCCCCCCCC(=O)[O-]
REMARK SMILES IDX 13 1 14 2 15 3 16 4 17 5 18 6 19 7 20 8 21 9 22 10 23 11
REMARK SMILES IDX 24 12 25 13 26 14 12 15 11 16 10 17 9 18 8 19 7 20 6 21 5 22
REMARK SMILES IDX 4 23 3 24 2 25 1 26
REMARK H PARENT
REMARK Flexibility Score: inf
ROOT
ATOM      1  C   UNL     1     118.947 110.385 110.278  1.00  0.00     0.000 C 
ENDROOT
BRANCH   1   2
ATOM      2  C   UNL     1     119.246 110.642 111.762  1.00  0.00     0.000 C 
BRANCH   2   3
ATOM      3  C   UNL     1     120.556 109.961 112.183  1.00  0.00     0.000 C 
BRANCH   3   4
ATOM      4  C   UNL     1     121.095 110.491 113.522  1.00  0.00     0.000 C 
BRANCH   4   5
ATOM      5  C   UNL     1     122.625 110.390 113.627  1.00  0.00     0.000 C 
BRANCH   5   6
ATOM      6  C   UNL     1     123.206 111.590 114.386  1.00  0.00     0.000 C 
BRANCH   6   7
ATOM      7  C   UNL     1     124.045 112.518 113.488  1.00  0.00     0.000 C 
BRANCH   7   8
ATOM      8  C   UNL     1     123.610 113.995 113.497  1.00  0.00     0.000 C 
BRANCH   8   9
ATOM      9  C   UNL     1     122.294 114.224 114.262  1.00  0.00     0.000 C 
BRANCH   9  10
ATOM     10  C   UNL     1     121.110 114.499 113.323  1.00  0.00     0.006 C 
BRANCH  10  11
ATOM     11  C   UNL     1     119.822 113.805 113.786  1.00  0.00     0.053 C 
BRANCH  11  12
ATOM     12  C   UNL     1     118.994 114.733 114.620  1.00  0.00     0.041 C 
ATOM     13  O   UNL     1     118.496 114.338 115.710  1.00  0.00    -0.550 OA
ATOM     14  O   UNL     1     118.776 116.041 114.198  1.00  0.00    -0.550 OA
ENDBRANCH  11  12
ENDBRANCH  10  11
ENDBRANCH   9  10
ENDBRANCH   8   9
ENDBRANCH   7   8
ENDBRANCH   6   7
ENDBRANCH   5   6
ENDBRANCH   4   5
ENDBRANCH   3   4
ENDBRANCH   2   3
ENDBRANCH   1   2
BRANCH   1  15
ATOM     15  C   UNL     1     120.078 109.623 109.564  1.00  0.00     0.000 C 
BRANCH  15  16
ATOM     16  C   UNL     1     120.042 109.695 108.025  1.00  0.00     0.000 C 
BRANCH  16  17
ATOM     17  C   UNL     1     121.402 109.491 107.328  1.00  0.00     0.000 C 
BRANCH  17  18
ATOM     18  C   UNL     1     122.022 110.764 106.717  1.00  0.00    -0.000 C 
BRANCH  18  19
ATOM     19  C   UNL     1     121.228 112.060 106.966  1.00  0.00    -0.000 C 
BRANCH  19  20
ATOM     20  C   UNL     1     121.993 113.063 107.847  1.00  0.00    -0.000 C 
BRANCH  20  21
ATOM     21  C   UNL     1     121.322 113.276 109.215  1.00  0.00    -0.000 C 
BRANCH  21  22
ATOM     22  C   UNL     1     122.083 112.582 110.359  1.00  0.00    -0.000 C 
BRANCH  22  23
ATOM     23  C   UNL     1     123.440 112.007 109.912  1.00  0.00    -0.000 C 
BRANCH  23  24
ATOM     24  C   UNL     1     123.626 110.500 110.168  1.00  0.00    -0.000 C 
BRANCH  24  25
ATOM     25  C   UNL     1     124.883 109.928 109.496  1.00  0.00    -0.003 C 
ATOM     26  C   UNL     1     124.594 108.574 108.850  1.00  0.00     0.004 C 
ENDBRANCH  24  25
ENDBRANCH  23  24
ENDBRANCH  22  23
ENDBRANCH  21  22
ENDBRANCH  20  21
ENDBRANCH  19  20
ENDBRANCH  18  19
ENDBRANCH  17  18
ENDBRANCH  16  17
ENDBRANCH  15  16
ENDBRANCH   1  15
TORSDOF 22
ENDMDL
MODEL 8
REMARK VINA RESULT:    -3.513      4.864      8.788
REMARK INTER + INTRA:         -12.295
REMARK INTER:                  -8.128
REMARK INTRA:                  -4.167
REMARK UNBOUND:                -4.264
REMARK SMILES CCCCCCCCCCCCCCCCCCCCCCCC(=O)[O-]
REMARK SMILES IDX 13 1 14 2 15 3 16 4 17 5 18 6 19 7 20 8 21 9 22 10 23 11
REMARK SMILES IDX 24 12 25 13 26 14 12 15 11 16 10 17 9 18 8 19 7 20 6 21 5 22
REMARK SMILES IDX 4 23 3 24 2 25 1 26
REMARK H PARENT
REMARK Flexibility Score: inf
ROOT
ATOM      1  C   UNL     1     118.999 113.381 117.803  1.00  0.00     0.000 C 
ENDROOT
BRANCH   1   2
ATOM      2  C   UNL     1     118.935 111.874 118.093  1.00  0.00     0.000 C 
BRANCH   2   3
ATOM      3  C   UNL     1     120.046 111.124 117.344  1.00  0.00     0.000 C 
BRANCH   3   4
ATOM      4  C   UNL     1     120.474 111.835 116.051  1.00  0.00     0.000 C 
BRANCH   4   5
ATOM      5  C   UNL     1     121.827 111.337 115.519  1.00  0.00     0.000 C 
BRANCH   5   6
ATOM      6  C   UNL     1     122.863 112.470 115.498  1.00  0.00     0.000 C 
BRANCH   6   7
ATOM      7  C   UNL     1     122.352 113.759 116.168  1.00  0.00     0.000 C 
BRANCH   7   8
ATOM      8  C   UNL     1     123.105 114.166 117.447  1.00  0.00     0.000 C 
BRANCH   8   9
ATOM      9  C   UNL     1     123.380 112.975 118.382  1.00  0.00     0.000 C 
BRANCH   9  10
ATOM     10  C   UNL     1     122.399 112.918 119.563  1.00  0.00     0.006 C 
BRANCH  10  11
ATOM     11  C   UNL     1     122.462 111.580 120.313  1.00  0.00     0.053 C 
BRANCH  11  12
ATOM     12  C   UNL     1     123.351 111.690 121.514  1.00  0.00     0.041 C 
ATOM     13  O   UNL     1     123.743 112.819 121.915  1.00  0.00    -0.550 OA
ATOM     14  O   UNL     1     123.741 110.542 122.196  1.00  0.00    -0.550 OA
ENDBRANCH  11  12
ENDBRANCH  10  11
ENDBRANCH   9  10
ENDBRANCH   8   9
ENDBRANCH   7   8
ENDBRANCH   6   7
ENDBRANCH   5   6
ENDBRANCH   4   5
ENDBRANCH   3   4
ENDBRANCH   2   3
ENDBRANCH   1   2
BRANCH   1  15
ATOM     15  C   UNL     1     117.623 113.984 117.466  1.00  0.00     0.000 C 
BRANCH  15  16
ATOM     16  C   UNL     1     117.572 114.801 116.160  1.00  0.00     0.000 C 
BRANCH  16  17
ATOM     17  C   UNL     1     118.943 115.226 115.598  1.00  0.00     0.000 C 
BRANCH  17  18
ATOM     18  C   UNL     1     119.268 114.687 114.191  1.00  0.00    -0.000 C 
BRANCH  18  19
ATOM     19  C   UNL     1     120.176 115.593 113.339  1.00  0.00    -0.000 C 
BRANCH  19  20
ATOM     20  C   UNL     1     121.351 114.830 112.703  1.00  0.00    -0.000 C 
BRANCH  20  21
ATOM     21  C   UNL     1     120.884 113.641 111.845  1.00  0.00    -0.000 C 
BRANCH  21  22
ATOM     22  C   UNL     1     121.959 112.546 111.721  1.00  0.00    -0.000 C 
BRANCH  22  23
ATOM     23  C   UNL     1     121.408 111.134 111.996  1.00  0.00    -0.000 C 
BRANCH  23  24
ATOM     24  C   UNL     1     119.894 111.067 112.272  1.00  0.00    -0.000 C 
BRANCH  24  25
ATOM     25  C   UNL     1     119.168 110.045 111.385  1.00  0.00    -0.003 C 
ATOM     26  C   UNL     1     119.528 110.238 109.914  1.00  0.00     0.004 C 
ENDBRANCH  24  25
ENDBRANCH  23  24
ENDBRANCH  22  23
ENDBRANCH  21  22
ENDBRANCH  20  21
ENDBRANCH  19  20
ENDBRANCH  18  19
ENDBRANCH  17  18
ENDBRANCH  16  17
ENDBRANCH  15  16
ENDBRANCH   1  15
TORSDOF 22
ENDMDL
MODEL 9
REMARK VINA RESULT:    -3.499      3.447      7.808
REMARK INTER + INTRA:         -12.263
REMARK INTER:                  -8.155
REMARK INTRA:                  -4.108
REMARK UNBOUND:                -4.264
REMARK SMILES CCCCCCCCCCCCCCCCCCCCCCCC(=O)[O-]
REMARK SMILES IDX 13 1 14 2 15 3 16 4 17 5 18 6 19 7 20 8 21 9 22 10 23 11
REMARK SMILES IDX 24 12 25 13 26 14 12 15 11 16 10 17 9 18 8 19 7 20 6 21 5 22
REMARK SMILES IDX 4 23 3 24 2 25 1 26
REMARK H PARENT
REMARK Flexibility Score: inf
ROOT
ATOM      1  C   UNL     1     121.943 107.384 106.177  1.00  0.00     0.000 C 
ENDROOT
BRANCH   1   2
ATOM      2  C   UNL     1     120.504 107.321 105.646  1.00  0.00     0.000 C 
BRANCH   2   3
ATOM      3  C   UNL     1     119.559 108.155 106.524  1.00  0.00     0.000 C 
BRANCH   3   4
ATOM      4  C   UNL     1     120.224 109.430 107.066  1.00  0.00     0.000 C 
BRANCH   4   5
ATOM      5  C   UNL     1     120.035 109.600 108.582  1.00  0.00     0.000 C 
BRANCH   5   6
ATOM      6  C   UNL     1     119.538 111.012 108.921  1.00  0.00     0.000 C 
BRANCH   6   7
ATOM      7  C   UNL     1     119.472 111.275 110.437  1.00  0.00     0.000 C 
BRANCH   7   8
ATOM      8  C   UNL     1     119.361 110.012 111.309  1.00  0.00     0.000 C 
BRANCH   8   9
ATOM      9  C   UNL     1     120.333 110.023 112.502  1.00  0.00     0.000 C 
BRANCH   9  10
ATOM     10  C   UNL     1     120.584 111.440 113.040  1.00  0.00     0.006 C 
BRANCH  10  11
ATOM     11  C   UNL     1     121.551 111.450 114.233  1.00  0.00     0.053 C 
BRANCH  11  12
ATOM     12  C   UNL     1     120.872 111.983 115.457  1.00  0.00     0.041 C 
ATOM     13  O   UNL     1     120.234 113.069 115.410  1.00  0.00    -0.550 OA
ATOM     14  O   UNL     1     120.939 111.274 116.652  1.00  0.00    -0.550 OA
ENDBRANCH  11  12
ENDBRANCH  10  11
ENDBRANCH   9  10
ENDBRANCH   8   9
ENDBRANCH   7   8
ENDBRANCH   6   7
ENDBRANCH   5   6
ENDBRANCH   4   5
ENDBRANCH   3   4
ENDBRANCH   2   3
ENDBRANCH   1   2
BRANCH   1  15
ATOM     15  C   UNL     1     122.150 106.536 107.445  1.00  0.00     0.000 C 
BRANCH  15  16
ATOM     16  C   UNL     1     122.906 107.243 108.586  1.00  0.00     0.000 C 
BRANCH  16  17
ATOM     17  C   UNL     1     123.950 108.284 108.135  1.00  0.00     0.000 C 
BRANCH  17  18
ATOM     18  C   UNL     1     124.407 109.269 109.229  1.00  0.00    -0.000 C 
BRANCH  18  19
ATOM     19  C   UNL     1     123.315 109.678 110.236  1.00  0.00    -0.000 C 
BRANCH  19  20
ATOM     20  C   UNL     1     123.378 111.169 110.607  1.00  0.00    -0.000 C 
BRANCH  20  21
ATOM     21  C   UNL     1     122.911 112.082 109.460  1.00  0.00    -0.000 C 
BRANCH  21  22
ATOM     22  C   UNL     1     124.081 112.806 108.770  1.00  0.00    -0.000 C 
BRANCH  22  23
ATOM     23  C   UNL     1     124.181 112.482 107.267  1.00  0.00    -0.000 C 
BRANCH  23  24
ATOM     24  C   UNL     1     122.978 111.720 106.682  1.00  0.00    -0.000 C 
BRANCH  24  25
ATOM     25  C   UNL     1     122.134 112.576 105.726  1.00  0.00    -0.003 C 
ATOM     26  C   UNL     1     120.991 113.267 106.468  1.00  0.00     0.004 C 
ENDBRANCH  24  25
ENDBRANCH  23  24
ENDBRANCH  22  23
ENDBRANCH  21  22
ENDBRANCH  20  21
ENDBRANCH  19  20
ENDBRANCH  18  19
ENDBRANCH  17  18
ENDBRANCH  16  17
ENDBRANCH  15  16
ENDBRANCH   1  15
TORSDOF 22
ENDMDL
