MODEL 1
REMARK VINA RESULT:    -7.341      0.000      0.000
REMARK INTER + INTRA:         -10.827
REMARK INTER:                  -9.915
REMARK INTRA:                  -0.911
REMARK UNBOUND:                -0.911
REMARK SMILES CC[C@@H](CC[C@@H](C)[C@@H]1CC[C@@H]2[C@H]3CC(=O)C4=CC(=O)CC[C@]4(C)[C@@H]3CC[C@]21C)C(C)C
REMARK SMILES IDX 4 1 3 2 2 3 1 4 29 5 30 6 31 7 5 8 6 9 7 10 8 11 9 12 27 13
REMARK SMILES IDX 10 14 11 15 26 16 28 17 12 18 25 19 24 20 13 21 22 22 14 23
REMARK SMILES IDX 16 24 21 25 23 26 15 27 17 28 20 29 18 30 19 31
REMARK H PARENT
REMARK Flexibility Score: inf
ROOT
ATOM      1  C   UNL     1     -32.712 -21.439  22.129  1.00  0.00     0.004 C 
ENDROOT
BRANCH   1   2
ATOM      2  C   UNL     1     -32.540 -22.927  22.559  1.00  0.00    -0.009 C 
BRANCH   2   3
ATOM      3  C   UNL     1     -31.140 -23.495  22.176  1.00  0.00     0.000 C 
ATOM      4  C   UNL     1     -30.511 -24.412  23.233  1.00  0.00     0.004 C 
ENDBRANCH   2   3
BRANCH   2   5
ATOM      5  C   UNL     1     -33.723 -23.821  22.040  1.00  0.00    -0.014 C 
ATOM      6  C   UNL     1     -33.393 -25.327  22.119  1.00  0.00     0.007 C 
ATOM      7  C   UNL     1     -34.112 -23.481  20.586  1.00  0.00     0.007 C 
ENDBRANCH   2   5
ENDBRANCH   1   2
BRANCH   1   8
ATOM      8  C   UNL     1     -31.633 -20.948  21.139  1.00  0.00     0.004 C 
BRANCH   8   9
ATOM      9  C   UNL     1     -31.489 -19.406  21.098  1.00  0.00    -0.011 C 
ATOM     10  C   UNL     1     -32.038 -18.890  19.744  1.00  0.00     0.008 C 
BRANCH   9  11
ATOM     11  C   UNL     1     -32.235 -18.673  22.279  1.00  0.00    -0.002 C 
ATOM     12  C   UNL     1     -33.183 -17.570  21.724  1.00  0.00     0.005 C 
ATOM     13  C   UNL     1     -31.409 -17.925  23.384  1.00  0.00    -0.026 C 
ATOM     14  C   UNL     1     -33.152 -16.389  22.693  1.00  0.00     0.005 C 
ATOM     15  C   UNL     1     -32.478 -16.953  23.922  1.00  0.00    -0.001 C 
ATOM     16  C   UNL     1     -30.974 -18.772  24.617  1.00  0.00     0.007 C 
ATOM     17  C   UNL     1     -30.192 -17.197  22.738  1.00  0.00     0.012 C 
ATOM     18  C   UNL     1     -31.969 -15.950  24.988  1.00  0.00     0.004 C 
ATOM     19  C   UNL     1     -30.402 -17.878  25.740  1.00  0.00     0.005 C 
ATOM     20  C   UNL     1     -31.369 -16.740  26.191  1.00  0.00     0.003 C 
ATOM     21  C   UNL     1     -33.154 -15.089  25.488  1.00  0.00     0.085 C 
ATOM     22  C   UNL     1     -30.770 -15.790  27.319  1.00  0.00    -0.000 C 
ATOM     23  C   UNL     1     -32.797 -14.269  26.684  1.00  0.00     0.159 C 
ATOM     24  C   UNL     1     -31.483 -14.430  27.340  1.00  0.00     0.005 C 
ATOM     25  C   UNL     1     -29.241 -15.532  27.129  1.00  0.00     0.020 C 
ATOM     26  C   UNL     1     -31.007 -16.470  28.692  1.00  0.00     0.017 C 
ATOM     27  O   UNL     1     -33.626 -13.421  27.112  1.00  0.00    -0.295 OA
ATOM     28  C   UNL     1     -30.917 -13.356  27.920  1.00  0.00     0.055 C 
ATOM     29  C   UNL     1     -28.651 -14.571  28.177  1.00  0.00     0.081 C 
ATOM     30  C   UNL     1     -29.532 -13.380  28.411  1.00  0.00     0.156 C 
ATOM     31  O   UNL     1     -29.081 -12.386  29.042  1.00  0.00    -0.295 OA
ENDBRANCH   9  11
ENDBRANCH   8   9
ENDBRANCH   1   8
TORSDOF 6
ENDMDL
MODEL 2
REMARK VINA RESULT:    -7.103      1.568      2.616
REMARK INTER + INTRA:         -10.506
REMARK INTER:                  -8.642
REMARK INTRA:                  -1.864
REMARK UNBOUND:                -0.911
REMARK SMILES CC[C@@H](CC[C@@H](C)[C@@H]1CC[C@@H]2[C@H]3CC(=O)C4=CC(=O)CC[C@]4(C)[C@@H]3CC[C@]21C)C(C)C
REMARK SMILES IDX 4 1 3 2 2 3 1 4 29 5 30 6 31 7 5 8 6 9 7 10 8 11 9 12 27 13
REMARK SMILES IDX 10 14 11 15 26 16 28 17 12 18 25 19 24 20 13 21 22 22 14 23
REMARK SMILES IDX 16 24 21 25 23 26 15 27 17 28 20 29 18 30 19 31
REMARK H PARENT
REMARK Flexibility Score: inf
ROOT
ATOM      1  C   UNL     1     -32.678 -19.299  19.467  1.00  0.00     0.004 C 
ENDROOT
BRANCH   1   2
ATOM      2  C   UNL     1     -32.025 -19.535  20.862  1.00  0.00    -0.009 C 
BRANCH   2   3
ATOM      3  C   UNL     1     -30.492 -19.792  20.762  1.00  0.00     0.000 C 
ATOM      4  C   UNL     1     -29.656 -18.548  20.432  1.00  0.00     0.004 C 
ENDBRANCH   2   3
BRANCH   2   5
ATOM      5  C   UNL     1     -32.778 -20.651  21.673  1.00  0.00    -0.014 C 
ATOM      6  C   UNL     1     -32.010 -21.063  22.946  1.00  0.00     0.007 C 
ATOM      7  C   UNL     1     -33.032 -21.913  20.823  1.00  0.00     0.007 C 
ENDBRANCH   2   5
ENDBRANCH   1   2
BRANCH   1   8
ATOM      8  C   UNL     1     -33.632 -18.085  19.425  1.00  0.00     0.004 C 
BRANCH   8   9
ATOM      9  C   UNL     1     -32.979 -16.769  19.917  1.00  0.00    -0.011 C 
ATOM     10  C   UNL     1     -33.272 -15.650  18.885  1.00  0.00     0.008 C 
BRANCH   9  11
ATOM     11  C   UNL     1     -33.481 -16.312  21.341  1.00  0.00    -0.002 C 
ATOM     12  C   UNL     1     -34.125 -14.897  21.264  1.00  0.00     0.005 C 
ATOM     13  C   UNL     1     -32.462 -16.188  22.529  1.00  0.00    -0.026 C 
ATOM     14  C   UNL     1     -33.766 -14.144  22.544  1.00  0.00     0.005 C 
ATOM     15  C   UNL     1     -33.230 -15.224  23.456  1.00  0.00    -0.001 C 
ATOM     16  C   UNL     1     -32.232 -17.471  23.381  1.00  0.00     0.007 C 
ATOM     17  C   UNL     1     -31.115 -15.597  22.016  1.00  0.00     0.012 C 
ATOM     18  C   UNL     1     -32.453 -14.779  24.721  1.00  0.00     0.004 C 
ATOM     19  C   UNL     1     -31.421 -17.160  24.659  1.00  0.00     0.005 C 
ATOM     20  C   UNL     1     -32.049 -16.040  25.544  1.00  0.00     0.003 C 
ATOM     21  C   UNL     1     -33.363 -13.877  25.589  1.00  0.00     0.085 C 
ATOM     22  C   UNL     1     -31.197 -15.685  26.841  1.00  0.00    -0.000 C 
ATOM     23  C   UNL     1     -32.777 -13.606  26.936  1.00  0.00     0.159 C 
ATOM     24  C   UNL     1     -31.533 -14.280  27.363  1.00  0.00     0.005 C 
ATOM     25  C   UNL     1     -29.658 -15.748  26.578  1.00  0.00     0.020 C 
ATOM     26  C   UNL     1     -31.567 -16.703  27.950  1.00  0.00     0.017 C 
ATOM     27  O   UNL     1     -33.348 -12.776  27.694  1.00  0.00    -0.295 OA
ATOM     28  C   UNL     1     -30.695 -13.623  28.185  1.00  0.00     0.055 C 
ATOM     29  C   UNL     1     -28.814 -15.354  27.804  1.00  0.00     0.081 C 
ATOM     30  C   UNL     1     -29.352 -14.134  28.492  1.00  0.00     0.156 C 
ATOM     31  O   UNL     1     -28.644 -13.541  29.350  1.00  0.00    -0.295 OA
ENDBRANCH   9  11
ENDBRANCH   8   9
ENDBRANCH   1   8
TORSDOF 6
ENDMDL
MODEL 3
REMARK VINA RESULT:    -6.821      3.191      3.971
REMARK INTER + INTRA:         -10.126
REMARK INTER:                  -9.226
REMARK INTRA:                  -0.899
REMARK UNBOUND:                -0.911
REMARK SMILES CC[C@@H](CC[C@@H](C)[C@@H]1CC[C@@H]2[C@H]3CC(=O)C4=CC(=O)CC[C@]4(C)[C@@H]3CC[C@]21C)C(C)C
REMARK SMILES IDX 4 1 3 2 2 3 1 4 29 5 30 6 31 7 5 8 6 9 7 10 8 11 9 12 27 13
REMARK SMILES IDX 10 14 11 15 26 16 28 17 12 18 25 19 24 20 13 21 22 22 14 23
REMARK SMILES IDX 16 24 21 25 23 26 15 27 17 28 20 29 18 30 19 31
REMARK H PARENT
REMARK Flexibility Score: inf
ROOT
ATOM      1  C   UNL     1     -33.163 -22.488  22.098  1.00  0.00     0.004 C 
ENDROOT
BRANCH   1   2
ATOM      2  C   UNL     1     -32.602 -23.823  22.674  1.00  0.00    -0.009 C 
BRANCH   2   3
ATOM      3  C   UNL     1     -31.075 -23.743  22.970  1.00  0.00     0.000 C 
ATOM      4  C   UNL     1     -30.298 -25.034  22.673  1.00  0.00     0.004 C 
ENDBRANCH   2   3
BRANCH   2   5
ATOM      5  C   UNL     1     -32.985 -25.050  21.770  1.00  0.00    -0.014 C 
ATOM      6  C   UNL     1     -34.125 -24.715  20.786  1.00  0.00     0.007 C 
ATOM      7  C   UNL     1     -33.404 -26.277  22.606  1.00  0.00     0.007 C 
ENDBRANCH   2   5
ENDBRANCH   1   2
BRANCH   1   8
ATOM      8  C   UNL     1     -32.268 -21.262  22.385  1.00  0.00     0.004 C 
BRANCH   8   9
ATOM      9  C   UNL     1     -31.986 -20.397  21.130  1.00  0.00    -0.011 C 
ATOM     10  C   UNL     1     -32.999 -20.781  20.022  1.00  0.00     0.008 C 
BRANCH   9  11
ATOM     11  C   UNL     1     -32.070 -18.846  21.404  1.00  0.00    -0.002 C 
ATOM     12  C   UNL     1     -32.560 -18.094  20.131  1.00  0.00     0.005 C 
ATOM     13  C   UNL     1     -30.784 -18.052  21.827  1.00  0.00    -0.026 C 
ATOM     14  C   UNL     1     -31.820 -16.760  20.058  1.00  0.00     0.005 C 
ATOM     15  C   UNL     1     -31.194 -16.622  21.426  1.00  0.00    -0.001 C 
ATOM     16  C   UNL     1     -30.488 -17.976  23.354  1.00  0.00     0.007 C 
ATOM     17  C   UNL     1     -29.549 -18.578  21.035  1.00  0.00     0.012 C 
ATOM     18  C   UNL     1     -30.087 -15.552  21.607  1.00  0.00     0.004 C 
ATOM     19  C   UNL     1     -29.360 -16.966  23.659  1.00  0.00     0.005 C 
ATOM     20  C   UNL     1     -29.629 -15.535  23.097  1.00  0.00     0.003 C 
ATOM     21  C   UNL     1     -30.654 -14.161  21.237  1.00  0.00     0.085 C 
ATOM     22  C   UNL     1     -28.451 -14.500  23.372  1.00  0.00    -0.000 C 
ATOM     23  C   UNL     1     -29.730 -13.050  21.614  1.00  0.00     0.159 C 
ATOM     24  C   UNL     1     -28.498 -13.326  22.381  1.00  0.00     0.005 C 
ATOM     25  C   UNL     1     -27.040 -15.163  23.270  1.00  0.00     0.020 C 
ATOM     26  C   UNL     1     -28.643 -13.924  24.798  1.00  0.00     0.017 C 
ATOM     27  O   UNL     1     -30.005 -11.875  21.248  1.00  0.00    -0.295 OA
ATOM     28  C   UNL     1     -27.419 -12.553  22.167  1.00  0.00     0.055 C 
ATOM     29  C   UNL     1     -25.884 -14.168  23.477  1.00  0.00     0.081 C 
ATOM     30  C   UNL     1     -26.103 -12.883  22.733  1.00  0.00     0.156 C 
ATOM     31  O   UNL     1     -25.147 -12.074  22.594  1.00  0.00    -0.295 OA
ENDBRANCH   9  11
ENDBRANCH   8   9
ENDBRANCH   1   8
TORSDOF 6
ENDMDL
MODEL 4
REMARK VINA RESULT:    -6.792      1.910      3.310
REMARK INTER + INTRA:         -10.086
REMARK INTER:                  -8.444
REMARK INTRA:                  -1.642
REMARK UNBOUND:                -0.911
REMARK SMILES CC[C@@H](CC[C@@H](C)[C@@H]1CC[C@@H]2[C@H]3CC(=O)C4=CC(=O)CC[C@]4(C)[C@@H]3CC[C@]21C)C(C)C
REMARK SMILES IDX 4 1 3 2 2 3 1 4 29 5 30 6 31 7 5 8 6 9 7 10 8 11 9 12 27 13
REMARK SMILES IDX 10 14 11 15 26 16 28 17 12 18 25 19 24 20 13 21 22 22 14 23
REMARK SMILES IDX 16 24 21 25 23 26 15 27 17 28 20 29 18 30 19 31
REMARK H PARENT
REMARK Flexibility Score: inf
ROOT
ATOM      1  C   UNL     1     -30.662 -19.891  20.746  1.00  0.00     0.004 C 
ENDROOT
BRANCH   1   2
ATOM      2  C   UNL     1     -32.158 -20.151  20.396  1.00  0.00    -0.009 C 
BRANCH   2   3
ATOM      3  C   UNL     1     -32.905 -18.846  19.988  1.00  0.00     0.000 C 
ATOM      4  C   UNL     1     -32.943 -17.764  21.076  1.00  0.00     0.004 C 
ENDBRANCH   2   3
BRANCH   2   5
ATOM      5  C   UNL     1     -32.892 -20.941  21.538  1.00  0.00    -0.014 C 
ATOM      6  C   UNL     1     -32.098 -20.923  22.861  1.00  0.00     0.007 C 
ATOM      7  C   UNL     1     -33.160 -22.409  21.148  1.00  0.00     0.007 C 
ENDBRANCH   2   5
ENDBRANCH   1   2
BRANCH   1   8
ATOM      8  C   UNL     1     -29.945 -18.950  19.752  1.00  0.00     0.004 C 
BRANCH   8   9
ATOM      9  C   UNL     1     -28.890 -18.034  20.422  1.00  0.00    -0.011 C 
ATOM     10  C   UNL     1     -28.059 -17.338  19.315  1.00  0.00     0.008 C 
BRANCH   9  11
ATOM     11  C   UNL     1     -29.518 -16.941  21.371  1.00  0.00    -0.002 C 
ATOM     12  C   UNL     1     -28.958 -15.530  21.023  1.00  0.00     0.005 C 
ATOM     13  C   UNL     1     -29.318 -17.041  22.925  1.00  0.00    -0.026 C 
ATOM     14  C   UNL     1     -28.796 -14.751  22.327  1.00  0.00     0.005 C 
ATOM     15  C   UNL     1     -29.564 -15.576  23.334  1.00  0.00    -0.001 C 
ATOM     16  C   UNL     1     -30.383 -17.865  23.708  1.00  0.00     0.007 C 
ATOM     17  C   UNL     1     -27.873 -17.530  23.245  1.00  0.00     0.012 C 
ATOM     18  C   UNL     1     -29.338 -15.272  24.836  1.00  0.00     0.004 C 
ATOM     19  C   UNL     1     -30.228 -17.677  25.234  1.00  0.00     0.005 C 
ATOM     20  C   UNL     1     -30.268 -16.186  25.691  1.00  0.00     0.003 C 
ATOM     21  C   UNL     1     -29.687 -13.791  25.118  1.00  0.00     0.085 C 
ATOM     22  C   UNL     1     -30.068 -15.983  27.256  1.00  0.00    -0.000 C 
ATOM     23  C   UNL     1     -29.728 -13.483  26.578  1.00  0.00     0.159 C 
ATOM     24  C   UNL     1     -29.582 -14.562  27.578  1.00  0.00     0.005 C 
ATOM     25  C   UNL     1     -29.040 -16.994  27.861  1.00  0.00     0.020 C 
ATOM     26  C   UNL     1     -31.443 -16.180  27.944  1.00  0.00     0.017 C 
ATOM     27  O   UNL     1     -29.867 -12.285  26.947  1.00  0.00    -0.295 OA
ATOM     28  C   UNL     1     -28.988 -14.277  28.750  1.00  0.00     0.055 C 
ATOM     29  C   UNL     1     -28.789 -16.780  29.365  1.00  0.00     0.081 C 
ATOM     30  C   UNL     1     -28.621 -15.329  29.709  1.00  0.00     0.156 C 
ATOM     31  O   UNL     1     -28.164 -15.006  30.839  1.00  0.00    -0.295 OA
ENDBRANCH   9  11
ENDBRANCH   8   9
ENDBRANCH   1   8
TORSDOF 6
ENDMDL
MODEL 5
REMARK VINA RESULT:    -6.532      2.683      4.792
REMARK INTER + INTRA:          -9.735
REMARK INTER:                  -8.346
REMARK INTRA:                  -1.389
REMARK UNBOUND:                -0.911
REMARK SMILES CC[C@@H](CC[C@@H](C)[C@@H]1CC[C@@H]2[C@H]3CC(=O)C4=CC(=O)CC[C@]4(C)[C@@H]3CC[C@]21C)C(C)C
REMARK SMILES IDX 4 1 3 2 2 3 1 4 29 5 30 6 31 7 5 8 6 9 7 10 8 11 9 12 27 13
REMARK SMILES IDX 10 14 11 15 26 16 28 17 12 18 25 19 24 20 13 21 22 22 14 23
REMARK SMILES IDX 16 24 21 25 23 26 15 27 17 28 20 29 18 30 19 31
REMARK H PARENT
REMARK Flexibility Score: inf
ROOT
ATOM      1  C   UNL     1     -30.567 -19.007  20.709  1.00  0.00     0.004 C 
ENDROOT
BRANCH   1   2
ATOM      2  C   UNL     1     -31.753 -19.365  21.655  1.00  0.00    -0.009 C 
BRANCH   2   3
ATOM      3  C   UNL     1     -31.637 -18.662  23.040  1.00  0.00     0.000 C 
ATOM      4  C   UNL     1     -32.652 -17.535  23.272  1.00  0.00     0.004 C 
ENDBRANCH   2   3
BRANCH   2   5
ATOM      5  C   UNL     1     -31.950 -20.919  21.774  1.00  0.00    -0.014 C 
ATOM      6  C   UNL     1     -32.978 -21.455  20.755  1.00  0.00     0.007 C 
ATOM      7  C   UNL     1     -32.398 -21.339  23.189  1.00  0.00     0.007 C 
ENDBRANCH   2   5
ENDBRANCH   1   2
BRANCH   1   8
ATOM      8  C   UNL     1     -29.980 -17.599  20.952  1.00  0.00     0.004 C 
BRANCH   8   9
ATOM      9  C   UNL     1     -28.480 -17.613  21.338  1.00  0.00    -0.011 C 
ATOM     10  C   UNL     1     -27.635 -17.769  20.048  1.00  0.00     0.008 C 
BRANCH   9  11
ATOM     11  C   UNL     1     -28.017 -16.320  22.114  1.00  0.00    -0.002 C 
ATOM     12  C   UNL     1     -26.495 -16.071  21.899  1.00  0.00     0.005 C 
ATOM     13  C   UNL     1     -28.186 -16.238  23.673  1.00  0.00    -0.026 C 
ATOM     14  C   UNL     1     -25.918 -15.524  23.203  1.00  0.00     0.005 C 
ATOM     15  C   UNL     1     -27.142 -15.156  24.010  1.00  0.00    -0.001 C 
ATOM     16  C   UNL     1     -29.540 -15.671  24.194  1.00  0.00     0.007 C 
ATOM     17  C   UNL     1     -27.863 -17.620  24.317  1.00  0.00     0.012 C 
ATOM     18  C   UNL     1     -26.952 -14.884  25.524  1.00  0.00     0.004 C 
ATOM     19  C   UNL     1     -29.488 -15.400  25.714  1.00  0.00     0.005 C 
ATOM     20  C   UNL     1     -28.318 -14.463  26.145  1.00  0.00     0.003 C 
ATOM     21  C   UNL     1     -25.934 -13.734  25.714  1.00  0.00     0.085 C 
ATOM     22  C   UNL     1     -28.234 -14.212  27.715  1.00  0.00    -0.000 C 
ATOM     23  C   UNL     1     -25.878 -13.250  27.125  1.00  0.00     0.159 C 
ATOM     24  C   UNL     1     -26.825 -13.766  28.134  1.00  0.00     0.005 C 
ATOM     25  C   UNL     1     -28.606 -15.485  28.541  1.00  0.00     0.020 C 
ATOM     26  C   UNL     1     -29.218 -13.068  28.070  1.00  0.00     0.017 C 
ATOM     27  O   UNL     1     -24.995 -12.409  27.448  1.00  0.00    -0.295 OA
ATOM     28  C   UNL     1     -26.414 -13.868  29.411  1.00  0.00     0.055 C 
ATOM     29  C   UNL     1     -28.477 -15.282  30.062  1.00  0.00     0.081 C 
ATOM     30  C   UNL     1     -27.217 -14.557  30.432  1.00  0.00     0.156 C 
ATOM     31  O   UNL     1     -26.842 -14.534  31.635  1.00  0.00    -0.295 OA
ENDBRANCH   9  11
ENDBRANCH   8   9
ENDBRANCH   1   8
TORSDOF 6
ENDMDL
MODEL 6
REMARK VINA RESULT:    -6.505      1.829      3.039
REMARK INTER + INTRA:          -9.697
REMARK INTER:                  -7.459
REMARK INTRA:                  -2.239
REMARK UNBOUND:                -0.911
REMARK SMILES CC[C@@H](CC[C@@H](C)[C@@H]1CC[C@@H]2[C@H]3CC(=O)C4=CC(=O)CC[C@]4(C)[C@@H]3CC[C@]21C)C(C)C
REMARK SMILES IDX 4 1 3 2 2 3 1 4 29 5 30 6 31 7 5 8 6 9 7 10 8 11 9 12 27 13
REMARK SMILES IDX 10 14 11 15 26 16 28 17 12 18 25 19 24 20 13 21 22 22 14 23
REMARK SMILES IDX 16 24 21 25 23 26 15 27 17 28 20 29 18 30 19 31
REMARK H PARENT
REMARK Flexibility Score: inf
ROOT
ATOM      1  C   UNL     1     -30.283 -19.247  20.634  1.00  0.00     0.004 C 
ENDROOT
BRANCH   1   2
ATOM      2  C   UNL     1     -31.613 -19.875  20.118  1.00  0.00    -0.009 C 
BRANCH   2   3
ATOM      3  C   UNL     1     -32.267 -19.027  18.988  1.00  0.00     0.000 C 
ATOM      4  C   UNL     1     -33.394 -18.096  19.457  1.00  0.00     0.004 C 
ENDBRANCH   2   3
BRANCH   2   5
ATOM      5  C   UNL     1     -32.603 -20.185  21.298  1.00  0.00    -0.014 C 
ATOM      6  C   UNL     1     -32.103 -19.618  22.643  1.00  0.00     0.007 C 
ATOM      7  C   UNL     1     -32.848 -21.699  21.466  1.00  0.00     0.007 C 
ENDBRANCH   2   5
ENDBRANCH   1   2
BRANCH   1   8
ATOM      8  C   UNL     1     -29.644 -18.246  19.647  1.00  0.00     0.004 C 
BRANCH   8   9
ATOM      9  C   UNL     1     -29.635 -16.786  20.167  1.00  0.00    -0.011 C 
ATOM     10  C   UNL     1     -30.170 -15.855  19.050  1.00  0.00     0.008 C 
BRANCH   9  11
ATOM     11  C   UNL     1     -30.492 -16.580  21.476  1.00  0.00    -0.002 C 
ATOM     12  C   UNL     1     -31.574 -15.484  21.252  1.00  0.00     0.005 C 
ATOM     13  C   UNL     1     -29.793 -16.138  22.810  1.00  0.00    -0.026 C 
ATOM     14  C   UNL     1     -31.720 -14.692  22.550  1.00  0.00     0.005 C 
ATOM     15  C   UNL     1     -30.993 -15.538  23.569  1.00  0.00    -0.001 C 
ATOM     16  C   UNL     1     -29.264 -17.281  23.727  1.00  0.00     0.007 C 
ATOM     17  C   UNL     1     -28.678 -15.092  22.506  1.00  0.00     0.012 C 
ATOM     18  C   UNL     1     -30.642 -14.885  24.930  1.00  0.00     0.004 C 
ATOM     19  C   UNL     1     -28.837 -16.741  25.110  1.00  0.00     0.005 C 
ATOM     20  C   UNL     1     -29.958 -15.944  25.846  1.00  0.00     0.003 C 
ATOM     21  C   UNL     1     -31.941 -14.391  25.610  1.00  0.00     0.085 C 
ATOM     22  C   UNL     1     -29.511 -15.349  27.254  1.00  0.00    -0.000 C 
ATOM     23  C   UNL     1     -31.718 -13.970  27.025  1.00  0.00     0.159 C 
ATOM     24  C   UNL     1     -30.405 -14.171  27.671  1.00  0.00     0.005 C 
ATOM     25  C   UNL     1     -28.029 -14.854  27.247  1.00  0.00     0.020 C 
ATOM     26  C   UNL     1     -29.672 -16.465  28.318  1.00  0.00     0.017 C 
ATOM     27  O   UNL     1     -32.662 -13.419  27.655  1.00  0.00    -0.295 OA
ATOM     28  C   UNL     1     -30.000 -13.284  28.598  1.00  0.00     0.055 C 
ATOM     29  C   UNL     1     -27.592 -14.223  28.582  1.00  0.00     0.081 C 
ATOM     30  C   UNL     1     -28.632 -13.295  29.136  1.00  0.00     0.156 C 
ATOM     31  O   UNL     1     -28.332 -12.515  30.079  1.00  0.00    -0.295 OA
ENDBRANCH   9  11
ENDBRANCH   8   9
ENDBRANCH   1   8
TORSDOF 6
ENDMDL
MODEL 7
REMARK VINA RESULT:    -6.339      3.342      4.849
REMARK INTER + INTRA:          -9.474
REMARK INTER:                  -9.405
REMARK INTRA:                  -0.069
REMARK UNBOUND:                -0.911
REMARK SMILES CC[C@@H](CC[C@@H](C)[C@@H]1CC[C@@H]2[C@H]3CC(=O)C4=CC(=O)CC[C@]4(C)[C@@H]3CC[C@]21C)C(C)C
REMARK SMILES IDX 4 1 3 2 2 3 1 4 29 5 30 6 31 7 5 8 6 9 7 10 8 11 9 12 27 13
REMARK SMILES IDX 10 14 11 15 26 16 28 17 12 18 25 19 24 20 13 21 22 22 14 23
REMARK SMILES IDX 16 24 21 25 23 26 15 27 17 28 20 29 18 30 19 31
REMARK H PARENT
REMARK Flexibility Score: inf
ROOT
ATOM      1  C   UNL     1     -32.400 -20.459  23.075  1.00  0.00     0.004 C 
ENDROOT
BRANCH   1   2
ATOM      2  C   UNL     1     -32.179 -21.633  22.074  1.00  0.00    -0.009 C 
BRANCH   2   3
ATOM      3  C   UNL     1     -33.037 -21.478  20.783  1.00  0.00     0.000 C 
ATOM      4  C   UNL     1     -32.683 -20.256  19.924  1.00  0.00     0.004 C 
ENDBRANCH   2   3
BRANCH   2   5
ATOM      5  C   UNL     1     -32.370 -23.029  22.769  1.00  0.00    -0.014 C 
ATOM      6  C   UNL     1     -31.130 -23.934  22.606  1.00  0.00     0.007 C 
ATOM      7  C   UNL     1     -33.601 -23.783  22.226  1.00  0.00     0.007 C 
ENDBRANCH   2   5
ENDBRANCH   1   2
BRANCH   1   8
ATOM      8  C   UNL     1     -31.304 -19.371  23.008  1.00  0.00     0.004 C 
BRANCH   8   9
ATOM      9  C   UNL     1     -31.753 -18.089  22.262  1.00  0.00    -0.011 C 
ATOM     10  C   UNL     1     -32.812 -17.356  23.124  1.00  0.00     0.008 C 
BRANCH   9  11
ATOM     11  C   UNL     1     -30.565 -17.102  21.939  1.00  0.00    -0.002 C 
ATOM     12  C   UNL     1     -29.472 -17.823  21.097  1.00  0.00     0.005 C 
ATOM     13  C   UNL     1     -29.752 -16.443  23.109  1.00  0.00    -0.026 C 
ATOM     14  C   UNL     1     -28.109 -17.302  21.548  1.00  0.00     0.005 C 
ATOM     15  C   UNL     1     -28.446 -16.082  22.373  1.00  0.00    -0.001 C 
ATOM     16  C   UNL     1     -30.296 -15.090  23.656  1.00  0.00     0.007 C 
ATOM     17  C   UNL     1     -29.540 -17.476  24.258  1.00  0.00     0.012 C 
ATOM     18  C   UNL     1     -27.333 -15.491  23.274  1.00  0.00     0.004 C 
ATOM     19  C   UNL     1     -29.284 -14.421  24.611  1.00  0.00     0.005 C 
ATOM     20  C   UNL     1     -27.871 -14.210  23.982  1.00  0.00     0.003 C 
ATOM     21  C   UNL     1     -26.114 -15.111  22.400  1.00  0.00     0.085 C 
ATOM     22  C   UNL     1     -26.812 -13.559  24.975  1.00  0.00    -0.000 C 
ATOM     23  C   UNL     1     -25.099 -14.315  23.152  1.00  0.00     0.159 C 
ATOM     24  C   UNL     1     -25.372 -13.862  24.531  1.00  0.00     0.005 C 
ATOM     25  C   UNL     1     -26.982 -14.064  26.443  1.00  0.00     0.020 C 
ATOM     26  C   UNL     1     -27.004 -12.021  24.938  1.00  0.00     0.017 C 
ATOM     27  O   UNL     1     -23.995 -14.055  22.600  1.00  0.00    -0.295 OA
ATOM     28  C   UNL     1     -24.342 -13.756  25.390  1.00  0.00     0.055 C 
ATOM     29  C   UNL     1     -25.931 -13.489  27.411  1.00  0.00     0.081 C 
ATOM     30  C   UNL     1     -24.550 -13.512  26.825  1.00  0.00     0.156 C 
ATOM     31  O   UNL     1     -23.554 -13.314  27.571  1.00  0.00    -0.295 OA
ENDBRANCH   9  11
ENDBRANCH   8   9
ENDBRANCH   1   8
TORSDOF 6
ENDMDL
MODEL 8
REMARK VINA RESULT:    -6.254      2.689      4.180
REMARK INTER + INTRA:          -9.359
REMARK INTER:                  -7.534
REMARK INTRA:                  -1.825
REMARK UNBOUND:                -0.911
REMARK SMILES CC[C@@H](CC[C@@H](C)[C@@H]1CC[C@@H]2[C@H]3CC(=O)C4=CC(=O)CC[C@]4(C)[C@@H]3CC[C@]21C)C(C)C
REMARK SMILES IDX 4 1 3 2 2 3 1 4 29 5 30 6 31 7 5 8 6 9 7 10 8 11 9 12 27 13
REMARK SMILES IDX 10 14 11 15 26 16 28 17 12 18 25 19 24 20 13 21 22 22 14 23
REMARK SMILES IDX 16 24 21 25 23 26 15 27 17 28 20 29 18 30 19 31
REMARK H PARENT
REMARK Flexibility Score: inf
ROOT
ATOM      1  C   UNL     1     -29.900 -18.785  19.894  1.00  0.00     0.004 C 
ENDROOT
BRANCH   1   2
ATOM      2  C   UNL     1     -29.260 -17.379  20.102  1.00  0.00    -0.009 C 
BRANCH   2   3
ATOM      3  C   UNL     1     -29.475 -16.444  18.875  1.00  0.00     0.000 C 
ATOM      4  C   UNL     1     -30.203 -15.131  19.193  1.00  0.00     0.004 C 
ENDBRANCH   2   3
BRANCH   2   5
ATOM      5  C   UNL     1     -27.752 -17.487  20.530  1.00  0.00    -0.014 C 
ATOM      6  C   UNL     1     -27.594 -17.878  22.015  1.00  0.00     0.007 C 
ATOM      7  C   UNL     1     -26.984 -16.172  20.286  1.00  0.00     0.007 C 
ENDBRANCH   2   5
ENDBRANCH   1   2
BRANCH   1   8
ATOM      8  C   UNL     1     -31.194 -19.006  20.710  1.00  0.00     0.004 C 
BRANCH   8   9
ATOM      9  C   UNL     1     -32.055 -17.727  20.860  1.00  0.00    -0.011 C 
ATOM     10  C   UNL     1     -33.307 -17.860  19.957  1.00  0.00     0.008 C 
BRANCH   9  11
ATOM     11  C   UNL     1     -32.508 -17.444  22.345  1.00  0.00    -0.002 C 
ATOM     12  C   UNL     1     -33.653 -16.389  22.374  1.00  0.00     0.005 C 
ATOM     13  C   UNL     1     -31.473 -16.892  23.389  1.00  0.00    -0.026 C 
ATOM     14  C   UNL     1     -33.452 -15.509  23.606  1.00  0.00     0.005 C 
ATOM     15  C   UNL     1     -32.428 -16.263  24.423  1.00  0.00    -0.001 C 
ATOM     16  C   UNL     1     -30.658 -17.953  24.184  1.00  0.00     0.007 C 
ATOM     17  C   UNL     1     -30.537 -15.848  22.709  1.00  0.00     0.012 C 
ATOM     18  C   UNL     1     -31.729 -15.505  25.579  1.00  0.00     0.004 C 
ATOM     19  C   UNL     1     -29.874 -17.305  25.347  1.00  0.00     0.005 C 
ATOM     20  C   UNL     1     -30.767 -16.480  26.324  1.00  0.00     0.003 C 
ATOM     21  C   UNL     1     -32.797 -14.990  26.574  1.00  0.00     0.085 C 
ATOM     22  C   UNL     1     -29.960 -15.776  27.501  1.00  0.00    -0.000 C 
ATOM     23  C   UNL     1     -32.194 -14.463  27.834  1.00  0.00     0.159 C 
ATOM     24  C   UNL     1     -30.744 -14.589  28.083  1.00  0.00     0.005 C 
ATOM     25  C   UNL     1     -28.564 -15.251  27.034  1.00  0.00     0.020 C 
ATOM     26  C   UNL     1     -29.763 -16.814  28.635  1.00  0.00     0.017 C 
ATOM     27  O   UNL     1     -32.939 -13.888  28.674  1.00  0.00    -0.295 OA
ATOM     28  C   UNL     1     -30.126 -13.629  28.795  1.00  0.00     0.055 C 
ATOM     29  C   UNL     1     -27.788 -14.516  28.143  1.00  0.00     0.081 C 
ATOM     30  C   UNL     1     -28.662 -13.572  28.914  1.00  0.00     0.156 C 
ATOM     31  O   UNL     1     -28.136 -12.719  29.678  1.00  0.00    -0.295 OA
ENDBRANCH   9  11
ENDBRANCH   8   9
ENDBRANCH   1   8
TORSDOF 6
ENDMDL
MODEL 9
REMARK VINA RESULT:    -6.238      3.281      8.621
REMARK INTER + INTRA:          -9.338
REMARK INTER:                  -7.723
REMARK INTRA:                  -1.615
REMARK UNBOUND:                -0.911
REMARK SMILES CC[C@@H](CC[C@@H](C)[C@@H]1CC[C@@H]2[C@H]3CC(=O)C4=CC(=O)CC[C@]4(C)[C@@H]3CC[C@]21C)C(C)C
REMARK SMILES IDX 4 1 3 2 2 3 1 4 29 5 30 6 31 7 5 8 6 9 7 10 8 11 9 12 27 13
REMARK SMILES IDX 10 14 11 15 26 16 28 17 12 18 25 19 24 20 13 21 22 22 14 23
REMARK SMILES IDX 16 24 21 25 23 26 15 27 17 28 20 29 18 30 19 31
REMARK H PARENT
REMARK Flexibility Score: inf
ROOT
ATOM      1  C   UNL     1     -29.366 -14.097  27.706  1.00  0.00     0.004 C 
ENDROOT
BRANCH   1   2
ATOM      2  C   UNL     1     -28.678 -15.115  28.664  1.00  0.00    -0.009 C 
BRANCH   2   3
ATOM      3  C   UNL     1     -29.666 -16.205  29.177  1.00  0.00     0.000 C 
ATOM      4  C   UNL     1     -29.831 -17.409  28.239  1.00  0.00     0.004 C 
ENDBRANCH   2   3
BRANCH   2   5
ATOM      5  C   UNL     1     -27.915 -14.388  29.829  1.00  0.00    -0.014 C 
ATOM      6  C   UNL     1     -26.713 -13.568  29.316  1.00  0.00     0.007 C 
ATOM      7  C   UNL     1     -27.410 -15.380  30.898  1.00  0.00     0.007 C 
ENDBRANCH   2   5
ENDBRANCH   1   2
BRANCH   1   8
ATOM      8  C   UNL     1     -30.699 -13.535  28.248  1.00  0.00     0.004 C 
BRANCH   8   9
ATOM      9  C   UNL     1     -31.939 -14.006  27.446  1.00  0.00    -0.011 C 
ATOM     10  C   UNL     1     -33.135 -13.083  27.790  1.00  0.00     0.008 C 
BRANCH   9  11
ATOM     11  C   UNL     1     -31.713 -14.012  25.885  1.00  0.00    -0.002 C 
ATOM     12  C   UNL     1     -32.734 -13.068  25.183  1.00  0.00     0.005 C 
ATOM     13  C   UNL     1     -31.839 -15.353  25.079  1.00  0.00    -0.026 C 
ATOM     14  C   UNL     1     -33.134 -13.709  23.856  1.00  0.00     0.005 C 
ATOM     15  C   UNL     1     -32.110 -14.804  23.664  1.00  0.00    -0.001 C 
ATOM     16  C   UNL     1     -30.542 -16.204  24.942  1.00  0.00     0.007 C 
ATOM     17  C   UNL     1     -33.019 -16.203  25.640  1.00  0.00     0.012 C 
ATOM     18  C   UNL     1     -32.402 -15.884  22.592  1.00  0.00     0.004 C 
ATOM     19  C   UNL     1     -30.726 -17.351  23.924  1.00  0.00     0.005 C 
ATOM     20  C   UNL     1     -31.198 -16.872  22.516  1.00  0.00     0.003 C 
ATOM     21  C   UNL     1     -32.584 -15.202  21.215  1.00  0.00     0.085 C 
ATOM     22  C   UNL     1     -31.430 -18.052  21.474  1.00  0.00    -0.000 C 
ATOM     23  C   UNL     1     -32.627 -16.186  20.093  1.00  0.00     0.159 C 
ATOM     24  C   UNL     1     -32.373 -17.620  20.341  1.00  0.00     0.005 C 
ATOM     25  C   UNL     1     -32.032 -19.329  22.145  1.00  0.00     0.020 C 
ATOM     26  C   UNL     1     -30.060 -18.407  20.841  1.00  0.00     0.017 C 
ATOM     27  O   UNL     1     -32.907 -15.779  18.932  1.00  0.00    -0.295 OA
ATOM     28  C   UNL     1     -33.009 -18.529  19.580  1.00  0.00     0.055 C 
ATOM     29  C   UNL     1     -32.316 -20.465  21.146  1.00  0.00     0.081 C 
ATOM     30  C   UNL     1     -32.971 -19.965  19.892  1.00  0.00     0.156 C 
ATOM     31  O   UNL     1     -33.492 -20.787  19.092  1.00  0.00    -0.295 OA
ENDBRANCH   9  11
ENDBRANCH   8   9
ENDBRANCH   1   8
TORSDOF 6
ENDMDL
