MODEL 1
REMARK VINA RESULT:    -4.634      0.000      0.000
REMARK INTER + INTRA:          -5.891
REMARK INTER:                  -5.718
REMARK INTRA:                  -0.174
REMARK UNBOUND:                -0.174
REMARK SMILES [NH3+][C@H](Cc1ccc(O)cc1)C(=O)[O-]
REMARK SMILES IDX 3 1 2 2 1 3 11 7 12 8 13 9 4 10 5 11 10 12 6 13 9 14 7 15
REMARK SMILES IDX 8 16
REMARK H PARENT 1 4 1 5 1 6 8 17
REMARK Flexibility Score: inf
ROOT
ATOM      1  C   UNL     1       0.126   8.005 -26.818  1.00  0.00     0.107 C 
ENDROOT
BRANCH   1   2
ATOM      2  C   UNL     1       0.012   7.808 -28.346  1.00  0.00     0.232 C 
BRANCH   2   3
ATOM      3  N   UNL     1      -0.246   6.405 -28.702  1.00  0.00    -0.350 N 
ATOM      4  H   UNL     1      -0.210   6.296 -29.742  1.00  0.00     0.345 HD
ATOM      5  H   UNL     1      -1.184   6.094 -28.362  1.00  0.00     0.345 HD
ATOM      6  H   UNL     1       0.491   5.792 -28.283  1.00  0.00     0.345 HD
ENDBRANCH   2   3
BRANCH   2   7
ATOM      7  C   UNL     1      -1.020   8.728 -28.949  1.00  0.00     0.099 C 
ATOM      8  O   UNL     1      -1.516   8.487 -30.083  1.00  0.00    -0.544 OA
ATOM      9  O   UNL     1      -1.470   9.824 -28.226  1.00  0.00    -0.544 OA
ENDBRANCH   2   7
ENDBRANCH   1   2
BRANCH   1  10
ATOM     10  C   UNL     1       1.537   7.880 -26.293  1.00  0.00    -0.041 A 
ATOM     11  C   UNL     1       1.941   6.718 -25.614  1.00  0.00     0.008 A 
ATOM     12  C   UNL     1       2.463   8.919 -26.488  1.00  0.00     0.008 A 
ATOM     13  C   UNL     1       3.253   6.597 -25.142  1.00  0.00     0.046 A 
ATOM     14  C   UNL     1       3.773   8.795 -26.015  1.00  0.00     0.046 A 
ATOM     15  C   UNL     1       4.171   7.637 -25.341  1.00  0.00     0.115 A 
BRANCH  15  16
ATOM     16  O   UNL     1       5.479   7.528 -24.875  1.00  0.00    -0.508 OA
ATOM     17  H   UNL     1       5.857   6.641 -24.561  1.00  0.00     0.293 HD
ENDBRANCH  15  16
ENDBRANCH   1  10
TORSDOF 5
ENDMDL
MODEL 2
REMARK VINA RESULT:    -4.340     19.287     20.514
REMARK INTER + INTRA:          -5.528
REMARK INTER:                  -5.377
REMARK INTRA:                  -0.151
REMARK UNBOUND:                -0.174
REMARK SMILES [NH3+][C@H](Cc1ccc(O)cc1)C(=O)[O-]
REMARK SMILES IDX 3 1 2 2 1 3 11 7 12 8 13 9 4 10 5 11 10 12 6 13 9 14 7 15
REMARK SMILES IDX 8 16
REMARK H PARENT 1 4 1 5 1 6 8 17
REMARK Flexibility Score: inf
ROOT
ATOM      1  C   UNL     1      11.369  -6.734 -36.662  1.00  0.00     0.107 C 
ENDROOT
BRANCH   1   2
ATOM      2  C   UNL     1      12.897  -6.950 -36.568  1.00  0.00     0.232 C 
BRANCH   2   3
ATOM      3  N   UNL     1      13.396  -7.822 -37.640  1.00  0.00    -0.350 N 
ATOM      4  H   UNL     1      13.740  -8.720 -37.228  1.00  0.00     0.345 HD
ATOM      5  H   UNL     1      14.178  -7.370 -38.164  1.00  0.00     0.345 HD
ATOM      6  H   UNL     1      12.620  -8.044 -38.306  1.00  0.00     0.345 HD
ENDBRANCH   2   3
BRANCH   2   7
ATOM      7  C   UNL     1      13.641  -5.638 -36.534  1.00  0.00     0.099 C 
ATOM      8  O   UNL     1      13.644  -4.871 -37.535  1.00  0.00    -0.544 OA
ATOM      9  O   UNL     1      14.287  -5.244 -35.370  1.00  0.00    -0.544 OA
ENDBRANCH   2   7
ENDBRANCH   1   2
BRANCH   1  10
ATOM     10  C   UNL     1      10.588  -7.451 -35.586  1.00  0.00    -0.041 A 
ATOM     11  C   UNL     1      10.937  -8.759 -35.208  1.00  0.00     0.008 A 
ATOM     12  C   UNL     1       9.513  -6.815 -34.944  1.00  0.00     0.008 A 
ATOM     13  C   UNL     1      10.222  -9.417 -34.201  1.00  0.00     0.046 A 
ATOM     14  C   UNL     1       8.800  -7.475 -33.938  1.00  0.00     0.046 A 
ATOM     15  C   UNL     1       9.152  -8.776 -33.565  1.00  0.00     0.115 A 
BRANCH  15  16
ATOM     16  O   UNL     1       8.433  -9.421 -32.560  1.00  0.00    -0.508 OA
ATOM     17  H   UNL     1       8.470 -10.427 -32.446  1.00  0.00     0.293 HD
ENDBRANCH  15  16
ENDBRANCH   1  10
TORSDOF 5
ENDMDL
MODEL 3
REMARK VINA RESULT:    -4.329     18.445     19.711
REMARK INTER + INTRA:          -5.515
REMARK INTER:                  -5.258
REMARK INTRA:                  -0.257
REMARK UNBOUND:                -0.174
REMARK SMILES [NH3+][C@H](Cc1ccc(O)cc1)C(=O)[O-]
REMARK SMILES IDX 3 1 2 2 1 3 11 7 12 8 13 9 4 10 5 11 10 12 6 13 9 14 7 15
REMARK SMILES IDX 8 16
REMARK H PARENT 1 4 1 5 1 6 8 17
REMARK Flexibility Score: inf
ROOT
ATOM      1  C   UNL     1       9.673  -7.558 -33.907  1.00  0.00     0.107 C 
ENDROOT
BRANCH   1   2
ATOM      2  C   UNL     1      10.870  -6.655 -34.281  1.00  0.00     0.232 C 
BRANCH   2   3
ATOM      3  N   UNL     1      11.765  -6.428 -33.136  1.00  0.00    -0.350 N 
ATOM      4  H   UNL     1      11.947  -5.403 -33.033  1.00  0.00     0.345 HD
ATOM      5  H   UNL     1      12.677  -6.921 -33.265  1.00  0.00     0.345 HD
ATOM      6  H   UNL     1      11.311  -6.769 -32.258  1.00  0.00     0.345 HD
ENDBRANCH   2   3
BRANCH   2   7
ATOM      7  C   UNL     1      11.624  -7.196 -35.470  1.00  0.00     0.099 C 
ATOM      8  O   UNL     1      12.141  -8.345 -35.438  1.00  0.00    -0.544 OA
ATOM      9  O   UNL     1      11.704  -6.443 -36.634  1.00  0.00    -0.544 OA
ENDBRANCH   2   7
ENDBRANCH   1   2
BRANCH   1  10
ATOM     10  C   UNL     1       8.513  -7.455 -34.870  1.00  0.00    -0.041 A 
ATOM     11  C   UNL     1       7.821  -6.241 -35.020  1.00  0.00     0.008 A 
ATOM     12  C   UNL     1       8.120  -8.568 -35.632  1.00  0.00     0.008 A 
ATOM     13  C   UNL     1       6.757  -6.143 -35.923  1.00  0.00     0.046 A 
ATOM     14  C   UNL     1       7.056  -8.467 -36.533  1.00  0.00     0.046 A 
ATOM     15  C   UNL     1       6.372  -7.256 -36.680  1.00  0.00     0.115 A 
BRANCH  15  16
ATOM     16  O   UNL     1       5.313  -7.171 -37.582  1.00  0.00    -0.508 OA
ATOM     17  H   UNL     1       5.456  -6.870 -38.540  1.00  0.00     0.293 HD
ENDBRANCH  15  16
ENDBRANCH   1  10
TORSDOF 5
ENDMDL
MODEL 4
REMARK VINA RESULT:    -4.327     18.604     19.180
REMARK INTER + INTRA:          -5.512
REMARK INTER:                  -5.346
REMARK INTRA:                  -0.166
REMARK UNBOUND:                -0.174
REMARK SMILES [NH3+][C@H](Cc1ccc(O)cc1)C(=O)[O-]
REMARK SMILES IDX 3 1 2 2 1 3 11 7 12 8 13 9 4 10 5 11 10 12 6 13 9 14 7 15
REMARK SMILES IDX 8 16
REMARK H PARENT 1 4 1 5 1 6 8 17
REMARK Flexibility Score: inf
ROOT
ATOM      1  C   UNL     1       6.292  -6.788 -36.857  1.00  0.00     0.107 C 
ENDROOT
BRANCH   1   2
ATOM      2  C   UNL     1       5.862  -8.152 -37.444  1.00  0.00     0.232 C 
BRANCH   2   3
ATOM      3  N   UNL     1       5.316  -9.046 -36.413  1.00  0.00    -0.350 N 
ATOM      4  H   UNL     1       5.691  -8.770 -35.476  1.00  0.00     0.345 HD
ATOM      5  H   UNL     1       5.574 -10.042 -36.599  1.00  0.00     0.345 HD
ATOM      6  H   UNL     1       4.274  -8.962 -36.385  1.00  0.00     0.345 HD
ENDBRANCH   2   3
BRANCH   2   7
ATOM      7  C   UNL     1       4.898  -7.982 -38.591  1.00  0.00     0.099 C 
ATOM      8  O   UNL     1       3.998  -7.100 -38.555  1.00  0.00    -0.544 OA
ATOM      9  O   UNL     1       5.034  -8.771 -39.726  1.00  0.00    -0.544 OA
ENDBRANCH   2   7
ENDBRANCH   1   2
BRANCH   1  10
ATOM     10  C   UNL     1       7.711  -6.772 -36.339  1.00  0.00    -0.041 A 
ATOM     11  C   UNL     1       7.963  -6.660 -34.962  1.00  0.00     0.008 A 
ATOM     12  C   UNL     1       8.793  -6.879 -37.229  1.00  0.00     0.008 A 
ATOM     13  C   UNL     1       9.277  -6.659 -34.482  1.00  0.00     0.046 A 
ATOM     14  C   UNL     1      10.106  -6.878 -36.747  1.00  0.00     0.046 A 
ATOM     15  C   UNL     1      10.352  -6.768 -35.375  1.00  0.00     0.115 A 
BRANCH  15  16
ATOM     16  O   UNL     1      11.665  -6.769 -34.909  1.00  0.00    -0.508 OA
ATOM     17  H   UNL     1      11.901  -6.410 -33.991  1.00  0.00     0.293 HD
ENDBRANCH  15  16
ENDBRANCH   1  10
TORSDOF 5
ENDMDL
MODEL 5
REMARK VINA RESULT:    -4.299     18.349     19.088
REMARK INTER + INTRA:          -5.478
REMARK INTER:                  -5.265
REMARK INTRA:                  -0.213
REMARK UNBOUND:                -0.174
REMARK SMILES [NH3+][C@H](Cc1ccc(O)cc1)C(=O)[O-]
REMARK SMILES IDX 3 1 2 2 1 3 11 7 12 8 13 9 4 10 5 11 10 12 6 13 9 14 7 15
REMARK SMILES IDX 8 16
REMARK H PARENT 1 4 1 5 1 6 8 17
REMARK Flexibility Score: inf
ROOT
ATOM      1  C   UNL     1       8.766  -7.176 -34.397  1.00  0.00     0.107 C 
ENDROOT
BRANCH   1   2
ATOM      2  C   UNL     1       8.003  -7.589 -35.677  1.00  0.00     0.232 C 
BRANCH   2   3
ATOM      3  N   UNL     1       7.473  -8.957 -35.583  1.00  0.00    -0.350 N 
ATOM      4  H   UNL     1       7.200  -9.159 -34.593  1.00  0.00     0.345 HD
ATOM      5  H   UNL     1       8.184  -9.661 -35.886  1.00  0.00     0.345 HD
ATOM      6  H   UNL     1       6.621  -9.049 -36.182  1.00  0.00     0.345 HD
ENDBRANCH   2   3
BRANCH   2   7
ATOM      7  C   UNL     1       6.917  -6.600 -36.018  1.00  0.00     0.099 C 
ATOM      8  O   UNL     1       6.837  -5.495 -35.418  1.00  0.00    -0.544 OA
ATOM      9  O   UNL     1       6.024  -6.886 -37.043  1.00  0.00    -0.544 OA
ENDBRANCH   2   7
ENDBRANCH   1   2
BRANCH   1  10
ATOM     10  C   UNL     1      10.252  -7.001 -34.607  1.00  0.00    -0.041 A 
ATOM     11  C   UNL     1      11.121  -6.936 -33.505  1.00  0.00     0.008 A 
ATOM     12  C   UNL     1      10.781  -6.912 -35.906  1.00  0.00     0.008 A 
ATOM     13  C   UNL     1      12.498  -6.788 -33.701  1.00  0.00     0.046 A 
ATOM     14  C   UNL     1      12.158  -6.764 -36.098  1.00  0.00     0.046 A 
ATOM     15  C   UNL     1      13.019  -6.701 -34.999  1.00  0.00     0.115 A 
BRANCH  15  16
ATOM     16  O   UNL     1      14.389  -6.554 -35.206  1.00  0.00    -0.508 OA
ATOM     17  H   UNL     1      14.949  -5.940 -34.626  1.00  0.00     0.293 HD
ENDBRANCH  15  16
ENDBRANCH   1  10
TORSDOF 5
ENDMDL
MODEL 6
REMARK VINA RESULT:    -4.284     18.586     19.469
REMARK INTER + INTRA:          -5.459
REMARK INTER:                  -5.207
REMARK INTRA:                  -0.252
REMARK UNBOUND:                -0.174
REMARK SMILES [NH3+][C@H](Cc1ccc(O)cc1)C(=O)[O-]
REMARK SMILES IDX 3 1 2 2 1 3 11 7 12 8 13 9 4 10 5 11 10 12 6 13 9 14 7 15
REMARK SMILES IDX 8 16
REMARK H PARENT 1 4 1 5 1 6 8 17
REMARK Flexibility Score: inf
ROOT
ATOM      1  C   UNL     1       8.278  -6.402 -34.682  1.00  0.00     0.107 C 
ENDROOT
BRANCH   1   2
ATOM      2  C   UNL     1       7.537  -6.941 -35.926  1.00  0.00     0.232 C 
BRANCH   2   3
ATOM      3  N   UNL     1       6.585  -5.960 -36.467  1.00  0.00    -0.350 N 
ATOM      4  H   UNL     1       5.975  -5.603 -35.695  1.00  0.00     0.345 HD
ATOM      5  H   UNL     1       5.980  -6.385 -37.206  1.00  0.00     0.345 HD
ATOM      6  H   UNL     1       7.104  -5.149 -36.874  1.00  0.00     0.345 HD
ENDBRANCH   2   3
BRANCH   2   7
ATOM      7  C   UNL     1       8.502  -7.412 -36.985  1.00  0.00     0.099 C 
ATOM      8  O   UNL     1       9.254  -6.597 -37.583  1.00  0.00    -0.544 OA
ATOM      9  O   UNL     1       8.603  -8.768 -37.269  1.00  0.00    -0.544 OA
ENDBRANCH   2   7
ENDBRANCH   1   2
BRANCH   1  10
ATOM     10  C   UNL     1       9.252  -7.388 -34.081  1.00  0.00    -0.041 A 
ATOM     11  C   UNL     1      10.618  -7.069 -33.989  1.00  0.00     0.008 A 
ATOM     12  C   UNL     1       8.802  -8.628 -33.600  1.00  0.00     0.008 A 
ATOM     13  C   UNL     1      11.517  -7.977 -33.420  1.00  0.00     0.046 A 
ATOM     14  C   UNL     1       9.703  -9.534 -33.031  1.00  0.00     0.046 A 
ATOM     15  C   UNL     1      11.061  -9.212 -32.941  1.00  0.00     0.115 A 
BRANCH  15  16
ATOM     16  O   UNL     1      11.947 -10.124 -32.372  1.00  0.00    -0.508 OA
ATOM     17  H   UNL     1      12.822  -9.824 -31.956  1.00  0.00     0.293 HD
ENDBRANCH  15  16
ENDBRANCH   1  10
TORSDOF 5
ENDMDL
MODEL 7
REMARK VINA RESULT:    -4.205     18.552     19.890
REMARK INTER + INTRA:          -5.361
REMARK INTER:                  -5.137
REMARK INTRA:                  -0.224
REMARK UNBOUND:                -0.174
REMARK SMILES [NH3+][C@H](Cc1ccc(O)cc1)C(=O)[O-]
REMARK SMILES IDX 3 1 2 2 1 3 11 7 12 8 13 9 4 10 5 11 10 12 6 13 9 14 7 15
REMARK SMILES IDX 8 16
REMARK H PARENT 1 4 1 5 1 6 8 17
REMARK Flexibility Score: inf
ROOT
ATOM      1  C   UNL     1       9.583  -7.741 -33.853  1.00  0.00     0.107 C 
ENDROOT
BRANCH   1   2
ATOM      2  C   UNL     1      10.967  -7.240 -34.327  1.00  0.00     0.232 C 
BRANCH   2   3
ATOM      3  N   UNL     1      11.576  -6.314 -33.361  1.00  0.00    -0.350 N 
ATOM      4  H   UNL     1      11.596  -5.349 -33.767  1.00  0.00     0.345 HD
ATOM      5  H   UNL     1      12.552  -6.600 -33.124  1.00  0.00     0.345 HD
ATOM      6  H   UNL     1      11.004  -6.288 -32.486  1.00  0.00     0.345 HD
ENDBRANCH   2   3
BRANCH   2   7
ATOM      7  C   UNL     1      11.892  -8.387 -34.648  1.00  0.00     0.099 C 
ATOM      8  O   UNL     1      12.959  -8.557 -34.000  1.00  0.00    -0.544 OA
ATOM      9  O   UNL     1      11.539  -9.299 -35.634  1.00  0.00    -0.544 OA
ENDBRANCH   2   7
ENDBRANCH   1   2
BRANCH   1  10
ATOM     10  C   UNL     1       8.471  -7.470 -34.838  1.00  0.00    -0.041 A 
ATOM     11  C   UNL     1       8.031  -8.483 -35.708  1.00  0.00     0.008 A 
ATOM     12  C   UNL     1       7.857  -6.208 -34.889  1.00  0.00     0.008 A 
ATOM     13  C   UNL     1       6.991  -8.236 -36.610  1.00  0.00     0.046 A 
ATOM     14  C   UNL     1       6.817  -5.963 -35.792  1.00  0.00     0.046 A 
ATOM     15  C   UNL     1       6.382  -6.975 -36.654  1.00  0.00     0.115 A 
BRANCH  15  16
ATOM     16  O   UNL     1       5.345  -6.717 -37.548  1.00  0.00    -0.508 OA
ATOM     17  H   UNL     1       4.873  -5.820 -37.567  1.00  0.00     0.293 HD
ENDBRANCH  15  16
ENDBRANCH   1  10
TORSDOF 5
ENDMDL
MODEL 8
REMARK VINA RESULT:    -4.169     19.078     20.382
REMARK INTER + INTRA:          -5.317
REMARK INTER:                  -5.097
REMARK INTRA:                  -0.220
REMARK UNBOUND:                -0.174
REMARK SMILES [NH3+][C@H](Cc1ccc(O)cc1)C(=O)[O-]
REMARK SMILES IDX 3 1 2 2 1 3 11 7 12 8 13 9 4 10 5 11 10 12 6 13 9 14 7 15
REMARK SMILES IDX 8 16
REMARK H PARENT 1 4 1 5 1 6 8 17
REMARK Flexibility Score: inf
ROOT
ATOM      1  C   UNL     1      11.621  -7.521 -35.171  1.00  0.00     0.107 C 
ENDROOT
BRANCH   1   2
ATOM      2  C   UNL     1      12.716  -6.525 -35.616  1.00  0.00     0.232 C 
BRANCH   2   3
ATOM      3  N   UNL     1      13.394  -5.905 -34.468  1.00  0.00    -0.350 N 
ATOM      4  H   UNL     1      12.807  -6.024 -33.610  1.00  0.00     0.345 HD
ATOM      5  H   UNL     1      13.554  -4.885 -34.629  1.00  0.00     0.345 HD
ATOM      6  H   UNL     1      14.313  -6.375 -34.304  1.00  0.00     0.345 HD
ENDBRANCH   2   3
BRANCH   2   7
ATOM      7  C   UNL     1      13.704  -7.170 -36.556  1.00  0.00     0.099 C 
ATOM      8  O   UNL     1      14.932  -6.894 -36.492  1.00  0.00    -0.544 OA
ATOM      9  O   UNL     1      13.265  -8.119 -37.470  1.00  0.00    -0.544 OA
ENDBRANCH   2   7
ENDBRANCH   1   2
BRANCH   1  10
ATOM     10  C   UNL     1      10.227  -7.115 -35.588  1.00  0.00    -0.041 A 
ATOM     11  C   UNL     1       9.886  -7.041 -36.949  1.00  0.00     0.008 A 
ATOM     12  C   UNL     1       9.254  -6.818 -34.619  1.00  0.00     0.008 A 
ATOM     13  C   UNL     1       8.591  -6.679 -37.333  1.00  0.00     0.046 A 
ATOM     14  C   UNL     1       7.960  -6.456 -35.006  1.00  0.00     0.046 A 
ATOM     15  C   UNL     1       7.625  -6.385 -36.362  1.00  0.00     0.115 A 
BRANCH  15  16
ATOM     16  O   UNL     1       6.331  -6.024 -36.732  1.00  0.00    -0.508 OA
ATOM     17  H   UNL     1       5.604  -6.718 -36.860  1.00  0.00     0.293 HD
ENDBRANCH  15  16
ENDBRANCH   1  10
TORSDOF 5
ENDMDL
MODEL 9
REMARK VINA RESULT:    -4.106     18.203     19.677
REMARK INTER + INTRA:          -5.240
REMARK INTER:                  -5.045
REMARK INTRA:                  -0.195
REMARK UNBOUND:                -0.174
REMARK SMILES [NH3+][C@H](Cc1ccc(O)cc1)C(=O)[O-]
REMARK SMILES IDX 3 1 2 2 1 3 11 7 12 8 13 9 4 10 5 11 10 12 6 13 9 14 7 15
REMARK SMILES IDX 8 16
REMARK H PARENT 1 4 1 5 1 6 8 17
REMARK Flexibility Score: inf
ROOT
ATOM      1  C   UNL     1      11.598  -7.498 -34.889  1.00  0.00     0.107 C 
ENDROOT
BRANCH   1   2
ATOM      2  C   UNL     1      11.743  -7.413 -33.353  1.00  0.00     0.232 C 
BRANCH   2   3
ATOM      3  N   UNL     1      12.093  -8.713 -32.761  1.00  0.00    -0.350 N 
ATOM      4  H   UNL     1      12.178  -9.429 -33.519  1.00  0.00     0.345 HD
ATOM      5  H   UNL     1      11.366  -9.028 -32.080  1.00  0.00     0.345 HD
ATOM      6  H   UNL     1      13.014  -8.643 -32.272  1.00  0.00     0.345 HD
ENDBRANCH   2   3
BRANCH   2   7
ATOM      7  C   UNL     1      12.723  -6.342 -32.947  1.00  0.00     0.099 C 
ATOM      8  O   UNL     1      12.498  -5.604 -31.949  1.00  0.00    -0.544 OA
ATOM      9  O   UNL     1      13.914  -6.198 -33.646  1.00  0.00    -0.544 OA
ENDBRANCH   2   7
ENDBRANCH   1   2
BRANCH   1  10
ATOM     10  C   UNL     1      10.222  -7.123 -35.390  1.00  0.00    -0.041 A 
ATOM     11  C   UNL     1       9.211  -6.763 -34.484  1.00  0.00     0.008 A 
ATOM     12  C   UNL     1       9.944  -7.120 -36.767  1.00  0.00     0.008 A 
ATOM     13  C   UNL     1       7.942  -6.401 -34.949  1.00  0.00     0.046 A 
ATOM     14  C   UNL     1       8.675  -6.759 -37.229  1.00  0.00     0.046 A 
ATOM     15  C   UNL     1       7.672  -6.399 -36.324  1.00  0.00     0.115 A 
BRANCH  15  16
ATOM     16  O   UNL     1       6.412  -6.041 -36.799  1.00  0.00    -0.508 OA
ATOM     17  H   UNL     1       5.737  -6.740 -37.087  1.00  0.00     0.293 HD
ENDBRANCH  15  16
ENDBRANCH   1  10
TORSDOF 5
ENDMDL
