MODEL 1
REMARK VINA RESULT:    -4.956      0.000      0.000
REMARK INTER + INTRA:         -16.598
REMARK INTER:                 -13.068
REMARK INTRA:                  -3.530
REMARK UNBOUND:                -3.530
REMARK SMILES CCCCCCCCCCCCCCCCCCCCCCCCCCCCCC(=O)[O-]
REMARK SMILES IDX 16 1 17 2 18 3 19 4 20 5 21 6 22 7 23 8 24 9 25 10 26 11
REMARK SMILES IDX 27 12 28 13 29 14 30 15 31 16 32 17 15 18 14 19 13 20 12 21
REMARK SMILES IDX 11 22 10 23 9 24 8 25 7 26 6 27 5 28 4 29 3 30 2 31 1 32
REMARK H PARENT
REMARK Flexibility Score: inf
ROOT
ATOM      1  C   UNL     1      23.514  -6.451 -36.514  1.00  0.00     0.000 C 
ENDROOT
BRANCH   1   2
ATOM      2  C   UNL     1      23.414  -4.964 -36.116  1.00  0.00     0.000 C 
BRANCH   2   3
ATOM      3  C   UNL     1      21.990  -4.382 -36.129  1.00  0.00     0.000 C 
BRANCH   3   4
ATOM      4  C   UNL     1      21.959  -2.885 -36.485  1.00  0.00     0.000 C 
BRANCH   4   5
ATOM      5  C   UNL     1      21.329  -2.617 -37.862  1.00  0.00     0.000 C 
BRANCH   5   6
ATOM      6  C   UNL     1      20.878  -3.906 -38.570  1.00  0.00     0.000 C 
BRANCH   6   7
ATOM      7  C   UNL     1      21.549  -4.084 -39.942  1.00  0.00     0.000 C 
BRANCH   7   8
ATOM      8  C   UNL     1      22.507  -5.286 -39.979  1.00  0.00     0.000 C 
BRANCH   8   9
ATOM      9  C   UNL     1      23.984  -4.873 -39.854  1.00  0.00     0.000 C 
BRANCH   9  10
ATOM     10  C   UNL     1      24.238  -3.351 -39.838  1.00  0.00     0.000 C 
BRANCH  10  11
ATOM     11  C   UNL     1      25.479  -2.901 -39.045  1.00  0.00     0.000 C 
BRANCH  11  12
ATOM     12  C   UNL     1      25.880  -3.899 -37.946  1.00  0.00     0.000 C 
BRANCH  12  13
ATOM     13  C   UNL     1      27.401  -3.960 -37.733  1.00  0.00     0.006 C 
BRANCH  13  14
ATOM     14  C   UNL     1      28.040  -5.192 -38.392  1.00  0.00     0.053 C 
BRANCH  14  15
ATOM     15  C   UNL     1      27.237  -6.422 -38.100  1.00  0.00     0.041 C 
ATOM     16  O   UNL     1      26.667  -7.042 -39.036  1.00  0.00    -0.550 OA
ATOM     17  O   UNL     1      27.132  -6.891 -36.797  1.00  0.00    -0.550 OA
ENDBRANCH  14  15
ENDBRANCH  13  14
ENDBRANCH  12  13
ENDBRANCH  11  12
ENDBRANCH  10  11
ENDBRANCH   9  10
ENDBRANCH   8   9
ENDBRANCH   7   8
ENDBRANCH   6   7
ENDBRANCH   5   6
ENDBRANCH   4   5
ENDBRANCH   3   4
ENDBRANCH   2   3
ENDBRANCH   1   2
BRANCH   1  18
ATOM     18  C   UNL     1      22.226  -7.065 -37.089  1.00  0.00     0.000 C 
BRANCH  18  19
ATOM     19  C   UNL     1      22.412  -8.392 -37.848  1.00  0.00     0.000 C 
BRANCH  19  20
ATOM     20  C   UNL     1      23.831  -8.598 -38.418  1.00  0.00     0.000 C 
BRANCH  20  21
ATOM     21  C   UNL     1      23.821  -9.086 -39.877  1.00  0.00     0.000 C 
BRANCH  21  22
ATOM     22  C   UNL     1      25.086  -9.883 -40.243  1.00  0.00     0.000 C 
BRANCH  22  23
ATOM     23  C   UNL     1      25.103 -11.278 -39.603  1.00  0.00     0.000 C 
BRANCH  23  24
ATOM     24  C   UNL     1      25.001 -12.376 -40.673  1.00  0.00    -0.000 C 
BRANCH  24  25
ATOM     25  C   UNL     1      24.751 -13.767 -40.069  1.00  0.00    -0.000 C 
BRANCH  25  26
ATOM     26  C   UNL     1      23.913 -14.667 -40.995  1.00  0.00    -0.000 C 
BRANCH  26  27
ATOM     27  C   UNL     1      24.217 -16.161 -40.797  1.00  0.00    -0.000 C 
BRANCH  27  28
ATOM     28  C   UNL     1      24.221 -16.938 -42.123  1.00  0.00    -0.000 C 
BRANCH  28  29
ATOM     29  C   UNL     1      25.080 -18.205 -42.018  1.00  0.00    -0.000 C 
BRANCH  29  30
ATOM     30  C   UNL     1      26.290 -18.181 -42.968  1.00  0.00    -0.000 C 
BRANCH  30  31
ATOM     31  C   UNL     1      27.129 -19.477 -42.934  1.00  0.00    -0.003 C 
ATOM     32  C   UNL     1      26.442 -20.597 -42.154  1.00  0.00     0.004 C 
ENDBRANCH  30  31
ENDBRANCH  29  30
ENDBRANCH  28  29
ENDBRANCH  27  28
ENDBRANCH  26  27
ENDBRANCH  25  26
ENDBRANCH  24  25
ENDBRANCH  23  24
ENDBRANCH  22  23
ENDBRANCH  21  22
ENDBRANCH  20  21
ENDBRANCH  19  20
ENDBRANCH  18  19
ENDBRANCH   1  18
TORSDOF 28
ENDMDL
MODEL 2
REMARK VINA RESULT:    -4.802      1.173      2.795
REMARK INTER + INTRA:         -16.193
REMARK INTER:                 -13.166
REMARK INTRA:                  -3.028
REMARK UNBOUND:                -3.530
REMARK SMILES CCCCCCCCCCCCCCCCCCCCCCCCCCCCCC(=O)[O-]
REMARK SMILES IDX 16 1 17 2 18 3 19 4 20 5 21 6 22 7 23 8 24 9 25 10 26 11
REMARK SMILES IDX 27 12 28 13 29 14 30 15 31 16 32 17 15 18 14 19 13 20 12 21
REMARK SMILES IDX 11 22 10 23 9 24 8 25 7 26 6 27 5 28 4 29 3 30 2 31 1 32
REMARK H PARENT
REMARK Flexibility Score: inf
ROOT
ATOM      1  C   UNL     1      22.834  -8.599 -38.087  1.00  0.00     0.000 C 
ENDROOT
BRANCH   1   2
ATOM      2  C   UNL     1      22.382  -7.236 -37.524  1.00  0.00     0.000 C 
BRANCH   2   3
ATOM      3  C   UNL     1      23.306  -6.637 -36.450  1.00  0.00     0.000 C 
BRANCH   3   4
ATOM      4  C   UNL     1      23.187  -5.107 -36.344  1.00  0.00     0.000 C 
BRANCH   4   5
ATOM      5  C   UNL     1      21.727  -4.629 -36.275  1.00  0.00     0.000 C 
BRANCH   5   6
ATOM      6  C   UNL     1      21.596  -3.101 -36.393  1.00  0.00     0.000 C 
BRANCH   6   7
ATOM      7  C   UNL     1      21.170  -2.658 -37.803  1.00  0.00     0.000 C 
BRANCH   7   8
ATOM      8  C   UNL     1      20.818  -3.846 -38.713  1.00  0.00     0.000 C 
BRANCH   8   9
ATOM      9  C   UNL     1      21.638  -3.860 -40.016  1.00  0.00     0.000 C 
BRANCH   9  10
ATOM     10  C   UNL     1      22.502  -5.120 -40.231  1.00  0.00     0.000 C 
BRANCH  10  11
ATOM     11  C   UNL     1      24.003  -4.944 -39.941  1.00  0.00     0.000 C 
BRANCH  11  12
ATOM     12  C   UNL     1      24.388  -3.484 -39.651  1.00  0.00     0.000 C 
BRANCH  12  13
ATOM     13  C   UNL     1      25.450  -3.363 -38.546  1.00  0.00     0.006 C 
BRANCH  13  14
ATOM     14  C   UNL     1      25.994  -4.728 -38.099  1.00  0.00     0.053 C 
BRANCH  14  15
ATOM     15  C   UNL     1      27.488  -4.695 -38.006  1.00  0.00     0.041 C 
ATOM     16  O   UNL     1      28.105  -5.619 -37.414  1.00  0.00    -0.550 OA
ATOM     17  O   UNL     1      28.199  -3.653 -38.586  1.00  0.00    -0.550 OA
ENDBRANCH  14  15
ENDBRANCH  13  14
ENDBRANCH  12  13
ENDBRANCH  11  12
ENDBRANCH  10  11
ENDBRANCH   9  10
ENDBRANCH   8   9
ENDBRANCH   7   8
ENDBRANCH   6   7
ENDBRANCH   5   6
ENDBRANCH   4   5
ENDBRANCH   3   4
ENDBRANCH   2   3
ENDBRANCH   1   2
BRANCH   1  18
ATOM     18  C   UNL     1      23.971  -8.537 -39.122  1.00  0.00     0.000 C 
BRANCH  18  19
ATOM     19  C   UNL     1      24.981  -9.699 -39.059  1.00  0.00     0.000 C 
BRANCH  19  20
ATOM     20  C   UNL     1      24.926 -10.647 -40.275  1.00  0.00     0.000 C 
BRANCH  20  21
ATOM     21  C   UNL     1      25.296 -12.097 -39.916  1.00  0.00     0.000 C 
BRANCH  21  22
ATOM     22  C   UNL     1      24.577 -13.128 -40.803  1.00  0.00     0.000 C 
BRANCH  22  23
ATOM     23  C   UNL     1      24.563 -14.530 -40.178  1.00  0.00     0.000 C 
BRANCH  23  24
ATOM     24  C   UNL     1      23.396 -15.366 -40.727  1.00  0.00    -0.000 C 
BRANCH  24  25
ATOM     25  C   UNL     1      23.848 -16.385 -41.785  1.00  0.00    -0.000 C 
BRANCH  25  26
ATOM     26  C   UNL     1      24.975 -17.301 -41.275  1.00  0.00    -0.000 C 
BRANCH  26  27
ATOM     27  C   UNL     1      25.687 -18.049 -42.412  1.00  0.00    -0.000 C 
BRANCH  27  28
ATOM     28  C   UNL     1      25.508 -19.572 -42.315  1.00  0.00    -0.000 C 
BRANCH  28  29
ATOM     29  C   UNL     1      26.832 -20.302 -42.576  1.00  0.00    -0.000 C 
BRANCH  29  30
ATOM     30  C   UNL     1      27.966 -19.346 -42.986  1.00  0.00    -0.000 C 
BRANCH  30  31
ATOM     31  C   UNL     1      29.039 -20.006 -43.878  1.00  0.00    -0.003 C 
ATOM     32  C   UNL     1      28.645 -21.415 -44.321  1.00  0.00     0.004 C 
ENDBRANCH  30  31
ENDBRANCH  29  30
ENDBRANCH  28  29
ENDBRANCH  27  28
ENDBRANCH  26  27
ENDBRANCH  25  26
ENDBRANCH  24  25
ENDBRANCH  23  24
ENDBRANCH  22  23
ENDBRANCH  21  22
ENDBRANCH  20  21
ENDBRANCH  19  20
ENDBRANCH  18  19
ENDBRANCH   1  18
TORSDOF 28
ENDMDL
MODEL 3
REMARK VINA RESULT:    -4.744      1.169      2.861
REMARK INTER + INTRA:         -16.040
REMARK INTER:                 -12.863
REMARK INTRA:                  -3.177
REMARK UNBOUND:                -3.530
REMARK SMILES CCCCCCCCCCCCCCCCCCCCCCCCCCCCCC(=O)[O-]
REMARK SMILES IDX 16 1 17 2 18 3 19 4 20 5 21 6 22 7 23 8 24 9 25 10 26 11
REMARK SMILES IDX 27 12 28 13 29 14 30 15 31 16 32 17 15 18 14 19 13 20 12 21
REMARK SMILES IDX 11 22 10 23 9 24 8 25 7 26 6 27 5 28 4 29 3 30 2 31 1 32
REMARK H PARENT
REMARK Flexibility Score: inf
ROOT
ATOM      1  C   UNL     1      22.441  -8.266 -38.042  1.00  0.00     0.000 C 
ENDROOT
BRANCH   1   2
ATOM      2  C   UNL     1      21.742  -7.238 -38.956  1.00  0.00     0.000 C 
BRANCH   2   3
ATOM      3  C   UNL     1      22.687  -6.404 -39.837  1.00  0.00     0.000 C 
BRANCH   3   4
ATOM      4  C   UNL     1      21.950  -5.321 -40.646  1.00  0.00     0.000 C 
BRANCH   4   5
ATOM      5  C   UNL     1      21.862  -3.981 -39.897  1.00  0.00     0.000 C 
BRANCH   5   6
ATOM      6  C   UNL     1      20.434  -3.409 -39.869  1.00  0.00     0.000 C 
BRANCH   6   7
ATOM      7  C   UNL     1      20.100  -2.738 -38.526  1.00  0.00     0.000 C 
BRANCH   7   8
ATOM      8  C   UNL     1      21.356  -2.398 -37.707  1.00  0.00     0.000 C 
BRANCH   8   9
ATOM      9  C   UNL     1      21.127  -2.522 -36.190  1.00  0.00     0.000 C 
BRANCH   9  10
ATOM     10  C   UNL     1      21.942  -3.633 -35.495  1.00  0.00     0.000 C 
BRANCH  10  11
ATOM     11  C   UNL     1      22.299  -4.838 -36.384  1.00  0.00     0.000 C 
BRANCH  11  12
ATOM     12  C   UNL     1      23.811  -5.105 -36.450  1.00  0.00     0.000 C 
BRANCH  12  13
ATOM     13  C   UNL     1      24.554  -4.075 -37.316  1.00  0.00     0.006 C 
BRANCH  13  14
ATOM     14  C   UNL     1      25.420  -4.730 -38.402  1.00  0.00     0.053 C 
BRANCH  14  15
ATOM     15  C   UNL     1      26.694  -5.254 -37.815  1.00  0.00     0.041 C 
ATOM     16  O   UNL     1      26.682  -6.289 -37.099  1.00  0.00    -0.550 OA
ATOM     17  O   UNL     1      27.896  -4.608 -38.073  1.00  0.00    -0.550 OA
ENDBRANCH  14  15
ENDBRANCH  13  14
ENDBRANCH  12  13
ENDBRANCH  11  12
ENDBRANCH  10  11
ENDBRANCH   9  10
ENDBRANCH   8   9
ENDBRANCH   7   8
ENDBRANCH   6   7
ENDBRANCH   5   6
ENDBRANCH   4   5
ENDBRANCH   3   4
ENDBRANCH   2   3
ENDBRANCH   1   2
BRANCH   1  18
ATOM     18  C   UNL     1      23.978  -8.187 -38.021  1.00  0.00     0.000 C 
BRANCH  18  19
ATOM     19  C   UNL     1      24.708  -9.453 -38.507  1.00  0.00     0.000 C 
BRANCH  19  20
ATOM     20  C   UNL     1      25.037  -9.451 -40.015  1.00  0.00     0.000 C 
BRANCH  20  21
ATOM     21  C   UNL     1      24.623 -10.756 -40.716  1.00  0.00     0.000 C 
BRANCH  21  22
ATOM     22  C   UNL     1      25.192 -12.006 -40.022  1.00  0.00     0.000 C 
BRANCH  22  23
ATOM     23  C   UNL     1      24.633 -13.309 -40.611  1.00  0.00     0.000 C 
BRANCH  23  24
ATOM     24  C   UNL     1      24.604 -14.423 -39.554  1.00  0.00    -0.000 C 
BRANCH  24  25
ATOM     25  C   UNL     1      23.974 -15.722 -40.084  1.00  0.00    -0.000 C 
BRANCH  25  26
ATOM     26  C   UNL     1      23.606 -15.630 -41.576  1.00  0.00    -0.000 C 
BRANCH  26  27
ATOM     27  C   UNL     1      24.478 -16.538 -42.456  1.00  0.00    -0.000 C 
BRANCH  27  28
ATOM     28  C   UNL     1      24.730 -17.911 -41.813  1.00  0.00    -0.000 C 
BRANCH  28  29
ATOM     29  C   UNL     1      25.952 -18.597 -42.437  1.00  0.00    -0.000 C 
BRANCH  29  30
ATOM     30  C   UNL     1      26.135 -20.043 -41.946  1.00  0.00    -0.000 C 
BRANCH  30  31
ATOM     31  C   UNL     1      27.288 -20.794 -42.647  1.00  0.00    -0.003 C 
ATOM     32  C   UNL     1      28.399 -19.853 -43.113  1.00  0.00     0.004 C 
ENDBRANCH  30  31
ENDBRANCH  29  30
ENDBRANCH  28  29
ENDBRANCH  27  28
ENDBRANCH  26  27
ENDBRANCH  25  26
ENDBRANCH  24  25
ENDBRANCH  23  24
ENDBRANCH  22  23
ENDBRANCH  21  22
ENDBRANCH  20  21
ENDBRANCH  19  20
ENDBRANCH  18  19
ENDBRANCH   1  18
TORSDOF 28
ENDMDL
MODEL 4
REMARK VINA RESULT:    -4.697      3.702     11.321
REMARK INTER + INTRA:         -15.916
REMARK INTER:                 -12.793
REMARK INTRA:                  -3.123
REMARK UNBOUND:                -3.530
REMARK SMILES CCCCCCCCCCCCCCCCCCCCCCCCCCCCCC(=O)[O-]
REMARK SMILES IDX 16 1 17 2 18 3 19 4 20 5 21 6 22 7 23 8 24 9 25 10 26 11
REMARK SMILES IDX 27 12 28 13 29 14 30 15 31 16 32 17 15 18 14 19 13 20 12 21
REMARK SMILES IDX 11 22 10 23 9 24 8 25 7 26 6 27 5 28 4 29 3 30 2 31 1 32
REMARK H PARENT
REMARK Flexibility Score: inf
ROOT
ATOM      1  C   UNL     1      22.792  -8.283 -38.585  1.00  0.00     0.000 C 
ENDROOT
BRANCH   1   2
ATOM      2  C   UNL     1      24.148  -9.013 -38.510  1.00  0.00     0.000 C 
BRANCH   2   3
ATOM      3  C   UNL     1      24.883  -9.160 -39.853  1.00  0.00     0.000 C 
BRANCH   3   4
ATOM      4  C   UNL     1      24.546 -10.475 -40.579  1.00  0.00     0.000 C 
BRANCH   4   5
ATOM      5  C   UNL     1      25.240 -11.694 -39.949  1.00  0.00     0.000 C 
BRANCH   5   6
ATOM      6  C   UNL     1      24.741 -13.028 -40.530  1.00  0.00     0.000 C 
BRANCH   6   7
ATOM      7  C   UNL     1      24.777 -14.165 -39.495  1.00  0.00     0.000 C 
BRANCH   7   8
ATOM      8  C   UNL     1      23.779 -15.290 -39.819  1.00  0.00     0.000 C 
BRANCH   8   9
ATOM      9  C   UNL     1      23.684 -15.584 -41.326  1.00  0.00     0.000 C 
BRANCH   9  10
ATOM     10  C   UNL     1      24.436 -16.847 -41.795  1.00  0.00     0.000 C 
BRANCH  10  11
ATOM     11  C   UNL     1      25.501 -16.612 -42.882  1.00  0.00     0.000 C 
BRANCH  11  12
ATOM     12  C   UNL     1      26.253 -17.895 -43.270  1.00  0.00     0.000 C 
BRANCH  12  13
ATOM     13  C   UNL     1      26.331 -18.904 -42.113  1.00  0.00     0.006 C 
BRANCH  13  14
ATOM     14  C   UNL     1      26.616 -20.335 -42.595  1.00  0.00     0.053 C 
BRANCH  14  15
ATOM     15  C   UNL     1      28.068 -20.502 -42.920  1.00  0.00     0.041 C 
ATOM     16  O   UNL     1      28.538 -20.017 -43.983  1.00  0.00    -0.550 OA
ATOM     17  O   UNL     1      28.905 -21.179 -42.042  1.00  0.00    -0.550 OA
ENDBRANCH  14  15
ENDBRANCH  13  14
ENDBRANCH  12  13
ENDBRANCH  11  12
ENDBRANCH  10  11
ENDBRANCH   9  10
ENDBRANCH   8   9
ENDBRANCH   7   8
ENDBRANCH   6   7
ENDBRANCH   5   6
ENDBRANCH   4   5
ENDBRANCH   3   4
ENDBRANCH   2   3
ENDBRANCH   1   2
BRANCH   1  18
ATOM     18  C   UNL     1      22.436  -7.429 -37.355  1.00  0.00     0.000 C 
BRANCH  18  19
ATOM     19  C   UNL     1      23.633  -6.761 -36.651  1.00  0.00     0.000 C 
BRANCH  19  20
ATOM     20  C   UNL     1      23.306  -5.394 -36.015  1.00  0.00     0.000 C 
BRANCH  20  21
ATOM     21  C   UNL     1      21.937  -4.846 -36.452  1.00  0.00     0.000 C 
BRANCH  21  22
ATOM     22  C   UNL     1      21.950  -3.322 -36.665  1.00  0.00     0.000 C 
BRANCH  22  23
ATOM     23  C   UNL     1      21.228  -2.905 -37.954  1.00  0.00     0.000 C 
BRANCH  23  24
ATOM     24  C   UNL     1      20.822  -4.134 -38.780  1.00  0.00    -0.000 C 
BRANCH  24  25
ATOM     25  C   UNL     1      21.518  -4.180 -40.150  1.00  0.00    -0.000 C 
BRANCH  25  26
ATOM     26  C   UNL     1      22.844  -4.960 -40.109  1.00  0.00    -0.000 C 
BRANCH  26  27
ATOM     27  C   UNL     1      24.040  -4.071 -39.735  1.00  0.00    -0.000 C 
BRANCH  27  28
ATOM     28  C   UNL     1      25.083  -4.817 -38.889  1.00  0.00    -0.000 C 
BRANCH  28  29
ATOM     29  C   UNL     1      26.116  -3.846 -38.302  1.00  0.00    -0.000 C 
BRANCH  29  30
ATOM     30  C   UNL     1      27.449  -4.533 -37.959  1.00  0.00    -0.000 C 
BRANCH  30  31
ATOM     31  C   UNL     1      27.480  -6.036 -38.312  1.00  0.00    -0.003 C 
ATOM     32  C   UNL     1      27.154  -6.924 -37.111  1.00  0.00     0.004 C 
ENDBRANCH  30  31
ENDBRANCH  29  30
ENDBRANCH  28  29
ENDBRANCH  27  28
ENDBRANCH  26  27
ENDBRANCH  25  26
ENDBRANCH  24  25
ENDBRANCH  23  24
ENDBRANCH  22  23
ENDBRANCH  21  22
ENDBRANCH  20  21
ENDBRANCH  19  20
ENDBRANCH  18  19
ENDBRANCH   1  18
TORSDOF 28
ENDMDL
MODEL 5
REMARK VINA RESULT:    -4.399      1.610      4.228
REMARK INTER + INTRA:         -15.131
REMARK INTER:                 -12.248
REMARK INTRA:                  -2.883
REMARK UNBOUND:                -3.530
REMARK SMILES CCCCCCCCCCCCCCCCCCCCCCCCCCCCCC(=O)[O-]
REMARK SMILES IDX 16 1 17 2 18 3 19 4 20 5 21 6 22 7 23 8 24 9 25 10 26 11
REMARK SMILES IDX 27 12 28 13 29 14 30 15 31 16 32 17 15 18 14 19 13 20 12 21
REMARK SMILES IDX 11 22 10 23 9 24 8 25 7 26 6 27 5 28 4 29 3 30 2 31 1 32
REMARK H PARENT
REMARK Flexibility Score: inf
ROOT
ATOM      1  C   UNL     1      25.620  -7.568 -39.463  1.00  0.00     0.000 C 
ENDROOT
BRANCH   1   2
ATOM      2  C   UNL     1      25.951  -7.822 -37.978  1.00  0.00     0.000 C 
BRANCH   2   3
ATOM      3  C   UNL     1      26.467  -6.594 -37.208  1.00  0.00     0.000 C 
BRANCH   3   4
ATOM      4  C   UNL     1      27.419  -5.720 -38.044  1.00  0.00     0.000 C 
BRANCH   4   5
ATOM      5  C   UNL     1      27.000  -4.241 -38.064  1.00  0.00     0.000 C 
BRANCH   5   6
ATOM      6  C   UNL     1      25.473  -4.056 -38.075  1.00  0.00     0.000 C 
BRANCH   6   7
ATOM      7  C   UNL     1      25.047  -2.749 -38.765  1.00  0.00     0.000 C 
BRANCH   7   8
ATOM      8  C   UNL     1      23.938  -2.010 -37.997  1.00  0.00     0.000 C 
BRANCH   8   9
ATOM      9  C   UNL     1      23.184  -2.925 -37.016  1.00  0.00     0.000 C 
BRANCH   9  10
ATOM     10  C   UNL     1      21.662  -3.018 -37.248  1.00  0.00     0.000 C 
BRANCH  10  11
ATOM     11  C   UNL     1      21.220  -3.006 -38.722  1.00  0.00     0.000 C 
BRANCH  11  12
ATOM     12  C   UNL     1      20.934  -4.413 -39.273  1.00  0.00     0.000 C 
BRANCH  12  13
ATOM     13  C   UNL     1      22.210  -5.254 -39.432  1.00  0.00     0.006 C 
BRANCH  13  14
ATOM     14  C   UNL     1      21.947  -6.760 -39.288  1.00  0.00     0.053 C 
BRANCH  14  15
ATOM     15  C   UNL     1      22.371  -7.243 -37.936  1.00  0.00     0.041 C 
ATOM     16  O   UNL     1      22.669  -6.417 -37.034  1.00  0.00    -0.550 OA
ATOM     17  O   UNL     1      22.421  -8.605 -37.668  1.00  0.00    -0.550 OA
ENDBRANCH  14  15
ENDBRANCH  13  14
ENDBRANCH  12  13
ENDBRANCH  11  12
ENDBRANCH  10  11
ENDBRANCH   9  10
ENDBRANCH   8   9
ENDBRANCH   7   8
ENDBRANCH   6   7
ENDBRANCH   5   6
ENDBRANCH   4   5
ENDBRANCH   3   4
ENDBRANCH   2   3
ENDBRANCH   1   2
BRANCH   1  18
ATOM     18  C   UNL     1      24.970  -8.751 -40.202  1.00  0.00     0.000 C 
BRANCH  18  19
ATOM     19  C   UNL     1      25.054 -10.106 -39.476  1.00  0.00     0.000 C 
BRANCH  19  20
ATOM     20  C   UNL     1      25.010 -11.329 -40.416  1.00  0.00     0.000 C 
BRANCH  20  21
ATOM     21  C   UNL     1      25.089 -12.665 -39.658  1.00  0.00     0.000 C 
BRANCH  21  22
ATOM     22  C   UNL     1      24.631 -13.859 -40.515  1.00  0.00     0.000 C 
BRANCH  22  23
ATOM     23  C   UNL     1      24.058 -15.003 -39.667  1.00  0.00     0.000 C 
BRANCH  23  24
ATOM     24  C   UNL     1      24.271 -16.359 -40.356  1.00  0.00    -0.000 C 
BRANCH  24  25
ATOM     25  C   UNL     1      24.133 -16.272 -41.884  1.00  0.00    -0.000 C 
BRANCH  25  26
ATOM     26  C   UNL     1      24.829 -17.442 -42.604  1.00  0.00    -0.000 C 
BRANCH  26  27
ATOM     27  C   UNL     1      26.091 -17.002 -43.362  1.00  0.00    -0.000 C 
BRANCH  27  28
ATOM     28  C   UNL     1      27.114 -18.138 -43.507  1.00  0.00    -0.000 C 
BRANCH  28  29
ATOM     29  C   UNL     1      26.554 -19.460 -42.966  1.00  0.00    -0.000 C 
BRANCH  29  30
ATOM     30  C   UNL     1      27.558 -20.619 -43.074  1.00  0.00    -0.000 C 
BRANCH  30  31
ATOM     31  C   UNL     1      27.039 -21.946 -42.480  1.00  0.00    -0.003 C 
ATOM     32  C   UNL     1      25.819 -21.746 -41.581  1.00  0.00     0.004 C 
ENDBRANCH  30  31
ENDBRANCH  29  30
ENDBRANCH  28  29
ENDBRANCH  27  28
ENDBRANCH  26  27
ENDBRANCH  25  26
ENDBRANCH  24  25
ENDBRANCH  23  24
ENDBRANCH  22  23
ENDBRANCH  21  22
ENDBRANCH  20  21
ENDBRANCH  19  20
ENDBRANCH  18  19
ENDBRANCH   1  18
TORSDOF 28
ENDMDL
MODEL 6
REMARK VINA RESULT:    -4.369      3.517     11.189
REMARK INTER + INTRA:         -15.051
REMARK INTER:                 -11.787
REMARK INTRA:                  -3.264
REMARK UNBOUND:                -3.530
REMARK SMILES CCCCCCCCCCCCCCCCCCCCCCCCCCCCCC(=O)[O-]
REMARK SMILES IDX 16 1 17 2 18 3 19 4 20 5 21 6 22 7 23 8 24 9 25 10 26 11
REMARK SMILES IDX 27 12 28 13 29 14 30 15 31 16 32 17 15 18 14 19 13 20 12 21
REMARK SMILES IDX 11 22 10 23 9 24 8 25 7 26 6 27 5 28 4 29 3 30 2 31 1 32
REMARK H PARENT
REMARK Flexibility Score: inf
ROOT
ATOM      1  C   UNL     1      26.305  -7.014 -37.626  1.00  0.00     0.000 C 
ENDROOT
BRANCH   1   2
ATOM      2  C   UNL     1      25.919  -7.729 -38.938  1.00  0.00     0.000 C 
BRANCH   2   3
ATOM      3  C   UNL     1      24.901  -8.871 -38.781  1.00  0.00     0.000 C 
BRANCH   3   4
ATOM      4  C   UNL     1      25.394 -10.199 -39.383  1.00  0.00     0.000 C 
BRANCH   4   5
ATOM      5  C   UNL     1      24.656 -10.571 -40.680  1.00  0.00     0.000 C 
BRANCH   5   6
ATOM      6  C   UNL     1      24.660 -12.085 -40.952  1.00  0.00     0.000 C 
BRANCH   6   7
ATOM      7  C   UNL     1      25.018 -12.902 -39.700  1.00  0.00     0.000 C 
BRANCH   7   8
ATOM      8  C   UNL     1      24.555 -14.365 -39.797  1.00  0.00     0.000 C 
BRANCH   8   9
ATOM      9  C   UNL     1      24.236 -14.792 -41.241  1.00  0.00     0.000 C 
BRANCH   9  10
ATOM     10  C   UNL     1      23.403 -16.084 -41.371  1.00  0.00     0.000 C 
BRANCH  10  11
ATOM     11  C   UNL     1      23.801 -17.007 -42.537  1.00  0.00     0.000 C 
BRANCH  11  12
ATOM     12  C   UNL     1      25.323 -17.103 -42.730  1.00  0.00     0.000 C 
BRANCH  12  13
ATOM     13  C   UNL     1      25.925 -18.345 -42.054  1.00  0.00     0.006 C 
BRANCH  13  14
ATOM     14  C   UNL     1      26.333 -19.429 -43.063  1.00  0.00     0.053 C 
BRANCH  14  15
ATOM     15  C   UNL     1      27.798 -19.722 -42.959  1.00  0.00     0.041 C 
ATOM     16  O   UNL     1      28.190 -20.825 -42.496  1.00  0.00    -0.550 OA
ATOM     17  O   UNL     1      28.728 -18.784 -43.388  1.00  0.00    -0.550 OA
ENDBRANCH  14  15
ENDBRANCH  13  14
ENDBRANCH  12  13
ENDBRANCH  11  12
ENDBRANCH  10  11
ENDBRANCH   9  10
ENDBRANCH   8   9
ENDBRANCH   7   8
ENDBRANCH   6   7
ENDBRANCH   5   6
ENDBRANCH   4   5
ENDBRANCH   3   4
ENDBRANCH   2   3
ENDBRANCH   1   2
BRANCH   1  18
ATOM     18  C   UNL     1      27.642  -6.253 -37.662  1.00  0.00     0.000 C 
BRANCH  18  19
ATOM     19  C   UNL     1      27.529  -4.739 -37.926  1.00  0.00     0.000 C 
BRANCH  19  20
ATOM     20  C   UNL     1      26.079  -4.212 -37.962  1.00  0.00     0.000 C 
BRANCH  20  21
ATOM     21  C   UNL     1      25.892  -3.052 -38.955  1.00  0.00     0.000 C 
BRANCH  21  22
ATOM     22  C   UNL     1      24.425  -2.603 -39.070  1.00  0.00     0.000 C 
BRANCH  22  23
ATOM     23  C   UNL     1      23.864  -2.087 -37.737  1.00  0.00     0.000 C 
BRANCH  23  24
ATOM     24  C   UNL     1      22.339  -2.259 -37.678  1.00  0.00    -0.000 C 
BRANCH  24  25
ATOM     25  C   UNL     1      21.844  -2.655 -36.277  1.00  0.00    -0.000 C 
BRANCH  25  26
ATOM     26  C   UNL     1      21.579  -4.167 -36.153  1.00  0.00    -0.000 C 
BRANCH  26  27
ATOM     27  C   UNL     1      22.862  -4.971 -35.894  1.00  0.00    -0.000 C 
BRANCH  27  28
ATOM     28  C   UNL     1      23.247  -5.862 -37.085  1.00  0.00    -0.000 C 
BRANCH  28  29
ATOM     29  C   UNL     1      22.113  -6.832 -37.439  1.00  0.00    -0.000 C 
BRANCH  29  30
ATOM     30  C   UNL     1      21.889  -6.956 -38.955  1.00  0.00    -0.000 C 
BRANCH  30  31
ATOM     31  C   UNL     1      22.665  -5.909 -39.783  1.00  0.00    -0.003 C 
ATOM     32  C   UNL     1      21.781  -4.742 -40.225  1.00  0.00     0.004 C 
ENDBRANCH  30  31
ENDBRANCH  29  30
ENDBRANCH  28  29
ENDBRANCH  27  28
ENDBRANCH  26  27
ENDBRANCH  25  26
ENDBRANCH  24  25
ENDBRANCH  23  24
ENDBRANCH  22  23
ENDBRANCH  21  22
ENDBRANCH  20  21
ENDBRANCH  19  20
ENDBRANCH  18  19
ENDBRANCH   1  18
TORSDOF 28
ENDMDL
MODEL 7
REMARK VINA RESULT:    -4.334      1.635      4.347
REMARK INTER + INTRA:         -14.957
REMARK INTER:                 -12.357
REMARK INTRA:                  -2.600
REMARK UNBOUND:                -3.530
REMARK SMILES CCCCCCCCCCCCCCCCCCCCCCCCCCCCCC(=O)[O-]
REMARK SMILES IDX 16 1 17 2 18 3 19 4 20 5 21 6 22 7 23 8 24 9 25 10 26 11
REMARK SMILES IDX 27 12 28 13 29 14 30 15 31 16 32 17 15 18 14 19 13 20 12 21
REMARK SMILES IDX 11 22 10 23 9 24 8 25 7 26 6 27 5 28 4 29 3 30 2 31 1 32
REMARK H PARENT
REMARK Flexibility Score: inf
ROOT
ATOM      1  C   UNL     1      23.978  -8.371 -38.000  1.00  0.00     0.000 C 
ENDROOT
BRANCH   1   2
ATOM      2  C   UNL     1      24.845  -7.164 -37.586  1.00  0.00     0.000 C 
BRANCH   2   3
ATOM      3  C   UNL     1      25.842  -6.683 -38.655  1.00  0.00     0.000 C 
BRANCH   3   4
ATOM      4  C   UNL     1      27.263  -6.483 -38.099  1.00  0.00     0.000 C 
BRANCH   4   5
ATOM      5  C   UNL     1      27.661  -5.000 -38.009  1.00  0.00     0.000 C 
BRANCH   5   6
ATOM      6  C   UNL     1      26.469  -4.085 -37.681  1.00  0.00     0.000 C 
BRANCH   6   7
ATOM      7  C   UNL     1      26.196  -3.059 -38.793  1.00  0.00     0.000 C 
BRANCH   7   8
ATOM      8  C   UNL     1      24.810  -2.406 -38.669  1.00  0.00     0.000 C 
BRANCH   8   9
ATOM      9  C   UNL     1      23.988  -2.977 -37.499  1.00  0.00     0.000 C 
BRANCH   9  10
ATOM     10  C   UNL     1      22.690  -2.208 -37.176  1.00  0.00     0.000 C 
BRANCH  10  11
ATOM     11  C   UNL     1      21.564  -3.053 -36.554  1.00  0.00     0.000 C 
BRANCH  11  12
ATOM     12  C   UNL     1      21.964  -4.524 -36.349  1.00  0.00     0.000 C 
BRANCH  12  13
ATOM     13  C   UNL     1      21.217  -5.475 -37.297  1.00  0.00     0.006 C 
BRANCH  13  14
ATOM     14  C   UNL     1      21.124  -4.928 -38.729  1.00  0.00     0.053 C 
BRANCH  14  15
ATOM     15  C   UNL     1      21.994  -5.722 -39.655  1.00  0.00     0.041 C 
ATOM     16  O   UNL     1      23.087  -5.246 -40.058  1.00  0.00    -0.550 OA
ATOM     17  O   UNL     1      21.603  -6.992 -40.058  1.00  0.00    -0.550 OA
ENDBRANCH  14  15
ENDBRANCH  13  14
ENDBRANCH  12  13
ENDBRANCH  11  12
ENDBRANCH  10  11
ENDBRANCH   9  10
ENDBRANCH   8   9
ENDBRANCH   7   8
ENDBRANCH   6   7
ENDBRANCH   5   6
ENDBRANCH   4   5
ENDBRANCH   3   4
ENDBRANCH   2   3
ENDBRANCH   1   2
BRANCH   1  18
ATOM     18  C   UNL     1      24.280  -8.949 -39.394  1.00  0.00     0.000 C 
BRANCH  18  19
ATOM     19  C   UNL     1      25.269 -10.130 -39.415  1.00  0.00     0.000 C 
BRANCH  19  20
ATOM     20  C   UNL     1      25.004 -11.153 -40.540  1.00  0.00     0.000 C 
BRANCH  20  21
ATOM     21  C   UNL     1      25.016 -12.607 -40.036  1.00  0.00     0.000 C 
BRANCH  21  22
ATOM     22  C   UNL     1      24.328 -13.576 -41.013  1.00  0.00     0.000 C 
BRANCH  22  23
ATOM     23  C   UNL     1      24.224 -15.000 -40.448  1.00  0.00     0.000 C 
BRANCH  23  24
ATOM     24  C   UNL     1      23.149 -15.809 -41.189  1.00  0.00    -0.000 C 
BRANCH  24  25
ATOM     25  C   UNL     1      23.737 -16.689 -42.304  1.00  0.00    -0.000 C 
BRANCH  25  26
ATOM     26  C   UNL     1      25.223 -17.017 -42.071  1.00  0.00    -0.000 C 
BRANCH  26  27
ATOM     27  C   UNL     1      25.426 -18.370 -41.372  1.00  0.00    -0.000 C 
BRANCH  27  28
ATOM     28  C   UNL     1      25.404 -19.549 -42.358  1.00  0.00    -0.000 C 
BRANCH  28  29
ATOM     29  C   UNL     1      26.202 -20.740 -41.812  1.00  0.00    -0.000 C 
BRANCH  29  30
ATOM     30  C   UNL     1      27.471 -21.029 -42.631  1.00  0.00    -0.000 C 
BRANCH  30  31
ATOM     31  C   UNL     1      27.907 -19.855 -43.533  1.00  0.00    -0.003 C 
ATOM     32  C   UNL     1      29.090 -19.080 -42.953  1.00  0.00     0.004 C 
ENDBRANCH  30  31
ENDBRANCH  29  30
ENDBRANCH  28  29
ENDBRANCH  27  28
ENDBRANCH  26  27
ENDBRANCH  25  26
ENDBRANCH  24  25
ENDBRANCH  23  24
ENDBRANCH  22  23
ENDBRANCH  21  22
ENDBRANCH  20  21
ENDBRANCH  19  20
ENDBRANCH  18  19
ENDBRANCH   1  18
TORSDOF 28
ENDMDL
MODEL 8
REMARK VINA RESULT:    -4.304      3.895     11.230
REMARK INTER + INTRA:         -14.880
REMARK INTER:                 -11.719
REMARK INTRA:                  -3.162
REMARK UNBOUND:                -3.530
REMARK SMILES CCCCCCCCCCCCCCCCCCCCCCCCCCCCCC(=O)[O-]
REMARK SMILES IDX 16 1 17 2 18 3 19 4 20 5 21 6 22 7 23 8 24 9 25 10 26 11
REMARK SMILES IDX 27 12 28 13 29 14 30 15 31 16 32 17 15 18 14 19 13 20 12 21
REMARK SMILES IDX 11 22 10 23 9 24 8 25 7 26 6 27 5 28 4 29 3 30 2 31 1 32
REMARK H PARENT
REMARK Flexibility Score: inf
ROOT
ATOM      1  C   UNL     1      25.914  -6.088 -37.349  1.00  0.00     0.000 C 
ENDROOT
BRANCH   1   2
ATOM      2  C   UNL     1      26.404  -7.393 -38.010  1.00  0.00     0.000 C 
BRANCH   2   3
ATOM      3  C   UNL     1      25.515  -7.917 -39.152  1.00  0.00     0.000 C 
BRANCH   3   4
ATOM      4  C   UNL     1      25.006  -9.348 -38.904  1.00  0.00     0.000 C 
BRANCH   4   5
ATOM      5  C   UNL     1      24.985 -10.199 -40.185  1.00  0.00     0.000 C 
BRANCH   5   6
ATOM      6  C   UNL     1      25.395 -11.660 -39.934  1.00  0.00     0.000 C 
BRANCH   6   7
ATOM      7  C   UNL     1      24.663 -12.640 -40.867  1.00  0.00     0.000 C 
BRANCH   7   8
ATOM      8  C   UNL     1      24.676 -14.083 -40.335  1.00  0.00     0.000 C 
BRANCH   8   9
ATOM      9  C   UNL     1      23.649 -14.985 -41.042  1.00  0.00     0.000 C 
BRANCH   9  10
ATOM     10  C   UNL     1      23.998 -16.488 -41.051  1.00  0.00     0.000 C 
BRANCH  10  11
ATOM     11  C   UNL     1      24.709 -16.990 -42.321  1.00  0.00     0.000 C 
BRANCH  11  12
ATOM     12  C   UNL     1      25.838 -17.988 -42.020  1.00  0.00     0.000 C 
BRANCH  12  13
ATOM     13  C   UNL     1      26.628 -18.382 -43.278  1.00  0.00     0.006 C 
BRANCH  13  14
ATOM     14  C   UNL     1      27.874 -19.220 -42.956  1.00  0.00     0.053 C 
BRANCH  14  15
ATOM     15  C   UNL     1      27.595 -20.678 -43.151  1.00  0.00     0.041 C 
ATOM     16  O   UNL     1      26.930 -21.315 -42.293  1.00  0.00    -0.550 OA
ATOM     17  O   UNL     1      28.057 -21.328 -44.288  1.00  0.00    -0.550 OA
ENDBRANCH  14  15
ENDBRANCH  13  14
ENDBRANCH  12  13
ENDBRANCH  11  12
ENDBRANCH  10  11
ENDBRANCH   9  10
ENDBRANCH   8   9
ENDBRANCH   7   8
ENDBRANCH   6   7
ENDBRANCH   5   6
ENDBRANCH   4   5
ENDBRANCH   3   4
ENDBRANCH   2   3
ENDBRANCH   1   2
BRANCH   1  18
ATOM     18  C   UNL     1      26.356  -4.791 -38.051  1.00  0.00     0.000 C 
BRANCH  18  19
ATOM     19  C   UNL     1      25.288  -4.129 -38.940  1.00  0.00     0.000 C 
BRANCH  19  20
ATOM     20  C   UNL     1      25.132  -2.610 -38.713  1.00  0.00     0.000 C 
BRANCH  20  21
ATOM     21  C   UNL     1      23.853  -2.253 -37.936  1.00  0.00     0.000 C 
BRANCH  21  22
ATOM     22  C   UNL     1      23.511  -3.291 -36.852  1.00  0.00     0.000 C 
BRANCH  22  23
ATOM     23  C   UNL     1      22.012  -3.323 -36.524  1.00  0.00     0.000 C 
BRANCH  23  24
ATOM     24  C   UNL     1      21.280  -2.141 -37.177  1.00  0.00    -0.000 C 
BRANCH  24  25
ATOM     25  C   UNL     1      20.241  -2.592 -38.217  1.00  0.00    -0.000 C 
BRANCH  25  26
ATOM     26  C   UNL     1      20.492  -4.028 -38.713  1.00  0.00    -0.000 C 
BRANCH  26  27
ATOM     27  C   UNL     1      20.740  -4.093 -40.228  1.00  0.00    -0.000 C 
BRANCH  27  28
ATOM     28  C   UNL     1      22.080  -4.760 -40.575  1.00  0.00    -0.000 C 
BRANCH  28  29
ATOM     29  C   UNL     1      22.530  -5.710 -39.457  1.00  0.00    -0.000 C 
BRANCH  29  30
ATOM     30  C   UNL     1      21.935  -7.121 -39.602  1.00  0.00    -0.000 C 
BRANCH  30  31
ATOM     31  C   UNL     1      22.027  -7.967 -38.314  1.00  0.00    -0.003 C 
ATOM     32  C   UNL     1      22.417  -7.132 -37.093  1.00  0.00     0.004 C 
ENDBRANCH  30  31
ENDBRANCH  29  30
ENDBRANCH  28  29
ENDBRANCH  27  28
ENDBRANCH  26  27
ENDBRANCH  25  26
ENDBRANCH  24  25
ENDBRANCH  23  24
ENDBRANCH  22  23
ENDBRANCH  21  22
ENDBRANCH  20  21
ENDBRANCH  19  20
ENDBRANCH  18  19
ENDBRANCH   1  18
TORSDOF 28
ENDMDL
MODEL 9
REMARK VINA RESULT:    -4.304      3.743     11.505
REMARK INTER + INTRA:         -14.879
REMARK INTER:                 -11.895
REMARK INTRA:                  -2.984
REMARK UNBOUND:                -3.530
REMARK SMILES CCCCCCCCCCCCCCCCCCCCCCCCCCCCCC(=O)[O-]
REMARK SMILES IDX 16 1 17 2 18 3 19 4 20 5 21 6 22 7 23 8 24 9 25 10 26 11
REMARK SMILES IDX 27 12 28 13 29 14 30 15 31 16 32 17 15 18 14 19 13 20 12 21
REMARK SMILES IDX 11 22 10 23 9 24 8 25 7 26 6 27 5 28 4 29 3 30 2 31 1 32
REMARK H PARENT
REMARK Flexibility Score: inf
ROOT
ATOM      1  C   UNL     1      25.760  -7.147 -37.516  1.00  0.00     0.000 C 
ENDROOT
BRANCH   1   2
ATOM      2  C   UNL     1      25.428  -7.688 -38.922  1.00  0.00     0.000 C 
BRANCH   2   3
ATOM      3  C   UNL     1      24.956  -9.152 -38.961  1.00  0.00     0.000 C 
BRANCH   3   4
ATOM      4  C   UNL     1      24.156  -9.489 -40.231  1.00  0.00     0.000 C 
BRANCH   4   5
ATOM      5  C   UNL     1      24.544 -10.851 -40.831  1.00  0.00     0.000 C 
BRANCH   5   6
ATOM      6  C   UNL     1      25.535 -11.628 -39.949  1.00  0.00     0.000 C 
BRANCH   6   7
ATOM      7  C   UNL     1      24.973 -12.987 -39.497  1.00  0.00     0.000 C 
BRANCH   7   8
ATOM      8  C   UNL     1      24.586 -13.889 -40.681  1.00  0.00     0.000 C 
BRANCH   8   9
ATOM      9  C   UNL     1      23.993 -15.236 -40.232  1.00  0.00     0.000 C 
BRANCH   9  10
ATOM     10  C   UNL     1      23.311 -16.054 -41.348  1.00  0.00     0.000 C 
BRANCH  10  11
ATOM     11  C   UNL     1      24.270 -16.747 -42.334  1.00  0.00     0.000 C 
BRANCH  11  12
ATOM     12  C   UNL     1      25.313 -17.631 -41.631  1.00  0.00     0.000 C 
BRANCH  12  13
ATOM     13  C   UNL     1      26.237 -18.354 -42.624  1.00  0.00     0.006 C 
BRANCH  13  14
ATOM     14  C   UNL     1      26.223 -19.879 -42.440  1.00  0.00     0.053 C 
BRANCH  14  15
ATOM     15  C   UNL     1      27.517 -20.477 -42.897  1.00  0.00     0.041 C 
ATOM     16  O   UNL     1      28.534 -20.425 -42.156  1.00  0.00    -0.550 OA
ATOM     17  O   UNL     1      27.596 -21.106 -44.133  1.00  0.00    -0.550 OA
ENDBRANCH  14  15
ENDBRANCH  13  14
ENDBRANCH  12  13
ENDBRANCH  11  12
ENDBRANCH  10  11
ENDBRANCH   9  10
ENDBRANCH   8   9
ENDBRANCH   7   8
ENDBRANCH   6   7
ENDBRANCH   5   6
ENDBRANCH   4   5
ENDBRANCH   3   4
ENDBRANCH   2   3
ENDBRANCH   1   2
BRANCH   1  18
ATOM     18  C   UNL     1      27.220  -6.708 -37.310  1.00  0.00     0.000 C 
BRANCH  18  19
ATOM     19  C   UNL     1      27.785  -5.774 -38.397  1.00  0.00     0.000 C 
BRANCH  19  20
ATOM     20  C   UNL     1      28.008  -4.321 -37.926  1.00  0.00     0.000 C 
BRANCH  20  21
ATOM     21  C   UNL     1      27.029  -3.328 -38.577  1.00  0.00     0.000 C 
BRANCH  21  22
ATOM     22  C   UNL     1      25.558  -3.738 -38.386  1.00  0.00     0.000 C 
BRANCH  22  23
ATOM     23  C   UNL     1      24.679  -3.334 -39.578  1.00  0.00     0.000 C 
BRANCH  23  24
ATOM     24  C   UNL     1      23.229  -3.086 -39.134  1.00  0.00    -0.000 C 
BRANCH  24  25
ATOM     25  C   UNL     1      22.229  -4.014 -39.840  1.00  0.00    -0.000 C 
BRANCH  25  26
ATOM     26  C   UNL     1      22.724  -5.470 -39.906  1.00  0.00    -0.000 C 
BRANCH  26  27
ATOM     27  C   UNL     1      21.988  -6.389 -38.918  1.00  0.00    -0.000 C 
BRANCH  27  28
ATOM     28  C   UNL     1      21.580  -5.657 -37.630  1.00  0.00    -0.000 C 
BRANCH  28  29
ATOM     29  C   UNL     1      22.672  -5.774 -36.558  1.00  0.00    -0.000 C 
BRANCH  29  30
ATOM     30  C   UNL     1      22.980  -4.430 -35.877  1.00  0.00    -0.000 C 
BRANCH  30  31
ATOM     31  C   UNL     1      21.727  -3.705 -35.341  1.00  0.00    -0.003 C 
ATOM     32  C   UNL     1      21.364  -2.474 -36.172  1.00  0.00     0.004 C 
ENDBRANCH  30  31
ENDBRANCH  29  30
ENDBRANCH  28  29
ENDBRANCH  27  28
ENDBRANCH  26  27
ENDBRANCH  25  26
ENDBRANCH  24  25
ENDBRANCH  23  24
ENDBRANCH  22  23
ENDBRANCH  21  22
ENDBRANCH  20  21
ENDBRANCH  19  20
ENDBRANCH  18  19
ENDBRANCH   1  18
TORSDOF 28
ENDMDL
