MODEL 1
REMARK VINA RESULT:    -4.217      0.000      0.000
REMARK INTER + INTRA:          -4.617
REMARK INTER:                  -4.464
REMARK INTRA:                  -0.153
REMARK UNBOUND:                -0.153
REMARK SMILES CC(C)[C@@H]1CC[C@@H](C)CC1=O
REMARK SMILES IDX 8 1 7 2 6 3 5 4 4 5 10 6 11 7 9 8 2 9 1 10 3 11
REMARK H PARENT
REMARK Flexibility Score: inf
ROOT
ATOM      1  C   UNL     1       7.266  -1.692   2.840  1.00  0.00     0.008 C 
ATOM      2  C   UNL     1       7.152  -2.764   1.752  1.00  0.00    -0.007 C 
ATOM      3  C   UNL     1       7.073  -4.169   2.383  1.00  0.00     0.004 C 
ATOM      4  C   UNL     1       6.921  -5.244   1.297  1.00  0.00     0.012 C 
ATOM      5  C   UNL     1       8.109  -5.221   0.308  1.00  0.00     0.058 C 
ATOM      6  C   UNL     1       8.306  -3.805  -0.213  1.00  0.00     0.136 C 
ATOM      7  O   UNL     1       8.539  -3.578  -1.390  1.00  0.00    -0.299 OA
ATOM      8  C   UNL     1       8.338  -2.669   0.775  1.00  0.00     0.079 C 
ENDROOT
BRANCH   5   9
ATOM      9  C   UNL     1       7.975  -6.336  -0.776  1.00  0.00    -0.007 C 
ATOM     10  C   UNL     1       9.304  -7.013  -1.160  1.00  0.00     0.008 C 
ATOM     11  C   UNL     1       6.925  -7.391  -0.391  1.00  0.00     0.008 C 
ENDBRANCH   5   9
TORSDOF 1
ENDMDL
MODEL 2
REMARK VINA RESULT:    -4.150      8.726      9.881
REMARK INTER + INTRA:          -4.546
REMARK INTER:                  -4.370
REMARK INTRA:                  -0.176
REMARK UNBOUND:                -0.153
REMARK SMILES CC(C)[C@@H]1CC[C@@H](C)CC1=O
REMARK SMILES IDX 8 1 7 2 6 3 5 4 4 5 10 6 11 7 9 8 2 9 1 10 3 11
REMARK H PARENT
REMARK Flexibility Score: inf
ROOT
ATOM      1  C   UNL     1      12.095   4.545  -5.221  1.00  0.00     0.008 C 
ATOM      2  C   UNL     1      11.514   3.259  -5.817  1.00  0.00    -0.007 C 
ATOM      3  C   UNL     1      10.463   3.589  -6.897  1.00  0.00     0.004 C 
ATOM      4  C   UNL     1       9.906   2.303  -7.524  1.00  0.00     0.012 C 
ATOM      5  C   UNL     1       9.244   1.397  -6.461  1.00  0.00     0.058 C 
ATOM      6  C   UNL     1      10.211   1.182  -5.305  1.00  0.00     0.136 C 
ATOM      7  O   UNL     1      10.359   0.087  -4.785  1.00  0.00    -0.299 OA
ATOM      8  C   UNL     1      10.904   2.379  -4.711  1.00  0.00     0.079 C 
ENDROOT
BRANCH   5   9
ATOM      9  C   UNL     1       8.645   0.104  -7.101  1.00  0.00    -0.007 C 
ATOM     10  C   UNL     1       7.190   0.250  -7.585  1.00  0.00     0.008 C 
ATOM     11  C   UNL     1       9.535  -0.446  -8.227  1.00  0.00     0.008 C 
ENDBRANCH   5   9
TORSDOF 1
ENDMDL
MODEL 3
REMARK VINA RESULT:    -4.070      1.710      4.494
REMARK INTER + INTRA:          -4.461
REMARK INTER:                  -4.297
REMARK INTRA:                  -0.164
REMARK UNBOUND:                -0.153
REMARK SMILES CC(C)[C@@H]1CC[C@@H](C)CC1=O
REMARK SMILES IDX 8 1 7 2 6 3 5 4 4 5 10 6 11 7 9 8 2 9 1 10 3 11
REMARK H PARENT
REMARK Flexibility Score: inf
ROOT
ATOM      1  C   UNL     1       9.352  -4.959  -2.150  1.00  0.00     0.008 C 
ATOM      2  C   UNL     1       8.460  -4.386  -1.044  1.00  0.00    -0.007 C 
ATOM      3  C   UNL     1       9.225  -3.324  -0.227  1.00  0.00     0.004 C 
ATOM      4  C   UNL     1       8.324  -2.720   0.859  1.00  0.00     0.012 C 
ATOM      5  C   UNL     1       7.806  -3.804   1.831  1.00  0.00     0.058 C 
ATOM      6  C   UNL     1       7.181  -4.941   1.037  1.00  0.00     0.136 C 
ATOM      7  O   UNL     1       6.134  -5.468   1.381  1.00  0.00    -0.299 OA
ATOM      8  C   UNL     1       7.943  -5.511  -0.130  1.00  0.00     0.079 C 
ENDROOT
BRANCH   5   9
ATOM      9  C   UNL     1       6.918  -3.188   2.958  1.00  0.00    -0.007 C 
ATOM     10  C   UNL     1       7.277  -3.656   4.380  1.00  0.00     0.008 C 
ATOM     11  C   UNL     1       6.884  -1.652   2.888  1.00  0.00     0.008 C 
ENDBRANCH   5   9
TORSDOF 1
ENDMDL
MODEL 4
REMARK VINA RESULT:    -3.981      9.220     10.548
REMARK INTER + INTRA:          -4.366
REMARK INTER:                  -4.198
REMARK INTRA:                  -0.168
REMARK UNBOUND:                -0.153
REMARK SMILES CC(C)[C@@H]1CC[C@@H](C)CC1=O
REMARK SMILES IDX 8 1 7 2 6 3 5 4 4 5 10 6 11 7 9 8 2 9 1 10 3 11
REMARK H PARENT
REMARK Flexibility Score: inf
ROOT
ATOM      1  C   UNL     1       5.388   1.008 -10.237  1.00  0.00     0.008 C 
ATOM      2  C   UNL     1       6.669   0.637  -9.483  1.00  0.00    -0.007 C 
ATOM      3  C   UNL     1       6.352   0.304  -8.010  1.00  0.00     0.004 C 
ATOM      4  C   UNL     1       7.628  -0.105  -7.259  1.00  0.00     0.012 C 
ATOM      5  C   UNL     1       8.686   1.022  -7.287  1.00  0.00     0.058 C 
ATOM      6  C   UNL     1       8.903   1.477  -8.723  1.00  0.00     0.136 C 
ATOM      7  O   UNL     1      10.020   1.702  -9.165  1.00  0.00    -0.299 OA
ATOM      8  C   UNL     1       7.700   1.777  -9.576  1.00  0.00     0.079 C 
ENDROOT
BRANCH   5   9
ATOM      9  C   UNL     1       9.970   0.623  -6.494  1.00  0.00    -0.007 C 
ATOM     10  C   UNL     1      10.259   1.505  -5.265  1.00  0.00     0.008 C 
ATOM     11  C   UNL     1       9.966  -0.864  -6.102  1.00  0.00     0.008 C 
ENDBRANCH   5   9
TORSDOF 1
ENDMDL
MODEL 5
REMARK VINA RESULT:    -3.968      9.949     11.355
REMARK INTER + INTRA:          -4.353
REMARK INTER:                  -4.177
REMARK INTRA:                  -0.176
REMARK UNBOUND:                -0.153
REMARK SMILES CC(C)[C@@H]1CC[C@@H](C)CC1=O
REMARK SMILES IDX 8 1 7 2 6 3 5 4 4 5 10 6 11 7 9 8 2 9 1 10 3 11
REMARK H PARENT
REMARK Flexibility Score: inf
ROOT
ATOM      1  C   UNL     1       5.548  -0.548  -8.415  1.00  0.00     0.008 C 
ATOM      2  C   UNL     1       6.991  -0.056  -8.573  1.00  0.00    -0.007 C 
ATOM      3  C   UNL     1       7.586   0.326  -7.202  1.00  0.00     0.004 C 
ATOM      4  C   UNL     1       9.044   0.784  -7.351  1.00  0.00     0.012 C 
ATOM      5  C   UNL     1       9.160   2.005  -8.291  1.00  0.00     0.058 C 
ATOM      6  C   UNL     1       8.443   1.708  -9.599  1.00  0.00     0.136 C 
ATOM      7  O   UNL     1       8.922   2.015 -10.680  1.00  0.00    -0.299 OA
ATOM      8  C   UNL     1       7.052   1.134  -9.547  1.00  0.00     0.079 C 
ENDROOT
BRANCH   5   9
ATOM      9  C   UNL     1      10.637   2.495  -8.416  1.00  0.00    -0.007 C 
ATOM     10  C   UNL     1      11.055   3.534  -7.359  1.00  0.00     0.008 C 
ATOM     11  C   UNL     1      11.632   1.322  -8.443  1.00  0.00     0.008 C 
ENDBRANCH   5   9
TORSDOF 1
ENDMDL
MODEL 6
REMARK VINA RESULT:    -3.961      1.847      2.634
REMARK INTER + INTRA:          -4.345
REMARK INTER:                  -4.182
REMARK INTRA:                  -0.163
REMARK UNBOUND:                -0.153
REMARK SMILES CC(C)[C@@H]1CC[C@@H](C)CC1=O
REMARK SMILES IDX 8 1 7 2 6 3 5 4 4 5 10 6 11 7 9 8 2 9 1 10 3 11
REMARK H PARENT
REMARK Flexibility Score: inf
ROOT
ATOM      1  C   UNL     1       7.827  -1.639   3.114  1.00  0.00     0.008 C 
ATOM      2  C   UNL     1       8.047  -3.011   2.470  1.00  0.00    -0.007 C 
ATOM      3  C   UNL     1       7.679  -2.972   0.973  1.00  0.00     0.004 C 
ATOM      4  C   UNL     1       7.933  -4.336   0.314  1.00  0.00     0.012 C 
ATOM      5  C   UNL     1       7.106  -5.453   0.990  1.00  0.00     0.058 C 
ATOM      6  C   UNL     1       7.335  -5.413   2.494  1.00  0.00     0.136 C 
ATOM      7  O   UNL     1       7.497  -6.432   3.148  1.00  0.00    -0.299 OA
ATOM      8  C   UNL     1       7.232  -4.090   3.206  1.00  0.00     0.079 C 
ENDROOT
BRANCH   5   9
ATOM      9  C   UNL     1       7.336  -6.835   0.299  1.00  0.00    -0.007 C 
ATOM     10  C   UNL     1       6.045  -7.625   0.014  1.00  0.00     0.008 C 
ATOM     11  C   UNL     1       8.183  -6.706  -0.977  1.00  0.00     0.008 C 
ENDBRANCH   5   9
TORSDOF 1
ENDMDL
MODEL 7
REMARK VINA RESULT:    -3.950      1.047      4.287
REMARK INTER + INTRA:          -4.334
REMARK INTER:                  -4.191
REMARK INTRA:                  -0.143
REMARK UNBOUND:                -0.153
REMARK SMILES CC(C)[C@@H]1CC[C@@H](C)CC1=O
REMARK SMILES IDX 8 1 7 2 6 3 5 4 4 5 10 6 11 7 9 8 2 9 1 10 3 11
REMARK H PARENT
REMARK Flexibility Score: inf
ROOT
ATOM      1  C   UNL     1       8.026  -6.878  -1.210  1.00  0.00     0.008 C 
ATOM      2  C   UNL     1       8.278  -5.734  -0.223  1.00  0.00    -0.007 C 
ATOM      3  C   UNL     1       7.170  -5.688   0.848  1.00  0.00     0.004 C 
ATOM      4  C   UNL     1       7.438  -4.566   1.861  1.00  0.00     0.012 C 
ATOM      5  C   UNL     1       7.505  -3.185   1.171  1.00  0.00     0.058 C 
ATOM      6  C   UNL     1       8.482  -3.248   0.006  1.00  0.00     0.136 C 
ATOM      7  O   UNL     1       9.280  -2.348  -0.214  1.00  0.00    -0.299 OA
ATOM      8  C   UNL     1       8.374  -4.390  -0.969  1.00  0.00     0.079 C 
ENDROOT
BRANCH   5   9
ATOM      9  C   UNL     1       7.742  -2.038   2.203  1.00  0.00    -0.007 C 
ATOM     10  C   UNL     1       6.482  -1.605   2.975  1.00  0.00     0.008 C 
ATOM     11  C   UNL     1       8.885  -2.368   3.178  1.00  0.00     0.008 C 
ENDBRANCH   5   9
TORSDOF 1
ENDMDL
MODEL 8
REMARK VINA RESULT:    -3.937     13.994     14.964
REMARK INTER + INTRA:          -4.320
REMARK INTER:                  -4.248
REMARK INTRA:                  -0.073
REMARK UNBOUND:                -0.153
REMARK SMILES CC(C)[C@@H]1CC[C@@H](C)CC1=O
REMARK SMILES IDX 8 1 7 2 6 3 5 4 4 5 10 6 11 7 9 8 2 9 1 10 3 11
REMARK H PARENT
REMARK Flexibility Score: inf
ROOT
ATOM      1  C   UNL     1      -5.502  -1.712   6.326  1.00  0.00     0.008 C 
ATOM      2  C   UNL     1      -5.667  -3.224   6.511  1.00  0.00    -0.007 C 
ATOM      3  C   UNL     1      -4.435  -3.974   5.966  1.00  0.00     0.004 C 
ATOM      4  C   UNL     1      -4.580  -5.487   6.183  1.00  0.00     0.012 C 
ATOM      5  C   UNL     1      -5.839  -6.041   5.479  1.00  0.00     0.058 C 
ATOM      6  C   UNL     1      -7.051  -5.215   5.883  1.00  0.00     0.136 C 
ATOM      7  O   UNL     1      -8.123  -5.734   6.153  1.00  0.00    -0.299 OA
ATOM      8  C   UNL     1      -6.955  -3.714   5.823  1.00  0.00     0.079 C 
ENDROOT
BRANCH   5   9
ATOM      9  C   UNL     1      -5.970  -7.586   5.668  1.00  0.00    -0.007 C 
ATOM     10  C   UNL     1      -6.759  -8.299   4.554  1.00  0.00     0.008 C 
ATOM     11  C   UNL     1      -4.602  -8.258   5.876  1.00  0.00     0.008 C 
ENDBRANCH   5   9
TORSDOF 1
ENDMDL
MODEL 9
REMARK VINA RESULT:    -3.913      9.445     10.506
REMARK INTER + INTRA:          -4.294
REMARK INTER:                  -4.172
REMARK INTRA:                  -0.123
REMARK UNBOUND:                -0.153
REMARK SMILES CC(C)[C@@H]1CC[C@@H](C)CC1=O
REMARK SMILES IDX 8 1 7 2 6 3 5 4 4 5 10 6 11 7 9 8 2 9 1 10 3 11
REMARK H PARENT
REMARK Flexibility Score: inf
ROOT
ATOM      1  C   UNL     1      11.178   3.220  -7.125  1.00  0.00     0.008 C 
ATOM      2  C   UNL     1       9.868   2.524  -7.508  1.00  0.00    -0.007 C 
ATOM      3  C   UNL     1       9.555   1.378  -6.525  1.00  0.00     0.004 C 
ATOM      4  C   UNL     1       8.224   0.702  -6.883  1.00  0.00     0.012 C 
ATOM      5  C   UNL     1       8.252   0.122  -8.315  1.00  0.00     0.058 C 
ATOM      6  C   UNL     1       8.709   1.198  -9.289  1.00  0.00     0.136 C 
ATOM      7  O   UNL     1       8.170   1.355 -10.374  1.00  0.00    -0.299 OA
ATOM      8  C   UNL     1       9.938   2.001  -8.954  1.00  0.00     0.079 C 
ENDROOT
BRANCH   5   9
ATOM      9  C   UNL     1       6.912  -0.598  -8.670  1.00  0.00    -0.007 C 
ATOM     10  C   UNL     1       6.746  -1.987  -8.028  1.00  0.00     0.008 C 
ATOM     11  C   UNL     1       5.689   0.285  -8.370  1.00  0.00     0.008 C 
ENDBRANCH   5   9
TORSDOF 1
ENDMDL
