MODEL 1
REMARK VINA RESULT:    -2.824      0.000      0.000
REMARK INTER + INTRA:          -2.824
REMARK INTER:                  -2.824
REMARK INTRA:                   0.000
REMARK UNBOUND:                 0.000
REMARK SMILES c1cc[nH]c1
REMARK SMILES IDX 1 1 5 2 4 3 3 4 2 5
REMARK H PARENT 4 6
REMARK Flexibility Score: inf
ROOT
ATOM      1  C   UNL     1     173.210 170.571 197.742  1.00  0.00     0.019 A 
ATOM      2  C   UNL     1     173.302 171.947 197.781  1.00  0.00     0.082 A 
ATOM      3  N   UNL     1     174.306 172.363 196.990  1.00  0.00    -0.368 N 
ATOM      4  C   UNL     1     174.861 171.266 196.444  1.00  0.00     0.082 A 
ATOM      5  C   UNL     1     174.205 170.136 196.889  1.00  0.00     0.019 A 
ATOM      6  H   UNL     1     174.600 173.351 196.830  1.00  0.00     0.165 HD
ENDROOT
TORSDOF 0
ENDMDL
MODEL 2
REMARK VINA RESULT:    -2.816     18.556     19.217
REMARK INTER + INTRA:          -2.816
REMARK INTER:                  -2.816
REMARK INTRA:                   0.000
REMARK UNBOUND:                 0.000
REMARK SMILES c1cc[nH]c1
REMARK SMILES IDX 1 1 5 2 4 3 3 4 2 5
REMARK H PARENT 4 6
REMARK Flexibility Score: inf
ROOT
ATOM      1  C   UNL     1     158.764 161.460 197.749  1.00  0.00     0.019 A 
ATOM      2  C   UNL     1     158.691 160.083 197.777  1.00  0.00     0.082 A 
ATOM      3  N   UNL     1     157.695 159.659 196.979  1.00  0.00    -0.368 N 
ATOM      4  C   UNL     1     157.127 160.753 196.441  1.00  0.00     0.082 A 
ATOM      5  C   UNL     1     157.766 161.888 196.896  1.00  0.00     0.019 A 
ATOM      6  H   UNL     1     157.415 158.668 196.811  1.00  0.00     0.165 HD
ENDROOT
TORSDOF 0
ENDMDL
MODEL 3
REMARK VINA RESULT:    -2.674     18.389     19.046
REMARK INTER + INTRA:          -2.674
REMARK INTER:                  -2.674
REMARK INTRA:                   0.000
REMARK UNBOUND:                 0.000
REMARK SMILES c1cc[nH]c1
REMARK SMILES IDX 1 1 5 2 4 3 3 4 2 5
REMARK H PARENT 4 6
REMARK Flexibility Score: inf
ROOT
ATOM      1  C   UNL     1     157.211 160.597 196.579  1.00  0.00     0.019 A 
ATOM      2  C   UNL     1     158.008 159.677 197.227  1.00  0.00     0.082 A 
ATOM      3  N   UNL     1     158.989 160.309 197.895  1.00  0.00    -0.368 N 
ATOM      4  C   UNL     1     158.829 161.627 197.679  1.00  0.00     0.082 A 
ATOM      5  C   UNL     1     157.734 161.842 196.868  1.00  0.00     0.019 A 
ATOM      6  H   UNL     1     159.735 159.861 198.471  1.00  0.00     0.165 HD
ENDROOT
TORSDOF 0
ENDMDL
MODEL 4
REMARK VINA RESULT:    -2.627      0.869      1.644
REMARK INTER + INTRA:          -2.627
REMARK INTER:                  -2.627
REMARK INTRA:                   0.000
REMARK UNBOUND:                 0.000
REMARK SMILES c1cc[nH]c1
REMARK SMILES IDX 1 1 5 2 4 3 3 4 2 5
REMARK H PARENT 4 6
REMARK Flexibility Score: inf
ROOT
ATOM      1  C   UNL     1     174.811 171.272 196.525  1.00  0.00     0.019 A 
ATOM      2  C   UNL     1     174.120 172.295 197.141  1.00  0.00     0.082 A 
ATOM      3  N   UNL     1     173.088 171.794 197.843  1.00  0.00    -0.368 N 
ATOM      4  C   UNL     1     173.109 170.459 197.681  1.00  0.00     0.082 A 
ATOM      5  C   UNL     1     174.166 170.101 196.869  1.00  0.00     0.019 A 
ATOM      6  H   UNL     1     172.399 172.340 198.407  1.00  0.00     0.165 HD
ENDROOT
TORSDOF 0
ENDMDL
MODEL 5
REMARK VINA RESULT:    -2.466     18.519     19.216
REMARK INTER + INTRA:          -2.466
REMARK INTER:                  -2.466
REMARK INTRA:                   0.000
REMARK UNBOUND:                 0.000
REMARK SMILES c1cc[nH]c1
REMARK SMILES IDX 1 1 5 2 4 3 3 4 2 5
REMARK H PARENT 4 6
REMARK Flexibility Score: inf
ROOT
ATOM      1  C   UNL     1     164.188 157.425 205.607  1.00  0.00     0.019 A 
ATOM      2  C   UNL     1     164.243 156.587 206.702  1.00  0.00     0.082 A 
ATOM      3  N   UNL     1     164.572 157.288 207.801  1.00  0.00    -0.368 N 
ATOM      4  C   UNL     1     164.730 158.569 207.421  1.00  0.00     0.082 A 
ATOM      5  C   UNL     1     164.498 158.690 206.066  1.00  0.00     0.019 A 
ATOM      6  H   UNL     1     164.684 156.909 208.767  1.00  0.00     0.165 HD
ENDROOT
TORSDOF 0
ENDMDL
MODEL 6
REMARK VINA RESULT:    -2.460     11.470     12.007
REMARK INTER + INTRA:          -2.460
REMARK INTER:                  -2.460
REMARK INTRA:                   0.000
REMARK UNBOUND:                 0.000
REMARK SMILES c1cc[nH]c1
REMARK SMILES IDX 1 1 5 2 4 3 3 4 2 5
REMARK H PARENT 4 6
REMARK Flexibility Score: inf
ROOT
ATOM      1  C   UNL     1     167.488 173.318 206.050  1.00  0.00     0.019 A 
ATOM      2  C   UNL     1     167.261 173.407 207.408  1.00  0.00     0.082 A 
ATOM      3  N   UNL     1     167.436 174.674 207.822  1.00  0.00    -0.368 N 
ATOM      4  C   UNL     1     167.775 175.400 206.741  1.00  0.00     0.082 A 
ATOM      5  C   UNL     1     167.815 174.590 205.624  1.00  0.00     0.019 A 
ATOM      6  H   UNL     1     167.329 175.028 208.798  1.00  0.00     0.165 HD
ENDROOT
TORSDOF 0
ENDMDL
MODEL 7
REMARK VINA RESULT:    -2.292     12.964     13.393
REMARK INTER + INTRA:          -2.292
REMARK INTER:                  -2.292
REMARK INTRA:                   0.000
REMARK UNBOUND:                 0.000
REMARK SMILES c1cc[nH]c1
REMARK SMILES IDX 1 1 5 2 4 3 3 4 2 5
REMARK H PARENT 4 6
REMARK Flexibility Score: inf
ROOT
ATOM      1  C   UNL     1     165.163 162.405 199.847  1.00  0.00     0.019 A 
ATOM      2  C   UNL     1     163.790 162.330 199.741  1.00  0.00     0.082 A 
ATOM      3  N   UNL     1     163.447 161.852 198.532  1.00  0.00    -0.368 N 
ATOM      4  C   UNL     1     164.589 161.621 197.860  1.00  0.00     0.082 A 
ATOM      5  C   UNL     1     165.674 161.952 198.647  1.00  0.00     0.019 A 
ATOM      6  H   UNL     1     162.478 161.692 198.181  1.00  0.00     0.165 HD
ENDROOT
TORSDOF 0
ENDMDL
MODEL 8
REMARK VINA RESULT:    -2.264     10.826     11.483
REMARK INTER + INTRA:          -2.264
REMARK INTER:                  -2.264
REMARK INTRA:                   0.000
REMARK UNBOUND:                 0.000
REMARK SMILES c1cc[nH]c1
REMARK SMILES IDX 1 1 5 2 4 3 3 4 2 5
REMARK H PARENT 4 6
REMARK Flexibility Score: inf
ROOT
ATOM      1  C   UNL     1     163.427 168.759 200.546  1.00  0.00     0.019 A 
ATOM      2  C   UNL     1     162.282 168.265 199.956  1.00  0.00     0.082 A 
ATOM      3  N   UNL     1     162.230 168.643 198.666  1.00  0.00    -0.368 N 
ATOM      4  C   UNL     1     163.331 169.377 198.425  1.00  0.00     0.082 A 
ATOM      5  C   UNL     1     164.097 169.468 199.569  1.00  0.00     0.019 A 
ATOM      6  H   UNL     1     161.477 168.412 197.983  1.00  0.00     0.165 HD
ENDROOT
TORSDOF 0
ENDMDL
MODEL 9
REMARK VINA RESULT:    -2.252      9.330     10.010
REMARK INTER + INTRA:          -2.252
REMARK INTER:                  -2.252
REMARK INTRA:                   0.000
REMARK UNBOUND:                 0.000
REMARK SMILES c1cc[nH]c1
REMARK SMILES IDX 1 1 5 2 4 3 3 4 2 5
REMARK H PARENT 4 6
REMARK Flexibility Score: inf
ROOT
ATOM      1  C   UNL     1     167.890 162.548 199.702  1.00  0.00     0.019 A 
ATOM      2  C   UNL     1     168.601 162.549 198.519  1.00  0.00     0.082 A 
ATOM      3  N   UNL     1     169.735 163.258 198.665  1.00  0.00    -0.368 N 
ATOM      4  C   UNL     1     169.757 163.713 199.931  1.00  0.00     0.082 A 
ATOM      5  C   UNL     1     168.628 163.291 200.603  1.00  0.00     0.019 A 
ATOM      6  H   UNL     1     170.460 163.424 197.933  1.00  0.00     0.165 HD
ENDROOT
TORSDOF 0
ENDMDL
