MODEL 1
REMARK VINA RESULT:    -5.961      0.000      0.000
REMARK INTER + INTRA:          -7.135
REMARK INTER:                  -7.007
REMARK INTRA:                  -0.128
REMARK UNBOUND:                -0.128
REMARK SMILES O=C([O-])C=Cc1ccc(O)c(O)c1
REMARK SMILES IDX 6 1 13 2 7 3 11 4 8 5 9 6 5 7 4 8 2 9 1 10 3 11 12 12 10 14
REMARK H PARENT 12 13 10 15
REMARK Flexibility Score: inf
ROOT
ATOM      1  C   UNL     1      21.759   4.037 103.702  1.00  0.00    -0.022 A 
ATOM      2  C   UNL     1      20.941   4.609 104.692  1.00  0.00     0.058 A 
ATOM      3  C   UNL     1      21.838   2.633 103.615  1.00  0.00     0.012 A 
ATOM      4  C   UNL     1      20.235   3.805 105.593  1.00  0.00     0.157 A 
ATOM      5  C   UNL     1      21.134   1.827 104.514  1.00  0.00     0.051 A 
ATOM      6  C   UNL     1      20.333   2.407 105.506  1.00  0.00     0.157 A 
ENDROOT
BRANCH   1   7
ATOM      7  C   UNL     1      22.477   4.937 102.766  1.00  0.00     0.010 C 
ATOM      8  C   UNL     1      21.964   5.363 101.604  1.00  0.00     0.025 C 
BRANCH   8   9
ATOM      9  C   UNL     1      22.718   6.247 100.700  1.00  0.00     0.064 C 
ATOM     10  O   UNL     1      22.096   6.975  99.884  1.00  0.00    -0.545 OA
ATOM     11  O   UNL     1      24.107   6.292 100.734  1.00  0.00    -0.545 OA
ENDBRANCH   8   9
ENDBRANCH   1   7
BRANCH   4  12
ATOM     12  O   UNL     1      19.442   4.412 106.566  1.00  0.00    -0.504 OA
ATOM     13  H   UNL     1      18.808   5.171 106.347  1.00  0.00     0.293 HD
ENDBRANCH   4  12
BRANCH   6  14
ATOM     14  O   UNL     1      19.633   1.599 106.402  1.00  0.00    -0.504 OA
ATOM     15  H   UNL     1      19.173   1.987 107.217  1.00  0.00     0.293 HD
ENDBRANCH   6  14
TORSDOF 4
ENDMDL
MODEL 2
REMARK VINA RESULT:    -5.954      1.018      5.905
REMARK INTER + INTRA:          -7.127
REMARK INTER:                  -6.998
REMARK INTRA:                  -0.128
REMARK UNBOUND:                -0.128
REMARK SMILES O=C([O-])C=Cc1ccc(O)c(O)c1
REMARK SMILES IDX 6 1 13 2 7 3 11 4 8 5 9 6 5 7 4 8 2 9 1 10 3 11 12 12 10 14
REMARK H PARENT 12 13 10 15
REMARK Flexibility Score: inf
ROOT
ATOM      1  C   UNL     1      22.242   4.733 102.660  1.00  0.00    -0.022 A 
ATOM      2  C   UNL     1      21.644   5.596 101.725  1.00  0.00     0.058 A 
ATOM      3  C   UNL     1      23.643   4.586 102.649  1.00  0.00     0.012 A 
ATOM      4  C   UNL     1      22.418   6.280 100.781  1.00  0.00     0.157 A 
ATOM      5  C   UNL     1      24.418   5.268 101.707  1.00  0.00     0.051 A 
ATOM      6  C   UNL     1      23.812   6.114 100.769  1.00  0.00     0.157 A 
ENDROOT
BRANCH   1   7
ATOM      7  C   UNL     1      21.375   4.042 103.645  1.00  0.00     0.010 C 
ATOM      8  C   UNL     1      21.048   4.555 104.838  1.00  0.00     0.025 C 
BRANCH   8   9
ATOM      9  C   UNL     1      20.193   3.828 105.790  1.00  0.00     0.064 C 
ATOM     10  O   UNL     1      19.585   4.464 106.690  1.00  0.00    -0.545 OA
ATOM     11  O   UNL     1      20.044   2.448 105.711  1.00  0.00    -0.545 OA
ENDBRANCH   8   9
ENDBRANCH   1   7
BRANCH   4  12
ATOM     12  O   UNL     1      21.784   7.118  99.864  1.00  0.00    -0.504 OA
ATOM     13  H   UNL     1      21.602   8.094 100.064  1.00  0.00     0.293 HD
ENDBRANCH   4  12
BRANCH   6  14
ATOM     14  O   UNL     1      24.589   6.792  99.830  1.00  0.00    -0.504 OA
ATOM     15  H   UNL     1      24.904   7.741  99.989  1.00  0.00     0.293 HD
ENDBRANCH   6  14
TORSDOF 4
ENDMDL
MODEL 3
REMARK VINA RESULT:    -5.589      3.653      5.858
REMARK INTER + INTRA:          -6.697
REMARK INTER:                  -6.566
REMARK INTRA:                  -0.131
REMARK UNBOUND:                -0.128
REMARK SMILES O=C([O-])C=Cc1ccc(O)c(O)c1
REMARK SMILES IDX 6 1 13 2 7 3 11 4 8 5 9 6 5 7 4 8 2 9 1 10 3 11 12 12 10 14
REMARK H PARENT 12 13 10 15
REMARK Flexibility Score: inf
ROOT
ATOM      1  C   UNL     1      23.970   4.999 101.940  1.00  0.00    -0.022 A 
ATOM      2  C   UNL     1      22.585   4.770 101.862  1.00  0.00     0.058 A 
ATOM      3  C   UNL     1      24.520   6.078 101.221  1.00  0.00     0.012 A 
ATOM      4  C   UNL     1      21.767   5.579 101.067  1.00  0.00     0.157 A 
ATOM      5  C   UNL     1      23.705   6.888 100.425  1.00  0.00     0.051 A 
ATOM      6  C   UNL     1      22.329   6.642 100.342  1.00  0.00     0.157 A 
ENDROOT
BRANCH   1   7
ATOM      7  C   UNL     1      24.788   4.117 102.808  1.00  0.00     0.010 C 
ATOM      8  C   UNL     1      26.014   3.684 102.484  1.00  0.00     0.025 C 
BRANCH   8   9
ATOM      9  C   UNL     1      26.786   2.800 103.371  1.00  0.00     0.064 C 
ATOM     10  O   UNL     1      27.599   3.299 104.191  1.00  0.00    -0.545 OA
ATOM     11  O   UNL     1      26.630   1.419 103.321  1.00  0.00    -0.545 OA
ENDBRANCH   8   9
ENDBRANCH   1   7
BRANCH   4  12
ATOM     12  O   UNL     1      20.399   5.311 101.009  1.00  0.00    -0.504 OA
ATOM     13  H   UNL     1      19.884   5.327 100.137  1.00  0.00     0.293 HD
ENDBRANCH   4  12
BRANCH   6  14
ATOM     14  O   UNL     1      21.519   7.451  99.546  1.00  0.00    -0.504 OA
ATOM     15  H   UNL     1      21.139   7.120  98.667  1.00  0.00     0.293 HD
ENDBRANCH   6  14
TORSDOF 4
ENDMDL
MODEL 4
REMARK VINA RESULT:    -5.486      3.042      4.254
REMARK INTER + INTRA:          -6.577
REMARK INTER:                  -6.444
REMARK INTRA:                  -0.133
REMARK UNBOUND:                -0.128
REMARK SMILES O=C([O-])C=Cc1ccc(O)c(O)c1
REMARK SMILES IDX 6 1 13 2 7 3 11 4 8 5 9 6 5 7 4 8 2 9 1 10 3 11 12 12 10 14
REMARK H PARENT 12 13 10 15
REMARK Flexibility Score: inf
ROOT
ATOM      1  C   UNL     1      21.595   2.319 104.110  1.00  0.00    -0.022 A 
ATOM      2  C   UNL     1      21.812   3.696 104.293  1.00  0.00     0.058 A 
ATOM      3  C   UNL     1      20.544   1.698 104.813  1.00  0.00     0.012 A 
ATOM      4  C   UNL     1      21.017   4.437 105.175  1.00  0.00     0.157 A 
ATOM      5  C   UNL     1      19.749   2.435 105.694  1.00  0.00     0.051 A 
ATOM      6  C   UNL     1      19.981   3.804 105.881  1.00  0.00     0.157 A 
ENDROOT
BRANCH   1   7
ATOM      7  C   UNL     1      22.461   1.585 103.155  1.00  0.00     0.010 C 
ATOM      8  C   UNL     1      22.844   0.313 103.324  1.00  0.00     0.025 C 
BRANCH   8   9
ATOM      9  C   UNL     1      23.714  -0.373 102.355  1.00  0.00     0.064 C 
ATOM     10  O   UNL     1      23.212  -1.190 101.540  1.00  0.00    -0.545 OA
ATOM     11  O   UNL     1      25.083  -0.131 102.323  1.00  0.00    -0.545 OA
ENDBRANCH   8   9
ENDBRANCH   1   7
BRANCH   4  12
ATOM     12  O   UNL     1      21.271   5.799 105.335  1.00  0.00    -0.504 OA
ATOM     13  H   UNL     1      20.617   6.508 105.028  1.00  0.00     0.293 HD
ENDBRANCH   4  12
BRANCH   6  14
ATOM     14  O   UNL     1      19.187   4.536 106.763  1.00  0.00    -0.504 OA
ATOM     15  H   UNL     1      18.184   4.610 106.636  1.00  0.00     0.293 HD
ENDBRANCH   6  14
TORSDOF 4
ENDMDL
MODEL 5
REMARK VINA RESULT:    -5.352      3.636      5.769
REMARK INTER + INTRA:          -6.419
REMARK INTER:                  -6.293
REMARK INTRA:                  -0.126
REMARK UNBOUND:                -0.128
REMARK SMILES O=C([O-])C=Cc1ccc(O)c(O)c1
REMARK SMILES IDX 6 1 13 2 7 3 11 4 8 5 9 6 5 7 4 8 2 9 1 10 3 11 12 12 10 14
REMARK H PARENT 12 13 10 15
REMARK Flexibility Score: inf
ROOT
ATOM      1  C   UNL     1      24.121   4.625 102.502  1.00  0.00    -0.022 A 
ATOM      2  C   UNL     1      24.319   5.635 101.545  1.00  0.00     0.058 A 
ATOM      3  C   UNL     1      22.845   4.041 102.621  1.00  0.00     0.012 A 
ATOM      4  C   UNL     1      23.264   6.075 100.738  1.00  0.00     0.157 A 
ATOM      5  C   UNL     1      21.789   4.479 101.817  1.00  0.00     0.051 A 
ATOM      6  C   UNL     1      21.991   5.497 100.875  1.00  0.00     0.157 A 
ENDROOT
BRANCH   1   7
ATOM      7  C   UNL     1      25.278   4.189 103.323  1.00  0.00     0.010 C 
ATOM      8  C   UNL     1      26.264   3.407 102.864  1.00  0.00     0.025 C 
BRANCH   8   9
ATOM      9  C   UNL     1      27.387   2.989 103.719  1.00  0.00     0.064 C 
ATOM     10  O   UNL     1      27.447   1.800 104.127  1.00  0.00    -0.545 OA
ATOM     11  O   UNL     1      28.385   3.886 104.082  1.00  0.00    -0.545 OA
ENDBRANCH   8   9
ENDBRANCH   1   7
BRANCH   4  12
ATOM     12  O   UNL     1      23.499   7.087  99.808  1.00  0.00    -0.504 OA
ATOM     13  H   UNL     1      24.375   7.594  99.774  1.00  0.00     0.293 HD
ENDBRANCH   4  12
BRANCH   6  14
ATOM     14  O   UNL     1      20.935   5.932 100.076  1.00  0.00    -0.504 OA
ATOM     15  H   UNL     1      20.405   6.765 100.304  1.00  0.00     0.293 HD
ENDBRANCH   6  14
TORSDOF 4
ENDMDL
MODEL 6
REMARK VINA RESULT:    -5.332      3.257      4.687
REMARK INTER + INTRA:          -6.396
REMARK INTER:                  -6.272
REMARK INTRA:                  -0.124
REMARK UNBOUND:                -0.128
REMARK SMILES O=C([O-])C=Cc1ccc(O)c(O)c1
REMARK SMILES IDX 6 1 13 2 7 3 11 4 8 5 9 6 5 7 4 8 2 9 1 10 3 11 12 12 10 14
REMARK H PARENT 12 13 10 15
REMARK Flexibility Score: inf
ROOT
ATOM      1  C   UNL     1      21.869   2.141 103.393  1.00  0.00    -0.022 A 
ATOM      2  C   UNL     1      20.996   1.964 104.480  1.00  0.00     0.058 A 
ATOM      3  C   UNL     1      22.512   3.385 103.234  1.00  0.00     0.012 A 
ATOM      4  C   UNL     1      20.746   3.009 105.377  1.00  0.00     0.157 A 
ATOM      5  C   UNL     1      22.263   4.429 104.128  1.00  0.00     0.051 A 
ATOM      6  C   UNL     1      21.380   4.249 105.200  1.00  0.00     0.157 A 
ENDROOT
BRANCH   1   7
ATOM      7  C   UNL     1      22.107   0.997 102.480  1.00  0.00     0.010 C 
ATOM      8  C   UNL     1      23.000   0.027 102.719  1.00  0.00     0.025 C 
BRANCH   8   9
ATOM      9  C   UNL     1      23.211  -1.085 101.778  1.00  0.00     0.064 C 
ATOM     10  O   UNL     1      22.386  -2.034 101.743  1.00  0.00    -0.545 OA
ATOM     11  O   UNL     1      24.308  -1.103 100.923  1.00  0.00    -0.545 OA
ENDBRANCH   8   9
ENDBRANCH   1   7
BRANCH   4  12
ATOM     12  O   UNL     1      19.864   2.795 106.437  1.00  0.00    -0.504 OA
ATOM     13  H   UNL     1      19.228   2.008 106.456  1.00  0.00     0.293 HD
ENDBRANCH   4  12
BRANCH   6  14
ATOM     14  O   UNL     1      21.133   5.294 106.089  1.00  0.00    -0.504 OA
ATOM     15  H   UNL     1      21.770   6.077 106.178  1.00  0.00     0.293 HD
ENDBRANCH   6  14
TORSDOF 4
ENDMDL
MODEL 7
REMARK VINA RESULT:    -5.270     11.405     11.841
REMARK INTER + INTRA:          -6.322
REMARK INTER:                  -6.184
REMARK INTRA:                  -0.138
REMARK UNBOUND:                -0.128
REMARK SMILES O=C([O-])C=Cc1ccc(O)c(O)c1
REMARK SMILES IDX 6 1 13 2 7 3 11 4 8 5 9 6 5 7 4 8 2 9 1 10 3 11 12 12 10 14
REMARK H PARENT 12 13 10 15
REMARK Flexibility Score: inf
ROOT
ATOM      1  C   UNL     1      32.145   4.411  99.255  1.00  0.00    -0.022 A 
ATOM      2  C   UNL     1      32.622   5.242 100.284  1.00  0.00     0.058 A 
ATOM      3  C   UNL     1      31.852   3.065  99.551  1.00  0.00     0.012 A 
ATOM      4  C   UNL     1      32.828   4.742 101.574  1.00  0.00     0.157 A 
ATOM      5  C   UNL     1      32.058   2.563 100.838  1.00  0.00     0.051 A 
ATOM      6  C   UNL     1      32.548   3.394 101.853  1.00  0.00     0.157 A 
ENDROOT
BRANCH   1   7
ATOM      7  C   UNL     1      31.934   4.997  97.909  1.00  0.00     0.010 C 
ATOM      8  C   UNL     1      31.804   4.269  96.792  1.00  0.00     0.025 C 
BRANCH   8   9
ATOM      9  C   UNL     1      31.607   4.894  95.474  1.00  0.00     0.064 C 
ATOM     10  O   UNL     1      32.437   5.745  95.061  1.00  0.00    -0.545 OA
ATOM     11  O   UNL     1      30.519   4.559  94.676  1.00  0.00    -0.545 OA
ENDBRANCH   8   9
ENDBRANCH   1   7
BRANCH   4  12
ATOM     12  O   UNL     1      33.313   5.597 102.563  1.00  0.00    -0.504 OA
ATOM     13  H   UNL     1      34.260   5.954 102.548  1.00  0.00     0.293 HD
ENDBRANCH   4  12
BRANCH   6  14
ATOM     14  O   UNL     1      32.753   2.889 103.136  1.00  0.00    -0.504 OA
ATOM     15  H   UNL     1      32.849   3.501 103.938  1.00  0.00     0.293 HD
ENDBRANCH   6  14
TORSDOF 4
ENDMDL
MODEL 8
REMARK VINA RESULT:    -5.214      3.198      4.382
REMARK INTER + INTRA:          -6.257
REMARK INTER:                  -6.129
REMARK INTRA:                  -0.128
REMARK UNBOUND:                -0.128
REMARK SMILES O=C([O-])C=Cc1ccc(O)c(O)c1
REMARK SMILES IDX 6 1 13 2 7 3 11 4 8 5 9 6 5 7 4 8 2 9 1 10 3 11 12 12 10 14
REMARK H PARENT 12 13 10 15
REMARK Flexibility Score: inf
ROOT
ATOM      1  C   UNL     1      23.276   4.060 102.942  1.00  0.00    -0.022 A 
ATOM      2  C   UNL     1      22.491   4.134 104.106  1.00  0.00     0.058 A 
ATOM      3  C   UNL     1      22.891   4.811 101.814  1.00  0.00     0.012 A 
ATOM      4  C   UNL     1      21.334   4.919 104.142  1.00  0.00     0.157 A 
ATOM      5  C   UNL     1      21.735   5.595 101.848  1.00  0.00     0.051 A 
ATOM      6  C   UNL     1      20.951   5.652 103.007  1.00  0.00     0.157 A 
ENDROOT
BRANCH   1   7
ATOM      7  C   UNL     1      24.499   3.221 102.963  1.00  0.00     0.010 C 
ATOM      8  C   UNL     1      25.742   3.716 102.900  1.00  0.00     0.025 C 
BRANCH   8   9
ATOM      9  C   UNL     1      26.928   2.845 102.912  1.00  0.00     0.064 C 
ATOM     10  O   UNL     1      27.555   2.663 103.988  1.00  0.00    -0.545 OA
ATOM     11  O   UNL     1      27.368   2.216 101.752  1.00  0.00    -0.545 OA
ENDBRANCH   8   9
ENDBRANCH   1   7
BRANCH   4  12
ATOM     12  O   UNL     1      20.577   4.957 105.314  1.00  0.00    -0.504 OA
ATOM     13  H   UNL     1      20.012   4.173 105.614  1.00  0.00     0.293 HD
ENDBRANCH   4  12
BRANCH   6  14
ATOM     14  O   UNL     1      19.797   6.434 103.037  1.00  0.00    -0.504 OA
ATOM     15  H   UNL     1      19.470   6.865 103.893  1.00  0.00     0.293 HD
ENDBRANCH   6  14
TORSDOF 4
ENDMDL
MODEL 9
REMARK VINA RESULT:    -4.634     11.979     13.059
REMARK INTER + INTRA:          -5.575
REMARK INTER:                  -5.445
REMARK INTRA:                  -0.130
REMARK UNBOUND:                -0.128
REMARK SMILES O=C([O-])C=Cc1ccc(O)c(O)c1
REMARK SMILES IDX 6 1 13 2 7 3 11 4 8 5 9 6 5 7 4 8 2 9 1 10 3 11 12 12 10 14
REMARK H PARENT 12 13 10 15
REMARK Flexibility Score: inf
ROOT
ATOM      1  C   UNL     1      32.594   2.753  99.998  1.00  0.00    -0.022 A 
ATOM      2  C   UNL     1      32.970   3.487 101.136  1.00  0.00     0.058 A 
ATOM      3  C   UNL     1      32.221   3.451  98.832  1.00  0.00     0.012 A 
ATOM      4  C   UNL     1      32.953   4.886 101.126  1.00  0.00     0.157 A 
ATOM      5  C   UNL     1      32.203   4.848  98.820  1.00  0.00     0.051 A 
ATOM      6  C   UNL     1      32.565   5.572  99.964  1.00  0.00     0.157 A 
ENDROOT
BRANCH   1   7
ATOM      7  C   UNL     1      32.642   1.272 100.060  1.00  0.00     0.010 C 
ATOM      8  C   UNL     1      33.436   0.520  99.287  1.00  0.00     0.025 C 
BRANCH   8   9
ATOM      9  C   UNL     1      33.442  -0.950  99.375  1.00  0.00     0.064 C 
ATOM     10  O   UNL     1      33.314  -1.635  98.327  1.00  0.00    -0.545 OA
ATOM     11  O   UNL     1      33.588  -1.594 100.598  1.00  0.00    -0.545 OA
ENDBRANCH   8   9
ENDBRANCH   1   7
BRANCH   4  12
ATOM     12  O   UNL     1      33.323   5.577 102.280  1.00  0.00    -0.504 OA
ATOM     13  H   UNL     1      32.741   6.300 102.684  1.00  0.00     0.293 HD
ENDBRANCH   4  12
BRANCH   6  14
ATOM     14  O   UNL     1      32.543   6.966  99.948  1.00  0.00    -0.504 OA
ATOM     15  H   UNL     1      32.223   7.500 100.747  1.00  0.00     0.293 HD
ENDBRANCH   6  14
TORSDOF 4
ENDMDL
