MODEL 1
REMARK VINA RESULT:    -4.558      0.000      0.000
REMARK INTER + INTRA:         -17.278
REMARK INTER:                 -11.886
REMARK INTRA:                  -5.392
REMARK UNBOUND:                -5.392
REMARK SMILES CCCCCCCCCCCCCCCCCCCCCCCCCCCCCO
REMARK SMILES IDX 16 1 15 2 14 3 13 4 12 5 11 6 10 7 9 8 8 9 7 10 6 11 5 12
REMARK SMILES IDX 4 13 3 14 2 15 1 16 17 17 18 18 19 19 20 20 21 21 22 22
REMARK SMILES IDX 23 23 24 24 25 25 26 26 27 27 28 28 29 29 30 30
REMARK H PARENT 30 31
REMARK Flexibility Score: inf
ROOT
ATOM      1  C   UNL     1       4.995  13.149  14.879  1.00  0.00     0.000 C 
ENDROOT
BRANCH   1   2
ATOM      2  C   UNL     1       3.991  12.435  13.962  1.00  0.00     0.000 C 
BRANCH   2   3
ATOM      3  C   UNL     1       4.085  12.907  12.500  1.00  0.00     0.000 C 
BRANCH   3   4
ATOM      4  C   UNL     1       3.846  11.774  11.485  1.00  0.00     0.000 C 
BRANCH   4   5
ATOM      5  C   UNL     1       4.909  11.650  10.378  1.00  0.00     0.000 C 
BRANCH   5   6
ATOM      6  C   UNL     1       6.036  10.669  10.732  1.00  0.00     0.000 C 
BRANCH   6   7
ATOM      7  C   UNL     1       7.284  11.423  11.219  1.00  0.00     0.000 C 
BRANCH   7   8
ATOM      8  C   UNL     1       7.602  11.153  12.700  1.00  0.00    -0.000 C 
BRANCH   8   9
ATOM      9  C   UNL     1       6.871   9.942  13.310  1.00  0.00    -0.000 C 
BRANCH   9  10
ATOM     10  C   UNL     1       6.780   9.979  14.852  1.00  0.00    -0.000 C 
BRANCH  10  11
ATOM     11  C   UNL     1       5.489   9.329  15.377  1.00  0.00    -0.000 C 
BRANCH  11  12
ATOM     12  C   UNL     1       4.892   8.315  14.390  1.00  0.00    -0.000 C 
BRANCH  12  13
ATOM     13  C   UNL     1       3.610   8.825  13.717  1.00  0.00    -0.000 C 
BRANCH  13  14
ATOM     14  C   UNL     1       3.396   8.148  12.359  1.00  0.00    -0.000 C 
BRANCH  14  15
ATOM     15  C   UNL     1       1.980   7.574  12.247  1.00  0.00    -0.003 C 
ATOM     16  C   UNL     1       1.525   6.973  13.575  1.00  0.00     0.004 C 
ENDBRANCH  14  15
ENDBRANCH  13  14
ENDBRANCH  12  13
ENDBRANCH  11  12
ENDBRANCH  10  11
ENDBRANCH   9  10
ENDBRANCH   8   9
ENDBRANCH   7   8
ENDBRANCH   6   7
ENDBRANCH   5   6
ENDBRANCH   4   5
ENDBRANCH   3   4
ENDBRANCH   2   3
ENDBRANCH   1   2
BRANCH   1  17
ATOM     17  C   UNL     1       5.993  14.029  14.106  1.00  0.00     0.000 C 
BRANCH  17  18
ATOM     18  C   UNL     1       6.684  15.061  15.012  1.00  0.00     0.000 C 
BRANCH  18  19
ATOM     19  C   UNL     1       8.216  14.940  14.979  1.00  0.00     0.000 C 
BRANCH  19  20
ATOM     20  C   UNL     1       8.712  13.511  15.262  1.00  0.00     0.000 C 
BRANCH  20  21
ATOM     21  C   UNL     1       9.923  13.448  16.216  1.00  0.00     0.000 C 
BRANCH  21  22
ATOM     22  C   UNL     1       9.626  12.639  17.492  1.00  0.00     0.000 C 
BRANCH  22  23
ATOM     23  C   UNL     1       8.178  12.121  17.547  1.00  0.00     0.000 C 
BRANCH  23  24
ATOM     24  C   UNL     1       7.327  12.655  18.720  1.00  0.00     0.000 C 
BRANCH  24  25
ATOM     25  C   UNL     1       6.133  13.542  18.316  1.00  0.00     0.000 C 
BRANCH  25  26
ATOM     26  C   UNL     1       6.365  15.053  18.546  1.00  0.00     0.000 C 
BRANCH  26  27
ATOM     27  C   UNL     1       7.755  15.386  19.122  1.00  0.00     0.002 C 
BRANCH  27  28
ATOM     28  C   UNL     1       8.225  16.829  18.874  1.00  0.00     0.028 C 
BRANCH  28  29
ATOM     29  C   UNL     1       7.609  17.836  19.855  1.00  0.00     0.156 C 
BRANCH  29  30
ATOM     30  O   UNL     1       6.630  18.601  19.208  1.00  0.00    -0.396 OA
ATOM     31  H   UNL     1       6.029  17.960  18.743  1.00  0.00     0.210 HD
ENDBRANCH  29  30
ENDBRANCH  28  29
ENDBRANCH  27  28
ENDBRANCH  26  27
ENDBRANCH  25  26
ENDBRANCH  24  25
ENDBRANCH  23  24
ENDBRANCH  22  23
ENDBRANCH  21  22
ENDBRANCH  20  21
ENDBRANCH  19  20
ENDBRANCH  18  19
ENDBRANCH  17  18
ENDBRANCH   1  17
TORSDOF 28
ENDMDL
MODEL 2
REMARK VINA RESULT:    -4.542      2.403      4.834
REMARK INTER + INTRA:         -17.237
REMARK INTER:                 -11.225
REMARK INTRA:                  -6.012
REMARK UNBOUND:                -5.392
REMARK SMILES CCCCCCCCCCCCCCCCCCCCCCCCCCCCCO
REMARK SMILES IDX 16 1 15 2 14 3 13 4 12 5 11 6 10 7 9 8 8 9 7 10 6 11 5 12
REMARK SMILES IDX 4 13 3 14 2 15 1 16 17 17 18 18 19 19 20 20 21 21 22 22
REMARK SMILES IDX 23 23 24 24 25 25 26 26 27 27 28 28 29 29 30 30
REMARK H PARENT 30 31
REMARK Flexibility Score: inf
ROOT
ATOM      1  C   UNL     1       8.468  13.369  15.940  1.00  0.00     0.000 C 
ENDROOT
BRANCH   1   2
ATOM      2  C   UNL     1       8.104  14.558  15.038  1.00  0.00     0.000 C 
BRANCH   2   3
ATOM      3  C   UNL     1       6.595  14.860  15.037  1.00  0.00     0.000 C 
BRANCH   3   4
ATOM      4  C   UNL     1       5.750  13.707  15.610  1.00  0.00     0.000 C 
BRANCH   4   5
ATOM      5  C   UNL     1       4.602  13.223  14.705  1.00  0.00     0.000 C 
BRANCH   5   6
ATOM      6  C   UNL     1       4.816  13.566  13.224  1.00  0.00     0.000 C 
BRANCH   6   7
ATOM      7  C   UNL     1       3.782  12.850  12.341  1.00  0.00     0.000 C 
BRANCH   7   8
ATOM      8  C   UNL     1       4.389  12.303  11.037  1.00  0.00    -0.000 C 
BRANCH   8   9
ATOM      9  C   UNL     1       4.058  10.829  10.736  1.00  0.00    -0.000 C 
BRANCH   9  10
ATOM     10  C   UNL     1       5.277   9.995  10.285  1.00  0.00    -0.000 C 
BRANCH  10  11
ATOM     11  C   UNL     1       6.606  10.739  10.499  1.00  0.00    -0.000 C 
BRANCH  11  12
ATOM     12  C   UNL     1       7.401  10.201  11.698  1.00  0.00    -0.000 C 
BRANCH  12  13
ATOM     13  C   UNL     1       7.479  11.206  12.856  1.00  0.00    -0.000 C 
BRANCH  13  14
ATOM     14  C   UNL     1       6.971  10.580  14.160  1.00  0.00    -0.000 C 
BRANCH  14  15
ATOM     15  C   UNL     1       5.749   9.691  13.903  1.00  0.00    -0.003 C 
ATOM     16  C   UNL     1       5.380   8.890  15.149  1.00  0.00     0.004 C 
ENDBRANCH  14  15
ENDBRANCH  13  14
ENDBRANCH  12  13
ENDBRANCH  11  12
ENDBRANCH  10  11
ENDBRANCH   9  10
ENDBRANCH   8   9
ENDBRANCH   7   8
ENDBRANCH   6   7
ENDBRANCH   5   6
ENDBRANCH   4   5
ENDBRANCH   3   4
ENDBRANCH   2   3
ENDBRANCH   1   2
BRANCH   1  17
ATOM     17  C   UNL     1       9.969  13.311  16.277  1.00  0.00     0.000 C 
BRANCH  17  18
ATOM     18  C   UNL     1      10.221  13.007  17.763  1.00  0.00     0.000 C 
BRANCH  18  19
ATOM     19  C   UNL     1      11.112  14.063  18.436  1.00  0.00     0.000 C 
BRANCH  19  20
ATOM     20  C   UNL     1      10.633  15.503  18.183  1.00  0.00     0.000 C 
BRANCH  20  21
ATOM     21  C   UNL     1       9.547  15.982  19.170  1.00  0.00     0.000 C 
BRANCH  21  22
ATOM     22  C   UNL     1       8.299  16.529  18.451  1.00  0.00     0.000 C 
BRANCH  22  23
ATOM     23  C   UNL     1       7.068  15.622  18.621  1.00  0.00     0.000 C 
BRANCH  23  24
ATOM     24  C   UNL     1       7.281  14.373  19.505  1.00  0.00     0.000 C 
BRANCH  24  25
ATOM     25  C   UNL     1       6.464  13.131  19.096  1.00  0.00     0.000 C 
BRANCH  25  26
ATOM     26  C   UNL     1       7.246  11.802  19.197  1.00  0.00     0.000 C 
BRANCH  26  27
ATOM     27  C   UNL     1       6.990  10.841  18.020  1.00  0.00     0.002 C 
BRANCH  27  28
ATOM     28  C   UNL     1       7.979   9.668  17.920  1.00  0.00     0.028 C 
BRANCH  28  29
ATOM     29  C   UNL     1       8.861   9.520  19.167  1.00  0.00     0.156 C 
BRANCH  29  30
ATOM     30  O   UNL     1      10.212   9.486  18.800  1.00  0.00    -0.396 OA
ATOM     31  H   UNL     1      10.352  10.236  18.162  1.00  0.00     0.210 HD
ENDBRANCH  29  30
ENDBRANCH  28  29
ENDBRANCH  27  28
ENDBRANCH  26  27
ENDBRANCH  25  26
ENDBRANCH  24  25
ENDBRANCH  23  24
ENDBRANCH  22  23
ENDBRANCH  21  22
ENDBRANCH  20  21
ENDBRANCH  19  20
ENDBRANCH  18  19
ENDBRANCH  17  18
ENDBRANCH   1  17
TORSDOF 28
ENDMDL
MODEL 3
REMARK VINA RESULT:    -4.459      1.326      3.272
REMARK INTER + INTRA:         -17.020
REMARK INTER:                 -12.326
REMARK INTRA:                  -4.694
REMARK UNBOUND:                -5.392
REMARK SMILES CCCCCCCCCCCCCCCCCCCCCCCCCCCCCO
REMARK SMILES IDX 16 1 15 2 14 3 13 4 12 5 11 6 10 7 9 8 8 9 7 10 6 11 5 12
REMARK SMILES IDX 4 13 3 14 2 15 1 16 17 17 18 18 19 19 20 20 21 21 22 22
REMARK SMILES IDX 23 23 24 24 25 25 26 26 27 27 28 28 29 29 30 30
REMARK H PARENT 30 31
REMARK Flexibility Score: inf
ROOT
ATOM      1  C   UNL     1       4.398  12.553  14.456  1.00  0.00     0.000 C 
ENDROOT
BRANCH   1   2
ATOM      2  C   UNL     1       4.906  12.919  13.053  1.00  0.00     0.000 C 
BRANCH   2   3
ATOM      3  C   UNL     1       3.822  12.761  11.972  1.00  0.00     0.000 C 
BRANCH   3   4
ATOM      4  C   UNL     1       4.346  12.091  10.688  1.00  0.00     0.000 C 
BRANCH   4   5
ATOM      5  C   UNL     1       5.729  11.425  10.812  1.00  0.00     0.000 C 
BRANCH   5   6
ATOM      6  C   UNL     1       5.697   9.914  10.544  1.00  0.00     0.000 C 
BRANCH   6   7
ATOM      7  C   UNL     1       4.256   9.384  10.569  1.00  0.00     0.000 C 
BRANCH   7   8
ATOM      8  C   UNL     1       3.981   8.460  11.769  1.00  0.00    -0.000 C 
BRANCH   8   9
ATOM      9  C   UNL     1       3.889   9.175  13.130  1.00  0.00    -0.000 C 
BRANCH   9  10
ATOM     10  C   UNL     1       4.723   8.507  14.245  1.00  0.00    -0.000 C 
BRANCH  10  11
ATOM     11  C   UNL     1       6.232   8.754  14.074  1.00  0.00    -0.000 C 
BRANCH  11  12
ATOM     12  C   UNL     1       6.733   9.949  14.899  1.00  0.00    -0.000 C 
BRANCH  12  13
ATOM     13  C   UNL     1       6.260   9.901  16.359  1.00  0.00    -0.000 C 
BRANCH  13  14
ATOM     14  C   UNL     1       7.273  10.583  17.286  1.00  0.00    -0.000 C 
BRANCH  14  15
ATOM     15  C   UNL     1       7.578   9.707  18.506  1.00  0.00    -0.003 C 
ATOM     16  C   UNL     1       9.041   9.271  18.518  1.00  0.00     0.004 C 
ENDBRANCH  14  15
ENDBRANCH  13  14
ENDBRANCH  12  13
ENDBRANCH  11  12
ENDBRANCH  10  11
ENDBRANCH   9  10
ENDBRANCH   8   9
ENDBRANCH   7   8
ENDBRANCH   6   7
ENDBRANCH   5   6
ENDBRANCH   4   5
ENDBRANCH   3   4
ENDBRANCH   2   3
ENDBRANCH   1   2
BRANCH   1  17
ATOM     17  C   UNL     1       4.733  13.622  15.511  1.00  0.00     0.000 C 
BRANCH  17  18
ATOM     18  C   UNL     1       6.234  13.664  15.842  1.00  0.00     0.000 C 
BRANCH  18  19
ATOM     19  C   UNL     1       6.944  14.868  15.203  1.00  0.00     0.000 C 
BRANCH  19  20
ATOM     20  C   UNL     1       8.330  14.515  14.637  1.00  0.00     0.000 C 
BRANCH  20  21
ATOM     21  C   UNL     1       9.063  13.408  15.423  1.00  0.00     0.000 C 
BRANCH  21  22
ATOM     22  C   UNL     1       9.897  13.969  16.590  1.00  0.00     0.000 C 
BRANCH  22  23
ATOM     23  C   UNL     1      10.114  12.941  17.716  1.00  0.00     0.000 C 
BRANCH  23  24
ATOM     24  C   UNL     1       9.448  13.287  19.066  1.00  0.00     0.000 C 
BRANCH  24  25
ATOM     25  C   UNL     1       8.002  13.813  18.969  1.00  0.00     0.000 C 
BRANCH  25  26
ATOM     26  C   UNL     1       7.708  15.021  19.888  1.00  0.00     0.000 C 
BRANCH  26  27
ATOM     27  C   UNL     1       7.106  16.231  19.147  1.00  0.00     0.002 C 
BRANCH  27  28
ATOM     28  C   UNL     1       8.011  17.473  19.100  1.00  0.00     0.028 C 
BRANCH  28  29
ATOM     29  C   UNL     1       7.428  18.668  19.867  1.00  0.00     0.156 C 
BRANCH  29  30
ATOM     30  O   UNL     1       6.271  19.131  19.229  1.00  0.00    -0.396 OA
ATOM     31  H   UNL     1       6.082  20.033  19.603  1.00  0.00     0.210 HD
ENDBRANCH  29  30
ENDBRANCH  28  29
ENDBRANCH  27  28
ENDBRANCH  26  27
ENDBRANCH  25  26
ENDBRANCH  24  25
ENDBRANCH  23  24
ENDBRANCH  22  23
ENDBRANCH  21  22
ENDBRANCH  20  21
ENDBRANCH  19  20
ENDBRANCH  18  19
ENDBRANCH  17  18
ENDBRANCH   1  17
TORSDOF 28
ENDMDL
MODEL 4
REMARK VINA RESULT:    -4.389      2.805      7.888
REMARK INTER + INTRA:         -16.838
REMARK INTER:                 -11.832
REMARK INTRA:                  -5.006
REMARK UNBOUND:                -5.392
REMARK SMILES CCCCCCCCCCCCCCCCCCCCCCCCCCCCCO
REMARK SMILES IDX 16 1 15 2 14 3 13 4 12 5 11 6 10 7 9 8 8 9 7 10 6 11 5 12
REMARK SMILES IDX 4 13 3 14 2 15 1 16 17 17 18 18 19 19 20 20 21 21 22 22
REMARK SMILES IDX 23 23 24 24 25 25 26 26 27 27 28 28 29 29 30 30
REMARK H PARENT 30 31
REMARK Flexibility Score: inf
ROOT
ATOM      1  C   UNL     1       3.342  12.066  14.015  1.00  0.00     0.000 C 
ENDROOT
BRANCH   1   2
ATOM      2  C   UNL     1       4.696  12.663  14.427  1.00  0.00     0.000 C 
BRANCH   2   3
ATOM      3  C   UNL     1       5.467  11.762  15.407  1.00  0.00     0.000 C 
BRANCH   3   4
ATOM      4  C   UNL     1       6.859  11.360  14.887  1.00  0.00     0.000 C 
BRANCH   4   5
ATOM      5  C   UNL     1       7.096  11.609  13.386  1.00  0.00     0.000 C 
BRANCH   5   6
ATOM      6  C   UNL     1       8.068  12.766  13.112  1.00  0.00     0.000 C 
BRANCH   6   7
ATOM      7  C   UNL     1       8.615  13.344  14.426  1.00  0.00     0.000 C 
BRANCH   7   8
ATOM      8  C   UNL     1       8.360  14.855  14.564  1.00  0.00    -0.000 C 
BRANCH   8   9
ATOM      9  C   UNL     1       7.190  15.234  15.493  1.00  0.00    -0.000 C 
BRANCH   9  10
ATOM     10  C   UNL     1       7.627  15.611  16.925  1.00  0.00    -0.000 C 
BRANCH  10  11
ATOM     11  C   UNL     1       6.841  14.839  17.998  1.00  0.00    -0.000 C 
BRANCH  11  12
ATOM     12  C   UNL     1       7.227  13.354  18.061  1.00  0.00    -0.000 C 
BRANCH  12  13
ATOM     13  C   UNL     1       8.594  13.125  18.723  1.00  0.00    -0.000 C 
BRANCH  13  14
ATOM     14  C   UNL     1       9.615  12.604  17.704  1.00  0.00    -0.000 C 
BRANCH  14  15
ATOM     15  C   UNL     1      10.872  13.480  17.690  1.00  0.00    -0.003 C 
ATOM     16  C   UNL     1      10.719  14.677  18.625  1.00  0.00     0.004 C 
ENDBRANCH  14  15
ENDBRANCH  13  14
ENDBRANCH  12  13
ENDBRANCH  11  12
ENDBRANCH  10  11
ENDBRANCH   9  10
ENDBRANCH   8   9
ENDBRANCH   7   8
ENDBRANCH   6   7
ENDBRANCH   5   6
ENDBRANCH   4   5
ENDBRANCH   3   4
ENDBRANCH   2   3
ENDBRANCH   1   2
BRANCH   1  17
ATOM     17  C   UNL     1       3.271  11.717  12.518  1.00  0.00     0.000 C 
BRANCH  17  18
ATOM     18  C   UNL     1       4.131  12.659  11.659  1.00  0.00     0.000 C 
BRANCH  18  19
ATOM     19  C   UNL     1       4.460  12.062  10.281  1.00  0.00     0.000 C 
BRANCH  19  20
ATOM     20  C   UNL     1       4.574  10.528  10.303  1.00  0.00     0.000 C 
BRANCH  20  21
ATOM     21  C   UNL     1       6.024  10.008  10.205  1.00  0.00     0.000 C 
BRANCH  21  22
ATOM     22  C   UNL     1       6.298   8.843  11.175  1.00  0.00     0.000 C 
BRANCH  22  23
ATOM     23  C   UNL     1       5.084   8.504  12.058  1.00  0.00     0.000 C 
BRANCH  23  24
ATOM     24  C   UNL     1       5.418   8.005  13.481  1.00  0.00     0.000 C 
BRANCH  24  25
ATOM     25  C   UNL     1       4.425   8.436  14.579  1.00  0.00     0.000 C 
BRANCH  25  26
ATOM     26  C   UNL     1       3.453   7.319  15.022  1.00  0.00     0.000 C 
BRANCH  26  27
ATOM     27  C   UNL     1       1.977   7.760  15.057  1.00  0.00     0.002 C 
BRANCH  27  28
ATOM     28  C   UNL     1       0.962   6.631  14.814  1.00  0.00     0.028 C 
BRANCH  28  29
ATOM     29  C   UNL     1      -0.237   6.688  15.770  1.00  0.00     0.156 C 
BRANCH  29  30
ATOM     30  O   UNL     1      -0.007   7.634  16.777  1.00  0.00    -0.396 OA
ATOM     31  H   UNL     1       0.039   8.520  16.328  1.00  0.00     0.210 HD
ENDBRANCH  29  30
ENDBRANCH  28  29
ENDBRANCH  27  28
ENDBRANCH  26  27
ENDBRANCH  25  26
ENDBRANCH  24  25
ENDBRANCH  23  24
ENDBRANCH  22  23
ENDBRANCH  21  22
ENDBRANCH  20  21
ENDBRANCH  19  20
ENDBRANCH  18  19
ENDBRANCH  17  18
ENDBRANCH   1  17
TORSDOF 28
ENDMDL
MODEL 5
REMARK VINA RESULT:    -4.381      1.427      3.469
REMARK INTER + INTRA:         -16.816
REMARK INTER:                 -12.243
REMARK INTRA:                  -4.573
REMARK UNBOUND:                -5.392
REMARK SMILES CCCCCCCCCCCCCCCCCCCCCCCCCCCCCO
REMARK SMILES IDX 16 1 15 2 14 3 13 4 12 5 11 6 10 7 9 8 8 9 7 10 6 11 5 12
REMARK SMILES IDX 4 13 3 14 2 15 1 16 17 17 18 18 19 19 20 20 21 21 22 22
REMARK SMILES IDX 23 23 24 24 25 25 26 26 27 27 28 28 29 29 30 30
REMARK H PARENT 30 31
REMARK Flexibility Score: inf
ROOT
ATOM      1  C   UNL     1       5.318  13.890  16.338  1.00  0.00     0.000 C 
ENDROOT
BRANCH   1   2
ATOM      2  C   UNL     1       5.166  13.290  14.931  1.00  0.00     0.000 C 
BRANCH   2   3
ATOM      3  C   UNL     1       3.960  12.341  14.819  1.00  0.00     0.000 C 
BRANCH   3   4
ATOM      4  C   UNL     1       3.484  12.142  13.369  1.00  0.00     0.000 C 
BRANCH   4   5
ATOM      5  C   UNL     1       4.232  12.975  12.312  1.00  0.00     0.000 C 
BRANCH   5   6
ATOM      6  C   UNL     1       4.539  12.188  11.030  1.00  0.00     0.000 C 
BRANCH   6   7
ATOM      7  C   UNL     1       3.665  10.928  10.938  1.00  0.00     0.000 C 
BRANCH   7   8
ATOM      8  C   UNL     1       4.414   9.726  10.337  1.00  0.00    -0.000 C 
BRANCH   8   9
ATOM      9  C   UNL     1       3.806   8.350  10.671  1.00  0.00    -0.000 C 
BRANCH   9  10
ATOM     10  C   UNL     1       3.720   8.056  12.184  1.00  0.00    -0.000 C 
BRANCH  10  11
ATOM     11  C   UNL     1       5.107   7.967  12.843  1.00  0.00    -0.000 C 
BRANCH  11  12
ATOM     12  C   UNL     1       5.230   8.860  14.087  1.00  0.00    -0.000 C 
BRANCH  12  13
ATOM     13  C   UNL     1       6.621   9.493  14.227  1.00  0.00    -0.000 C 
BRANCH  13  14
ATOM     14  C   UNL     1       6.989  10.291  12.970  1.00  0.00    -0.000 C 
BRANCH  14  15
ATOM     15  C   UNL     1       7.655  11.621  13.339  1.00  0.00    -0.003 C 
ATOM     16  C   UNL     1       7.983  12.436  12.091  1.00  0.00     0.004 C 
ENDBRANCH  14  15
ENDBRANCH  13  14
ENDBRANCH  12  13
ENDBRANCH  11  12
ENDBRANCH  10  11
ENDBRANCH   9  10
ENDBRANCH   8   9
ENDBRANCH   7   8
ENDBRANCH   6   7
ENDBRANCH   5   6
ENDBRANCH   4   5
ENDBRANCH   3   4
ENDBRANCH   2   3
ENDBRANCH   1   2
BRANCH   1  17
ATOM     17  C   UNL     1       6.764  14.305  16.659  1.00  0.00     0.000 C 
BRANCH  17  18
ATOM     18  C   UNL     1       7.355  15.236  15.588  1.00  0.00     0.000 C 
BRANCH  18  19
ATOM     19  C   UNL     1       8.773  14.820  15.163  1.00  0.00     0.000 C 
BRANCH  19  20
ATOM     20  C   UNL     1       9.205  13.470  15.761  1.00  0.00     0.000 C 
BRANCH  20  21
ATOM     21  C   UNL     1      10.465  13.554  16.648  1.00  0.00     0.000 C 
BRANCH  21  22
ATOM     22  C   UNL     1      10.165  13.245  18.126  1.00  0.00     0.000 C 
BRANCH  22  23
ATOM     23  C   UNL     1       9.861  14.509  18.950  1.00  0.00     0.000 C 
BRANCH  23  24
ATOM     24  C   UNL     1      10.452  15.822  18.393  1.00  0.00     0.000 C 
BRANCH  24  25
ATOM     25  C   UNL     1       9.527  17.052  18.489  1.00  0.00     0.000 C 
BRANCH  25  26
ATOM     26  C   UNL     1       9.498  17.710  19.887  1.00  0.00     0.000 C 
BRANCH  26  27
ATOM     27  C   UNL     1       8.177  17.487  20.649  1.00  0.00     0.002 C 
BRANCH  27  28
ATOM     28  C   UNL     1       7.575  18.754  21.278  1.00  0.00     0.028 C 
BRANCH  28  29
ATOM     29  C   UNL     1       7.063  19.756  20.235  1.00  0.00     0.156 C 
BRANCH  29  30
ATOM     30  O   UNL     1       6.254  19.102  19.296  1.00  0.00    -0.396 OA
ATOM     31  H   UNL     1       5.962  18.250  19.718  1.00  0.00     0.210 HD
ENDBRANCH  29  30
ENDBRANCH  28  29
ENDBRANCH  27  28
ENDBRANCH  26  27
ENDBRANCH  25  26
ENDBRANCH  24  25
ENDBRANCH  23  24
ENDBRANCH  22  23
ENDBRANCH  21  22
ENDBRANCH  20  21
ENDBRANCH  19  20
ENDBRANCH  18  19
ENDBRANCH  17  18
ENDBRANCH   1  17
TORSDOF 28
ENDMDL
MODEL 6
REMARK VINA RESULT:    -4.333      2.002      6.973
REMARK INTER + INTRA:         -16.691
REMARK INTER:                 -11.407
REMARK INTRA:                  -5.284
REMARK UNBOUND:                -5.392
REMARK SMILES CCCCCCCCCCCCCCCCCCCCCCCCCCCCCO
REMARK SMILES IDX 16 1 15 2 14 3 13 4 12 5 11 6 10 7 9 8 8 9 7 10 6 11 5 12
REMARK SMILES IDX 4 13 3 14 2 15 1 16 17 17 18 18 19 19 20 20 21 21 22 22
REMARK SMILES IDX 23 23 24 24 25 25 26 26 27 27 28 28 29 29 30 30
REMARK H PARENT 30 31
REMARK Flexibility Score: inf
ROOT
ATOM      1  C   UNL     1       4.729  10.441  14.260  1.00  0.00     0.000 C 
ENDROOT
BRANCH   1   2
ATOM      2  C   UNL     1       5.533   9.137  14.154  1.00  0.00     0.000 C 
BRANCH   2   3
ATOM      3  C   UNL     1       6.910   9.235  14.834  1.00  0.00     0.000 C 
BRANCH   3   4
ATOM      4  C   UNL     1       6.904  10.142  16.078  1.00  0.00     0.000 C 
BRANCH   4   5
ATOM      5  C   UNL     1       6.509   9.448  17.395  1.00  0.00     0.000 C 
BRANCH   5   6
ATOM      6  C   UNL     1       7.139  10.102  18.634  1.00  0.00     0.000 C 
BRANCH   6   7
ATOM      7  C   UNL     1       8.405   9.347  19.067  1.00  0.00     0.000 C 
BRANCH   7   8
ATOM      8  C   UNL     1       9.071   9.965  20.309  1.00  0.00    -0.000 C 
BRANCH   8   9
ATOM      9  C   UNL     1       8.113  10.717  21.252  1.00  0.00    -0.000 C 
BRANCH   9  10
ATOM     10  C   UNL     1       8.648  12.086  21.725  1.00  0.00    -0.000 C 
BRANCH  10  11
ATOM     11  C   UNL     1       9.544  12.759  20.670  1.00  0.00    -0.000 C 
BRANCH  11  12
ATOM     12  C   UNL     1       8.784  13.788  19.819  1.00  0.00    -0.000 C 
BRANCH  12  13
ATOM     13  C   UNL     1       8.596  13.332  18.365  1.00  0.00    -0.000 C 
BRANCH  13  14
ATOM     14  C   UNL     1       9.866  12.655  17.835  1.00  0.00    -0.000 C 
BRANCH  14  15
ATOM     15  C   UNL     1      10.485  13.468  16.693  1.00  0.00    -0.003 C 
ATOM     16  C   UNL     1      10.400  14.965  16.975  1.00  0.00     0.004 C 
ENDBRANCH  14  15
ENDBRANCH  13  14
ENDBRANCH  12  13
ENDBRANCH  11  12
ENDBRANCH  10  11
ENDBRANCH   9  10
ENDBRANCH   8   9
ENDBRANCH   7   8
ENDBRANCH   6   7
ENDBRANCH   5   6
ENDBRANCH   4   5
ENDBRANCH   3   4
ENDBRANCH   2   3
ENDBRANCH   1   2
BRANCH   1  17
ATOM     17  C   UNL     1       3.640  10.562  13.179  1.00  0.00     0.000 C 
BRANCH  17  18
ATOM     18  C   UNL     1       3.282  12.026  12.873  1.00  0.00     0.000 C 
BRANCH  18  19
ATOM     19  C   UNL     1       4.003  12.559  11.624  1.00  0.00     0.000 C 
BRANCH  19  20
ATOM     20  C   UNL     1       4.402  11.446  10.641  1.00  0.00     0.000 C 
BRANCH  20  21
ATOM     21  C   UNL     1       5.890  11.476  10.232  1.00  0.00     0.000 C 
BRANCH  21  22
ATOM     22  C   UNL     1       6.760  10.556  11.109  1.00  0.00     0.000 C 
BRANCH  22  23
ATOM     23  C   UNL     1       7.860  11.321  11.868  1.00  0.00     0.000 C 
BRANCH  23  24
ATOM     24  C   UNL     1       7.394  12.600  12.598  1.00  0.00     0.000 C 
BRANCH  24  25
ATOM     25  C   UNL     1       8.062  12.857  13.963  1.00  0.00     0.000 C 
BRANCH  25  26
ATOM     26  C   UNL     1       7.369  13.950  14.808  1.00  0.00     0.000 C 
BRANCH  26  27
ATOM     27  C   UNL     1       5.835  13.967  14.660  1.00  0.00     0.002 C 
BRANCH  27  28
ATOM     28  C   UNL     1       5.061  13.622  15.943  1.00  0.00     0.028 C 
BRANCH  28  29
ATOM     29  C   UNL     1       5.512  14.449  17.155  1.00  0.00     0.156 C 
BRANCH  29  30
ATOM     30  O   UNL     1       4.517  15.370  17.507  1.00  0.00    -0.396 OA
ATOM     31  H   UNL     1       4.971  16.100  18.008  1.00  0.00     0.210 HD
ENDBRANCH  29  30
ENDBRANCH  28  29
ENDBRANCH  27  28
ENDBRANCH  26  27
ENDBRANCH  25  26
ENDBRANCH  24  25
ENDBRANCH  23  24
ENDBRANCH  22  23
ENDBRANCH  21  22
ENDBRANCH  20  21
ENDBRANCH  19  20
ENDBRANCH  18  19
ENDBRANCH  17  18
ENDBRANCH   1  17
TORSDOF 28
ENDMDL
MODEL 7
REMARK VINA RESULT:    -4.318      1.532      4.024
REMARK INTER + INTRA:         -16.653
REMARK INTER:                 -11.631
REMARK INTRA:                  -5.022
REMARK UNBOUND:                -5.392
REMARK SMILES CCCCCCCCCCCCCCCCCCCCCCCCCCCCCO
REMARK SMILES IDX 16 1 15 2 14 3 13 4 12 5 11 6 10 7 9 8 8 9 7 10 6 11 5 12
REMARK SMILES IDX 4 13 3 14 2 15 1 16 17 17 18 18 19 19 20 20 21 21 22 22
REMARK SMILES IDX 23 23 24 24 25 25 26 26 27 27 28 28 29 29 30 30
REMARK H PARENT 30 31
REMARK Flexibility Score: inf
ROOT
ATOM      1  C   UNL     1       6.846   9.521  14.840  1.00  0.00     0.000 C 
ENDROOT
BRANCH   1   2
ATOM      2  C   UNL     1       5.960   8.722  13.872  1.00  0.00     0.000 C 
BRANCH   2   3
ATOM      3  C   UNL     1       4.490   8.667  14.323  1.00  0.00     0.000 C 
BRANCH   3   4
ATOM      4  C   UNL     1       3.520   9.272  13.292  1.00  0.00     0.000 C 
BRANCH   4   5
ATOM      5  C   UNL     1       4.166   9.718  11.967  1.00  0.00     0.000 C 
BRANCH   5   6
ATOM      6  C   UNL     1       4.063   8.659  10.859  1.00  0.00     0.000 C 
BRANCH   6   7
ATOM      7  C   UNL     1       5.314   8.675   9.968  1.00  0.00     0.000 C 
BRANCH   7   8
ATOM      8  C   UNL     1       6.077  10.009  10.036  1.00  0.00    -0.000 C 
BRANCH   8   9
ATOM      9  C   UNL     1       7.589   9.879  10.299  1.00  0.00    -0.000 C 
BRANCH   9  10
ATOM     10  C   UNL     1       8.185  11.048  11.113  1.00  0.00    -0.000 C 
BRANCH  10  11
ATOM     11  C   UNL     1       7.123  11.774  11.957  1.00  0.00    -0.000 C 
BRANCH  11  12
ATOM     12  C   UNL     1       7.737  12.781  12.941  1.00  0.00    -0.000 C 
BRANCH  12  13
ATOM     13  C   UNL     1       6.675  13.569  13.722  1.00  0.00    -0.000 C 
BRANCH  13  14
ATOM     14  C   UNL     1       5.268  13.040  13.420  1.00  0.00    -0.000 C 
BRANCH  14  15
ATOM     15  C   UNL     1       4.546  12.632  14.708  1.00  0.00    -0.003 C 
ATOM     16  C   UNL     1       4.862  13.600  15.845  1.00  0.00     0.004 C 
ENDBRANCH  14  15
ENDBRANCH  13  14
ENDBRANCH  12  13
ENDBRANCH  11  12
ENDBRANCH  10  11
ENDBRANCH   9  10
ENDBRANCH   8   9
ENDBRANCH   7   8
ENDBRANCH   6   7
ENDBRANCH   5   6
ENDBRANCH   4   5
ENDBRANCH   3   4
ENDBRANCH   2   3
ENDBRANCH   1   2
BRANCH   1  17
ATOM     17  C   UNL     1       6.329   9.490  16.289  1.00  0.00     0.000 C 
BRANCH  17  18
ATOM     18  C   UNL     1       6.832  10.687  17.113  1.00  0.00     0.000 C 
BRANCH  18  19
ATOM     19  C   UNL     1       7.969  11.447  16.413  1.00  0.00     0.000 C 
BRANCH  19  20
ATOM     20  C   UNL     1       8.399  12.715  17.172  1.00  0.00     0.000 C 
BRANCH  20  21
ATOM     21  C   UNL     1       9.568  13.474  16.508  1.00  0.00     0.000 C 
BRANCH  21  22
ATOM     22  C   UNL     1       9.327  14.994  16.454  1.00  0.00     0.000 C 
BRANCH  22  23
ATOM     23  C   UNL     1       7.887  15.383  16.836  1.00  0.00     0.000 C 
BRANCH  23  24
ATOM     24  C   UNL     1       7.755  16.310  18.063  1.00  0.00     0.000 C 
BRANCH  24  25
ATOM     25  C   UNL     1       8.369  15.764  19.368  1.00  0.00     0.000 C 
BRANCH  25  26
ATOM     26  C   UNL     1       8.563  16.833  20.468  1.00  0.00     0.000 C 
BRANCH  26  27
ATOM     27  C   UNL     1       9.173  18.151  19.952  1.00  0.00     0.002 C 
BRANCH  27  28
ATOM     28  C   UNL     1       8.406  19.419  20.362  1.00  0.00     0.028 C 
BRANCH  28  29
ATOM     29  C   UNL     1       6.887  19.207  20.422  1.00  0.00     0.156 C 
BRANCH  29  30
ATOM     30  O   UNL     1       6.292  19.651  19.234  1.00  0.00    -0.396 OA
ATOM     31  H   UNL     1       5.422  20.061  19.488  1.00  0.00     0.210 HD
ENDBRANCH  29  30
ENDBRANCH  28  29
ENDBRANCH  27  28
ENDBRANCH  26  27
ENDBRANCH  25  26
ENDBRANCH  24  25
ENDBRANCH  23  24
ENDBRANCH  22  23
ENDBRANCH  21  22
ENDBRANCH  20  21
ENDBRANCH  19  20
ENDBRANCH  18  19
ENDBRANCH  17  18
ENDBRANCH   1  17
TORSDOF 28
ENDMDL
MODEL 8
REMARK VINA RESULT:    -4.289      3.003      7.477
REMARK INTER + INTRA:         -16.577
REMARK INTER:                 -11.506
REMARK INTRA:                  -5.071
REMARK UNBOUND:                -5.392
REMARK SMILES CCCCCCCCCCCCCCCCCCCCCCCCCCCCCO
REMARK SMILES IDX 16 1 15 2 14 3 13 4 12 5 11 6 10 7 9 8 8 9 7 10 6 11 5 12
REMARK SMILES IDX 4 13 3 14 2 15 1 16 17 17 18 18 19 19 20 20 21 21 22 22
REMARK SMILES IDX 23 23 24 24 25 25 26 26 27 27 28 28 29 29 30 30
REMARK H PARENT 30 31
REMARK Flexibility Score: inf
ROOT
ATOM      1  C   UNL     1       3.752  12.224  14.392  1.00  0.00     0.000 C 
ENDROOT
BRANCH   1   2
ATOM      2  C   UNL     1       4.860  13.281  14.524  1.00  0.00     0.000 C 
BRANCH   2   3
ATOM      3  C   UNL     1       5.219  13.582  15.990  1.00  0.00     0.000 C 
BRANCH   3   4
ATOM      4  C   UNL     1       6.135  14.810  16.145  1.00  0.00     0.000 C 
BRANCH   4   5
ATOM      5  C   UNL     1       7.460  14.551  16.886  1.00  0.00     0.000 C 
BRANCH   5   6
ATOM      6  C   UNL     1       8.338  13.494  16.199  1.00  0.00     0.000 C 
BRANCH   6   7
ATOM      7  C   UNL     1       8.939  12.527  17.230  1.00  0.00     0.000 C 
BRANCH   7   8
ATOM      8  C   UNL     1       8.072  12.390  18.494  1.00  0.00    -0.000 C 
BRANCH   8   9
ATOM      9  C   UNL     1       7.078  11.213  18.473  1.00  0.00    -0.000 C 
BRANCH   9  10
ATOM     10  C   UNL     1       7.454  10.094  17.478  1.00  0.00    -0.000 C 
BRANCH  10  11
ATOM     11  C   UNL     1       6.219   9.361  16.928  1.00  0.00    -0.000 C 
BRANCH  11  12
ATOM     12  C   UNL     1       6.059   9.527  15.409  1.00  0.00    -0.000 C 
BRANCH  12  13
ATOM     13  C   UNL     1       7.083  10.502  14.809  1.00  0.00    -0.000 C 
BRANCH  13  14
ATOM     14  C   UNL     1       7.048  10.458  13.277  1.00  0.00    -0.000 C 
BRANCH  14  15
ATOM     15  C   UNL     1       7.712  11.702  12.677  1.00  0.00    -0.003 C 
ATOM     16  C   UNL     1       8.097  11.470  11.218  1.00  0.00     0.004 C 
ENDBRANCH  14  15
ENDBRANCH  13  14
ENDBRANCH  12  13
ENDBRANCH  11  12
ENDBRANCH  10  11
ENDBRANCH   9  10
ENDBRANCH   8   9
ENDBRANCH   7   8
ENDBRANCH   6   7
ENDBRANCH   5   6
ENDBRANCH   4   5
ENDBRANCH   3   4
ENDBRANCH   2   3
ENDBRANCH   1   2
BRANCH   1  17
ATOM     17  C   UNL     1       3.327  11.982  12.933  1.00  0.00     0.000 C 
BRANCH  17  18
ATOM     18  C   UNL     1       4.185  12.777  11.936  1.00  0.00     0.000 C 
BRANCH  18  19
ATOM     19  C   UNL     1       4.384  12.032  10.606  1.00  0.00     0.000 C 
BRANCH  19  20
ATOM     20  C   UNL     1       3.886  10.577  10.653  1.00  0.00     0.000 C 
BRANCH  20  21
ATOM     21  C   UNL     1       4.980   9.532  10.348  1.00  0.00     0.000 C 
BRANCH  21  22
ATOM     22  C   UNL     1       5.012   8.394  11.384  1.00  0.00     0.000 C 
BRANCH  22  23
ATOM     23  C   UNL     1       3.773   7.484  11.310  1.00  0.00     0.000 C 
BRANCH  23  24
ATOM     24  C   UNL     1       2.584   7.911  12.197  1.00  0.00     0.000 C 
BRANCH  24  25
ATOM     25  C   UNL     1       2.960   8.399  13.611  1.00  0.00     0.000 C 
BRANCH  25  26
ATOM     26  C   UNL     1       3.552   7.298  14.520  1.00  0.00     0.000 C 
BRANCH  26  27
ATOM     27  C   UNL     1       2.625   6.888  15.681  1.00  0.00     0.002 C 
BRANCH  27  28
ATOM     28  C   UNL     1       1.191   7.435  15.583  1.00  0.00     0.028 C 
BRANCH  28  29
ATOM     29  C   UNL     1       0.126   6.384  15.922  1.00  0.00     0.156 C 
BRANCH  29  30
ATOM     30  O   UNL     1      -0.211   6.459  17.279  1.00  0.00    -0.396 OA
ATOM     31  H   UNL     1      -0.926   7.145  17.357  1.00  0.00     0.210 HD
ENDBRANCH  29  30
ENDBRANCH  28  29
ENDBRANCH  27  28
ENDBRANCH  26  27
ENDBRANCH  25  26
ENDBRANCH  24  25
ENDBRANCH  23  24
ENDBRANCH  22  23
ENDBRANCH  21  22
ENDBRANCH  20  21
ENDBRANCH  19  20
ENDBRANCH  18  19
ENDBRANCH  17  18
ENDBRANCH   1  17
TORSDOF 28
ENDMDL
MODEL 9
REMARK VINA RESULT:    -4.268      2.020      5.974
REMARK INTER + INTRA:         -16.522
REMARK INTER:                 -11.210
REMARK INTRA:                  -5.312
REMARK UNBOUND:                -5.392
REMARK SMILES CCCCCCCCCCCCCCCCCCCCCCCCCCCCCO
REMARK SMILES IDX 16 1 15 2 14 3 13 4 12 5 11 6 10 7 9 8 8 9 7 10 6 11 5 12
REMARK SMILES IDX 4 13 3 14 2 15 1 16 17 17 18 18 19 19 20 20 21 21 22 22
REMARK SMILES IDX 23 23 24 24 25 25 26 26 27 27 28 28 29 29 30 30
REMARK H PARENT 30 31
REMARK Flexibility Score: inf
ROOT
ATOM      1  C   UNL     1       4.622  13.364  15.004  1.00  0.00     0.000 C 
ENDROOT
BRANCH   1   2
ATOM      2  C   UNL     1       5.144  13.316  16.448  1.00  0.00     0.000 C 
BRANCH   2   3
ATOM      3  C   UNL     1       5.123  14.694  17.132  1.00  0.00     0.000 C 
BRANCH   3   4
ATOM      4  C   UNL     1       5.886  14.714  18.469  1.00  0.00     0.000 C 
BRANCH   4   5
ATOM      5  C   UNL     1       6.327  13.336  18.994  1.00  0.00     0.000 C 
BRANCH   5   6
ATOM      6  C   UNL     1       7.526  13.410  19.951  1.00  0.00     0.000 C 
BRANCH   6   7
ATOM      7  C   UNL     1       8.850  13.407  19.171  1.00  0.00     0.000 C 
BRANCH   7   8
ATOM      8  C   UNL     1       9.546  12.035  19.186  1.00  0.00    -0.000 C 
BRANCH   8   9
ATOM      9  C   UNL     1       8.939  10.989  18.232  1.00  0.00    -0.000 C 
BRANCH   9  10
ATOM     10  C   UNL     1       8.259   9.805  18.953  1.00  0.00    -0.000 C 
BRANCH  10  11
ATOM     11  C   UNL     1       6.829   9.554  18.444  1.00  0.00    -0.000 C 
BRANCH  11  12
ATOM     12  C   UNL     1       6.592  10.127  17.039  1.00  0.00    -0.000 C 
BRANCH  12  13
ATOM     13  C   UNL     1       5.925   9.119  16.092  1.00  0.00    -0.000 C 
BRANCH  13  14
ATOM     14  C   UNL     1       6.626   9.100  14.729  1.00  0.00    -0.000 C 
BRANCH  14  15
ATOM     15  C   UNL     1       5.814   8.300  13.705  1.00  0.00    -0.003 C 
ATOM     16  C   UNL     1       4.319   8.379  14.005  1.00  0.00     0.004 C 
ENDBRANCH  14  15
ENDBRANCH  13  14
ENDBRANCH  12  13
ENDBRANCH  11  12
ENDBRANCH  10  11
ENDBRANCH   9  10
ENDBRANCH   8   9
ENDBRANCH   7   8
ENDBRANCH   6   7
ENDBRANCH   5   6
ENDBRANCH   4   5
ENDBRANCH   3   4
ENDBRANCH   2   3
ENDBRANCH   1   2
BRANCH   1  17
ATOM     17  C   UNL     1       4.079  12.009  14.517  1.00  0.00     0.000 C 
BRANCH  17  18
ATOM     18  C   UNL     1       3.372  12.119  13.156  1.00  0.00     0.000 C 
BRANCH  18  19
ATOM     19  C   UNL     1       4.211  12.880  12.117  1.00  0.00     0.000 C 
BRANCH  19  20
ATOM     20  C   UNL     1       4.332  12.131  10.779  1.00  0.00     0.000 C 
BRANCH  20  21
ATOM     21  C   UNL     1       4.240  10.596  10.911  1.00  0.00     0.000 C 
BRANCH  21  22
ATOM     22  C   UNL     1       5.537   9.890  10.477  1.00  0.00     0.000 C 
BRANCH  22  23
ATOM     23  C   UNL     1       6.701  10.870  10.243  1.00  0.00     0.000 C 
BRANCH  23  24
ATOM     24  C   UNL     1       7.764  10.915  11.363  1.00  0.00     0.000 C 
BRANCH  24  25
ATOM     25  C   UNL     1       7.869  12.256  12.116  1.00  0.00     0.000 C 
BRANCH  25  26
ATOM     26  C   UNL     1       7.666  12.137  13.644  1.00  0.00     0.000 C 
BRANCH  26  27
ATOM     27  C   UNL     1       8.825  12.728  14.470  1.00  0.00     0.002 C 
BRANCH  27  28
ATOM     28  C   UNL     1       8.389  13.602  15.657  1.00  0.00     0.028 C 
BRANCH  28  29
ATOM     29  C   UNL     1       8.326  15.095  15.310  1.00  0.00     0.156 C 
BRANCH  29  30
ATOM     30  O   UNL     1       8.628  15.289  13.956  1.00  0.00    -0.396 OA
ATOM     31  H   UNL     1       7.973  15.953  13.612  1.00  0.00     0.210 HD
ENDBRANCH  29  30
ENDBRANCH  28  29
ENDBRANCH  27  28
ENDBRANCH  26  27
ENDBRANCH  25  26
ENDBRANCH  24  25
ENDBRANCH  23  24
ENDBRANCH  22  23
ENDBRANCH  21  22
ENDBRANCH  20  21
ENDBRANCH  19  20
ENDBRANCH  18  19
ENDBRANCH  17  18
ENDBRANCH   1  17
TORSDOF 28
ENDMDL
