MODEL 1
REMARK VINA RESULT:    -4.226      0.000      0.000
REMARK INTER + INTRA:          -5.052
REMARK INTER:                  -4.843
REMARK INTRA:                  -0.209
REMARK UNBOUND:                -0.209
REMARK SMILES COc1ccc(C=O)c(O)c1
REMARK SMILES IDX 3 1 11 2 9 3 6 4 5 5 4 6 2 7 1 8 10 9 7 11 8 12
REMARK H PARENT 10 10
REMARK Flexibility Score: inf
ROOT
ATOM      1  C   UNL     1      15.322 -44.978  31.216  1.00  0.00     0.122 A 
ATOM      2  C   UNL     1      16.718 -44.896  31.058  1.00  0.00     0.093 A 
ATOM      3  C   UNL     1      17.301 -45.046  29.789  1.00  0.00     0.129 A 
ATOM      4  C   UNL     1      16.488 -45.282  28.664  1.00  0.00     0.056 A 
ATOM      5  C   UNL     1      15.095 -45.362  28.831  1.00  0.00     0.019 A 
ATOM      6  C   UNL     1      14.521 -45.212  30.095  1.00  0.00     0.047 A 
ENDROOT
BRANCH   1   7
ATOM      7  O   UNL     1      14.696 -44.835  32.464  1.00  0.00    -0.497 OA
ATOM      8  C   UNL     1      14.101 -43.629  32.931  1.00  0.00     0.278 C 
ENDBRANCH   1   7
BRANCH   3   9
ATOM      9  O   UNL     1      18.687 -44.961  29.651  1.00  0.00    -0.507 OA
ATOM     10  H   UNL     1      19.208 -45.625  29.090  1.00  0.00     0.293 HD
ENDBRANCH   3   9
BRANCH   4  11
ATOM     11  C   UNL     1      17.093 -45.441  27.325  1.00  0.00     0.263 C 
ATOM     12  O   UNL     1      17.573 -44.454  26.707  1.00  0.00    -0.298 OA
ENDBRANCH   4  11
TORSDOF 3
ENDMDL
MODEL 2
REMARK VINA RESULT:    -4.172      3.493      3.896
REMARK INTER + INTRA:          -4.991
REMARK INTER:                  -4.730
REMARK INTRA:                  -0.261
REMARK UNBOUND:                -0.209
REMARK SMILES COc1ccc(C=O)c(O)c1
REMARK SMILES IDX 3 1 11 2 9 3 6 4 5 5 4 6 2 7 1 8 10 9 7 11 8 12
REMARK H PARENT 10 10
REMARK Flexibility Score: inf
ROOT
ATOM      1  C   UNL     1      14.933 -43.716  32.918  1.00  0.00     0.122 A 
ATOM      2  C   UNL     1      15.968 -42.765  32.945  1.00  0.00     0.093 A 
ATOM      3  C   UNL     1      17.311 -43.173  32.934  1.00  0.00     0.129 A 
ATOM      4  C   UNL     1      17.630 -44.544  32.896  1.00  0.00     0.056 A 
ATOM      5  C   UNL     1      16.590 -45.488  32.868  1.00  0.00     0.019 A 
ATOM      6  C   UNL     1      15.256 -45.075  32.880  1.00  0.00     0.047 A 
ENDROOT
BRANCH   1   7
ATOM      7  O   UNL     1      13.577 -43.354  32.928  1.00  0.00    -0.497 OA
ATOM      8  C   UNL     1      12.909 -42.707  31.850  1.00  0.00     0.278 C 
ENDBRANCH   1   7
BRANCH   3   9
ATOM      9  O   UNL     1      18.326 -42.215  32.961  1.00  0.00    -0.507 OA
ATOM     10  H   UNL     1      18.252 -41.377  33.525  1.00  0.00     0.293 HD
ENDBRANCH   3   9
BRANCH   4  11
ATOM     11  C   UNL     1      19.041 -44.983  32.884  1.00  0.00     0.263 C 
ATOM     12  O   UNL     1      19.834 -44.600  31.983  1.00  0.00    -0.298 OA
ENDBRANCH   4  11
TORSDOF 3
ENDMDL
MODEL 3
REMARK VINA RESULT:    -4.167      1.782      3.404
REMARK INTER + INTRA:          -4.985
REMARK INTER:                  -4.716
REMARK INTRA:                  -0.268
REMARK UNBOUND:                -0.209
REMARK SMILES COc1ccc(C=O)c(O)c1
REMARK SMILES IDX 3 1 11 2 9 3 6 4 5 5 4 6 2 7 1 8 10 9 7 11 8 12
REMARK H PARENT 10 10
REMARK Flexibility Score: inf
ROOT
ATOM      1  C   UNL     1      15.056 -45.136  30.714  1.00  0.00     0.122 A 
ATOM      2  C   UNL     1      16.209 -45.105  29.908  1.00  0.00     0.093 A 
ATOM      3  C   UNL     1      17.486 -45.097  30.491  1.00  0.00     0.129 A 
ATOM      4  C   UNL     1      17.620 -45.120  31.892  1.00  0.00     0.056 A 
ATOM      5  C   UNL     1      16.464 -45.150  32.691  1.00  0.00     0.019 A 
ATOM      6  C   UNL     1      15.197 -45.158  32.104  1.00  0.00     0.047 A 
ENDROOT
BRANCH   1   7
ATOM      7  O   UNL     1      13.761 -45.144  30.175  1.00  0.00    -0.497 OA
ATOM      8  C   UNL     1      13.468 -45.114  28.782  1.00  0.00     0.278 C 
ENDBRANCH   1   7
BRANCH   3   9
ATOM      9  O   UNL     1      18.619 -45.067  29.676  1.00  0.00    -0.507 OA
ATOM     10  H   UNL     1      18.670 -45.602  28.817  1.00  0.00     0.293 HD
ENDBRANCH   3   9
BRANCH   4  11
ATOM     11  C   UNL     1      18.960 -45.112  32.515  1.00  0.00     0.263 C 
ATOM     12  O   UNL     1      19.813 -44.235  32.212  1.00  0.00    -0.298 OA
ENDBRANCH   4  11
TORSDOF 3
ENDMDL
MODEL 4
REMARK VINA RESULT:    -4.079      1.154      4.291
REMARK INTER + INTRA:          -4.884
REMARK INTER:                  -4.622
REMARK INTRA:                  -0.262
REMARK UNBOUND:                -0.209
REMARK SMILES COc1ccc(C=O)c(O)c1
REMARK SMILES IDX 3 1 11 2 9 3 6 4 5 5 4 6 2 7 1 8 10 9 7 11 8 12
REMARK H PARENT 10 10
REMARK Flexibility Score: inf
ROOT
ATOM      1  C   UNL     1      16.843 -45.267  28.448  1.00  0.00     0.122 A 
ATOM      2  C   UNL     1      17.664 -45.208  29.589  1.00  0.00     0.093 A 
ATOM      3  C   UNL     1      17.098 -45.102  30.869  1.00  0.00     0.129 A 
ATOM      4  C   UNL     1      15.699 -45.053  31.019  1.00  0.00     0.056 A 
ATOM      5  C   UNL     1      14.886 -45.113  29.875  1.00  0.00     0.019 A 
ATOM      6  C   UNL     1      15.455 -45.218  28.604  1.00  0.00     0.047 A 
ENDROOT
BRANCH   1   7
ATOM      7  O   UNL     1      17.364 -45.373  27.150  1.00  0.00    -0.497 OA
ATOM      8  C   UNL     1      17.393 -44.308  26.205  1.00  0.00     0.278 C 
ENDBRANCH   1   7
BRANCH   3   9
ATOM      9  O   UNL     1      17.929 -45.045  31.990  1.00  0.00    -0.507 OA
ATOM     10  H   UNL     1      18.046 -45.841  32.606  1.00  0.00     0.293 HD
ENDBRANCH   3   9
BRANCH   4  11
ATOM     11  C   UNL     1      15.095 -44.942  32.363  1.00  0.00     0.263 C 
ATOM     12  O   UNL     1      15.327 -45.802  33.254  1.00  0.00    -0.298 OA
ENDBRANCH   4  11
TORSDOF 3
ENDMDL
MODEL 5
REMARK VINA RESULT:    -4.043      3.460      4.417
REMARK INTER + INTRA:          -4.843
REMARK INTER:                  -4.581
REMARK INTRA:                  -0.261
REMARK UNBOUND:                -0.209
REMARK SMILES COc1ccc(C=O)c(O)c1
REMARK SMILES IDX 3 1 11 2 9 3 6 4 5 5 4 6 2 7 1 8 10 9 7 11 8 12
REMARK H PARENT 10 10
REMARK Flexibility Score: inf
ROOT
ATOM      1  C   UNL     1      15.564 -43.867  32.944  1.00  0.00     0.122 A 
ATOM      2  C   UNL     1      16.430 -44.929  32.626  1.00  0.00     0.093 A 
ATOM      3  C   UNL     1      17.822 -44.759  32.697  1.00  0.00     0.129 A 
ATOM      4  C   UNL     1      18.361 -43.519  33.089  1.00  0.00     0.056 A 
ATOM      5  C   UNL     1      17.489 -42.463  33.405  1.00  0.00     0.019 A 
ATOM      6  C   UNL     1      16.106 -42.638  33.332  1.00  0.00     0.047 A 
ENDROOT
BRANCH   1   7
ATOM      7  O   UNL     1      14.168 -43.990  32.887  1.00  0.00    -0.497 OA
ATOM      8  C   UNL     1      13.305 -43.072  32.225  1.00  0.00     0.278 C 
ENDBRANCH   1   7
BRANCH   3   9
ATOM      9  O   UNL     1      18.666 -45.824  32.378  1.00  0.00    -0.507 OA
ATOM     10  H   UNL     1      18.576 -46.333  31.507  1.00  0.00     0.293 HD
ENDBRANCH   3   9
BRANCH   4  11
ATOM     11  C   UNL     1      19.825 -43.331  33.166  1.00  0.00     0.263 C 
ATOM     12  O   UNL     1      20.530 -44.031  33.941  1.00  0.00    -0.298 OA
ENDBRANCH   4  11
TORSDOF 3
ENDMDL
MODEL 6
REMARK VINA RESULT:    -4.026      3.674      5.091
REMARK INTER + INTRA:          -4.823
REMARK INTER:                  -4.552
REMARK INTRA:                  -0.271
REMARK UNBOUND:                -0.209
REMARK SMILES COc1ccc(C=O)c(O)c1
REMARK SMILES IDX 3 1 11 2 9 3 6 4 5 5 4 6 2 7 1 8 10 9 7 11 8 12
REMARK H PARENT 10 10
REMARK Flexibility Score: inf
ROOT
ATOM      1  C   UNL     1      18.239 -44.377  32.992  1.00  0.00     0.122 A 
ATOM      2  C   UNL     1      17.800 -43.060  33.219  1.00  0.00     0.093 A 
ATOM      3  C   UNL     1      16.431 -42.752  33.198  1.00  0.00     0.129 A 
ATOM      4  C   UNL     1      15.485 -43.764  32.948  1.00  0.00     0.056 A 
ATOM      5  C   UNL     1      15.931 -45.078  32.723  1.00  0.00     0.019 A 
ATOM      6  C   UNL     1      17.295 -45.377  32.745  1.00  0.00     0.047 A 
ENDROOT
BRANCH   1   7
ATOM      7  O   UNL     1      19.597 -44.731  33.004  1.00  0.00    -0.497 OA
ATOM      8  C   UNL     1      20.099 -45.978  33.471  1.00  0.00     0.278 C 
ENDBRANCH   1   7
BRANCH   3   9
ATOM      9  O   UNL     1      16.013 -41.439  33.426  1.00  0.00    -0.507 OA
ATOM     10  H   UNL     1      16.299 -40.925  34.251  1.00  0.00     0.293 HD
ENDBRANCH   3   9
BRANCH   4  11
ATOM     11  C   UNL     1      14.041 -43.450  32.924  1.00  0.00     0.263 C 
ATOM     12  O   UNL     1      13.585 -42.548  32.171  1.00  0.00    -0.298 OA
ENDBRANCH   4  11
TORSDOF 3
ENDMDL
MODEL 7
REMARK VINA RESULT:    -4.009      3.245      3.706
REMARK INTER + INTRA:          -4.804
REMARK INTER:                  -4.538
REMARK INTRA:                  -0.266
REMARK UNBOUND:                -0.209
REMARK SMILES COc1ccc(C=O)c(O)c1
REMARK SMILES IDX 3 1 11 2 9 3 6 4 5 5 4 6 2 7 1 8 10 9 7 11 8 12
REMARK H PARENT 10 10
REMARK Flexibility Score: inf
ROOT
ATOM      1  C   UNL     1      17.466 -44.838  32.623  1.00  0.00     0.122 A 
ATOM      2  C   UNL     1      18.580 -45.216  31.850  1.00  0.00     0.093 A 
ATOM      3  C   UNL     1      19.380 -44.243  31.231  1.00  0.00     0.129 A 
ATOM      4  C   UNL     1      19.070 -42.878  31.380  1.00  0.00     0.056 A 
ATOM      5  C   UNL     1      17.956 -42.509  32.153  1.00  0.00     0.019 A 
ATOM      6  C   UNL     1      17.165 -43.481  32.767  1.00  0.00     0.047 A 
ENDROOT
BRANCH   1   7
ATOM      7  O   UNL     1      16.639 -45.776  33.260  1.00  0.00    -0.497 OA
ATOM      8  C   UNL     1      15.217 -45.777  33.184  1.00  0.00     0.278 C 
ENDBRANCH   1   7
BRANCH   3   9
ATOM      9  O   UNL     1      20.482 -44.636  30.469  1.00  0.00    -0.507 OA
ATOM     10  H   UNL     1      20.431 -44.712  29.460  1.00  0.00     0.293 HD
ENDBRANCH   3   9
BRANCH   4  11
ATOM     11  C   UNL     1      19.907 -41.846  30.731  1.00  0.00     0.263 C 
ATOM     12  O   UNL     1      20.222 -41.936  29.515  1.00  0.00    -0.298 OA
ENDBRANCH   4  11
TORSDOF 3
ENDMDL
MODEL 8
REMARK VINA RESULT:    -3.965      4.796      5.997
REMARK INTER + INTRA:          -4.753
REMARK INTER:                  -4.492
REMARK INTRA:                  -0.261
REMARK UNBOUND:                -0.209
REMARK SMILES COc1ccc(C=O)c(O)c1
REMARK SMILES IDX 3 1 11 2 9 3 6 4 5 5 4 6 2 7 1 8 10 9 7 11 8 12
REMARK H PARENT 10 10
REMARK Flexibility Score: inf
ROOT
ATOM      1  C   UNL     1      18.579 -39.700  27.271  1.00  0.00     0.122 A 
ATOM      2  C   UNL     1      18.520 -40.858  28.067  1.00  0.00     0.093 A 
ATOM      3  C   UNL     1      18.403 -42.125  27.473  1.00  0.00     0.129 A 
ATOM      4  C   UNL     1      18.342 -42.242  26.071  1.00  0.00     0.056 A 
ATOM      5  C   UNL     1      18.402 -41.080  25.283  1.00  0.00     0.019 A 
ATOM      6  C   UNL     1      18.519 -39.823  25.881  1.00  0.00     0.047 A 
ENDROOT
BRANCH   1   7
ATOM      7  O   UNL     1      18.696 -38.414  27.821  1.00  0.00    -0.497 OA
ATOM      8  C   UNL     1      19.734 -38.010  28.708  1.00  0.00     0.278 C 
ENDBRANCH   1   7
BRANCH   3   9
ATOM      9  O   UNL     1      18.346 -43.264  28.277  1.00  0.00    -0.507 OA
ATOM     10  H   UNL     1      17.468 -43.615  28.643  1.00  0.00     0.293 HD
ENDBRANCH   3   9
BRANCH   4  11
ATOM     11  C   UNL     1      18.219 -43.571  25.436  1.00  0.00     0.263 C 
ATOM     12  O   UNL     1      17.362 -44.405  25.835  1.00  0.00    -0.298 OA
ENDBRANCH   4  11
TORSDOF 3
ENDMDL
MODEL 9
REMARK VINA RESULT:    -3.936      3.024      4.064
REMARK INTER + INTRA:          -4.720
REMARK INTER:                  -4.454
REMARK INTRA:                  -0.266
REMARK UNBOUND:                -0.209
REMARK SMILES COc1ccc(C=O)c(O)c1
REMARK SMILES IDX 3 1 11 2 9 3 6 4 5 5 4 6 2 7 1 8 10 9 7 11 8 12
REMARK H PARENT 10 10
REMARK Flexibility Score: inf
ROOT
ATOM      1  C   UNL     1      13.570 -43.838  31.448  1.00  0.00     0.122 A 
ATOM      2  C   UNL     1      14.104 -43.078  32.504  1.00  0.00     0.093 A 
ATOM      3  C   UNL     1      15.406 -43.322  32.971  1.00  0.00     0.129 A 
ATOM      4  C   UNL     1      16.187 -44.334  32.382  1.00  0.00     0.056 A 
ATOM      5  C   UNL     1      15.646 -45.089  31.327  1.00  0.00     0.019 A 
ATOM      6  C   UNL     1      14.351 -44.841  30.867  1.00  0.00     0.047 A 
ENDROOT
BRANCH   1   7
ATOM      7  O   UNL     1      12.275 -43.629  30.950  1.00  0.00    -0.497 OA
ATOM      8  C   UNL     1      11.689 -42.348  30.745  1.00  0.00     0.278 C 
ENDBRANCH   1   7
BRANCH   3   9
ATOM      9  O   UNL     1      15.920 -42.557  34.020  1.00  0.00    -0.507 OA
ATOM     10  H   UNL     1      15.867 -42.870  34.982  1.00  0.00     0.293 HD
ENDBRANCH   3   9
BRANCH   4  11
ATOM     11  C   UNL     1      17.557 -44.599  32.866  1.00  0.00     0.263 C 
ATOM     12  O   UNL     1      18.410 -43.674  32.941  1.00  0.00    -0.298 OA
ENDBRANCH   4  11
TORSDOF 3
ENDMDL
