MODEL 1
REMARK VINA RESULT:    -6.799      0.000      0.000
REMARK INTER + INTRA:         -17.226
REMARK INTER:                 -14.350
REMARK INTRA:                  -2.876
REMARK UNBOUND:                -2.876
REMARK SMILES CCC(=O)CCCCC[C@@H]1NC(=O)[C@@H]2CCCCN2C(=O)[C@H]([C@@H](C)CC)NC(=O)[C@@H](Cc2cn(OC)c3ccccc23)NC1=O
REMARK SMILES IDX 9 1 10 2 44 3 43 4 45 6 30 7 28 8 27 9 29 11 22 12 23 14
REMARK SMILES IDX 24 15 25 16 26 17 31 18 32 19 33 20 42 21 34 22 37 23 41 24
REMARK SMILES IDX 38 25 40 26 39 27 35 28 36 29 11 30 12 31 13 33 14 34 19 35
REMARK SMILES IDX 15 36 18 37 16 38 17 39 20 40 21 41 8 43 7 44 6 45 5 46 3 47
REMARK SMILES IDX 4 48 2 49 1 50
REMARK H PARENT 43 5 27 10 11 32
REMARK Flexibility Score: 80.00
ROOT
ATOM      1  C   UNL     1      15.454 -32.237  21.863  1.00  0.00     0.035 C 
ENDROOT
BRANCH   1   2
ATOM      2  C   UNL     1      16.956 -31.985  21.597  1.00  0.00     0.171 C 
BRANCH   2   3
ATOM      3  C   UNL     1      17.424 -30.627  22.060  1.00  0.00     0.243 C 
ATOM      4  N   UNL     1      17.992 -29.717  21.107  1.00  0.00    -0.342 N 
ATOM      5  H   UNL     1      17.728 -29.847  20.103  1.00  0.00     0.164 HD
ATOM      6  O   UNL     1      17.370 -30.304  23.284  1.00  0.00    -0.273 OA
BRANCH   4   7
ATOM      7  C   UNL     1      19.262 -29.049  21.400  1.00  0.00     0.175 C 
BRANCH   7   8
ATOM      8  C   UNL     1      20.330 -30.089  21.631  1.00  0.00     0.243 C 
ATOM      9  N   UNL     1      20.678 -30.489  22.965  1.00  0.00    -0.342 N 
ATOM     10  H   UNL     1      20.280 -29.942  23.762  1.00  0.00     0.164 HD
ATOM     11  O   UNL     1      20.942 -30.583  20.643  1.00  0.00    -0.273 OA
BRANCH   9  12
ATOM     12  C   UNL     1      21.624 -31.582  23.211  1.00  0.00     0.174 CG0
ATOM     13  G   UNL     1      20.869 -32.793  23.723  1.00  0.00     0.000 G0
BRANCH  12  14
ATOM     14  C   UNL     1      22.807 -31.110  24.114  1.00  0.00     0.018 C 
ATOM     15  C   UNL     1      24.199 -31.492  23.569  1.00  0.00     0.010 C 
BRANCH  14  16
ATOM     16  C   UNL     1      22.767 -29.591  24.417  1.00  0.00     0.002 C 
ATOM     17  C   UNL     1      24.009 -28.844  23.922  1.00  0.00     0.004 C 
ENDBRANCH  14  16
ENDBRANCH  12  14
ENDBRANCH   9  12
ENDBRANCH   7   8
BRANCH   7  18
ATOM     18  C   UNL     1      19.643 -28.055  20.283  1.00  0.00     0.073 C 
BRANCH  18  19
ATOM     19  C   UNL     1      20.319 -26.806  20.785  1.00  0.00    -0.016 A 
ATOM     20  C   UNL     1      19.789 -25.862  21.663  1.00  0.00     0.134 A 
ATOM     21  C   UNL     1      21.555 -26.312  20.400  1.00  0.00     0.006 A 
ATOM     22  N   UNL     1      20.667 -24.840  21.820  1.00  0.00    -0.191 N 
ATOM     23  C   UNL     1      21.731 -25.116  21.048  1.00  0.00     0.087 A 
ATOM     24  C   UNL     1      22.513 -26.812  19.514  1.00  0.00     0.011 A 
ATOM     25  C   UNL     1      22.874 -24.336  20.856  1.00  0.00     0.030 A 
ATOM     26  C   UNL     1      23.671 -26.044  19.296  1.00  0.00     0.001 A 
ATOM     27  C   UNL     1      23.852 -24.813  19.964  1.00  0.00     0.002 A 
BRANCH  22  28
ATOM     28  O   UNL     1      20.512 -23.703  22.592  1.00  0.00    -0.417 OA
ATOM     29  C   UNL     1      20.803 -23.686  23.986  1.00  0.00     0.313 C 
ENDBRANCH  22  28
ENDBRANCH  18  19
ENDBRANCH   7  18
ENDBRANCH   4   7
ENDBRANCH   2   3
BRANCH   2  30
ATOM     30  N   UNL     1      17.790 -33.030  22.207  1.00  0.00    -0.343 N 
ATOM     31  C   UNL     1      18.956 -33.602  21.584  1.00  0.00     0.243 C 
ATOM     32  H   UNL     1      17.497 -33.385  23.142  1.00  0.00     0.164 HD
ATOM     33  O   UNL     1      19.302 -33.231  20.431  1.00  0.00    -0.273 OA
BRANCH  31  34
ATOM     34  C   UNL     1      19.782 -34.632  22.331  1.00  0.00     0.174 C 
ATOM     35  N   UNL     1      20.915 -34.066  23.092  1.00  0.00    -0.329 N 
ATOM     36  C   UNL     1      18.922 -35.491  23.272  1.00  0.00     0.035 C 
ATOM     37  C   UNL     1      21.820 -35.064  23.669  1.00  0.00     0.120 C 
ATOM     38  C   UNL     1      19.792 -36.570  23.940  1.00  0.00     0.004 C 
ATOM     39  C   UNL     1      21.032 -35.966  24.630  1.00  0.00     0.022 C 
BRANCH  35  40
ATOM     40  C   UNL     1      20.841 -32.784  23.745  1.00  0.00     0.246 CG0
ATOM     41  O   UNL     1      20.054 -32.631  24.718  1.00  0.00    -0.272 OA
ATOM     42  G   UNL     1      21.618 -31.605  23.195  1.00  0.00     0.000 G0
ENDBRANCH  35  40
ENDBRANCH  31  34
ENDBRANCH   2  30
ENDBRANCH   1   2
BRANCH   1  43
ATOM     43  C   UNL     1      15.229 -33.145  23.083  1.00  0.00     0.003 C 
BRANCH  43  44
ATOM     44  C   UNL     1      14.337 -32.454  24.126  1.00  0.00     0.001 C 
BRANCH  44  45
ATOM     45  C   UNL     1      13.196 -31.647  23.487  1.00  0.00     0.008 C 
BRANCH  45  46
ATOM     46  C   UNL     1      13.507 -30.141  23.431  1.00  0.00     0.075 C 
BRANCH  46  47
ATOM     47  C   UNL     1      12.253 -29.340  23.212  1.00  0.00     0.132 C 
ATOM     48  O   UNL     1      11.403 -29.756  22.440  1.00  0.00    -0.300 OA
BRANCH  47  49
ATOM     49  C   UNL     1      12.017 -28.076  24.004  1.00  0.00     0.072 C 
ATOM     50  C   UNL     1      13.305 -27.318  24.325  1.00  0.00     0.012 C 
ENDBRANCH  47  49
ENDBRANCH  46  47
ENDBRANCH  45  46
ENDBRANCH  44  45
ENDBRANCH  43  44
ENDBRANCH   1  43
TORSDOF 12
ENDMDL
MODEL 2
REMARK VINA RESULT:    -6.765      2.166      2.878
REMARK INTER + INTRA:         -17.155
REMARK INTER:                 -15.218
REMARK INTRA:                  -1.937
REMARK UNBOUND:                -2.876
REMARK SMILES CCC(=O)CCCCC[C@@H]1NC(=O)[C@@H]2CCCCN2C(=O)[C@H]([C@@H](C)CC)NC(=O)[C@@H](Cc2cn(OC)c3ccccc23)NC1=O
REMARK SMILES IDX 9 1 10 2 44 3 43 4 45 6 30 7 28 8 27 9 29 11 22 12 23 14
REMARK SMILES IDX 24 15 25 16 26 17 31 18 32 19 33 20 42 21 34 22 37 23 41 24
REMARK SMILES IDX 38 25 40 26 39 27 35 28 36 29 11 30 12 31 13 33 14 34 19 35
REMARK SMILES IDX 15 36 18 37 16 38 17 39 20 40 21 41 8 43 7 44 6 45 5 46 3 47
REMARK SMILES IDX 4 48 2 49 1 50
REMARK H PARENT 43 5 27 10 11 32
REMARK Flexibility Score: 80.00
ROOT
ATOM      1  C   UNL     1      15.126 -33.498  21.556  1.00  0.00     0.035 C 
ENDROOT
BRANCH   1   2
ATOM      2  C   UNL     1      16.662 -33.376  21.431  1.00  0.00     0.171 C 
BRANCH   2   3
ATOM      3  C   UNL     1      17.176 -31.990  21.735  1.00  0.00     0.243 C 
ATOM      4  N   UNL     1      18.335 -31.503  21.043  1.00  0.00    -0.342 N 
ATOM      5  H   UNL     1      18.557 -31.934  20.115  1.00  0.00     0.164 HD
ATOM      6  O   UNL     1      16.629 -31.275  22.627  1.00  0.00    -0.273 OA
BRANCH   4   7
ATOM      7  C   UNL     1      19.434 -30.894  21.796  1.00  0.00     0.175 C 
BRANCH   7   8
ATOM      8  C   UNL     1      20.117 -31.953  22.624  1.00  0.00     0.243 C 
ATOM      9  N   UNL     1      19.877 -32.038  24.036  1.00  0.00    -0.342 N 
ATOM     10  H   UNL     1      19.339 -31.266  24.491  1.00  0.00     0.164 HD
ATOM     11  O   UNL     1      20.930 -32.747  22.072  1.00  0.00    -0.273 OA
BRANCH   9  12
ATOM     12  C   UNL     1      20.433 -33.131  24.840  1.00  0.00     0.174 CG0
ATOM     13  G   UNL     1      19.300 -33.941  25.438  1.00  0.00     0.000 G0
BRANCH  12  14
ATOM     14  C   UNL     1      21.479 -32.597  25.869  1.00  0.00     0.018 C 
ATOM     15  C   UNL     1      22.939 -32.944  25.512  1.00  0.00     0.010 C 
BRANCH  14  16
ATOM     16  C   UNL     1      21.355 -31.074  26.123  1.00  0.00     0.002 C 
ATOM     17  C   UNL     1      20.386 -30.728  27.257  1.00  0.00     0.004 C 
ENDBRANCH  14  16
ENDBRANCH  12  14
ENDBRANCH   9  12
ENDBRANCH   7   8
BRANCH   7  18
ATOM     18  C   UNL     1      20.415 -30.159  20.858  1.00  0.00     0.073 C 
BRANCH  18  19
ATOM     19  C   UNL     1      21.237 -29.101  21.546  1.00  0.00    -0.016 A 
ATOM     20  C   UNL     1      22.048 -29.267  22.667  1.00  0.00     0.134 A 
ATOM     21  C   UNL     1      21.270 -27.747  21.253  1.00  0.00     0.006 A 
ATOM     22  N   UNL     1      22.567 -28.070  23.037  1.00  0.00    -0.191 N 
ATOM     23  C   UNL     1      22.087 -27.153  22.181  1.00  0.00     0.087 A 
ATOM     24  C   UNL     1      20.623 -27.001  20.264  1.00  0.00     0.011 A 
ATOM     25  C   UNL     1      22.314 -25.775  22.187  1.00  0.00     0.030 A 
ATOM     26  C   UNL     1      20.829 -25.609  20.250  1.00  0.00     0.001 A 
ATOM     27  C   UNL     1      21.671 -24.999  21.206  1.00  0.00     0.002 A 
BRANCH  22  28
ATOM     28  O   UNL     1      23.405 -27.805  24.105  1.00  0.00    -0.417 OA
ATOM     29  C   UNL     1      24.386 -28.736  24.551  1.00  0.00     0.313 C 
ENDBRANCH  22  28
ENDBRANCH  18  19
ENDBRANCH   7  18
ENDBRANCH   4   7
ENDBRANCH   2   3
BRANCH   2  30
ATOM     30  N   UNL     1      17.348 -34.355  22.285  1.00  0.00    -0.343 N 
ATOM     31  C   UNL     1      16.974 -34.648  23.644  1.00  0.00     0.243 C 
ATOM     32  H   UNL     1      18.170 -34.848  21.874  1.00  0.00     0.164 HD
ATOM     33  O   UNL     1      16.020 -34.028  24.183  1.00  0.00    -0.273 OA
BRANCH  31  34
ATOM     34  C   UNL     1      17.714 -35.725  24.415  1.00  0.00     0.174 C 
ATOM     35  N   UNL     1      19.031 -35.303  24.934  1.00  0.00    -0.329 N 
ATOM     36  C   UNL     1      16.874 -36.288  25.572  1.00  0.00     0.035 C 
ATOM     37  C   UNL     1      19.828 -36.382  25.523  1.00  0.00     0.120 C 
ATOM     38  C   UNL     1      17.637 -37.430  26.268  1.00  0.00     0.004 C 
ATOM     39  C   UNL     1      19.054 -37.000  26.697  1.00  0.00     0.022 C 
BRANCH  35  40
ATOM     40  C   UNL     1      19.282 -33.964  25.402  1.00  0.00     0.246 CG0
ATOM     41  O   UNL     1      18.488 -33.439  26.228  1.00  0.00    -0.272 OA
ATOM     42  G   UNL     1      20.427 -33.158  24.822  1.00  0.00     0.000 G0
ENDBRANCH  35  40
ENDBRANCH  31  34
ENDBRANCH   2  30
ENDBRANCH   1   2
BRANCH   1  43
ATOM     43  C   UNL     1      14.417 -33.251  20.215  1.00  0.00     0.003 C 
BRANCH  43  44
ATOM     44  C   UNL     1      13.377 -32.126  20.342  1.00  0.00     0.001 C 
BRANCH  44  45
ATOM     45  C   UNL     1      13.623 -31.229  21.565  1.00  0.00     0.008 C 
BRANCH  45  46
ATOM     46  C   UNL     1      12.321 -30.618  22.111  1.00  0.00     0.075 C 
BRANCH  46  47
ATOM     47  C   UNL     1      12.573 -29.868  23.391  1.00  0.00     0.132 C 
ATOM     48  O   UNL     1      13.426 -30.275  24.165  1.00  0.00    -0.300 OA
BRANCH  47  49
ATOM     49  C   UNL     1      11.833 -28.582  23.670  1.00  0.00     0.072 C 
ATOM     50  C   UNL     1      12.761 -27.413  24.000  1.00  0.00     0.012 C 
ENDBRANCH  47  49
ENDBRANCH  46  47
ENDBRANCH  45  46
ENDBRANCH  44  45
ENDBRANCH  43  44
ENDBRANCH   1  43
TORSDOF 12
ENDMDL
MODEL 3
REMARK VINA RESULT:    -6.595      2.764      7.780
REMARK INTER + INTRA:         -16.797
REMARK INTER:                 -13.930
REMARK INTRA:                  -2.867
REMARK UNBOUND:                -2.876
REMARK SMILES CCC(=O)CCCCC[C@@H]1NC(=O)[C@@H]2CCCCN2C(=O)[C@H]([C@@H](C)CC)NC(=O)[C@@H](Cc2cn(OC)c3ccccc23)NC1=O
REMARK SMILES IDX 9 1 10 2 44 3 43 4 45 6 30 7 28 8 27 9 29 11 22 12 23 14
REMARK SMILES IDX 24 15 25 16 26 17 31 18 32 19 33 20 42 21 34 22 37 23 41 24
REMARK SMILES IDX 38 25 40 26 39 27 35 28 36 29 11 30 12 31 13 33 14 34 19 35
REMARK SMILES IDX 15 36 18 37 16 38 17 39 20 40 21 41 8 43 7 44 6 45 5 46 3 47
REMARK SMILES IDX 4 48 2 49 1 50
REMARK H PARENT 43 5 27 10 11 32
REMARK Flexibility Score: 80.00
ROOT
ATOM      1  C   UNL     1      20.695 -28.775  20.628  1.00  0.00     0.035 C 
ENDROOT
BRANCH   1   2
ATOM      2  C   UNL     1      20.385 -30.226  21.061  1.00  0.00     0.171 C 
BRANCH   2   3
ATOM      3  C   UNL     1      21.253 -30.707  22.198  1.00  0.00     0.243 C 
ATOM      4  N   UNL     1      22.160 -31.796  21.977  1.00  0.00    -0.342 N 
ATOM      5  H   UNL     1      22.472 -31.969  20.993  1.00  0.00     0.164 HD
ATOM      6  O   UNL     1      21.151 -30.197  23.353  1.00  0.00    -0.273 OA
BRANCH   4   7
ATOM      7  C   UNL     1      22.196 -32.921  22.914  1.00  0.00     0.175 C 
BRANCH   7   8
ATOM      8  C   UNL     1      20.835 -33.569  22.966  1.00  0.00     0.243 C 
ATOM      9  N   UNL     1      19.879 -33.173  23.960  1.00  0.00    -0.342 N 
ATOM     10  H   UNL     1      20.200 -32.538  24.726  1.00  0.00     0.164 HD
ATOM     11  O   UNL     1      20.552 -34.489  22.148  1.00  0.00    -0.273 OA
BRANCH   9  12
ATOM     12  C   UNL     1      18.510 -33.699  23.955  1.00  0.00     0.174 CG0
ATOM     13  G   UNL     1      17.530 -32.550  23.835  1.00  0.00     0.000 G0
BRANCH  12  14
ATOM     14  C   UNL     1      18.268 -34.651  25.170  1.00  0.00     0.018 C 
ATOM     15  C   UNL     1      16.883 -35.330  25.164  1.00  0.00     0.010 C 
BRANCH  14  16
ATOM     16  C   UNL     1      19.373 -35.725  25.325  1.00  0.00     0.002 C 
ATOM     17  C   UNL     1      19.173 -36.934  24.406  1.00  0.00     0.004 C 
ENDBRANCH  14  16
ENDBRANCH  12  14
ENDBRANCH   9  12
ENDBRANCH   7   8
BRANCH   7  18
ATOM     18  C   UNL     1      23.309 -33.924  22.545  1.00  0.00     0.073 C 
BRANCH  18  19
ATOM     19  C   UNL     1      24.671 -33.537  23.060  1.00  0.00    -0.016 A 
ATOM     20  C   UNL     1      24.980 -32.451  23.876  1.00  0.00     0.134 A 
ATOM     21  C   UNL     1      25.882 -34.132  22.747  1.00  0.00     0.006 A 
ATOM     22  N   UNL     1      26.322 -32.389  24.066  1.00  0.00    -0.191 N 
ATOM     23  C   UNL     1      26.862 -33.407  23.375  1.00  0.00     0.087 A 
ATOM     24  C   UNL     1      26.189 -35.231  21.941  1.00  0.00     0.011 A 
ATOM     25  C   UNL     1      28.215 -33.726  23.241  1.00  0.00     0.030 A 
ATOM     26  C   UNL     1      27.545 -35.573  21.783  1.00  0.00     0.001 A 
ATOM     27  C   UNL     1      28.554 -34.825  22.431  1.00  0.00     0.002 A 
BRANCH  22  28
ATOM     28  O   UNL     1      27.030 -31.453  24.798  1.00  0.00    -0.417 OA
ATOM     29  C   UNL     1      27.120 -31.507  26.218  1.00  0.00     0.313 C 
ENDBRANCH  22  28
ENDBRANCH  18  19
ENDBRANCH   7  18
ENDBRANCH   4   7
ENDBRANCH   2   3
BRANCH   2  30
ATOM     30  N   UNL     1      18.969 -30.388  21.418  1.00  0.00    -0.343 N 
ATOM     31  C   UNL     1      18.178 -31.546  21.090  1.00  0.00     0.243 C 
ATOM     32  H   UNL     1      18.513 -29.597  21.922  1.00  0.00     0.164 HD
ATOM     33  O   UNL     1      18.687 -32.492  20.433  1.00  0.00    -0.273 OA
BRANCH  31  34
ATOM     34  C   UNL     1      16.739 -31.636  21.562  1.00  0.00     0.174 C 
ATOM     35  N   UNL     1      16.548 -32.462  22.772  1.00  0.00    -0.329 N 
ATOM     36  C   UNL     1      16.120 -30.249  21.797  1.00  0.00     0.035 C 
ATOM     37  C   UNL     1      15.148 -32.701  23.132  1.00  0.00     0.120 C 
ATOM     38  C   UNL     1      14.640 -30.395  22.193  1.00  0.00     0.004 C 
ATOM     39  C   UNL     1      14.454 -31.354  23.386  1.00  0.00     0.022 C 
BRANCH  35  40
ATOM     40  C   UNL     1      17.521 -32.511  23.833  1.00  0.00     0.246 CG0
ATOM     41  O   UNL     1      17.631 -31.530  24.617  1.00  0.00    -0.272 OA
ATOM     42  G   UNL     1      18.476 -33.684  23.935  1.00  0.00     0.000 G0
ENDBRANCH  35  40
ENDBRANCH  31  34
ENDBRANCH   2  30
ENDBRANCH   1   2
BRANCH   1  43
ATOM     43  C   UNL     1      19.501 -27.835  20.867  1.00  0.00     0.003 C 
BRANCH  43  44
ATOM     44  C   UNL     1      19.979 -26.418  21.220  1.00  0.00     0.001 C 
BRANCH  44  45
ATOM     45  C   UNL     1      20.709 -25.732  20.054  1.00  0.00     0.008 C 
BRANCH  45  46
ATOM     46  C   UNL     1      22.029 -25.079  20.495  1.00  0.00     0.075 C 
BRANCH  46  47
ATOM     47  C   UNL     1      23.179 -25.566  19.656  1.00  0.00     0.132 C 
ATOM     48  O   UNL     1      23.601 -24.861  18.752  1.00  0.00    -0.300 OA
BRANCH  47  49
ATOM     49  C   UNL     1      23.852 -26.877  19.986  1.00  0.00     0.072 C 
ATOM     50  C   UNL     1      23.799 -27.223  21.474  1.00  0.00     0.012 C 
ENDBRANCH  47  49
ENDBRANCH  46  47
ENDBRANCH  45  46
ENDBRANCH  44  45
ENDBRANCH  43  44
ENDBRANCH   1  43
TORSDOF 12
ENDMDL
MODEL 4
REMARK VINA RESULT:    -6.472      2.042      7.895
REMARK INTER + INTRA:         -16.537
REMARK INTER:                 -13.502
REMARK INTRA:                  -3.035
REMARK UNBOUND:                -2.876
REMARK SMILES CCC(=O)CCCCC[C@@H]1NC(=O)[C@@H]2CCCCN2C(=O)[C@H]([C@@H](C)CC)NC(=O)[C@@H](Cc2cn(OC)c3ccccc23)NC1=O
REMARK SMILES IDX 9 1 10 2 44 3 43 4 45 6 30 7 28 8 27 9 29 11 22 12 23 14
REMARK SMILES IDX 24 15 25 16 26 17 31 18 32 19 33 20 42 21 34 22 37 23 41 24
REMARK SMILES IDX 38 25 40 26 39 27 35 28 36 29 11 30 12 31 13 33 14 34 19 35
REMARK SMILES IDX 15 36 18 37 16 38 17 39 20 40 21 41 8 43 7 44 6 45 5 46 3 47
REMARK SMILES IDX 4 48 2 49 1 50
REMARK H PARENT 43 5 27 10 11 32
REMARK Flexibility Score: 80.00
ROOT
ATOM      1  C   UNL     1      21.750 -28.123  20.878  1.00  0.00     0.035 C 
ENDROOT
BRANCH   1   2
ATOM      2  C   UNL     1      21.485 -29.121  22.029  1.00  0.00     0.171 C 
BRANCH   2   3
ATOM      3  C   UNL     1      20.496 -30.201  21.666  1.00  0.00     0.243 C 
ATOM      4  N   UNL     1      19.289 -30.335  22.431  1.00  0.00    -0.342 N 
ATOM      5  H   UNL     1      18.949 -29.488  22.944  1.00  0.00     0.164 HD
ATOM      6  O   UNL     1      20.742 -31.020  20.732  1.00  0.00    -0.273 OA
BRANCH   4   7
ATOM      7  C   UNL     1      18.884 -31.649  22.935  1.00  0.00     0.175 C 
BRANCH   7   8
ATOM      8  C   UNL     1      19.983 -32.210  23.801  1.00  0.00     0.243 C 
ATOM      9  N   UNL     1      20.964 -33.098  23.245  1.00  0.00    -0.342 N 
ATOM     10  H   UNL     1      20.811 -33.455  22.275  1.00  0.00     0.164 HD
ATOM     11  O   UNL     1      20.018 -31.920  25.030  1.00  0.00    -0.273 OA
BRANCH   9  12
ATOM     12  C   UNL     1      22.110 -33.560  24.035  1.00  0.00     0.174 CG0
ATOM     13  G   UNL     1      23.371 -32.886  23.532  1.00  0.00     0.000 G0
BRANCH  12  14
ATOM     14  C   UNL     1      22.168 -35.120  24.084  1.00  0.00     0.018 C 
ATOM     15  C   UNL     1      21.956 -35.708  25.494  1.00  0.00     0.010 C 
BRANCH  14  16
ATOM     16  C   UNL     1      21.191 -35.793  23.088  1.00  0.00     0.002 C 
ATOM     17  C   UNL     1      21.117 -37.314  23.250  1.00  0.00     0.004 C 
ENDBRANCH  14  16
ENDBRANCH  12  14
ENDBRANCH   9  12
ENDBRANCH   7   8
BRANCH   7  18
ATOM     18  C   UNL     1      17.533 -31.572  23.678  1.00  0.00     0.073 C 
BRANCH  18  19
ATOM     19  C   UNL     1      16.353 -31.981  22.837  1.00  0.00    -0.016 A 
ATOM     20  C   UNL     1      16.326 -32.970  21.856  1.00  0.00     0.134 A 
ATOM     21  C   UNL     1      15.098 -31.393  22.815  1.00  0.00     0.006 A 
ATOM     22  N   UNL     1      15.105 -32.996  21.266  1.00  0.00    -0.191 N 
ATOM     23  C   UNL     1      14.368 -32.035  21.848  1.00  0.00     0.087 A 
ATOM     24  C   UNL     1      14.564 -30.332  23.551  1.00  0.00     0.011 A 
ATOM     25  C   UNL     1      13.056 -31.662  21.547  1.00  0.00     0.030 A 
ATOM     26  C   UNL     1      13.246 -29.930  23.265  1.00  0.00     0.001 A 
ATOM     27  C   UNL     1      12.495 -30.593  22.268  1.00  0.00     0.002 A 
BRANCH  22  28
ATOM     28  O   UNL     1      14.679 -33.819  20.239  1.00  0.00    -0.417 OA
ATOM     29  C   UNL     1      15.377 -35.005  19.876  1.00  0.00     0.313 C 
ENDBRANCH  22  28
ENDBRANCH  18  19
ENDBRANCH   7  18
ENDBRANCH   4   7
ENDBRANCH   2   3
BRANCH   2  30
ATOM     30  N   UNL     1      22.733 -29.733  22.505  1.00  0.00    -0.343 N 
ATOM     31  C   UNL     1      23.058 -29.934  23.893  1.00  0.00     0.243 C 
ATOM     32  H   UNL     1      23.428 -30.017  21.781  1.00  0.00     0.164 HD
ATOM     33  O   UNL     1      22.262 -29.551  24.790  1.00  0.00    -0.273 OA
BRANCH  31  34
ATOM     34  C   UNL     1      24.350 -30.634  24.272  1.00  0.00     0.174 C 
ATOM     35  N   UNL     1      24.236 -32.104  24.372  1.00  0.00    -0.329 N 
ATOM     36  C   UNL     1      25.500 -30.281  23.316  1.00  0.00     0.035 C 
ATOM     37  C   UNL     1      25.426 -32.771  24.908  1.00  0.00     0.120 C 
ATOM     38  C   UNL     1      26.802 -30.950  23.793  1.00  0.00     0.004 C 
ATOM     39  C   UNL     1      26.628 -32.468  24.002  1.00  0.00     0.022 C 
BRANCH  35  40
ATOM     40  C   UNL     1      23.383 -32.872  23.502  1.00  0.00     0.246 CG0
ATOM     41  O   UNL     1      23.624 -32.899  22.266  1.00  0.00    -0.272 OA
ATOM     42  G   UNL     1      22.144 -33.547  24.056  1.00  0.00     0.000 G0
ENDBRANCH  35  40
ENDBRANCH  31  34
ENDBRANCH   2  30
ENDBRANCH   1   2
BRANCH   1  43
ATOM     43  C   UNL     1      20.682 -27.019  20.814  1.00  0.00     0.003 C 
BRANCH  43  44
ATOM     44  C   UNL     1      21.269 -25.718  20.245  1.00  0.00     0.001 C 
BRANCH  44  45
ATOM     45  C   UNL     1      22.611 -25.342  20.891  1.00  0.00     0.008 C 
BRANCH  45  46
ATOM     46  C   UNL     1      22.467 -24.207  21.919  1.00  0.00     0.075 C 
BRANCH  46  47
ATOM     47  C   UNL     1      22.430 -24.751  23.321  1.00  0.00     0.132 C 
ATOM     48  O   UNL     1      22.563 -25.952  23.502  1.00  0.00    -0.300 OA
BRANCH  47  49
ATOM     49  C   UNL     1      22.310 -23.807  24.493  1.00  0.00     0.072 C 
ATOM     50  C   UNL     1      21.020 -23.997  25.290  1.00  0.00     0.012 C 
ENDBRANCH  47  49
ENDBRANCH  46  47
ENDBRANCH  45  46
ENDBRANCH  44  45
ENDBRANCH  43  44
ENDBRANCH   1  43
TORSDOF 12
ENDMDL
MODEL 5
REMARK VINA RESULT:    -6.418      3.106      6.299
REMARK INTER + INTRA:         -16.423
REMARK INTER:                 -12.691
REMARK INTRA:                  -3.732
REMARK UNBOUND:                -2.876
REMARK SMILES CCC(=O)CCCCC[C@@H]1NC(=O)[C@@H]2CCCCN2C(=O)[C@H]([C@@H](C)CC)NC(=O)[C@@H](Cc2cn(OC)c3ccccc23)NC1=O
REMARK SMILES IDX 9 1 10 2 44 3 43 4 45 6 30 7 28 8 27 9 29 11 22 12 23 14
REMARK SMILES IDX 24 15 25 16 26 17 31 18 32 19 33 20 42 21 34 22 37 23 41 24
REMARK SMILES IDX 38 25 40 26 39 27 35 28 36 29 11 30 12 31 13 33 14 34 19 35
REMARK SMILES IDX 15 36 18 37 16 38 17 39 20 40 21 41 8 43 7 44 6 45 5 46 3 47
REMARK SMILES IDX 4 48 2 49 1 50
REMARK H PARENT 43 5 27 10 11 32
REMARK Flexibility Score: 80.00
ROOT
ATOM      1  C   UNL     1      18.061 -29.671  21.643  1.00  0.00     0.035 C 
ENDROOT
BRANCH   1   2
ATOM      2  C   UNL     1      18.701 -30.908  22.313  1.00  0.00     0.171 C 
BRANCH   2   3
ATOM      3  C   UNL     1      18.355 -31.040  23.775  1.00  0.00     0.243 C 
ATOM      4  N   UNL     1      19.406 -31.002  24.752  1.00  0.00    -0.342 N 
ATOM      5  H   UNL     1      20.294 -30.518  24.483  1.00  0.00     0.164 HD
ATOM      6  O   UNL     1      17.159 -31.236  24.145  1.00  0.00    -0.273 OA
BRANCH   4   7
ATOM      7  C   UNL     1      19.474 -32.028  25.795  1.00  0.00     0.175 C 
BRANCH   7   8
ATOM      8  C   UNL     1      19.568 -33.388  25.149  1.00  0.00     0.243 C 
ATOM      9  N   UNL     1      18.384 -34.160  24.907  1.00  0.00    -0.342 N 
ATOM     10  H   UNL     1      17.483 -33.823  25.317  1.00  0.00     0.164 HD
ATOM     11  O   UNL     1      20.702 -33.859  24.853  1.00  0.00    -0.273 OA
BRANCH   9  12
ATOM     12  C   UNL     1      18.437 -35.429  24.172  1.00  0.00     0.174 CG0
ATOM     13  G   UNL     1      17.658 -35.293  22.879  1.00  0.00     0.000 G0
BRANCH  12  14
ATOM     14  C   UNL     1      18.008 -36.624  25.081  1.00  0.00     0.018 C 
ATOM     15  C   UNL     1      19.106 -37.691  25.268  1.00  0.00     0.010 C 
BRANCH  14  16
ATOM     16  C   UNL     1      17.482 -36.172  26.466  1.00  0.00     0.002 C 
ATOM     17  C   UNL     1      16.612 -37.226  27.155  1.00  0.00     0.004 C 
ENDBRANCH  14  16
ENDBRANCH  12  14
ENDBRANCH   9  12
ENDBRANCH   7   8
BRANCH   7  18
ATOM     18  C   UNL     1      20.640 -31.759  26.770  1.00  0.00     0.073 C 
BRANCH  18  19
ATOM     19  C   UNL     1      21.550 -30.640  26.336  1.00  0.00    -0.016 A 
ATOM     20  C   UNL     1      21.420 -29.288  26.644  1.00  0.00     0.134 A 
ATOM     21  C   UNL     1      22.632 -30.730  25.475  1.00  0.00     0.006 A 
ATOM     22  N   UNL     1      22.388 -28.579  26.011  1.00  0.00    -0.191 N 
ATOM     23  C   UNL     1      23.115 -29.458  25.301  1.00  0.00     0.087 A 
ATOM     24  C   UNL     1      23.202 -31.825  24.820  1.00  0.00     0.011 A 
ATOM     25  C   UNL     1      24.198 -29.191  24.459  1.00  0.00     0.030 A 
ATOM     26  C   UNL     1      24.290 -31.585  23.961  1.00  0.00     0.001 A 
ATOM     27  C   UNL     1      24.786 -30.274  23.782  1.00  0.00     0.002 A 
BRANCH  22  28
ATOM     28  O   UNL     1      22.595 -27.212  26.043  1.00  0.00    -0.417 OA
ATOM     29  C   UNL     1      21.741 -26.332  26.767  1.00  0.00     0.313 C 
ENDBRANCH  22  28
ENDBRANCH  18  19
ENDBRANCH   7  18
ENDBRANCH   4   7
ENDBRANCH   2   3
BRANCH   2  30
ATOM     30  N   UNL     1      18.340 -32.145  21.606  1.00  0.00    -0.343 N 
ATOM     31  C   UNL     1      19.242 -33.247  21.391  1.00  0.00     0.243 C 
ATOM     32  H   UNL     1      17.372 -32.208  21.224  1.00  0.00     0.164 HD
ATOM     33  O   UNL     1      20.433 -33.176  21.794  1.00  0.00    -0.273 OA
BRANCH  31  34
ATOM     34  C   UNL     1      18.747 -34.505  20.702  1.00  0.00     0.174 C 
ATOM     35  N   UNL     1      18.315 -35.573  21.627  1.00  0.00    -0.329 N 
ATOM     36  C   UNL     1      17.612 -34.211  19.708  1.00  0.00     0.035 C 
ATOM     37  C   UNL     1      18.004 -36.850  20.979  1.00  0.00     0.120 C 
ATOM     38  C   UNL     1      17.205 -35.504  18.979  1.00  0.00     0.004 C 
ATOM     39  C   UNL     1      16.870 -36.641  19.965  1.00  0.00     0.022 C 
BRANCH  35  40
ATOM     40  C   UNL     1      17.663 -35.291  22.879  1.00  0.00     0.246 CG0
ATOM     41  O   UNL     1      16.482 -34.850  22.876  1.00  0.00    -0.272 OA
ATOM     42  G   UNL     1      18.429 -35.418  24.181  1.00  0.00     0.000 G0
ENDBRANCH  35  40
ENDBRANCH  31  34
ENDBRANCH   2  30
ENDBRANCH   1   2
BRANCH   1  43
ATOM     43  C   UNL     1      19.112 -28.768  20.977  1.00  0.00     0.003 C 
BRANCH  43  44
ATOM     44  C   UNL     1      20.504 -29.416  21.025  1.00  0.00     0.001 C 
BRANCH  44  45
ATOM     45  C   UNL     1      21.401 -28.811  22.117  1.00  0.00     0.008 C 
BRANCH  45  46
ATOM     46  C   UNL     1      22.366 -27.752  21.558  1.00  0.00     0.075 C 
BRANCH  46  47
ATOM     47  C   UNL     1      21.924 -26.365  21.939  1.00  0.00     0.132 C 
ATOM     48  O   UNL     1      22.449 -25.810  22.892  1.00  0.00    -0.300 OA
BRANCH  47  49
ATOM     49  C   UNL     1      20.899 -25.642  21.099  1.00  0.00     0.072 C 
ATOM     50  C   UNL     1      19.926 -24.803  21.926  1.00  0.00     0.012 C 
ENDBRANCH  47  49
ENDBRANCH  46  47
ENDBRANCH  45  46
ENDBRANCH  44  45
ENDBRANCH  43  44
ENDBRANCH   1  43
TORSDOF 12
ENDMDL
MODEL 6
REMARK VINA RESULT:    -6.386      3.147      6.741
REMARK INTER + INTRA:         -16.355
REMARK INTER:                 -13.065
REMARK INTRA:                  -3.290
REMARK UNBOUND:                -2.876
REMARK SMILES CCC(=O)CCCCC[C@@H]1NC(=O)[C@@H]2CCCCN2C(=O)[C@H]([C@@H](C)CC)NC(=O)[C@@H](Cc2cn(OC)c3ccccc23)NC1=O
REMARK SMILES IDX 9 1 10 2 44 3 43 4 45 6 30 7 28 8 27 9 29 11 22 12 23 14
REMARK SMILES IDX 24 15 25 16 26 17 31 18 32 19 33 20 42 21 34 22 37 23 41 24
REMARK SMILES IDX 38 25 40 26 39 27 35 28 36 29 11 30 12 31 13 33 14 34 19 35
REMARK SMILES IDX 15 36 18 37 16 38 17 39 20 40 21 41 8 43 7 44 6 45 5 46 3 47
REMARK SMILES IDX 4 48 2 49 1 50
REMARK H PARENT 43 5 27 10 11 32
REMARK Flexibility Score: 80.00
ROOT
ATOM      1  C   UNL     1      17.734 -29.890  21.972  1.00  0.00     0.035 C 
ENDROOT
BRANCH   1   2
ATOM      2  C   UNL     1      18.499 -31.064  22.625  1.00  0.00     0.171 C 
BRANCH   2   3
ATOM      3  C   UNL     1      18.208 -31.221  24.097  1.00  0.00     0.243 C 
ATOM      4  N   UNL     1      19.281 -31.104  25.042  1.00  0.00    -0.342 N 
ATOM      5  H   UNL     1      20.123 -30.556  24.747  1.00  0.00     0.164 HD
ATOM      6  O   UNL     1      17.041 -31.505  24.502  1.00  0.00    -0.273 OA
BRANCH   4   7
ATOM      7  C   UNL     1      19.456 -32.122  26.081  1.00  0.00     0.175 C 
BRANCH   7   8
ATOM      8  C   UNL     1      19.579 -33.478  25.433  1.00  0.00     0.243 C 
ATOM      9  N   UNL     1      18.406 -34.244  25.122  1.00  0.00    -0.342 N 
ATOM     10  H   UNL     1      17.487 -33.905  25.485  1.00  0.00     0.164 HD
ATOM     11  O   UNL     1      20.725 -33.953  25.195  1.00  0.00    -0.273 OA
BRANCH   9  12
ATOM     12  C   UNL     1      18.493 -35.508  24.383  1.00  0.00     0.174 CG0
ATOM     13  G   UNL     1      17.745 -35.376  23.072  1.00  0.00     0.000 G0
BRANCH  12  14
ATOM     14  C   UNL     1      18.058 -36.713  25.276  1.00  0.00     0.018 C 
ATOM     15  C   UNL     1      19.211 -37.333  26.092  1.00  0.00     0.010 C 
BRANCH  14  16
ATOM     16  C   UNL     1      16.879 -36.370  26.220  1.00  0.00     0.002 C 
ATOM     17  C   UNL     1      16.589 -37.469  27.247  1.00  0.00     0.004 C 
ENDBRANCH  14  16
ENDBRANCH  12  14
ENDBRANCH   9  12
ENDBRANCH   7   8
BRANCH   7  18
ATOM     18  C   UNL     1      20.660 -31.794  26.989  1.00  0.00     0.073 C 
BRANCH  18  19
ATOM     19  C   UNL     1      21.783 -31.087  26.278  1.00  0.00    -0.016 A 
ATOM     20  C   UNL     1      22.820 -31.674  25.556  1.00  0.00     0.134 A 
ATOM     21  C   UNL     1      22.049 -29.727  26.282  1.00  0.00     0.006 A 
ATOM     22  N   UNL     1      23.678 -30.717  25.126  1.00  0.00    -0.191 N 
ATOM     23  C   UNL     1      23.208 -29.540  25.573  1.00  0.00     0.087 A 
ATOM     24  C   UNL     1      21.375 -28.657  26.876  1.00  0.00     0.011 A 
ATOM     25  C   UNL     1      23.776 -28.275  25.410  1.00  0.00     0.030 A 
ATOM     26  C   UNL     1      21.927 -27.370  26.733  1.00  0.00     0.001 A 
ATOM     27  C   UNL     1      23.122 -27.180  26.003  1.00  0.00     0.002 A 
BRANCH  22  28
ATOM     28  O   UNL     1      24.839 -30.888  24.394  1.00  0.00    -0.417 OA
ATOM     29  C   UNL     1      24.917 -31.786  23.291  1.00  0.00     0.313 C 
ENDBRANCH  22  28
ENDBRANCH  18  19
ENDBRANCH   7  18
ENDBRANCH   4   7
ENDBRANCH   2   3
BRANCH   2  30
ATOM     30  N   UNL     1      18.229 -32.331  21.930  1.00  0.00    -0.343 N 
ATOM     31  C   UNL     1      19.245 -33.274  21.542  1.00  0.00     0.243 C 
ATOM     32  H   UNL     1      17.235 -32.538  21.691  1.00  0.00     0.164 HD
ATOM     33  O   UNL     1      20.459 -33.024  21.768  1.00  0.00    -0.273 OA
BRANCH  31  34
ATOM     34  C   UNL     1      18.849 -34.582  20.884  1.00  0.00     0.174 C 
ATOM     35  N   UNL     1      18.461 -35.646  21.833  1.00  0.00    -0.329 N 
ATOM     36  C   UNL     1      17.726 -34.394  19.851  1.00  0.00     0.035 C 
ATOM     37  C   UNL     1      18.249 -36.960  21.221  1.00  0.00     0.120 C 
ATOM     38  C   UNL     1      17.421 -35.733  19.157  1.00  0.00     0.004 C 
ATOM     39  C   UNL     1      17.132 -36.856  20.172  1.00  0.00     0.022 C 
BRANCH  35  40
ATOM     40  C   UNL     1      17.758 -35.366  23.058  1.00  0.00     0.246 CG0
ATOM     41  O   UNL     1      16.584 -34.908  23.007  1.00  0.00    -0.272 OA
ATOM     42  G   UNL     1      18.464 -35.515  24.391  1.00  0.00     0.000 G0
ENDBRANCH  35  40
ENDBRANCH  31  34
ENDBRANCH   2  30
ENDBRANCH   1   2
BRANCH   1  43
ATOM     43  C   UNL     1      18.486 -29.315  20.761  1.00  0.00     0.003 C 
BRANCH  43  44
ATOM     44  C   UNL     1      19.625 -28.386  21.211  1.00  0.00     0.001 C 
BRANCH  44  45
ATOM     45  C   UNL     1      21.016 -28.986  20.950  1.00  0.00     0.008 C 
BRANCH  45  46
ATOM     46  C   UNL     1      22.046 -28.553  22.007  1.00  0.00     0.075 C 
BRANCH  46  47
ATOM     47  C   UNL     1      22.538 -27.157  21.740  1.00  0.00     0.132 C 
ATOM     48  O   UNL     1      22.257 -26.262  22.524  1.00  0.00    -0.300 OA
BRANCH  47  49
ATOM     49  C   UNL     1      23.438 -26.887  20.558  1.00  0.00     0.072 C 
ATOM     50  C   UNL     1      23.107 -25.580  19.836  1.00  0.00     0.012 C 
ENDBRANCH  47  49
ENDBRANCH  46  47
ENDBRANCH  45  46
ENDBRANCH  44  45
ENDBRANCH  43  44
ENDBRANCH   1  43
TORSDOF 12
ENDMDL
MODEL 7
REMARK VINA RESULT:    -6.316      2.103      7.840
REMARK INTER + INTRA:         -16.207
REMARK INTER:                 -13.463
REMARK INTRA:                  -2.743
REMARK UNBOUND:                -2.876
REMARK SMILES CCC(=O)CCCCC[C@@H]1NC(=O)[C@@H]2CCCCN2C(=O)[C@H]([C@@H](C)CC)NC(=O)[C@@H](Cc2cn(OC)c3ccccc23)NC1=O
REMARK SMILES IDX 9 1 10 2 44 3 43 4 45 6 30 7 28 8 27 9 29 11 22 12 23 14
REMARK SMILES IDX 24 15 25 16 26 17 31 18 32 19 33 20 42 21 34 22 37 23 41 24
REMARK SMILES IDX 38 25 40 26 39 27 35 28 36 29 11 30 12 31 13 33 14 34 19 35
REMARK SMILES IDX 15 36 18 37 16 38 17 39 20 40 21 41 8 43 7 44 6 45 5 46 3 47
REMARK SMILES IDX 4 48 2 49 1 50
REMARK H PARENT 43 5 27 10 11 32
REMARK Flexibility Score: 80.00
ROOT
ATOM      1  C   UNL     1      21.619 -28.921  21.290  1.00  0.00     0.035 C 
ENDROOT
BRANCH   1   2
ATOM      2  C   UNL     1      21.386 -29.972  22.400  1.00  0.00     0.171 C 
BRANCH   2   3
ATOM      3  C   UNL     1      20.411 -31.053  22.001  1.00  0.00     0.243 C 
ATOM      4  N   UNL     1      19.220 -31.246  22.778  1.00  0.00    -0.342 N 
ATOM      5  H   UNL     1      18.873 -30.431  23.336  1.00  0.00     0.164 HD
ATOM      6  O   UNL     1      20.657 -31.822  21.025  1.00  0.00    -0.273 OA
BRANCH   4   7
ATOM      7  C   UNL     1      18.848 -32.590  23.225  1.00  0.00     0.175 C 
BRANCH   7   8
ATOM      8  C   UNL     1      19.982 -33.181  24.025  1.00  0.00     0.243 C 
ATOM      9  N   UNL     1      20.994 -33.967  23.379  1.00  0.00    -0.342 N 
ATOM     10  H   UNL     1      20.844 -34.237  22.380  1.00  0.00     0.164 HD
ATOM     11  O   UNL     1      20.019 -33.007  25.276  1.00  0.00    -0.273 OA
BRANCH   9  12
ATOM     12  C   UNL     1      22.169 -34.449  24.111  1.00  0.00     0.174 CG0
ATOM     13  G   UNL     1      23.405 -33.730  23.606  1.00  0.00     0.000 G0
BRANCH  12  14
ATOM     14  C   UNL     1      22.252 -36.008  24.081  1.00  0.00     0.018 C 
ATOM     15  C   UNL     1      22.277 -36.659  25.479  1.00  0.00     0.010 C 
BRANCH  14  16
ATOM     16  C   UNL     1      21.133 -36.656  23.227  1.00  0.00     0.002 C 
ATOM     17  C   UNL     1      20.074 -37.377  24.066  1.00  0.00     0.004 C 
ENDBRANCH  14  16
ENDBRANCH  12  14
ENDBRANCH   9  12
ENDBRANCH   7   8
BRANCH   7  18
ATOM     18  C   UNL     1      17.522 -32.570  24.015  1.00  0.00     0.073 C 
BRANCH  18  19
ATOM     19  C   UNL     1      16.392 -31.889  23.288  1.00  0.00    -0.016 A 
ATOM     20  C   UNL     1      15.793 -30.675  23.620  1.00  0.00     0.134 A 
ATOM     21  C   UNL     1      15.675 -32.382  22.210  1.00  0.00     0.006 A 
ATOM     22  N   UNL     1      14.762 -30.427  22.775  1.00  0.00    -0.191 N 
ATOM     23  C   UNL     1      14.693 -31.467  21.927  1.00  0.00     0.087 A 
ATOM     24  C   UNL     1      15.800 -33.569  21.484  1.00  0.00     0.011 A 
ATOM     25  C   UNL     1      13.766 -31.675  20.902  1.00  0.00     0.030 A 
ATOM     26  C   UNL     1      14.876 -33.809  20.450  1.00  0.00     0.001 A 
ATOM     27  C   UNL     1      13.865 -32.866  20.159  1.00  0.00     0.002 A 
BRANCH  22  28
ATOM     28  O   UNL     1      13.908 -29.340  22.778  1.00  0.00    -0.417 OA
ATOM     29  C   UNL     1      12.563 -29.432  23.236  1.00  0.00     0.313 C 
ENDBRANCH  22  28
ENDBRANCH  18  19
ENDBRANCH   7  18
ENDBRANCH   4   7
ENDBRANCH   2   3
BRANCH   2  30
ATOM     30  N   UNL     1      22.651 -30.582  22.833  1.00  0.00    -0.343 N 
ATOM     31  C   UNL     1      23.009 -30.812  24.209  1.00  0.00     0.243 C 
ATOM     32  H   UNL     1      23.331 -30.843  22.088  1.00  0.00     0.164 HD
ATOM     33  O   UNL     1      22.230 -30.457  25.132  1.00  0.00    -0.273 OA
BRANCH  31  34
ATOM     34  C   UNL     1      24.316 -31.507  24.543  1.00  0.00     0.174 C 
ATOM     35  N   UNL     1      24.235 -32.982  24.541  1.00  0.00    -0.329 N 
ATOM     36  C   UNL     1      25.459 -31.064  23.616  1.00  0.00     0.035 C 
ATOM     37  C   UNL     1      25.439 -33.658  25.034  1.00  0.00     0.120 C 
ATOM     38  C   UNL     1      26.775 -31.735  24.049  1.00  0.00     0.004 C 
ATOM     39  C   UNL     1      26.635 -33.267  24.153  1.00  0.00     0.022 C 
BRANCH  35  40
ATOM     40  C   UNL     1      23.400 -33.708  23.619  1.00  0.00     0.246 CG0
ATOM     41  O   UNL     1      23.633 -33.632  22.383  1.00  0.00    -0.272 OA
ATOM     42  G   UNL     1      22.187 -34.463  24.124  1.00  0.00     0.000 G0
ENDBRANCH  35  40
ENDBRANCH  31  34
ENDBRANCH   2  30
ENDBRANCH   1   2
BRANCH   1  43
ATOM     43  C   UNL     1      20.380 -28.040  21.061  1.00  0.00     0.003 C 
BRANCH  43  44
ATOM     44  C   UNL     1      20.633 -26.600  21.534  1.00  0.00     0.001 C 
BRANCH  44  45
ATOM     45  C   UNL     1      21.336 -25.743  20.470  1.00  0.00     0.008 C 
BRANCH  45  46
ATOM     46  C   UNL     1      22.802 -25.451  20.832  1.00  0.00     0.075 C 
BRANCH  46  47
ATOM     47  C   UNL     1      23.620 -25.185  19.598  1.00  0.00     0.132 C 
ATOM     48  O   UNL     1      23.620 -26.005  18.692  1.00  0.00    -0.300 OA
BRANCH  47  49
ATOM     49  C   UNL     1      24.365 -23.880  19.452  1.00  0.00     0.072 C 
ATOM     50  C   UNL     1      24.287 -23.000  20.700  1.00  0.00     0.012 C 
ENDBRANCH  47  49
ENDBRANCH  46  47
ENDBRANCH  45  46
ENDBRANCH  44  45
ENDBRANCH  43  44
ENDBRANCH   1  43
TORSDOF 12
ENDMDL
MODEL 8
REMARK VINA RESULT:    -6.265      2.671      8.642
REMARK INTER + INTRA:         -16.101
REMARK INTER:                 -13.257
REMARK INTRA:                  -2.843
REMARK UNBOUND:                -2.876
REMARK SMILES CCC(=O)CCCCC[C@@H]1NC(=O)[C@@H]2CCCCN2C(=O)[C@H]([C@@H](C)CC)NC(=O)[C@@H](Cc2cn(OC)c3ccccc23)NC1=O
REMARK SMILES IDX 9 1 10 2 44 3 43 4 45 6 30 7 28 8 27 9 29 11 22 12 23 14
REMARK SMILES IDX 24 15 25 16 26 17 31 18 32 19 33 20 42 21 34 22 37 23 41 24
REMARK SMILES IDX 38 25 40 26 39 27 35 28 36 29 11 30 12 31 13 33 14 34 19 35
REMARK SMILES IDX 15 36 18 37 16 38 17 39 20 40 21 41 8 43 7 44 6 45 5 46 3 47
REMARK SMILES IDX 4 48 2 49 1 50
REMARK H PARENT 43 5 27 10 11 32
REMARK Flexibility Score: 80.00
ROOT
ATOM      1  C   UNL     1      20.940 -28.634  21.172  1.00  0.00     0.035 C 
ENDROOT
BRANCH   1   2
ATOM      2  C   UNL     1      20.504 -30.093  21.439  1.00  0.00     0.171 C 
BRANCH   2   3
ATOM      3  C   UNL     1      21.319 -30.771  22.513  1.00  0.00     0.243 C 
ATOM      4  N   UNL     1      22.101 -31.926  22.178  1.00  0.00    -0.342 N 
ATOM      5  H   UNL     1      22.389 -32.038  21.177  1.00  0.00     0.164 HD
ATOM      6  O   UNL     1      21.278 -30.366  23.713  1.00  0.00    -0.273 OA
BRANCH   4   7
ATOM      7  C   UNL     1      22.017 -33.132  23.004  1.00  0.00     0.175 C 
BRANCH   7   8
ATOM      8  C   UNL     1      20.587 -33.608  23.047  1.00  0.00     0.243 C 
ATOM      9  N   UNL     1      19.696 -33.139  24.070  1.00  0.00    -0.342 N 
ATOM     10  H   UNL     1      20.100 -32.583  24.857  1.00  0.00     0.164 HD
ATOM     11  O   UNL     1      20.184 -34.449  22.195  1.00  0.00    -0.273 OA
BRANCH   9  12
ATOM     12  C   UNL     1      18.272 -33.491  24.062  1.00  0.00     0.174 CG0
ATOM     13  G   UNL     1      17.443 -32.226  23.965  1.00  0.00     0.000 G0
BRANCH  12  14
ATOM     14  C   UNL     1      17.916 -34.425  25.261  1.00  0.00     0.018 C 
ATOM     15  C   UNL     1      16.593 -35.197  25.079  1.00  0.00     0.010 C 
BRANCH  14  16
ATOM     16  C   UNL     1      19.053 -35.418  25.612  1.00  0.00     0.002 C 
ATOM     17  C   UNL     1      18.966 -36.734  24.834  1.00  0.00     0.004 C 
ENDBRANCH  14  16
ENDBRANCH  12  14
ENDBRANCH   9  12
ENDBRANCH   7   8
BRANCH   7  18
ATOM     18  C   UNL     1      22.984 -34.226  22.500  1.00  0.00     0.073 C 
BRANCH  18  19
ATOM     19  C   UNL     1      23.988 -34.672  23.531  1.00  0.00    -0.016 A 
ATOM     20  C   UNL     1      25.314 -34.259  23.642  1.00  0.00     0.134 A 
ATOM     21  C   UNL     1      23.810 -35.641  24.505  1.00  0.00     0.006 A 
ATOM     22  N   UNL     1      25.921 -34.937  24.648  1.00  0.00    -0.191 N 
ATOM     23  C   UNL     1      25.006 -35.776  25.162  1.00  0.00     0.087 A 
ATOM     24  C   UNL     1      22.701 -36.424  24.835  1.00  0.00     0.011 A 
ATOM     25  C   UNL     1      25.179 -36.702  26.194  1.00  0.00     0.030 A 
ATOM     26  C   UNL     1      22.848 -37.370  25.867  1.00  0.00     0.001 A 
ATOM     27  C   UNL     1      24.080 -37.508  26.544  1.00  0.00     0.002 A 
BRANCH  22  28
ATOM     28  O   UNL     1      27.234 -34.831  25.068  1.00  0.00    -0.417 OA
ATOM     29  C   UNL     1      28.167 -35.897  24.920  1.00  0.00     0.313 C 
ENDBRANCH  22  28
ENDBRANCH  18  19
ENDBRANCH   7  18
ENDBRANCH   4   7
ENDBRANCH   2   3
BRANCH   2  30
ATOM     30  N   UNL     1      19.077 -30.172  21.778  1.00  0.00    -0.343 N 
ATOM     31  C   UNL     1      18.169 -31.151  21.238  1.00  0.00     0.243 C 
ATOM     32  H   UNL     1      18.705 -29.455  22.438  1.00  0.00     0.164 HD
ATOM     33  O   UNL     1      18.578 -31.995  20.397  1.00  0.00    -0.273 OA
BRANCH  31  34
ATOM     34  C   UNL     1      16.726 -31.181  21.705  1.00  0.00     0.174 C 
ATOM     35  N   UNL     1      16.485 -32.048  22.876  1.00  0.00    -0.329 N 
ATOM     36  C   UNL     1      16.184 -29.773  22.000  1.00  0.00     0.035 C 
ATOM     37  C   UNL     1      15.072 -32.223  23.223  1.00  0.00     0.120 C 
ATOM     38  C   UNL     1      14.697 -29.853  22.388  1.00  0.00     0.004 C 
ATOM     39  C   UNL     1      14.454 -30.852  23.537  1.00  0.00     0.022 C 
BRANCH  35  40
ATOM     40  C   UNL     1      17.450 -32.199  23.935  1.00  0.00     0.246 CG0
ATOM     41  O   UNL     1      17.696 -31.222  24.691  1.00  0.00    -0.272 OA
ATOM     42  G   UNL     1      18.240 -33.486  24.064  1.00  0.00     0.000 G0
ENDBRANCH  35  40
ENDBRANCH  31  34
ENDBRANCH   2  30
ENDBRANCH   1   2
BRANCH   1  43
ATOM     43  C   UNL     1      19.742 -27.724  20.854  1.00  0.00     0.003 C 
BRANCH  43  44
ATOM     44  C   UNL     1      20.209 -26.391  20.250  1.00  0.00     0.001 C 
BRANCH  44  45
ATOM     45  C   UNL     1      21.492 -25.860  20.909  1.00  0.00     0.008 C 
BRANCH  45  46
ATOM     46  C   UNL     1      22.508 -25.342  19.877  1.00  0.00     0.075 C 
BRANCH  46  47
ATOM     47  C   UNL     1      23.430 -24.324  20.491  1.00  0.00     0.132 C 
ATOM     48  O   UNL     1      24.367 -23.893  19.836  1.00  0.00    -0.300 OA
BRANCH  47  49
ATOM     49  C   UNL     1      23.147 -23.786  21.873  1.00  0.00     0.072 C 
ATOM     50  C   UNL     1      23.930 -22.513  22.194  1.00  0.00     0.012 C 
ENDBRANCH  47  49
ENDBRANCH  46  47
ENDBRANCH  45  46
ENDBRANCH  44  45
ENDBRANCH  43  44
ENDBRANCH   1  43
TORSDOF 12
ENDMDL
MODEL 9
REMARK VINA RESULT:    -5.926      2.442      7.860
REMARK INTER + INTRA:         -15.384
REMARK INTER:                 -12.396
REMARK INTRA:                  -2.988
REMARK UNBOUND:                -2.876
REMARK SMILES CCC(=O)CCCCC[C@@H]1NC(=O)[C@@H]2CCCCN2C(=O)[C@H]([C@@H](C)CC)NC(=O)[C@@H](Cc2cn(OC)c3ccccc23)NC1=O
REMARK SMILES IDX 9 1 10 2 44 3 43 4 45 6 30 7 28 8 27 9 29 11 22 12 23 14
REMARK SMILES IDX 24 15 25 16 26 17 31 18 32 19 33 20 42 21 34 22 37 23 41 24
REMARK SMILES IDX 38 25 40 26 39 27 35 28 36 29 11 30 12 31 13 33 14 34 19 35
REMARK SMILES IDX 15 36 18 37 16 38 17 39 20 40 21 41 8 43 7 44 6 45 5 46 3 47
REMARK SMILES IDX 4 48 2 49 1 50
REMARK H PARENT 43 5 27 10 11 32
REMARK Flexibility Score: 80.00
ROOT
ATOM      1  C   UNL     1      23.931 -29.957  23.837  1.00  0.00     0.035 C 
ENDROOT
BRANCH   1   2
ATOM      2  C   UNL     1      22.868 -30.985  24.287  1.00  0.00     0.171 C 
BRANCH   2   3
ATOM      3  C   UNL     1      21.833 -31.275  23.227  1.00  0.00     0.243 C 
ATOM      4  N   UNL     1      20.459 -30.946  23.479  1.00  0.00    -0.342 N 
ATOM      5  H   UNL     1      20.266 -30.198  24.186  1.00  0.00     0.164 HD
ATOM      6  O   UNL     1      22.154 -31.850  22.145  1.00  0.00    -0.273 OA
BRANCH   4   7
ATOM      7  C   UNL     1      19.411 -31.938  23.228  1.00  0.00     0.175 C 
BRANCH   7   8
ATOM      8  C   UNL     1      19.704 -33.184  24.026  1.00  0.00     0.243 C 
ATOM      9  N   UNL     1      20.593 -34.184  23.511  1.00  0.00    -0.342 N 
ATOM     10  H   UNL     1      20.912 -34.096  22.519  1.00  0.00     0.164 HD
ATOM     11  O   UNL     1      19.134 -33.358  25.140  1.00  0.00    -0.273 OA
BRANCH   9  12
ATOM     12  C   UNL     1      20.988 -35.344  24.317  1.00  0.00     0.174 CG0
ATOM     13  G   UNL     1      22.499 -35.380  24.440  1.00  0.00     0.000 G0
BRANCH  12  14
ATOM     14  C   UNL     1      20.337 -36.656  23.776  1.00  0.00     0.018 C 
ATOM     15  C   UNL     1      19.497 -37.414  24.824  1.00  0.00     0.010 C 
BRANCH  14  16
ATOM     16  C   UNL     1      19.490 -36.427  22.499  1.00  0.00     0.002 C 
ATOM     17  C   UNL     1      17.998 -36.238  22.790  1.00  0.00     0.004 C 
ENDBRANCH  14  16
ENDBRANCH  12  14
ENDBRANCH   9  12
ENDBRANCH   7   8
BRANCH   7  18
ATOM     18  C   UNL     1      18.011 -31.363  23.530  1.00  0.00     0.073 C 
BRANCH  18  19
ATOM     19  C   UNL     1      16.924 -31.913  22.644  1.00  0.00    -0.016 A 
ATOM     20  C   UNL     1      17.056 -32.902  21.672  1.00  0.00     0.134 A 
ATOM     21  C   UNL     1      15.611 -31.477  22.564  1.00  0.00     0.006 A 
ATOM     22  N   UNL     1      15.873 -33.075  21.032  1.00  0.00    -0.191 N 
ATOM     23  C   UNL     1      15.004 -32.205  21.573  1.00  0.00     0.087 A 
ATOM     24  C   UNL     1      14.925 -30.484  23.268  1.00  0.00     0.011 A 
ATOM     25  C   UNL     1      13.672 -31.991  21.213  1.00  0.00     0.030 A 
ATOM     26  C   UNL     1      13.582 -30.242  22.922  1.00  0.00     0.001 A 
ATOM     27  C   UNL     1      12.958 -30.992  21.901  1.00  0.00     0.002 A 
BRANCH  22  28
ATOM     28  O   UNL     1      15.591 -33.946  19.995  1.00  0.00    -0.417 OA
ATOM     29  C   UNL     1      16.420 -35.064  19.696  1.00  0.00     0.313 C 
ENDBRANCH  22  28
ENDBRANCH  18  19
ENDBRANCH   7  18
ENDBRANCH   4   7
ENDBRANCH   2   3
BRANCH   2  30
ATOM     30  N   UNL     1      23.491 -32.242  24.725  1.00  0.00    -0.343 N 
ATOM     31  C   UNL     1      23.179 -32.912  25.961  1.00  0.00     0.243 C 
ATOM     32  H   UNL     1      24.218 -32.654  24.102  1.00  0.00     0.164 HD
ATOM     33  O   UNL     1      22.344 -32.409  26.759  1.00  0.00    -0.273 OA
BRANCH  31  34
ATOM     34  C   UNL     1      23.837 -34.240  26.287  1.00  0.00     0.174 C 
ATOM     35  N   UNL     1      23.150 -35.414  25.713  1.00  0.00    -0.329 N 
ATOM     36  C   UNL     1      25.317 -34.269  25.872  1.00  0.00     0.035 C 
ATOM     37  C   UNL     1      23.671 -36.707  26.167  1.00  0.00     0.120 C 
ATOM     38  C   UNL     1      25.956 -35.602  26.299  1.00  0.00     0.004 C 
ATOM     39  C   UNL     1      25.155 -36.816  25.785  1.00  0.00     0.022 C 
BRANCH  35  40
ATOM     40  C   UNL     1      22.504 -35.377  24.426  1.00  0.00     0.246 CG0
ATOM     41  O   UNL     1      23.206 -35.260  23.386  1.00  0.00    -0.272 OA
ATOM     42  G   UNL     1      20.992 -35.366  24.334  1.00  0.00     0.000 G0
ENDBRANCH  35  40
ENDBRANCH  31  34
ENDBRANCH   2  30
ENDBRANCH   1   2
BRANCH   1  43
ATOM     43  C   UNL     1      23.684 -28.568  24.449  1.00  0.00     0.003 C 
BRANCH  43  44
ATOM     44  C   UNL     1      23.442 -27.519  23.352  1.00  0.00     0.001 C 
BRANCH  44  45
ATOM     45  C   UNL     1      22.179 -27.810  22.525  1.00  0.00     0.008 C 
BRANCH  45  46
ATOM     46  C   UNL     1      22.401 -27.578  21.021  1.00  0.00     0.075 C 
BRANCH  46  47
ATOM     47  C   UNL     1      21.439 -26.553  20.486  1.00  0.00     0.132 C 
ATOM     48  O   UNL     1      20.261 -26.848  20.353  1.00  0.00    -0.300 OA
BRANCH  47  49
ATOM     49  C   UNL     1      21.916 -25.150  20.194  1.00  0.00     0.072 C 
ATOM     50  C   UNL     1      23.422 -25.066  19.946  1.00  0.00     0.012 C 
ENDBRANCH  47  49
ENDBRANCH  46  47
ENDBRANCH  45  46
ENDBRANCH  44  45
ENDBRANCH  43  44
ENDBRANCH   1  43
TORSDOF 12
ENDMDL
