MODEL 1
REMARK VINA RESULT:    -4.358      0.000      0.000
REMARK INTER + INTRA:         -15.630
REMARK INTER:                 -11.490
REMARK INTRA:                  -4.140
REMARK UNBOUND:                -4.140
REMARK SMILES CCCCCCCCCCCCCCCCCCCCCCCCCCCCCC(=O)[O-]
REMARK SMILES IDX 16 1 17 2 18 3 19 4 20 5 21 6 22 7 23 8 24 9 25 10 26 11
REMARK SMILES IDX 27 12 28 13 29 14 30 15 31 16 32 17 15 18 14 19 13 20 12 21
REMARK SMILES IDX 11 22 10 23 9 24 8 25 7 26 6 27 5 28 4 29 3 30 2 31 1 32
REMARK H PARENT
REMARK Flexibility Score: inf
ROOT
ATOM      1  C   UNL     1     121.156 114.326 112.912  1.00  0.00     0.000 C 
ENDROOT
BRANCH   1   2
ATOM      2  C   UNL     1     121.079 114.006 111.403  1.00  0.00     0.000 C 
BRANCH   2   3
ATOM      3  C   UNL     1     121.974 112.825 110.993  1.00  0.00     0.000 C 
BRANCH   3   4
ATOM      4  C   UNL     1     122.472 112.032 112.215  1.00  0.00     0.000 C 
BRANCH   4   5
ATOM      5  C   UNL     1     121.814 110.646 112.296  1.00  0.00     0.000 C 
BRANCH   5   6
ATOM      6  C   UNL     1     120.334 110.721 112.708  1.00  0.00     0.000 C 
BRANCH   6   7
ATOM      7  C   UNL     1     119.437 109.872 111.786  1.00  0.00     0.000 C 
BRANCH   7   8
ATOM      8  C   UNL     1     119.104 110.580 110.460  1.00  0.00     0.000 C 
BRANCH   8   9
ATOM      9  C   UNL     1     119.819 109.959 109.237  1.00  0.00     0.000 C 
BRANCH   9  10
ATOM     10  C   UNL     1     120.147 111.011 108.165  1.00  0.00     0.000 C 
BRANCH  10  11
ATOM     11  C   UNL     1     121.536 110.809 107.542  1.00  0.00     0.000 C 
BRANCH  11  12
ATOM     12  C   UNL     1     122.036 112.046 106.787  1.00  0.00     0.000 C 
BRANCH  12  13
ATOM     13  C   UNL     1     120.963 113.148 106.766  1.00  0.00     0.006 C 
BRANCH  13  14
ATOM     14  C   UNL     1     120.973 113.946 105.452  1.00  0.00     0.053 C 
BRANCH  14  15
ATOM     15  C   UNL     1     120.694 115.400 105.676  1.00  0.00     0.041 C 
ATOM     16  O   UNL     1     121.642 116.210 105.855  1.00  0.00    -0.550 OA
ATOM     17  O   UNL     1     119.378 115.856 105.728  1.00  0.00    -0.550 OA
ENDBRANCH  14  15
ENDBRANCH  13  14
ENDBRANCH  12  13
ENDBRANCH  11  12
ENDBRANCH  10  11
ENDBRANCH   9  10
ENDBRANCH   8   9
ENDBRANCH   7   8
ENDBRANCH   6   7
ENDBRANCH   5   6
ENDBRANCH   4   5
ENDBRANCH   3   4
ENDBRANCH   2   3
ENDBRANCH   1   2
BRANCH   1  18
ATOM     18  C   UNL     1     119.803 114.268 113.641  1.00  0.00     0.000 C 
BRANCH  18  19
ATOM     19  C   UNL     1     119.817 114.763 115.098  1.00  0.00     0.000 C 
BRANCH  19  20
ATOM     20  C   UNL     1     118.445 115.215 115.634  1.00  0.00     0.000 C 
BRANCH  20  21
ATOM     21  C   UNL     1     117.666 114.081 116.334  1.00  0.00     0.000 C 
BRANCH  21  22
ATOM     22  C   UNL     1     118.258 113.705 117.704  1.00  0.00     0.000 C 
BRANCH  22  23
ATOM     23  C   UNL     1     118.480 112.196 117.931  1.00  0.00     0.000 C 
BRANCH  23  24
ATOM     24  C   UNL     1     119.965 111.792 118.067  1.00  0.00    -0.000 C 
BRANCH  24  25
ATOM     25  C   UNL     1     120.615 111.452 116.713  1.00  0.00    -0.000 C 
BRANCH  25  26
ATOM     26  C   UNL     1     122.011 112.079 116.538  1.00  0.00    -0.000 C 
BRANCH  26  27
ATOM     27  C   UNL     1     123.148 111.078 116.259  1.00  0.00    -0.000 C 
BRANCH  27  28
ATOM     28  C   UNL     1     123.979 110.744 117.512  1.00  0.00    -0.000 C 
BRANCH  28  29
ATOM     29  C   UNL     1     123.385 109.558 118.304  1.00  0.00    -0.000 C 
BRANCH  29  30
ATOM     30  C   UNL     1     122.867 109.940 119.702  1.00  0.00    -0.000 C 
BRANCH  30  31
ATOM     31  C   UNL     1     123.093 111.417 120.044  1.00  0.00    -0.003 C 
ATOM     32  C   UNL     1     123.237 111.628 121.553  1.00  0.00     0.004 C 
ENDBRANCH  30  31
ENDBRANCH  29  30
ENDBRANCH  28  29
ENDBRANCH  27  28
ENDBRANCH  26  27
ENDBRANCH  25  26
ENDBRANCH  24  25
ENDBRANCH  23  24
ENDBRANCH  22  23
ENDBRANCH  21  22
ENDBRANCH  20  21
ENDBRANCH  19  20
ENDBRANCH  18  19
ENDBRANCH   1  18
TORSDOF 28
ENDMDL
MODEL 2
REMARK VINA RESULT:    -4.334      3.815     10.021
REMARK INTER + INTRA:         -15.567
REMARK INTER:                 -10.552
REMARK INTRA:                  -5.015
REMARK UNBOUND:                -4.140
REMARK SMILES CCCCCCCCCCCCCCCCCCCCCCCCCCCCCC(=O)[O-]
REMARK SMILES IDX 16 1 17 2 18 3 19 4 20 5 21 6 22 7 23 8 24 9 25 10 26 11
REMARK SMILES IDX 27 12 28 13 29 14 30 15 31 16 32 17 15 18 14 19 13 20 12 21
REMARK SMILES IDX 11 22 10 23 9 24 8 25 7 26 6 27 5 28 4 29 3 30 2 31 1 32
REMARK H PARENT
REMARK Flexibility Score: inf
ROOT
ATOM      1  C   UNL     1     119.593 110.005 110.036  1.00  0.00     0.000 C 
ENDROOT
BRANCH   1   2
ATOM      2  C   UNL     1     119.281 110.420 111.490  1.00  0.00     0.000 C 
BRANCH   2   3
ATOM      3  C   UNL     1     120.369 109.985 112.485  1.00  0.00     0.000 C 
BRANCH   3   4
ATOM      4  C   UNL     1     121.748 110.557 112.112  1.00  0.00     0.000 C 
BRANCH   4   5
ATOM      5  C   UNL     1     121.932 111.986 112.647  1.00  0.00     0.000 C 
BRANCH   5   6
ATOM      6  C   UNL     1     121.966 113.035 111.523  1.00  0.00     0.000 C 
BRANCH   6   7
ATOM      7  C   UNL     1     120.650 113.833 111.440  1.00  0.00     0.000 C 
BRANCH   7   8
ATOM      8  C   UNL     1     119.927 113.935 112.795  1.00  0.00     0.000 C 
BRANCH   8   9
ATOM      9  C   UNL     1     120.443 115.095 113.679  1.00  0.00     0.000 C 
BRANCH   9  10
ATOM     10  C   UNL     1     120.551 114.687 115.158  1.00  0.00     0.000 C 
BRANCH  10  11
ATOM     11  C   UNL     1     121.961 114.215 115.540  1.00  0.00     0.000 C 
BRANCH  11  12
ATOM     12  C   UNL     1     121.960 112.869 116.274  1.00  0.00     0.000 C 
BRANCH  12  13
ATOM     13  C   UNL     1     120.667 112.087 115.987  1.00  0.00     0.006 C 
BRANCH  13  14
ATOM     14  C   UNL     1     120.239 111.213 117.177  1.00  0.00     0.053 C 
BRANCH  14  15
ATOM     15  C   UNL     1     119.440 111.986 118.181  1.00  0.00     0.041 C 
ATOM     16  O   UNL     1     118.197 112.121 118.036  1.00  0.00    -0.550 OA
ATOM     17  O   UNL     1     120.079 112.591 119.262  1.00  0.00    -0.550 OA
ENDBRANCH  14  15
ENDBRANCH  13  14
ENDBRANCH  12  13
ENDBRANCH  11  12
ENDBRANCH  10  11
ENDBRANCH   9  10
ENDBRANCH   8   9
ENDBRANCH   7   8
ENDBRANCH   6   7
ENDBRANCH   5   6
ENDBRANCH   4   5
ENDBRANCH   3   4
ENDBRANCH   2   3
ENDBRANCH   1   2
BRANCH   1  18
ATOM     18  C   UNL     1     119.729 111.184 109.057  1.00  0.00     0.000 C 
BRANCH  18  19
ATOM     19  C   UNL     1     120.013 110.798 107.594  1.00  0.00     0.000 C 
BRANCH  19  20
ATOM     20  C   UNL     1     119.903 109.290 107.297  1.00  0.00     0.000 C 
BRANCH  20  21
ATOM     21  C   UNL     1     121.237 108.667 106.835  1.00  0.00     0.000 C 
BRANCH  21  22
ATOM     22  C   UNL     1     122.060 108.081 107.997  1.00  0.00     0.000 C 
BRANCH  22  23
ATOM     23  C   UNL     1     123.484 108.655 108.147  1.00  0.00     0.000 C 
BRANCH  23  24
ATOM     24  C   UNL     1     123.605 109.767 109.212  1.00  0.00    -0.000 C 
BRANCH  24  25
ATOM     25  C   UNL     1     123.463 111.180 108.615  1.00  0.00    -0.000 C 
BRANCH  25  26
ATOM     26  C   UNL     1     124.228 111.357 107.290  1.00  0.00    -0.000 C 
BRANCH  26  27
ATOM     27  C   UNL     1     123.345 111.619 106.056  1.00  0.00    -0.000 C 
BRANCH  27  28
ATOM     28  C   UNL     1     123.072 113.116 105.817  1.00  0.00    -0.000 C 
BRANCH  28  29
ATOM     29  C   UNL     1     121.631 113.372 105.323  1.00  0.00    -0.000 C 
BRANCH  29  30
ATOM     30  C   UNL     1     120.788 114.233 106.281  1.00  0.00    -0.000 C 
BRANCH  30  31
ATOM     31  C   UNL     1     120.443 115.612 105.706  1.00  0.00    -0.003 C 
ATOM     32  C   UNL     1     121.237 115.902 104.430  1.00  0.00     0.004 C 
ENDBRANCH  30  31
ENDBRANCH  29  30
ENDBRANCH  28  29
ENDBRANCH  27  28
ENDBRANCH  26  27
ENDBRANCH  25  26
ENDBRANCH  24  25
ENDBRANCH  23  24
ENDBRANCH  22  23
ENDBRANCH  21  22
ENDBRANCH  20  21
ENDBRANCH  19  20
ENDBRANCH  18  19
ENDBRANCH   1  18
TORSDOF 28
ENDMDL
MODEL 3
REMARK VINA RESULT:    -4.308      1.487      4.259
REMARK INTER + INTRA:         -15.501
REMARK INTER:                 -10.263
REMARK INTRA:                  -5.237
REMARK UNBOUND:                -4.140
REMARK SMILES CCCCCCCCCCCCCCCCCCCCCCCCCCCCCC(=O)[O-]
REMARK SMILES IDX 16 1 17 2 18 3 19 4 20 5 21 6 22 7 23 8 24 9 25 10 26 11
REMARK SMILES IDX 27 12 28 13 29 14 30 15 31 16 32 17 15 18 14 19 13 20 12 21
REMARK SMILES IDX 11 22 10 23 9 24 8 25 7 26 6 27 5 28 4 29 3 30 2 31 1 32
REMARK H PARENT
REMARK Flexibility Score: inf
ROOT
ATOM      1  C   UNL     1     122.303 110.938 113.568  1.00  0.00     0.000 C 
ENDROOT
BRANCH   1   2
ATOM      2  C   UNL     1     120.762 110.848 113.559  1.00  0.00     0.000 C 
BRANCH   2   3
ATOM      3  C   UNL     1     120.217 109.974 112.417  1.00  0.00     0.000 C 
BRANCH   3   4
ATOM      4  C   UNL     1     121.092 110.071 111.155  1.00  0.00     0.000 C 
BRANCH   4   5
ATOM      5  C   UNL     1     120.373 109.497 109.922  1.00  0.00     0.000 C 
BRANCH   5   6
ATOM      6  C   UNL     1     119.718 110.590 109.063  1.00  0.00     0.000 C 
BRANCH   6   7
ATOM      7  C   UNL     1     120.000 110.389 107.561  1.00  0.00     0.000 C 
BRANCH   7   8
ATOM      8  C   UNL     1     121.130 109.377 107.297  1.00  0.00     0.000 C 
BRANCH   8   9
ATOM      9  C   UNL     1     122.422 110.029 106.751  1.00  0.00     0.000 C 
BRANCH   9  10
ATOM     10  C   UNL     1     123.401 110.398 107.878  1.00  0.00     0.000 C 
BRANCH  10  11
ATOM     11  C   UNL     1     123.224 111.842 108.368  1.00  0.00     0.000 C 
BRANCH  11  12
ATOM     12  C   UNL     1     123.066 112.846 107.220  1.00  0.00     0.000 C 
BRANCH  12  13
ATOM     13  C   UNL     1     121.729 113.598 107.327  1.00  0.00     0.006 C 
BRANCH  13  14
ATOM     14  C   UNL     1     121.000 113.683 105.977  1.00  0.00     0.053 C 
BRANCH  14  15
ATOM     15  C   UNL     1     120.808 115.100 105.531  1.00  0.00     0.041 C 
ATOM     16  O   UNL     1     121.766 115.743 105.027  1.00  0.00    -0.550 OA
ATOM     17  O   UNL     1     119.575 115.725 105.709  1.00  0.00    -0.550 OA
ENDBRANCH  14  15
ENDBRANCH  13  14
ENDBRANCH  12  13
ENDBRANCH  11  12
ENDBRANCH  10  11
ENDBRANCH   9  10
ENDBRANCH   8   9
ENDBRANCH   7   8
ENDBRANCH   6   7
ENDBRANCH   5   6
ENDBRANCH   4   5
ENDBRANCH   3   4
ENDBRANCH   2   3
ENDBRANCH   1   2
BRANCH   1  18
ATOM     18  C   UNL     1     122.863 112.129 114.363  1.00  0.00     0.000 C 
BRANCH  18  19
ATOM     19  C   UNL     1     123.278 113.349 113.521  1.00  0.00     0.000 C 
BRANCH  19  20
ATOM     20  C   UNL     1     123.272 113.108 111.999  1.00  0.00     0.000 C 
BRANCH  20  21
ATOM     21  C   UNL     1     122.413 114.134 111.229  1.00  0.00     0.000 C 
BRANCH  21  22
ATOM     22  C   UNL     1     121.009 113.604 110.887  1.00  0.00     0.000 C 
BRANCH  22  23
ATOM     23  C   UNL     1     119.933 113.855 111.962  1.00  0.00     0.000 C 
BRANCH  23  24
ATOM     24  C   UNL     1     119.899 115.305 112.493  1.00  0.00    -0.000 C 
BRANCH  24  25
ATOM     25  C   UNL     1     120.206 115.394 113.999  1.00  0.00    -0.000 C 
BRANCH  25  26
ATOM     26  C   UNL     1     118.964 115.715 114.852  1.00  0.00    -0.000 C 
BRANCH  26  27
ATOM     27  C   UNL     1     118.413 114.534 115.674  1.00  0.00    -0.000 C 
BRANCH  27  28
ATOM     28  C   UNL     1     119.521 113.645 116.270  1.00  0.00    -0.000 C 
BRANCH  28  29
ATOM     29  C   UNL     1     119.086 112.985 117.597  1.00  0.00    -0.000 C 
BRANCH  29  30
ATOM     30  C   UNL     1     119.580 111.536 117.763  1.00  0.00    -0.000 C 
BRANCH  30  31
ATOM     31  C   UNL     1     120.872 111.433 118.583  1.00  0.00    -0.003 C 
ATOM     32  C   UNL     1     122.089 111.200 117.684  1.00  0.00     0.004 C 
ENDBRANCH  30  31
ENDBRANCH  29  30
ENDBRANCH  28  29
ENDBRANCH  27  28
ENDBRANCH  26  27
ENDBRANCH  25  26
ENDBRANCH  24  25
ENDBRANCH  23  24
ENDBRANCH  22  23
ENDBRANCH  21  22
ENDBRANCH  20  21
ENDBRANCH  19  20
ENDBRANCH  18  19
ENDBRANCH   1  18
TORSDOF 28
ENDMDL
MODEL 4
REMARK VINA RESULT:    -4.302      2.005      4.480
REMARK INTER + INTRA:         -15.483
REMARK INTER:                 -10.602
REMARK INTRA:                  -4.881
REMARK UNBOUND:                -4.140
REMARK SMILES CCCCCCCCCCCCCCCCCCCCCCCCCCCCCC(=O)[O-]
REMARK SMILES IDX 16 1 17 2 18 3 19 4 20 5 21 6 22 7 23 8 24 9 25 10 26 11
REMARK SMILES IDX 27 12 28 13 29 14 30 15 31 16 32 17 15 18 14 19 13 20 12 21
REMARK SMILES IDX 11 22 10 23 9 24 8 25 7 26 6 27 5 28 4 29 3 30 2 31 1 32
REMARK H PARENT
REMARK Flexibility Score: inf
ROOT
ATOM      1  C   UNL     1     119.101 110.354 111.325  1.00  0.00     0.000 C 
ENDROOT
BRANCH   1   2
ATOM      2  C   UNL     1     119.487 109.960 109.884  1.00  0.00     0.000 C 
BRANCH   2   3
ATOM      3  C   UNL     1     119.611 111.170 108.943  1.00  0.00     0.000 C 
BRANCH   3   4
ATOM      4  C   UNL     1     120.067 110.755 107.533  1.00  0.00     0.000 C 
BRANCH   4   5
ATOM      5  C   UNL     1     119.950 109.236 107.324  1.00  0.00     0.000 C 
BRANCH   5   6
ATOM      6  C   UNL     1     121.203 108.635 106.668  1.00  0.00     0.000 C 
BRANCH   6   7
ATOM      7  C   UNL     1     122.444 109.525 106.873  1.00  0.00     0.000 C 
BRANCH   7   8
ATOM      8  C   UNL     1     123.424 108.954 107.914  1.00  0.00     0.000 C 
BRANCH   8   9
ATOM      9  C   UNL     1     122.928 109.104 109.371  1.00  0.00     0.000 C 
BRANCH   9  10
ATOM     10  C   UNL     1     124.049 109.568 110.316  1.00  0.00     0.000 C 
BRANCH  10  11
ATOM     11  C   UNL     1     123.765 110.940 110.944  1.00  0.00     0.000 C 
BRANCH  11  12
ATOM     12  C   UNL     1     122.879 111.827 110.061  1.00  0.00     0.000 C 
BRANCH  12  13
ATOM     13  C   UNL     1     123.721 112.574 109.014  1.00  0.00     0.006 C 
BRANCH  13  14
ATOM     14  C   UNL     1     122.863 113.129 107.865  1.00  0.00     0.053 C 
BRANCH  14  15
ATOM     15  C   UNL     1     122.615 114.599 108.009  1.00  0.00     0.041 C 
ATOM     16  O   UNL     1     122.903 115.190 109.083  1.00  0.00    -0.550 OA
ATOM     17  O   UNL     1     122.026 115.311 106.966  1.00  0.00    -0.550 OA
ENDBRANCH  14  15
ENDBRANCH  13  14
ENDBRANCH  12  13
ENDBRANCH  11  12
ENDBRANCH  10  11
ENDBRANCH   9  10
ENDBRANCH   8   9
ENDBRANCH   7   8
ENDBRANCH   6   7
ENDBRANCH   5   6
ENDBRANCH   4   5
ENDBRANCH   3   4
ENDBRANCH   2   3
ENDBRANCH   1   2
BRANCH   1  18
ATOM     18  C   UNL     1     120.296 110.515 112.279  1.00  0.00     0.000 C 
BRANCH  18  19
ATOM     19  C   UNL     1     120.279 111.784 113.150  1.00  0.00     0.000 C 
BRANCH  19  20
ATOM     20  C   UNL     1     120.362 113.105 112.360  1.00  0.00     0.000 C 
BRANCH  20  21
ATOM     21  C   UNL     1     120.662 114.326 113.253  1.00  0.00     0.000 C 
BRANCH  21  22
ATOM     22  C   UNL     1     119.499 115.334 113.301  1.00  0.00     0.000 C 
BRANCH  22  23
ATOM     23  C   UNL     1     118.881 115.557 114.697  1.00  0.00     0.000 C 
BRANCH  23  24
ATOM     24  C   UNL     1     118.603 114.254 115.477  1.00  0.00    -0.000 C 
BRANCH  24  25
ATOM     25  C   UNL     1     117.610 114.455 116.637  1.00  0.00    -0.000 C 
BRANCH  25  26
ATOM     26  C   UNL     1     118.077 113.806 117.953  1.00  0.00    -0.000 C 
BRANCH  26  27
ATOM     27  C   UNL     1     118.323 112.287 117.883  1.00  0.00    -0.000 C 
BRANCH  27  28
ATOM     28  C   UNL     1     119.789 111.901 118.156  1.00  0.00    -0.000 C 
BRANCH  28  29
ATOM     29  C   UNL     1     120.504 111.395 116.884  1.00  0.00    -0.000 C 
BRANCH  29  30
ATOM     30  C   UNL     1     121.665 112.294 116.422  1.00  0.00    -0.000 C 
BRANCH  30  31
ATOM     31  C   UNL     1     122.836 111.505 115.826  1.00  0.00    -0.003 C 
ATOM     32  C   UNL     1     123.518 112.280 114.696  1.00  0.00     0.004 C 
ENDBRANCH  30  31
ENDBRANCH  29  30
ENDBRANCH  28  29
ENDBRANCH  27  28
ENDBRANCH  26  27
ENDBRANCH  25  26
ENDBRANCH  24  25
ENDBRANCH  23  24
ENDBRANCH  22  23
ENDBRANCH  21  22
ENDBRANCH  20  21
ENDBRANCH  19  20
ENDBRANCH  18  19
ENDBRANCH   1  18
TORSDOF 28
ENDMDL
MODEL 5
REMARK VINA RESULT:    -4.290      2.329      4.094
REMARK INTER + INTRA:         -15.452
REMARK INTER:                 -10.392
REMARK INTRA:                  -5.060
REMARK UNBOUND:                -4.140
REMARK SMILES CCCCCCCCCCCCCCCCCCCCCCCCCCCCCC(=O)[O-]
REMARK SMILES IDX 16 1 17 2 18 3 19 4 20 5 21 6 22 7 23 8 24 9 25 10 26 11
REMARK SMILES IDX 27 12 28 13 29 14 30 15 31 16 32 17 15 18 14 19 13 20 12 21
REMARK SMILES IDX 11 22 10 23 9 24 8 25 7 26 6 27 5 28 4 29 3 30 2 31 1 32
REMARK H PARENT
REMARK Flexibility Score: inf
ROOT
ATOM      1  C   UNL     1     123.668 111.117 111.487  1.00  0.00     0.000 C 
ENDROOT
BRANCH   1   2
ATOM      2  C   UNL     1     123.521 111.298 113.013  1.00  0.00     0.000 C 
BRANCH   2   3
ATOM      3  C   UNL     1     122.486 110.345 113.634  1.00  0.00     0.000 C 
BRANCH   3   4
ATOM      4  C   UNL     1     121.045 110.822 113.383  1.00  0.00     0.000 C 
BRANCH   4   5
ATOM      5  C   UNL     1     120.291 109.873 112.438  1.00  0.00     0.000 C 
BRANCH   5   6
ATOM      6  C   UNL     1     119.216 110.598 111.612  1.00  0.00     0.000 C 
BRANCH   6   7
ATOM      7  C   UNL     1     119.271 110.205 110.122  1.00  0.00     0.000 C 
BRANCH   7   8
ATOM      8  C   UNL     1     120.588 109.504 109.738  1.00  0.00     0.000 C 
BRANCH   8   9
ATOM      9  C   UNL     1     120.774 109.343 108.211  1.00  0.00     0.000 C 
BRANCH   9  10
ATOM     10  C   UNL     1     120.087 110.472 107.425  1.00  0.00     0.000 C 
BRANCH  10  11
ATOM     11  C   UNL     1     121.035 111.638 107.110  1.00  0.00     0.000 C 
BRANCH  11  12
ATOM     12  C   UNL     1     122.302 111.192 106.370  1.00  0.00     0.000 C 
BRANCH  12  13
ATOM     13  C   UNL     1     123.564 111.573 107.162  1.00  0.00     0.006 C 
BRANCH  13  14
ATOM     14  C   UNL     1     124.821 111.598 106.277  1.00  0.00     0.053 C 
BRANCH  14  15
ATOM     15  C   UNL     1     124.830 112.775 105.350  1.00  0.00     0.041 C 
ATOM     16  O   UNL     1     125.215 113.902 105.757  1.00  0.00    -0.550 OA
ATOM     17  O   UNL     1     124.374 112.633 104.041  1.00  0.00    -0.550 OA
ENDBRANCH  14  15
ENDBRANCH  13  14
ENDBRANCH  12  13
ENDBRANCH  11  12
ENDBRANCH  10  11
ENDBRANCH   9  10
ENDBRANCH   8   9
ENDBRANCH   7   8
ENDBRANCH   6   7
ENDBRANCH   5   6
ENDBRANCH   4   5
ENDBRANCH   3   4
ENDBRANCH   2   3
ENDBRANCH   1   2
BRANCH   1  18
ATOM     18  C   UNL     1     123.517 112.416 110.678  1.00  0.00     0.000 C 
BRANCH  18  19
ATOM     19  C   UNL     1     122.072 112.912 110.488  1.00  0.00     0.000 C 
BRANCH  19  20
ATOM     20  C   UNL     1     121.677 114.095 111.393  1.00  0.00     0.000 C 
BRANCH  20  21
ATOM     21  C   UNL     1     120.178 114.100 111.759  1.00  0.00     0.000 C 
BRANCH  21  22
ATOM     22  C   UNL     1     119.727 115.416 112.418  1.00  0.00     0.000 C 
BRANCH  22  23
ATOM     23  C   UNL     1     119.170 115.275 113.850  1.00  0.00     0.000 C 
BRANCH  23  24
ATOM     24  C   UNL     1     119.689 114.034 114.608  1.00  0.00    -0.000 C 
BRANCH  24  25
ATOM     25  C   UNL     1     120.750 114.383 115.667  1.00  0.00    -0.000 C 
BRANCH  25  26
ATOM     26  C   UNL     1     121.978 113.454 115.625  1.00  0.00    -0.000 C 
BRANCH  26  27
ATOM     27  C   UNL     1     122.041 112.404 116.751  1.00  0.00    -0.000 C 
BRANCH  27  28
ATOM     28  C   UNL     1     120.773 111.535 116.838  1.00  0.00    -0.000 C 
BRANCH  28  29
ATOM     29  C   UNL     1     120.023 111.733 118.173  1.00  0.00    -0.000 C 
BRANCH  29  30
ATOM     30  C   UNL     1     118.524 112.043 118.006  1.00  0.00    -0.000 C 
BRANCH  30  31
ATOM     31  C   UNL     1     118.228 113.545 117.917  1.00  0.00    -0.003 C 
ATOM     32  C   UNL     1     116.936 113.817 117.143  1.00  0.00     0.004 C 
ENDBRANCH  30  31
ENDBRANCH  29  30
ENDBRANCH  28  29
ENDBRANCH  27  28
ENDBRANCH  26  27
ENDBRANCH  25  26
ENDBRANCH  24  25
ENDBRANCH  23  24
ENDBRANCH  22  23
ENDBRANCH  21  22
ENDBRANCH  20  21
ENDBRANCH  19  20
ENDBRANCH  18  19
ENDBRANCH   1  18
TORSDOF 28
ENDMDL
MODEL 6
REMARK VINA RESULT:    -4.281      3.316      8.631
REMARK INTER + INTRA:         -15.429
REMARK INTER:                 -10.232
REMARK INTRA:                  -5.197
REMARK UNBOUND:                -4.140
REMARK SMILES CCCCCCCCCCCCCCCCCCCCCCCCCCCCCC(=O)[O-]
REMARK SMILES IDX 16 1 17 2 18 3 19 4 20 5 21 6 22 7 23 8 24 9 25 10 26 11
REMARK SMILES IDX 27 12 28 13 29 14 30 15 31 16 32 17 15 18 14 19 13 20 12 21
REMARK SMILES IDX 11 22 10 23 9 24 8 25 7 26 6 27 5 28 4 29 3 30 2 31 1 32
REMARK H PARENT
REMARK Flexibility Score: inf
ROOT
ATOM      1  C   UNL     1     121.274 114.701 112.688  1.00  0.00     0.000 C 
ENDROOT
BRANCH   1   2
ATOM      2  C   UNL     1     120.906 116.198 112.591  1.00  0.00     0.000 C 
BRANCH   2   3
ATOM      3  C   UNL     1     119.495 116.505 113.120  1.00  0.00     0.000 C 
BRANCH   3   4
ATOM      4  C   UNL     1     119.479 116.667 114.650  1.00  0.00     0.000 C 
BRANCH   4   5
ATOM      5  C   UNL     1     118.196 116.087 115.268  1.00  0.00     0.000 C 
BRANCH   5   6
ATOM      6  C   UNL     1     118.330 114.595 115.610  1.00  0.00     0.000 C 
BRANCH   6   7
ATOM      7  C   UNL     1     117.559 114.226 116.892  1.00  0.00     0.000 C 
BRANCH   7   8
ATOM      8  C   UNL     1     118.329 113.241 117.790  1.00  0.00     0.000 C 
BRANCH   8   9
ATOM      9  C   UNL     1     119.657 112.752 117.166  1.00  0.00     0.000 C 
BRANCH   9  10
ATOM     10  C   UNL     1     120.749 112.540 118.228  1.00  0.00     0.000 C 
BRANCH  10  11
ATOM     11  C   UNL     1     122.118 113.076 117.784  1.00  0.00     0.000 C 
BRANCH  11  12
ATOM     12  C   UNL     1     122.157 113.455 116.299  1.00  0.00     0.000 C 
BRANCH  12  13
ATOM     13  C   UNL     1     123.195 112.610 115.543  1.00  0.00     0.006 C 
BRANCH  13  14
ATOM     14  C   UNL     1     123.186 111.140 115.990  1.00  0.00     0.053 C 
BRANCH  14  15
ATOM     15  C   UNL     1     124.218 110.328 115.269  1.00  0.00     0.041 C 
ATOM     16  O   UNL     1     125.006 109.585 115.912  1.00  0.00    -0.550 OA
ATOM     17  O   UNL     1     124.336 110.423 113.884  1.00  0.00    -0.550 OA
ENDBRANCH  14  15
ENDBRANCH  13  14
ENDBRANCH  12  13
ENDBRANCH  11  12
ENDBRANCH  10  11
ENDBRANCH   9  10
ENDBRANCH   8   9
ENDBRANCH   7   8
ENDBRANCH   6   7
ENDBRANCH   5   6
ENDBRANCH   4   5
ENDBRANCH   3   4
ENDBRANCH   2   3
ENDBRANCH   1   2
BRANCH   1  18
ATOM     18  C   UNL     1     120.157 113.745 112.235  1.00  0.00     0.000 C 
BRANCH  18  19
ATOM     19  C   UNL     1     120.012 112.458 113.068  1.00  0.00     0.000 C 
BRANCH  19  20
ATOM     20  C   UNL     1     121.136 111.426 112.852  1.00  0.00     0.000 C 
BRANCH  20  21
ATOM     21  C   UNL     1     120.613 110.055 112.374  1.00  0.00     0.000 C 
BRANCH  21  22
ATOM     22  C   UNL     1     119.261 110.151 111.643  1.00  0.00     0.000 C 
BRANCH  22  23
ATOM     23  C   UNL     1     119.342 110.090 110.104  1.00  0.00     0.000 C 
BRANCH  23  24
ATOM     24  C   UNL     1     119.347 111.473 109.418  1.00  0.00    -0.000 C 
BRANCH  24  25
ATOM     25  C   UNL     1     120.576 111.686 108.515  1.00  0.00    -0.000 C 
BRANCH  25  26
ATOM     26  C   UNL     1     121.877 111.914 109.308  1.00  0.00    -0.000 C 
BRANCH  26  27
ATOM     27  C   UNL     1     123.078 111.064 108.852  1.00  0.00    -0.000 C 
BRANCH  27  28
ATOM     28  C   UNL     1     123.375 109.883 109.796  1.00  0.00    -0.000 C 
BRANCH  28  29
ATOM     29  C   UNL     1     123.298 108.523 109.068  1.00  0.00    -0.000 C 
BRANCH  29  30
ATOM     30  C   UNL     1     121.871 108.113 108.662  1.00  0.00    -0.000 C 
BRANCH  30  31
ATOM     31  C   UNL     1     121.640 108.163 107.147  1.00  0.00    -0.003 C 
ATOM     32  C   UNL     1     120.180 108.478 106.813  1.00  0.00     0.004 C 
ENDBRANCH  30  31
ENDBRANCH  29  30
ENDBRANCH  28  29
ENDBRANCH  27  28
ENDBRANCH  26  27
ENDBRANCH  25  26
ENDBRANCH  24  25
ENDBRANCH  23  24
ENDBRANCH  22  23
ENDBRANCH  21  22
ENDBRANCH  20  21
ENDBRANCH  19  20
ENDBRANCH  18  19
ENDBRANCH   1  18
TORSDOF 28
ENDMDL
MODEL 7
REMARK VINA RESULT:    -4.250      3.932      8.217
REMARK INTER + INTRA:         -15.346
REMARK INTER:                  -9.279
REMARK INTRA:                  -6.067
REMARK UNBOUND:                -4.140
REMARK SMILES CCCCCCCCCCCCCCCCCCCCCCCCCCCCCC(=O)[O-]
REMARK SMILES IDX 16 1 17 2 18 3 19 4 20 5 21 6 22 7 23 8 24 9 25 10 26 11
REMARK SMILES IDX 27 12 28 13 29 14 30 15 31 16 32 17 15 18 14 19 13 20 12 21
REMARK SMILES IDX 11 22 10 23 9 24 8 25 7 26 6 27 5 28 4 29 3 30 2 31 1 32
REMARK H PARENT
REMARK Flexibility Score: inf
ROOT
ATOM      1  C   UNL     1     122.853 109.013 109.575  1.00  0.00     0.000 C 
ENDROOT
BRANCH   1   2
ATOM      2  C   UNL     1     123.913 109.703 108.690  1.00  0.00     0.000 C 
BRANCH   2   3
ATOM      3  C   UNL     1     123.825 111.237 108.732  1.00  0.00     0.000 C 
BRANCH   3   4
ATOM      4  C   UNL     1     123.055 111.733 109.968  1.00  0.00     0.000 C 
BRANCH   4   5
ATOM      5  C   UNL     1     123.695 112.999 110.563  1.00  0.00     0.000 C 
BRANCH   5   6
ATOM      6  C   UNL     1     122.652 114.063 110.940  1.00  0.00     0.000 C 
BRANCH   6   7
ATOM      7  C   UNL     1     121.219 113.613 110.594  1.00  0.00     0.000 C 
BRANCH   7   8
ATOM      8  C   UNL     1     120.179 114.081 111.628  1.00  0.00     0.000 C 
BRANCH   8   9
ATOM      9  C   UNL     1     120.658 115.280 112.480  1.00  0.00     0.000 C 
BRANCH   9  10
ATOM     10  C   UNL     1     119.534 115.843 113.366  1.00  0.00     0.000 C 
BRANCH  10  11
ATOM     11  C   UNL     1     119.096 114.862 114.462  1.00  0.00     0.000 C 
BRANCH  11  12
ATOM     12  C   UNL     1     120.228 114.510 115.434  1.00  0.00     0.000 C 
BRANCH  12  13
ATOM     13  C   UNL     1     119.907 113.220 116.208  1.00  0.00     0.006 C 
BRANCH  13  14
ATOM     14  C   UNL     1     121.110 112.713 117.019  1.00  0.00     0.053 C 
BRANCH  14  15
ATOM     15  C   UNL     1     120.730 111.607 117.955  1.00  0.00     0.041 C 
ATOM     16  O   UNL     1     120.064 110.623 117.539  1.00  0.00    -0.550 OA
ATOM     17  O   UNL     1     121.080 111.684 119.301  1.00  0.00    -0.550 OA
ENDBRANCH  14  15
ENDBRANCH  13  14
ENDBRANCH  12  13
ENDBRANCH  11  12
ENDBRANCH  10  11
ENDBRANCH   9  10
ENDBRANCH   8   9
ENDBRANCH   7   8
ENDBRANCH   6   7
ENDBRANCH   5   6
ENDBRANCH   4   5
ENDBRANCH   3   4
ENDBRANCH   2   3
ENDBRANCH   1   2
BRANCH   1  18
ATOM     18  C   UNL     1     121.999 107.966 108.840  1.00  0.00     0.000 C 
BRANCH  18  19
ATOM     19  C   UNL     1     122.166 107.933 107.310  1.00  0.00     0.000 C 
BRANCH  19  20
ATOM     20  C   UNL     1     121.158 108.806 106.537  1.00  0.00     0.000 C 
BRANCH  20  21
ATOM     21  C   UNL     1     119.990 109.301 107.415  1.00  0.00     0.000 C 
BRANCH  21  22
ATOM     22  C   UNL     1     120.051 110.813 107.697  1.00  0.00     0.000 C 
BRANCH  22  23
ATOM     23  C   UNL     1     119.479 111.249 109.062  1.00  0.00     0.000 C 
BRANCH  23  24
ATOM     24  C   UNL     1     119.244 110.083 110.047  1.00  0.00    -0.000 C 
BRANCH  24  25
ATOM     25  C   UNL     1     119.271 110.534 111.519  1.00  0.00    -0.000 C 
BRANCH  25  26
ATOM     26  C   UNL     1     120.492 110.001 112.293  1.00  0.00    -0.000 C 
BRANCH  26  27
ATOM     27  C   UNL     1     120.788 110.720 113.622  1.00  0.00    -0.000 C 
BRANCH  27  28
ATOM     28  C   UNL     1     122.053 111.598 113.565  1.00  0.00    -0.000 C 
BRANCH  28  29
ATOM     29  C   UNL     1     123.237 110.962 114.324  1.00  0.00    -0.000 C 
BRANCH  29  30
ATOM     30  C   UNL     1     124.570 111.014 113.556  1.00  0.00    -0.000 C 
BRANCH  30  31
ATOM     31  C   UNL     1     124.801 109.785 112.669  1.00  0.00    -0.003 C 
ATOM     32  C   UNL     1     126.017 109.971 111.758  1.00  0.00     0.004 C 
ENDBRANCH  30  31
ENDBRANCH  29  30
ENDBRANCH  28  29
ENDBRANCH  27  28
ENDBRANCH  26  27
ENDBRANCH  25  26
ENDBRANCH  24  25
ENDBRANCH  23  24
ENDBRANCH  22  23
ENDBRANCH  21  22
ENDBRANCH  20  21
ENDBRANCH  19  20
ENDBRANCH  18  19
ENDBRANCH   1  18
TORSDOF 28
ENDMDL
MODEL 8
REMARK VINA RESULT:    -4.202      3.714      9.662
REMARK INTER + INTRA:         -15.219
REMARK INTER:                 -10.664
REMARK INTRA:                  -4.555
REMARK UNBOUND:                -4.140
REMARK SMILES CCCCCCCCCCCCCCCCCCCCCCCCCCCCCC(=O)[O-]
REMARK SMILES IDX 16 1 17 2 18 3 19 4 20 5 21 6 22 7 23 8 24 9 25 10 26 11
REMARK SMILES IDX 27 12 28 13 29 14 30 15 31 16 32 17 15 18 14 19 13 20 12 21
REMARK SMILES IDX 11 22 10 23 9 24 8 25 7 26 6 27 5 28 4 29 3 30 2 31 1 32
REMARK H PARENT
REMARK Flexibility Score: inf
ROOT
ATOM      1  C   UNL     1     123.856 111.056 111.503  1.00  0.00     0.000 C 
ENDROOT
BRANCH   1   2
ATOM      2  C   UNL     1     123.378 112.518 111.367  1.00  0.00     0.000 C 
BRANCH   2   3
ATOM      3  C   UNL     1     122.574 112.770 110.080  1.00  0.00     0.000 C 
BRANCH   3   4
ATOM      4  C   UNL     1     121.165 113.310 110.382  1.00  0.00     0.000 C 
BRANCH   4   5
ATOM      5  C   UNL     1     121.191 114.367 111.498  1.00  0.00     0.000 C 
BRANCH   5   6
ATOM      6  C   UNL     1     119.988 114.249 112.447  1.00  0.00     0.000 C 
BRANCH   6   7
ATOM      7  C   UNL     1     119.606 115.608 113.065  1.00  0.00     0.000 C 
BRANCH   7   8
ATOM      8  C   UNL     1     118.931 115.470 114.442  1.00  0.00     0.000 C 
BRANCH   8   9
ATOM      9  C   UNL     1     119.872 114.907 115.533  1.00  0.00     0.000 C 
BRANCH   9  10
ATOM     10  C   UNL     1     119.537 113.449 115.885  1.00  0.00     0.000 C 
BRANCH  10  11
ATOM     11  C   UNL     1     120.360 112.922 117.070  1.00  0.00     0.000 C 
BRANCH  11  12
ATOM     12  C   UNL     1     120.034 111.466 117.421  1.00  0.00     0.000 C 
BRANCH  12  13
ATOM     13  C   UNL     1     121.220 110.794 118.133  1.00  0.00     0.006 C 
BRANCH  13  14
ATOM     14  C   UNL     1     122.564 111.120 117.462  1.00  0.00     0.053 C 
BRANCH  14  15
ATOM     15  C   UNL     1     123.582 111.601 118.449  1.00  0.00     0.041 C 
ATOM     16  O   UNL     1     123.566 112.794 118.849  1.00  0.00    -0.550 OA
ATOM     17  O   UNL     1     124.578 110.735 118.899  1.00  0.00    -0.550 OA
ENDBRANCH  14  15
ENDBRANCH  13  14
ENDBRANCH  12  13
ENDBRANCH  11  12
ENDBRANCH  10  11
ENDBRANCH   9  10
ENDBRANCH   8   9
ENDBRANCH   7   8
ENDBRANCH   6   7
ENDBRANCH   5   6
ENDBRANCH   4   5
ENDBRANCH   3   4
ENDBRANCH   2   3
ENDBRANCH   1   2
BRANCH   1  18
ATOM     18  C   UNL     1     123.206 110.283 112.663  1.00  0.00     0.000 C 
BRANCH  18  19
ATOM     19  C   UNL     1     122.379 111.135 113.643  1.00  0.00     0.000 C 
BRANCH  19  20
ATOM     20  C   UNL     1     120.869 110.828 113.642  1.00  0.00     0.000 C 
BRANCH  20  21
ATOM     21  C   UNL     1     120.426 109.980 112.432  1.00  0.00     0.000 C 
BRANCH  21  22
ATOM     22  C   UNL     1     119.133 110.499 111.777  1.00  0.00     0.000 C 
BRANCH  22  23
ATOM     23  C   UNL     1     119.067 110.345 110.244  1.00  0.00     0.000 C 
BRANCH  23  24
ATOM     24  C   UNL     1     120.355 109.770 109.613  1.00  0.00    -0.000 C 
BRANCH  24  25
ATOM     25  C   UNL     1     120.198 109.464 108.112  1.00  0.00    -0.000 C 
BRANCH  25  26
ATOM     26  C   UNL     1     121.512 109.614 107.323  1.00  0.00    -0.000 C 
BRANCH  26  27
ATOM     27  C   UNL     1     121.913 111.064 106.990  1.00  0.00    -0.000 C 
BRANCH  27  28
ATOM     28  C   UNL     1     120.708 112.021 106.917  1.00  0.00    -0.000 C 
BRANCH  28  29
ATOM     29  C   UNL     1     121.143 113.488 106.704  1.00  0.00    -0.000 C 
BRANCH  29  30
ATOM     30  C   UNL     1     120.754 114.059 105.328  1.00  0.00    -0.000 C 
BRANCH  30  31
ATOM     31  C   UNL     1     121.548 115.316 104.953  1.00  0.00    -0.003 C 
ATOM     32  C   UNL     1     120.661 116.563 104.963  1.00  0.00     0.004 C 
ENDBRANCH  30  31
ENDBRANCH  29  30
ENDBRANCH  28  29
ENDBRANCH  27  28
ENDBRANCH  26  27
ENDBRANCH  25  26
ENDBRANCH  24  25
ENDBRANCH  23  24
ENDBRANCH  22  23
ENDBRANCH  21  22
ENDBRANCH  20  21
ENDBRANCH  19  20
ENDBRANCH  18  19
ENDBRANCH   1  18
TORSDOF 28
ENDMDL
MODEL 9
REMARK VINA RESULT:    -4.189      3.696      9.201
REMARK INTER + INTRA:         -15.185
REMARK INTER:                  -9.972
REMARK INTRA:                  -5.213
REMARK UNBOUND:                -4.140
REMARK SMILES CCCCCCCCCCCCCCCCCCCCCCCCCCCCCC(=O)[O-]
REMARK SMILES IDX 16 1 17 2 18 3 19 4 20 5 21 6 22 7 23 8 24 9 25 10 26 11
REMARK SMILES IDX 27 12 28 13 29 14 30 15 31 16 32 17 15 18 14 19 13 20 12 21
REMARK SMILES IDX 11 22 10 23 9 24 8 25 7 26 6 27 5 28 4 29 3 30 2 31 1 32
REMARK H PARENT
REMARK Flexibility Score: inf
ROOT
ATOM      1  C   UNL     1     122.518 115.048 114.336  1.00  0.00     0.000 C 
ENDROOT
BRANCH   1   2
ATOM      2  C   UNL     1     121.329 115.218 115.306  1.00  0.00     0.000 C 
BRANCH   2   3
ATOM      3  C   UNL     1     120.247 116.169 114.769  1.00  0.00     0.000 C 
BRANCH   3   4
ATOM      4  C   UNL     1     118.846 115.536 114.828  1.00  0.00     0.000 C 
BRANCH   4   5
ATOM      5  C   UNL     1     118.864 114.190 115.572  1.00  0.00     0.000 C 
BRANCH   5   6
ATOM      6  C   UNL     1     117.958 114.192 116.813  1.00  0.00     0.000 C 
BRANCH   6   7
ATOM      7  C   UNL     1     118.391 113.131 117.844  1.00  0.00     0.000 C 
BRANCH   7   8
ATOM      8  C   UNL     1     119.863 112.711 117.686  1.00  0.00     0.000 C 
BRANCH   8   9
ATOM      9  C   UNL     1     120.053 111.182 117.544  1.00  0.00     0.000 C 
BRANCH   9  10
ATOM     10  C   UNL     1     121.529 110.771 117.673  1.00  0.00     0.000 C 
BRANCH  10  11
ATOM     11  C   UNL     1     121.833 110.064 119.001  1.00  0.00     0.000 C 
BRANCH  11  12
ATOM     12  C   UNL     1     123.205 110.438 119.575  1.00  0.00     0.000 C 
BRANCH  12  13
ATOM     13  C   UNL     1     123.059 111.394 120.770  1.00  0.00     0.006 C 
BRANCH  13  14
ATOM     14  C   UNL     1     122.556 112.783 120.345  1.00  0.00     0.053 C 
BRANCH  14  15
ATOM     15  C   UNL     1     123.543 113.496 119.473  1.00  0.00     0.041 C 
ATOM     16  O   UNL     1     123.250 113.781 118.282  1.00  0.00    -0.550 OA
ATOM     17  O   UNL     1     124.807 113.811 119.968  1.00  0.00    -0.550 OA
ENDBRANCH  14  15
ENDBRANCH  13  14
ENDBRANCH  12  13
ENDBRANCH  11  12
ENDBRANCH  10  11
ENDBRANCH   9  10
ENDBRANCH   8   9
ENDBRANCH   7   8
ENDBRANCH   6   7
ENDBRANCH   5   6
ENDBRANCH   4   5
ENDBRANCH   3   4
ENDBRANCH   2   3
ENDBRANCH   1   2
BRANCH   1  18
ATOM     18  C   UNL     1     122.594 113.666 113.665  1.00  0.00     0.000 C 
BRANCH  18  19
ATOM     19  C   UNL     1     122.131 112.483 114.534  1.00  0.00     0.000 C 
BRANCH  19  20
ATOM     20  C   UNL     1     121.040 111.605 113.891  1.00  0.00     0.000 C 
BRANCH  20  21
ATOM     21  C   UNL     1     120.243 112.339 112.793  1.00  0.00     0.000 C 
BRANCH  21  22
ATOM     22  C   UNL     1     119.666 111.384 111.731  1.00  0.00     0.000 C 
BRANCH  22  23
ATOM     23  C   UNL     1     120.227 109.948 111.766  1.00  0.00     0.000 C 
BRANCH  23  24
ATOM     24  C   UNL     1     120.533 109.358 110.372  1.00  0.00    -0.000 C 
BRANCH  24  25
ATOM     25  C   UNL     1     119.596 109.899 109.278  1.00  0.00    -0.000 C 
BRANCH  25  26
ATOM     26  C   UNL     1     120.325 110.219 107.959  1.00  0.00    -0.000 C 
BRANCH  26  27
ATOM     27  C   UNL     1     120.254 111.691 107.513  1.00  0.00    -0.000 C 
BRANCH  27  28
ATOM     28  C   UNL     1     121.545 112.476 107.814  1.00  0.00    -0.000 C 
BRANCH  28  29
ATOM     29  C   UNL     1     121.403 113.373 109.063  1.00  0.00    -0.000 C 
BRANCH  29  30
ATOM     30  C   UNL     1     122.551 113.215 110.076  1.00  0.00    -0.000 C 
BRANCH  30  31
ATOM     31  C   UNL     1     123.081 111.779 110.167  1.00  0.00    -0.003 C 
ATOM     32  C   UNL     1     124.312 111.691 111.071  1.00  0.00     0.004 C 
ENDBRANCH  30  31
ENDBRANCH  29  30
ENDBRANCH  28  29
ENDBRANCH  27  28
ENDBRANCH  26  27
ENDBRANCH  25  26
ENDBRANCH  24  25
ENDBRANCH  23  24
ENDBRANCH  22  23
ENDBRANCH  21  22
ENDBRANCH  20  21
ENDBRANCH  19  20
ENDBRANCH  18  19
ENDBRANCH   1  18
TORSDOF 28
ENDMDL
