MODEL 1
REMARK VINA RESULT:     0.000      0.000      0.000
REMARK INTER + INTRA:          -0.296
REMARK INTER:                   0.000
REMARK INTRA:                  -0.296
REMARK UNBOUND:                -0.296
REMARK SMILES C=CCc1ccc(O)c(OC)c1
REMARK SMILES IDX 9 1 7 2 6 3 5 4 4 5 12 6 10 7 11 8 8 9 3 11 2 12 1 13
REMARK H PARENT 8 10
REMARK Flexibility Score: inf
ROOT
ATOM      1  C   UNL     1     114.601 109.924 105.964  1.00  0.00     0.160 A 
ATOM      2  C   UNL     1     113.858 109.515 107.087  1.00  0.00     0.157 A 
ATOM      3  C   UNL     1     114.514 109.142 108.263  1.00  0.00     0.050 A 
ATOM      4  C   UNL     1     115.908 109.173 108.337  1.00  0.00     0.008 A 
ATOM      5  C   UNL     1     116.664 109.588 107.231  1.00  0.00    -0.040 A 
ATOM      6  C   UNL     1     116.008 109.954 106.044  1.00  0.00     0.054 A 
ENDROOT
BRANCH   1   7
ATOM      7  O   UNL     1     113.916 110.289 104.794  1.00  0.00    -0.493 OA
ATOM      8  C   UNL     1     113.632 111.631 104.409  1.00  0.00     0.278 C 
ENDBRANCH   1   7
BRANCH   2   9
ATOM      9  O   UNL     1     112.464 109.473 107.052  1.00  0.00    -0.504 OA
ATOM     10  H   UNL     1     111.895 110.301 107.183  1.00  0.00     0.293 HD
ENDBRANCH   2   9
BRANCH   5  11
ATOM     11  C   UNL     1     118.169 109.594 107.297  1.00  0.00     0.062 C 
BRANCH  11  12
ATOM     12  C   UNL     1     118.696 108.217 107.585  1.00  0.00    -0.030 C 
ATOM     13  C   UNL     1     118.692 107.255 106.658  1.00  0.00     0.004 C 
ENDBRANCH  11  12
ENDBRANCH   5  11
TORSDOF 4
ENDMDL
MODEL 2
REMARK VINA RESULT:     0.000      9.866     10.764
REMARK INTER + INTRA:          -0.296
REMARK INTER:                   0.000
REMARK INTRA:                  -0.296
REMARK UNBOUND:                -0.296
REMARK SMILES C=CCc1ccc(O)c(OC)c1
REMARK SMILES IDX 9 1 7 2 6 3 5 4 4 5 12 6 10 7 11 8 8 9 3 11 2 12 1 13
REMARK H PARENT 8 10
REMARK Flexibility Score: inf
ROOT
ATOM      1  C   UNL     1     120.026 119.098 104.511  1.00  0.00     0.160 A 
ATOM      2  C   UNL     1     119.456 117.997 105.178  1.00  0.00     0.157 A 
ATOM      3  C   UNL     1     120.268 117.118 105.900  1.00  0.00     0.050 A 
ATOM      4  C   UNL     1     121.648 117.323 105.968  1.00  0.00     0.008 A 
ATOM      5  C   UNL     1     122.231 118.420 105.319  1.00  0.00    -0.040 A 
ATOM      6  C   UNL     1     121.419 119.300 104.584  1.00  0.00     0.054 A 
ENDROOT
BRANCH   1   7
ATOM      7  O   UNL     1     119.187 119.961 103.789  1.00  0.00    -0.493 OA
ATOM      8  C   UNL     1     118.700 121.208 104.276  1.00  0.00     0.278 C 
ENDBRANCH   1   7
BRANCH   2   9
ATOM      9  O   UNL     1     118.082 117.761 105.133  1.00  0.00    -0.504 OA
ATOM     10  H   UNL     1     117.636 117.057 105.709  1.00  0.00     0.293 HD
ENDBRANCH   2   9
BRANCH   5  11
ATOM     11  C   UNL     1     123.722 118.628 105.366  1.00  0.00     0.062 C 
BRANCH  11  12
ATOM     12  C   UNL     1     124.444 117.448 104.778  1.00  0.00    -0.030 C 
ATOM     13  C   UNL     1     124.468 117.224 103.461  1.00  0.00     0.004 C 
ENDBRANCH  11  12
ENDBRANCH   5  11
TORSDOF 4
ENDMDL
MODEL 3
REMARK VINA RESULT:     0.000      8.392     10.691
REMARK INTER + INTRA:          -0.296
REMARK INTER:                   0.000
REMARK INTRA:                  -0.296
REMARK UNBOUND:                -0.296
REMARK SMILES C=CCc1ccc(O)c(OC)c1
REMARK SMILES IDX 9 1 7 2 6 3 5 4 4 5 12 6 10 7 11 8 8 9 3 11 2 12 1 13
REMARK H PARENT 8 10
REMARK Flexibility Score: inf
ROOT
ATOM      1  C   UNL     1     114.251 120.542 104.648  1.00  0.00     0.160 A 
ATOM      2  C   UNL     1     114.934 120.743 103.434  1.00  0.00     0.157 A 
ATOM      3  C   UNL     1     115.184 119.662 102.584  1.00  0.00     0.050 A 
ATOM      4  C   UNL     1     114.759 118.377 102.929  1.00  0.00     0.008 A 
ATOM      5  C   UNL     1     114.068 118.160 104.130  1.00  0.00    -0.040 A 
ATOM      6  C   UNL     1     113.824 119.243 104.991  1.00  0.00     0.054 A 
ENDROOT
BRANCH   1   7
ATOM      7  O   UNL     1     114.018 121.646 105.484  1.00  0.00    -0.493 OA
ATOM      8  C   UNL     1     112.791 122.367 105.547  1.00  0.00     0.278 C 
ENDBRANCH   1   7
BRANCH   2   9
ATOM      9  O   UNL     1     115.372 122.012 103.055  1.00  0.00    -0.504 OA
ATOM     10  H   UNL     1     116.254 122.396 103.373  1.00  0.00     0.293 HD
ENDBRANCH   2   9
BRANCH   5  11
ATOM     11  C   UNL     1     113.634 116.772 104.519  1.00  0.00     0.062 C 
BRANCH  11  12
ATOM     12  C   UNL     1     114.818 115.854 104.626  1.00  0.00    -0.030 C 
ATOM     13  C   UNL     1     115.674 115.926 105.650  1.00  0.00     0.004 C 
ENDBRANCH  11  12
ENDBRANCH   5  11
TORSDOF 4
ENDMDL
MODEL 4
REMARK VINA RESULT:     0.000      4.223      6.462
REMARK INTER + INTRA:          -0.296
REMARK INTER:                   0.000
REMARK INTRA:                  -0.296
REMARK UNBOUND:                -0.296
REMARK SMILES C=CCc1ccc(O)c(OC)c1
REMARK SMILES IDX 9 1 7 2 6 3 5 4 4 5 12 6 10 7 11 8 8 9 3 11 2 12 1 13
REMARK H PARENT 8 10
REMARK Flexibility Score: inf
ROOT
ATOM      1  C   UNL     1     115.546 114.035 106.056  1.00  0.00     0.160 A 
ATOM      2  C   UNL     1     116.016 112.761 105.685  1.00  0.00     0.157 A 
ATOM      3  C   UNL     1     115.285 111.981 104.784  1.00  0.00     0.050 A 
ATOM      4  C   UNL     1     114.088 112.456 104.243  1.00  0.00     0.008 A 
ATOM      5  C   UNL     1     113.611 113.727 104.595  1.00  0.00    -0.040 A 
ATOM      6  C   UNL     1     114.337 114.509 105.507  1.00  0.00     0.054 A 
ENDROOT
BRANCH   1   7
ATOM      7  O   UNL     1     116.297 114.794 106.967  1.00  0.00    -0.493 OA
ATOM      8  C   UNL     1     117.197 115.837 106.601  1.00  0.00     0.278 C 
ENDBRANCH   1   7
BRANCH   2   9
ATOM      9  O   UNL     1     117.207 112.254 106.202  1.00  0.00    -0.504 OA
ATOM     10  H   UNL     1     117.743 111.540 105.723  1.00  0.00     0.293 HD
ENDBRANCH   2   9
BRANCH   5  11
ATOM     11  C   UNL     1     112.306 114.231 104.037  1.00  0.00     0.062 C 
BRANCH  11  12
ATOM     12  C   UNL     1     111.176 113.316 104.415  1.00  0.00    -0.030 C 
ATOM     13  C   UNL     1     110.687 113.279 105.658  1.00  0.00     0.004 C 
ENDBRANCH  11  12
ENDBRANCH   5  11
TORSDOF 4
ENDMDL
MODEL 5
REMARK VINA RESULT:     0.000      7.157     10.439
REMARK INTER + INTRA:          -0.296
REMARK INTER:                   0.000
REMARK INTRA:                  -0.296
REMARK UNBOUND:                -0.296
REMARK SMILES C=CCc1ccc(O)c(OC)c1
REMARK SMILES IDX 9 1 7 2 6 3 5 4 4 5 12 6 10 7 11 8 8 9 3 11 2 12 1 13
REMARK H PARENT 8 10
REMARK Flexibility Score: inf
ROOT
ATOM      1  C   UNL     1     113.692 117.209 104.909  1.00  0.00     0.160 A 
ATOM      2  C   UNL     1     114.368 118.443 104.942  1.00  0.00     0.157 A 
ATOM      3  C   UNL     1     113.646 119.633 105.073  1.00  0.00     0.050 A 
ATOM      4  C   UNL     1     112.253 119.610 105.173  1.00  0.00     0.008 A 
ATOM      5  C   UNL     1     111.565 118.388 105.152  1.00  0.00    -0.040 A 
ATOM      6  C   UNL     1     112.286 117.191 105.011  1.00  0.00     0.054 A 
ENDROOT
BRANCH   1   7
ATOM      7  O   UNL     1     114.442 116.030 104.772  1.00  0.00    -0.493 OA
ATOM      8  C   UNL     1     114.808 115.176 105.852  1.00  0.00     0.278 C 
ENDBRANCH   1   7
BRANCH   2   9
ATOM      9  O   UNL     1     115.758 118.506 104.847  1.00  0.00    -0.504 OA
ATOM     10  H   UNL     1     116.341 118.776 105.630  1.00  0.00     0.293 HD
ENDBRANCH   2   9
BRANCH   5  11
ATOM     11  C   UNL     1     110.061 118.361 105.230  1.00  0.00     0.062 C 
BRANCH  11  12
ATOM     12  C   UNL     1     109.454 119.125 104.088  1.00  0.00    -0.030 C 
ATOM     13  C   UNL     1     109.446 118.640 102.843  1.00  0.00     0.004 C 
ENDBRANCH  11  12
ENDBRANCH   5  11
TORSDOF 4
ENDMDL
MODEL 6
REMARK VINA RESULT:     0.000      7.135      8.354
REMARK INTER + INTRA:          -0.296
REMARK INTER:                   0.000
REMARK INTRA:                  -0.296
REMARK UNBOUND:                -0.296
REMARK SMILES C=CCc1ccc(O)c(OC)c1
REMARK SMILES IDX 9 1 7 2 6 3 5 4 4 5 12 6 10 7 11 8 8 9 3 11 2 12 1 13
REMARK H PARENT 8 10
REMARK Flexibility Score: inf
ROOT
ATOM      1  C   UNL     1     118.469 110.215 100.792  1.00  0.00     0.160 A 
ATOM      2  C   UNL     1     117.846 110.512  99.566  1.00  0.00     0.157 A 
ATOM      3  C   UNL     1     118.574 111.121  98.540  1.00  0.00     0.050 A 
ATOM      4  C   UNL     1     119.922 111.439  98.721  1.00  0.00     0.008 A 
ATOM      5  C   UNL     1     120.561 111.141  99.933  1.00  0.00    -0.040 A 
ATOM      6  C   UNL     1     119.829 110.537 100.969  1.00  0.00     0.054 A 
ENDROOT
BRANCH   1   7
ATOM      7  O   UNL     1     117.711 109.607 101.806  1.00  0.00    -0.493 OA
ATOM      8  C   UNL     1     117.718 108.211 102.093  1.00  0.00     0.278 C 
ENDBRANCH   1   7
BRANCH   2   9
ATOM      9  O   UNL     1     116.502 110.208  99.347  1.00  0.00    -0.504 OA
ATOM     10  H   UNL     1     115.878 109.949 100.102  1.00  0.00     0.293 HD
ENDBRANCH   2   9
BRANCH   5  11
ATOM     11  C   UNL     1     122.007 111.509 100.143  1.00  0.00     0.062 C 
BRANCH  11  12
ATOM     12  C   UNL     1     122.206 112.991  99.997  1.00  0.00    -0.030 C 
ATOM     13  C   UNL     1     121.801 113.850 100.936  1.00  0.00     0.004 C 
ENDBRANCH  11  12
ENDBRANCH   5  11
TORSDOF 4
ENDMDL
MODEL 7
REMARK VINA RESULT:     0.000      7.076      9.009
REMARK INTER + INTRA:          -0.296
REMARK INTER:                   0.000
REMARK INTRA:                  -0.296
REMARK UNBOUND:                -0.296
REMARK SMILES C=CCc1ccc(O)c(OC)c1
REMARK SMILES IDX 9 1 7 2 6 3 5 4 4 5 12 6 10 7 11 8 8 9 3 11 2 12 1 13
REMARK H PARENT 8 10
REMARK Flexibility Score: inf
ROOT
ATOM      1  C   UNL     1     122.674 112.255 106.175  1.00  0.00     0.160 A 
ATOM      2  C   UNL     1     123.691 113.067 105.640  1.00  0.00     0.157 A 
ATOM      3  C   UNL     1     123.637 114.455 105.804  1.00  0.00     0.050 A 
ATOM      4  C   UNL     1     122.579 115.045 106.499  1.00  0.00     0.008 A 
ATOM      5  C   UNL     1     121.563 114.249 107.047  1.00  0.00    -0.040 A 
ATOM      6  C   UNL     1     121.609 112.856 106.876  1.00  0.00     0.054 A 
ENDROOT
BRANCH   1   7
ATOM      7  O   UNL     1     122.751 110.865 105.991  1.00  0.00    -0.493 OA
ATOM      8  C   UNL     1     123.241 109.947 106.964  1.00  0.00     0.278 C 
ENDBRANCH   1   7
BRANCH   2   9
ATOM      9  O   UNL     1     124.763 112.514 104.941  1.00  0.00    -0.504 OA
ATOM     10  H   UNL     1     124.696 112.257 103.964  1.00  0.00     0.293 HD
ENDBRANCH   2   9
BRANCH   5  11
ATOM     11  C   UNL     1     120.406 114.885 107.772  1.00  0.00     0.062 C 
BRANCH  11  12
ATOM     12  C   UNL     1     119.664 115.827 106.868  1.00  0.00    -0.030 C 
ATOM     13  C   UNL     1     118.869 115.383 105.889  1.00  0.00     0.004 C 
ENDBRANCH  11  12
ENDBRANCH   5  11
TORSDOF 4
ENDMDL
MODEL 8
REMARK VINA RESULT:     0.000      2.815      4.972
REMARK INTER + INTRA:          -0.296
REMARK INTER:                   0.000
REMARK INTRA:                  -0.296
REMARK UNBOUND:                -0.296
REMARK SMILES C=CCc1ccc(O)c(OC)c1
REMARK SMILES IDX 9 1 7 2 6 3 5 4 4 5 12 6 10 7 11 8 8 9 3 11 2 12 1 13
REMARK H PARENT 8 10
REMARK Flexibility Score: inf
ROOT
ATOM      1  C   UNL     1     114.646 111.138 105.939  1.00  0.00     0.160 A 
ATOM      2  C   UNL     1     113.324 111.153 106.421  1.00  0.00     0.157 A 
ATOM      3  C   UNL     1     112.579 112.335 106.386  1.00  0.00     0.050 A 
ATOM      4  C   UNL     1     113.137 113.508 105.872  1.00  0.00     0.008 A 
ATOM      5  C   UNL     1     114.449 113.509 105.378  1.00  0.00    -0.040 A 
ATOM      6  C   UNL     1     115.203 112.325 105.421  1.00  0.00     0.054 A 
ENDROOT
BRANCH   1   7
ATOM      7  O   UNL     1     115.372 109.937 105.991  1.00  0.00    -0.493 OA
ATOM      8  C   UNL     1     115.543 109.048 104.892  1.00  0.00     0.278 C 
ENDBRANCH   1   7
BRANCH   2   9
ATOM      9  O   UNL     1     112.733 110.001 106.940  1.00  0.00    -0.504 OA
ATOM     10  H   UNL     1     112.777 109.768 107.925  1.00  0.00     0.293 HD
ENDBRANCH   2   9
BRANCH   5  11
ATOM     11  C   UNL     1     115.063 114.778 104.851  1.00  0.00     0.062 C 
BRANCH  11  12
ATOM     12  C   UNL     1     115.090 115.839 105.914  1.00  0.00    -0.030 C 
ATOM     13  C   UNL     1     115.950 115.789 106.936  1.00  0.00     0.004 C 
ENDBRANCH  11  12
ENDBRANCH   5  11
TORSDOF 4
ENDMDL
MODEL 9
REMARK VINA RESULT:     0.000      8.262     10.261
REMARK INTER + INTRA:          -0.296
REMARK INTER:                   0.000
REMARK INTRA:                  -0.296
REMARK UNBOUND:                -0.296
REMARK SMILES C=CCc1ccc(O)c(OC)c1
REMARK SMILES IDX 9 1 7 2 6 3 5 4 4 5 12 6 10 7 11 8 8 9 3 11 2 12 1 13
REMARK H PARENT 8 10
REMARK Flexibility Score: inf
ROOT
ATOM      1  C   UNL     1     116.592 116.101  98.198  1.00  0.00     0.160 A 
ATOM      2  C   UNL     1     117.865 115.917  97.629  1.00  0.00     0.157 A 
ATOM      3  C   UNL     1     118.841 115.188  98.315  1.00  0.00     0.050 A 
ATOM      4  C   UNL     1     118.561 114.635  99.567  1.00  0.00     0.008 A 
ATOM      5  C   UNL     1     117.294 114.800 100.145  1.00  0.00    -0.040 A 
ATOM      6  C   UNL     1     116.315 115.540  99.462  1.00  0.00     0.054 A 
ENDROOT
BRANCH   1   7
ATOM      7  O   UNL     1     115.633 116.841  97.488  1.00  0.00    -0.493 OA
ATOM      8  C   UNL     1     114.594 116.270  96.699  1.00  0.00     0.278 C 
ENDBRANCH   1   7
BRANCH   2   9
ATOM      9  O   UNL     1     118.180 116.452  96.380  1.00  0.00    -0.504 OA
ATOM     10  H   UNL     1     119.068 116.275  95.925  1.00  0.00     0.293 HD
ENDBRANCH   2   9
BRANCH   5  11
ATOM     11  C   UNL     1     116.999 114.231 101.507  1.00  0.00     0.062 C 
BRANCH  11  12
ATOM     12  C   UNL     1     117.930 114.804 102.538  1.00  0.00    -0.030 C 
ATOM     13  C   UNL     1     117.802 116.059 102.980  1.00  0.00     0.004 C 
ENDBRANCH  11  12
ENDBRANCH   5  11
TORSDOF 4
ENDMDL
