MODEL 1
REMARK VINA RESULT:    -4.022      0.000      0.000
REMARK INTER + INTRA:          -5.575
REMARK INTER:                  -5.198
REMARK INTRA:                  -0.377
REMARK UNBOUND:                -0.377
REMARK SMILES CO[C@@]1(CO)O[C@@H](CO)[C@H](O)[C@H]1O
REMARK SMILES IDX 3 1 12 2 10 3 7 4 6 5 2 6 1 7 4 8 5 9 13 11 11 13 8 15 9 16
REMARK H PARENT 5 10 13 12 11 14 9 17
REMARK Flexibility Score: inf
ROOT
ATOM      1  C   UNL     1     -19.727  -6.294  17.459  1.00  0.00     0.221 C 
ATOM      2  C   UNL     1     -18.970  -5.167  16.727  1.00  0.00     0.207 C 
ATOM      3  C   UNL     1     -17.544  -5.302  17.223  1.00  0.00     0.180 C 
ATOM      4  C   UNL     1     -17.498  -6.724  17.796  1.00  0.00     0.179 C 
ATOM      5  O   UNL     1     -18.782  -7.312  17.711  1.00  0.00    -0.337 OA
ENDROOT
BRANCH   1   6
ATOM      6  O   UNL     1     -20.749  -6.864  16.641  1.00  0.00    -0.349 OA
ATOM      7  C   UNL     1     -22.043  -6.780  17.212  1.00  0.00     0.198 C 
ENDBRANCH   1   6
BRANCH   1   8
ATOM      8  C   UNL     1     -20.279  -5.815  18.834  1.00  0.00     0.224 C 
BRANCH   8   9
ATOM      9  O   UNL     1     -20.280  -4.414  18.907  1.00  0.00    -0.391 OA
ATOM     10  H   UNL     1     -21.023  -4.098  18.329  1.00  0.00     0.210 HD
ENDBRANCH   8   9
ENDBRANCH   1   8
BRANCH   2  11
ATOM     11  O   UNL     1     -19.021  -5.323  15.326  1.00  0.00    -0.385 OA
ATOM     12  H   UNL     1     -18.094  -5.265  14.973  1.00  0.00     0.211 HD
ENDBRANCH   2  11
BRANCH   3  13
ATOM     13  O   UNL     1     -17.286  -4.369  18.242  1.00  0.00    -0.387 OA
ATOM     14  H   UNL     1     -16.853  -4.868  18.983  1.00  0.00     0.211 HD
ENDBRANCH   3  13
BRANCH   4  15
ATOM     15  C   UNL     1     -16.487  -7.607  17.050  1.00  0.00     0.191 C 
BRANCH  15  16
ATOM     16  O   UNL     1     -15.653  -6.822  16.243  1.00  0.00    -0.394 OA
ATOM     17  H   UNL     1     -16.210  -6.497  15.489  1.00  0.00     0.210 HD
ENDBRANCH  15  16
ENDBRANCH   4  15
TORSDOF 7
ENDMDL
MODEL 2
REMARK VINA RESULT:    -3.862      1.405      4.262
REMARK INTER + INTRA:          -5.368
REMARK INTER:                  -5.033
REMARK INTRA:                  -0.335
REMARK UNBOUND:                -0.377
REMARK SMILES CO[C@@]1(CO)O[C@@H](CO)[C@H](O)[C@H]1O
REMARK SMILES IDX 3 1 12 2 10 3 7 4 6 5 2 6 1 7 4 8 5 9 13 11 11 13 8 15 9 16
REMARK H PARENT 5 10 13 12 11 14 9 17
REMARK Flexibility Score: inf
ROOT
ATOM      1  C   UNL     1     -17.709  -5.473  18.085  1.00  0.00     0.221 C 
ATOM      2  C   UNL     1     -18.419  -5.137  16.757  1.00  0.00     0.207 C 
ATOM      3  C   UNL     1     -19.861  -5.533  17.003  1.00  0.00     0.180 C 
ATOM      4  C   UNL     1     -19.956  -5.604  18.533  1.00  0.00     0.179 C 
ATOM      5  O   UNL     1     -18.684  -5.356  19.100  1.00  0.00    -0.337 OA
ENDROOT
BRANCH   1   6
ATOM      6  O   UNL     1     -16.677  -4.532  18.386  1.00  0.00    -0.349 OA
ATOM      7  C   UNL     1     -15.379  -4.994  18.057  1.00  0.00     0.198 C 
ENDBRANCH   1   6
BRANCH   1   8
ATOM      8  C   UNL     1     -17.186  -6.939  18.103  1.00  0.00     0.224 C 
BRANCH   8   9
ATOM      9  O   UNL     1     -17.271  -7.510  16.824  1.00  0.00    -0.391 OA
ATOM     10  H   UNL     1     -17.949  -6.987  16.322  1.00  0.00     0.210 HD
ENDBRANCH   8   9
ENDBRANCH   1   8
BRANCH   2  11
ATOM     11  O   UNL     1     -18.331  -3.765  16.445  1.00  0.00    -0.385 OA
ATOM     12  H   UNL     1     -19.001  -3.564  15.739  1.00  0.00     0.211 HD
ENDBRANCH   2  11
BRANCH   3  13
ATOM     13  O   UNL     1     -20.127  -6.797  16.450  1.00  0.00    -0.387 OA
ATOM     14  H   UNL     1     -20.743  -6.650  15.685  1.00  0.00     0.211 HD
ENDBRANCH   3  13
BRANCH   4  15
ATOM     15  C   UNL     1     -20.965  -4.590  19.089  1.00  0.00     0.191 C 
BRANCH  15  16
ATOM     16  O   UNL     1     -21.913  -4.254  18.112  1.00  0.00    -0.394 OA
ATOM     17  H   UNL     1     -21.612  -4.678  17.267  1.00  0.00     0.210 HD
ENDBRANCH  15  16
ENDBRANCH   4  15
TORSDOF 7
ENDMDL
MODEL 3
REMARK VINA RESULT:    -3.645      1.657      3.009
REMARK INTER + INTRA:          -5.088
REMARK INTER:                  -4.961
REMARK INTRA:                  -0.127
REMARK UNBOUND:                -0.377
REMARK SMILES CO[C@@]1(CO)O[C@@H](CO)[C@H](O)[C@H]1O
REMARK SMILES IDX 3 1 12 2 10 3 7 4 6 5 2 6 1 7 4 8 5 9 13 11 11 13 8 15 9 16
REMARK H PARENT 5 10 13 12 11 14 9 17
REMARK Flexibility Score: inf
ROOT
ATOM      1  C   UNL     1     -18.255  -5.562  17.543  1.00  0.00     0.221 C 
ATOM      2  C   UNL     1     -17.567  -6.943  17.546  1.00  0.00     0.207 C 
ATOM      3  C   UNL     1     -16.096  -6.619  17.378  1.00  0.00     0.180 C 
ATOM      4  C   UNL     1     -16.011  -5.136  17.762  1.00  0.00     0.179 C 
ATOM      5  O   UNL     1     -17.306  -4.642  18.041  1.00  0.00    -0.337 OA
ENDROOT
BRANCH   1   6
ATOM      6  O   UNL     1     -19.376  -5.527  18.427  1.00  0.00    -0.349 OA
ATOM      7  C   UNL     1     -20.605  -5.835  17.794  1.00  0.00     0.198 C 
ENDBRANCH   1   6
BRANCH   1   8
ATOM      8  C   UNL     1     -18.634  -5.112  16.102  1.00  0.00     0.224 C 
BRANCH   8   9
ATOM      9  O   UNL     1     -18.571  -3.716  15.985  1.00  0.00    -0.391 OA
ATOM     10  H   UNL     1     -19.411  -3.358  16.374  1.00  0.00     0.210 HD
ENDBRANCH   8   9
ENDBRANCH   1   8
BRANCH   2  11
ATOM     11  O   UNL     1     -17.784  -7.637  18.754  1.00  0.00    -0.385 OA
ATOM     12  H   UNL     1     -16.925  -7.667  19.253  1.00  0.00     0.211 HD
ENDBRANCH   2  11
BRANCH   3  13
ATOM     13  O   UNL     1     -15.703  -6.788  16.039  1.00  0.00    -0.387 OA
ATOM     14  H   UNL     1     -15.866  -5.922  15.583  1.00  0.00     0.211 HD
ENDBRANCH   3  13
BRANCH   4  15
ATOM     15  C   UNL     1     -15.110  -4.915  18.985  1.00  0.00     0.191 C 
BRANCH  15  16
ATOM     16  O   UNL     1     -13.796  -4.638  18.583  1.00  0.00    -0.394 OA
ATOM     17  H   UNL     1     -13.458  -5.456  18.134  1.00  0.00     0.210 HD
ENDBRANCH  15  16
ENDBRANCH   4  15
TORSDOF 7
ENDMDL
MODEL 4
REMARK VINA RESULT:    -3.487      1.349      1.695
REMARK INTER + INTRA:          -4.883
REMARK INTER:                  -4.653
REMARK INTRA:                  -0.230
REMARK UNBOUND:                -0.377
REMARK SMILES CO[C@@]1(CO)O[C@@H](CO)[C@H](O)[C@H]1O
REMARK SMILES IDX 3 1 12 2 10 3 7 4 6 5 2 6 1 7 4 8 5 9 13 11 11 13 8 15 9 16
REMARK H PARENT 5 10 13 12 11 14 9 17
REMARK Flexibility Score: inf
ROOT
ATOM      1  C   UNL     1     -19.447  -6.128  18.544  1.00  0.00     0.221 C 
ATOM      2  C   UNL     1     -19.474  -6.139  17.002  1.00  0.00     0.207 C 
ATOM      3  C   UNL     1     -18.246  -5.342  16.609  1.00  0.00     0.180 C 
ATOM      4  C   UNL     1     -17.391  -5.353  17.883  1.00  0.00     0.179 C 
ATOM      5  O   UNL     1     -18.091  -6.014  18.919  1.00  0.00    -0.337 OA
ENDROOT
BRANCH   1   6
ATOM      6  O   UNL     1     -19.931  -7.356  19.091  1.00  0.00    -0.349 OA
ATOM      7  C   UNL     1     -21.344  -7.450  19.106  1.00  0.00     0.198 C 
ENDBRANCH   1   6
BRANCH   1   8
ATOM      8  C   UNL     1     -20.200  -4.895  19.124  1.00  0.00     0.224 C 
BRANCH   8   9
ATOM      9  O   UNL     1     -21.051  -4.336  18.159  1.00  0.00    -0.391 OA
ATOM     10  H   UNL     1     -20.497  -4.167  17.353  1.00  0.00     0.210 HD
ENDBRANCH   8   9
ENDBRANCH   1   8
BRANCH   2  11
ATOM     11  O   UNL     1     -19.400  -7.448  16.483  1.00  0.00    -0.385 OA
ATOM     12  H   UNL     1     -18.643  -7.484  15.840  1.00  0.00     0.211 HD
ENDBRANCH   2  11
BRANCH   3  13
ATOM     13  O   UNL     1     -18.598  -4.021  16.283  1.00  0.00    -0.387 OA
ATOM     14  H   UNL     1     -18.246  -3.850  15.370  1.00  0.00     0.211 HD
ENDBRANCH   3  13
BRANCH   4  15
ATOM     15  C   UNL     1     -16.042  -6.050  17.658  1.00  0.00     0.191 C 
BRANCH  15  16
ATOM     16  O   UNL     1     -15.950  -6.527  16.343  1.00  0.00    -0.394 OA
ATOM     17  H   UNL     1     -16.670  -7.201  16.233  1.00  0.00     0.210 HD
ENDBRANCH  15  16
ENDBRANCH   4  15
TORSDOF 7
ENDMDL
MODEL 5
REMARK VINA RESULT:    -3.400      1.525      3.769
REMARK INTER + INTRA:          -4.771
REMARK INTER:                  -4.581
REMARK INTRA:                  -0.190
REMARK UNBOUND:                -0.377
REMARK SMILES CO[C@@]1(CO)O[C@@H](CO)[C@H](O)[C@H]1O
REMARK SMILES IDX 3 1 12 2 10 3 7 4 6 5 2 6 1 7 4 8 5 9 13 11 11 13 8 15 9 16
REMARK H PARENT 5 10 13 12 11 14 9 17
REMARK Flexibility Score: inf
ROOT
ATOM      1  C   UNL     1     -18.656  -5.365  17.081  1.00  0.00     0.221 C 
ATOM      2  C   UNL     1     -20.063  -5.294  17.711  1.00  0.00     0.207 C 
ATOM      3  C   UNL     1     -20.706  -6.609  17.319  1.00  0.00     0.180 C 
ATOM      4  C   UNL     1     -19.511  -7.489  16.930  1.00  0.00     0.179 C 
ATOM      5  O   UNL     1     -18.318  -6.734  17.012  1.00  0.00    -0.337 OA
ENDROOT
BRANCH   1   6
ATOM      6  O   UNL     1     -17.675  -4.732  17.903  1.00  0.00    -0.349 OA
ATOM      7  C   UNL     1     -16.369  -5.252  17.728  1.00  0.00     0.198 C 
ENDBRANCH   1   6
BRANCH   1   8
ATOM      8  C   UNL     1     -18.649  -4.806  15.628  1.00  0.00     0.224 C 
BRANCH   8   9
ATOM      9  O   UNL     1     -18.664  -3.403  15.637  1.00  0.00    -0.391 OA
ATOM     10  H   UNL     1     -19.308  -3.129  16.341  1.00  0.00     0.210 HD
ENDBRANCH   8   9
ENDBRANCH   1   8
BRANCH   2  11
ATOM     11  O   UNL     1     -20.005  -5.173  19.115  1.00  0.00    -0.385 OA
ATOM     12  H   UNL     1     -20.222  -6.058  19.511  1.00  0.00     0.211 HD
ENDBRANCH   2  11
BRANCH   3  13
ATOM     13  O   UNL     1     -21.550  -6.434  16.208  1.00  0.00    -0.387 OA
ATOM     14  H   UNL     1     -22.012  -7.300  16.062  1.00  0.00     0.211 HD
ENDBRANCH   3  13
BRANCH   4  15
ATOM     15  C   UNL     1     -19.394  -8.723  17.836  1.00  0.00     0.191 C 
BRANCH  15  16
ATOM     16  O   UNL     1     -20.287  -9.721  17.424  1.00  0.00    -0.394 OA
ATOM     17  H   UNL     1     -19.971 -10.571  17.827  1.00  0.00     0.210 HD
ENDBRANCH  15  16
ENDBRANCH   4  15
TORSDOF 7
ENDMDL
MODEL 6
REMARK VINA RESULT:    -3.380      1.642      2.752
REMARK INTER + INTRA:          -4.745
REMARK INTER:                  -4.462
REMARK INTRA:                  -0.283
REMARK UNBOUND:                -0.377
REMARK SMILES CO[C@@]1(CO)O[C@@H](CO)[C@H](O)[C@H]1O
REMARK SMILES IDX 3 1 12 2 10 3 7 4 6 5 2 6 1 7 4 8 5 9 13 11 11 13 8 15 9 16
REMARK H PARENT 5 10 13 12 11 14 9 17
REMARK Flexibility Score: inf
ROOT
ATOM      1  C   UNL     1     -19.403  -6.705  18.342  1.00  0.00     0.221 C 
ATOM      2  C   UNL     1     -19.238  -5.267  18.878  1.00  0.00     0.207 C 
ATOM      3  C   UNL     1     -18.219  -4.645  17.944  1.00  0.00     0.180 C 
ATOM      4  C   UNL     1     -18.244  -5.569  16.720  1.00  0.00     0.179 C 
ATOM      5  O   UNL     1     -19.123  -6.651  16.960  1.00  0.00    -0.337 OA
ENDROOT
BRANCH   1   6
ATOM      6  O   UNL     1     -20.747  -7.170  18.480  1.00  0.00    -0.349 OA
ATOM      7  C   UNL     1     -21.336  -7.566  17.254  1.00  0.00     0.198 C 
ENDBRANCH   1   6
BRANCH   1   8
ATOM      8  C   UNL     1     -18.379  -7.681  18.992  1.00  0.00     0.224 C 
BRANCH   8   9
ATOM      9  O   UNL     1     -18.149  -8.785  18.157  1.00  0.00    -0.391 OA
ATOM     10  H   UNL     1     -19.016  -9.262  18.069  1.00  0.00     0.210 HD
ENDBRANCH   8   9
ENDBRANCH   1   8
BRANCH   2  11
ATOM     11  O   UNL     1     -20.450  -4.548  18.836  1.00  0.00    -0.385 OA
ATOM     12  H   UNL     1     -20.590  -4.231  17.904  1.00  0.00     0.211 HD
ENDBRANCH   2  11
BRANCH   3  13
ATOM     13  O   UNL     1     -16.941  -4.662  18.528  1.00  0.00    -0.387 OA
ATOM     14  H   UNL     1     -16.287  -4.590  17.784  1.00  0.00     0.211 HD
ENDBRANCH   3  13
BRANCH   4  15
ATOM     15  C   UNL     1     -18.691  -4.825  15.453  1.00  0.00     0.191 C 
BRANCH  15  16
ATOM     16  O   UNL     1     -18.656  -3.439  15.661  1.00  0.00    -0.394 OA
ATOM     17  H   UNL     1     -17.933  -3.268  16.319  1.00  0.00     0.210 HD
ENDBRANCH  15  16
ENDBRANCH   4  15
TORSDOF 7
ENDMDL
MODEL 7
REMARK VINA RESULT:    -3.182      6.646      9.444
REMARK INTER + INTRA:          -4.489
REMARK INTER:                  -4.378
REMARK INTRA:                  -0.111
REMARK UNBOUND:                -0.377
REMARK SMILES CO[C@@]1(CO)O[C@@H](CO)[C@H](O)[C@H]1O
REMARK SMILES IDX 3 1 12 2 10 3 7 4 6 5 2 6 1 7 4 8 5 9 13 11 11 13 8 15 9 16
REMARK H PARENT 5 10 13 12 11 14 9 17
REMARK Flexibility Score: inf
ROOT
ATOM      1  C   UNL     1      -9.664  -7.104  15.522  1.00  0.00     0.221 C 
ATOM      2  C   UNL     1      -8.901  -6.863  16.841  1.00  0.00     0.207 C 
ATOM      3  C   UNL     1      -9.684  -5.756  17.519  1.00  0.00     0.180 C 
ATOM      4  C   UNL     1     -11.039  -5.785  16.801  1.00  0.00     0.179 C 
ATOM      5  O   UNL     1     -11.009  -6.751  15.768  1.00  0.00    -0.337 OA
ENDROOT
BRANCH   1   6
ATOM      6  O   UNL     1      -9.654  -8.482  15.148  1.00  0.00    -0.349 OA
ATOM      7  C   UNL     1     -10.917  -9.111  15.275  1.00  0.00     0.198 C 
ENDBRANCH   1   6
BRANCH   1   8
ATOM      8  C   UNL     1      -9.139  -6.186  14.378  1.00  0.00     0.224 C 
BRANCH   8   9
ATOM      9  O   UNL     1      -9.417  -6.749  13.124  1.00  0.00    -0.391 OA
ATOM     10  H   UNL     1      -8.718  -7.435  12.958  1.00  0.00     0.210 HD
ENDBRANCH   8   9
ENDBRANCH   1   8
BRANCH   2  11
ATOM     11  O   UNL     1      -8.875  -8.016  17.652  1.00  0.00    -0.385 OA
ATOM     12  H   UNL     1      -9.143  -8.794  17.093  1.00  0.00     0.211 HD
ENDBRANCH   2  11
BRANCH   3  13
ATOM     13  O   UNL     1      -9.061  -4.513  17.311  1.00  0.00    -0.387 OA
ATOM     14  H   UNL     1      -9.424  -4.151  16.461  1.00  0.00     0.211 HD
ENDBRANCH   3  13
BRANCH   4  15
ATOM     15  C   UNL     1     -12.188  -6.112  17.766  1.00  0.00     0.191 C 
BRANCH  15  16
ATOM     16  O   UNL     1     -13.101  -5.050  17.819  1.00  0.00    -0.394 OA
ATOM     17  H   UNL     1     -12.575  -4.232  18.015  1.00  0.00     0.210 HD
ENDBRANCH  15  16
ENDBRANCH   4  15
TORSDOF 7
ENDMDL
MODEL 8
REMARK VINA RESULT:    -3.063      1.660      2.862
REMARK INTER + INTRA:          -4.335
REMARK INTER:                  -3.969
REMARK INTRA:                  -0.367
REMARK UNBOUND:                -0.377
REMARK SMILES CO[C@@]1(CO)O[C@@H](CO)[C@H](O)[C@H]1O
REMARK SMILES IDX 3 1 12 2 10 3 7 4 6 5 2 6 1 7 4 8 5 9 13 11 11 13 8 15 9 16
REMARK H PARENT 5 10 13 12 11 14 9 17
REMARK Flexibility Score: inf
ROOT
ATOM      1  C   UNL     1     -19.610  -7.327  18.018  1.00  0.00     0.221 C 
ATOM      2  C   UNL     1     -19.981  -6.134  17.112  1.00  0.00     0.207 C 
ATOM      3  C   UNL     1     -19.697  -4.919  17.973  1.00  0.00     0.180 C 
ATOM      4  C   UNL     1     -18.776  -5.466  19.071  1.00  0.00     0.179 C 
ATOM      5  O   UNL     1     -18.614  -6.861  18.904  1.00  0.00    -0.337 OA
ENDROOT
BRANCH   1   6
ATOM      6  O   UNL     1     -19.038  -8.401  17.271  1.00  0.00    -0.349 OA
ATOM      7  C   UNL     1     -17.740  -8.764  17.707  1.00  0.00     0.198 C 
ENDBRANCH   1   6
BRANCH   1   8
ATOM      8  C   UNL     1     -20.821  -7.794  18.878  1.00  0.00     0.224 C 
BRANCH   8   9
ATOM      9  O   UNL     1     -21.231  -9.080  18.498  1.00  0.00    -0.391 OA
ATOM     10  H   UNL     1     -20.613  -9.377  17.780  1.00  0.00     0.210 HD
ENDBRANCH   8   9
ENDBRANCH   1   8
BRANCH   2  11
ATOM     11  O   UNL     1     -19.198  -6.100  15.940  1.00  0.00    -0.385 OA
ATOM     12  H   UNL     1     -18.255  -5.929  16.202  1.00  0.00     0.211 HD
ENDBRANCH   2  11
BRANCH   3  13
ATOM     13  O   UNL     1     -20.885  -4.434  18.547  1.00  0.00    -0.387 OA
ATOM     14  H   UNL     1     -21.634  -4.886  18.077  1.00  0.00     0.211 HD
ENDBRANCH   3  13
BRANCH   4  15
ATOM     15  C   UNL     1     -17.398  -4.789  19.047  1.00  0.00     0.191 C 
BRANCH  15  16
ATOM     16  O   UNL     1     -16.971  -4.591  17.727  1.00  0.00    -0.394 OA
ATOM     17  H   UNL     1     -16.282  -5.281  17.543  1.00  0.00     0.210 HD
ENDBRANCH  15  16
ENDBRANCH   4  15
TORSDOF 7
ENDMDL
